# generated using pymatgen
data_Cu3(Ni7C8)2
_symmetry_space_group_name_H-M   'P 1'
_cell_length_a   8.86049251
_cell_length_b   8.86049251
_cell_length_c   8.86049251
_cell_angle_alpha   129.95781394
_cell_angle_beta   123.56143895
_cell_angle_gamma   78.75210658
_symmetry_Int_Tables_number   1
_chemical_formula_structural   Cu3(Ni7C8)2
_chemical_formula_sum   'Cu3 Ni14 C16'
_cell_volume   430.15430725
_cell_formula_units_Z   1
loop_
 _symmetry_equiv_pos_site_id
 _symmetry_equiv_pos_as_xyz
  1  'x, y, z'
loop_
 _atom_site_type_symbol
 _atom_site_label
 _atom_site_symmetry_multiplicity
 _atom_site_fract_x
 _atom_site_fract_y
 _atom_site_fract_z
 _atom_site_occupancy
  C  C0  1  0.50000000  0.76224400  0.26224400  1
  C  C1  1  0.50000000  0.23775600  0.73775600  1
  Ni  Ni2  1  0.71303600  0.14524900  0.12378100  1
  Ni  Ni3  1  0.97853200  0.85475100  0.56778700  1
  Ni  Ni4  1  0.02146800  0.58925400  0.87621900  1
  Ni  Ni5  1  0.28696400  0.41074600  0.43221300  1
  Ni  Ni6  1  0.02146800  0.14524900  0.43221300  1
  Ni  Ni7  1  0.15867600  0.50000000  0.65867600  1
  Ni  Ni8  1  0.84132400  0.50000000  0.34132400  1
  Ni  Ni9  1  0.41425700  0.76858100  0.64567500  1
  Ni  Ni10  1  0.58574300  0.23141900  0.35432500  1
  Ni  Ni11  1  0.87709400  0.23141900  0.64567500  1
  Ni  Ni12  1  0.12290600  0.76858100  0.35432500  1
  Ni  Ni13  1  0.71303600  0.58925400  0.56778700  1
  Ni  Ni14  1  0.28696400  0.85475100  0.87621900  1
  Ni  Ni15  1  0.97853200  0.41074600  0.12378100  1
  Cu  Cu16  1  0.00000000  0.00000000  0.00000000  1
  Cu  Cu17  1  0.27209100  0.27209100  0.00000000  1
  Cu  Cu18  1  0.72790900  0.72790900  0.00000000  1
  C  C19  1  0.05804300  0.86777600  0.19026800  1
  C  C20  1  0.40166400  0.62414300  0.77752100  1
  C  C21  1  0.84662300  0.62414300  0.22247900  1
  C  C22  1  0.59833600  0.37585700  0.22247900  1
  C  C23  1  0.15337700  0.37585700  0.77752100  1
  C  C24  1  0.75893900  0.06399700  0.30505800  1
  C  C25  1  0.24106100  0.54611900  0.30505800  1
  C  C26  1  0.24106100  0.93600300  0.69494200  1
  C  C27  1  0.75893900  0.45388100  0.69494200  1
  C  C28  1  0.00000000  0.69382300  0.69382300  1
  C  C29  1  0.00000000  0.30617700  0.30617700  1
  C  C30  1  0.67750800  0.86777600  0.80973200  1
  C  C31  1  0.32249200  0.13222400  0.19026800  1
  C  C32  1  0.94195700  0.13222400  0.80973200  1
