# generated using pymatgen
data_Cu5(NiC)2
_symmetry_space_group_name_H-M   'P 1'
_cell_length_a   9.10645726
_cell_length_b   9.10645726
_cell_length_c   10.53948500
_cell_angle_alpha   90.00000000
_cell_angle_beta   90.00000000
_cell_angle_gamma   90.33600349
_symmetry_Int_Tables_number   1
_chemical_formula_structural   Cu5(NiC)2
_chemical_formula_sum   'Cu20 Ni8 C8'
_cell_volume   873.99878612
_cell_formula_units_Z   4
loop_
 _symmetry_equiv_pos_site_id
 _symmetry_equiv_pos_as_xyz
  1  'x, y, z'
loop_
 _atom_site_type_symbol
 _atom_site_label
 _atom_site_symmetry_multiplicity
 _atom_site_fract_x
 _atom_site_fract_y
 _atom_site_fract_z
 _atom_site_occupancy
  C  C0  1  0.90282200  0.42028700  0.25000000  1
  C  C1  1  0.84937800  0.84937800  0.00000000  1
  C  C2  1  0.84937800  0.84937800  0.50000000  1
  C  C3  1  0.15062200  0.15062200  0.00000000  1
  C  C4  1  0.57971300  0.09717800  0.25000000  1
  C  C5  1  0.42028700  0.90282200  0.75000000  1
  C  C6  1  0.09717800  0.57971300  0.75000000  1
  C  C7  1  0.15062200  0.15062200  0.50000000  1
  Ni  Ni8  1  0.68945900  0.58051800  0.75000000  1
  Ni  Ni9  1  0.41948200  0.31054100  0.75000000  1
  Ni  Ni10  1  0.58051800  0.68945900  0.25000000  1
  Ni  Ni11  1  0.25319000  0.74681000  0.08546600  1
  Ni  Ni12  1  0.74681000  0.25319000  0.58546600  1
  Ni  Ni13  1  0.74681000  0.25319000  0.91453400  1
  Ni  Ni14  1  0.31054100  0.41948200  0.25000000  1
  Ni  Ni15  1  0.25319000  0.74681000  0.41453400  1
  Cu  Cu16  1  0.48731000  0.79194100  0.08295700  1
  Cu  Cu17  1  0.79194100  0.48731000  0.91704300  1
  Cu  Cu18  1  0.20805900  0.51269000  0.41704300  1
  Cu  Cu19  1  0.84527500  0.15472500  0.75000000  1
  Cu  Cu20  1  0.16082400  0.83917600  0.57562200  1
  Cu  Cu21  1  0.83917600  0.16082400  0.07562200  1
  Cu  Cu22  1  0.83917600  0.16082400  0.42437800  1
  Cu  Cu23  1  0.16082400  0.83917600  0.92437800  1
  Cu  Cu24  1  0.80362900  0.72875700  0.25000000  1
  Cu  Cu25  1  0.19637100  0.27124300  0.75000000  1
  Cu  Cu26  1  0.72875700  0.80362900  0.75000000  1
  Cu  Cu27  1  0.27124300  0.19637100  0.25000000  1
  Cu  Cu28  1  0.51269000  0.20805900  0.58295700  1
  Cu  Cu29  1  0.20805900  0.51269000  0.08295700  1
  Cu  Cu30  1  0.79194100  0.48731000  0.58295700  1
  Cu  Cu31  1  0.51269000  0.20805900  0.91704300  1
  Cu  Cu32  1  0.48731000  0.79194100  0.41704300  1
  Cu  Cu33  1  0.45641900  0.54358100  0.75000000  1
  Cu  Cu34  1  0.54358100  0.45641900  0.25000000  1
  Cu  Cu35  1  0.15472500  0.84527500  0.25000000  1
