# generated using pymatgen
data_CuNiC16
_symmetry_space_group_name_H-M   'P 1'
_cell_length_a   8.56205882
_cell_length_b   8.56205882
_cell_length_c   7.97734137
_cell_angle_alpha   65.42099244
_cell_angle_beta   65.42099244
_cell_angle_gamma   61.18082065
_symmetry_Int_Tables_number   1
_chemical_formula_structural   CuNiC16
_chemical_formula_sum   'Cu2 Ni2 C32'
_cell_volume   448.59369704
_cell_formula_units_Z   2
loop_
 _symmetry_equiv_pos_site_id
 _symmetry_equiv_pos_as_xyz
  1  'x, y, z'
loop_
 _atom_site_type_symbol
 _atom_site_label
 _atom_site_symmetry_multiplicity
 _atom_site_fract_x
 _atom_site_fract_y
 _atom_site_fract_z
 _atom_site_occupancy
  C  C0  1  0.07113900  0.92886100  0.25000000  1
  C  C1  1  0.92886100  0.07113900  0.75000000  1
  Ni  Ni2  1  0.00000000  0.50000000  0.00000000  1
  Ni  Ni3  1  0.50000000  0.00000000  0.50000000  1
  Cu  Cu4  1  0.60588300  0.39411700  0.75000000  1
  Cu  Cu5  1  0.39411700  0.60588300  0.25000000  1
  C  C6  1  0.26189700  0.13888400  0.82457100  1
  C  C7  1  0.86111600  0.73810300  0.67542900  1
  C  C8  1  0.73810300  0.86111600  0.17542900  1
  C  C9  1  0.13888400  0.26189700  0.32457100  1
  C  C10  1  0.50000000  0.00000000  0.00000000  1
  C  C11  1  0.00000000  0.50000000  0.50000000  1
  C  C12  1  0.27007700  0.48514700  0.13065500  1
  C  C13  1  0.51485300  0.72992300  0.36934500  1
  C  C14  1  0.72992300  0.51485300  0.86934500  1
  C  C15  1  0.48514700  0.27007700  0.63065500  1
  C  C16  1  0.20554100  0.40126900  0.12031600  1
  C  C17  1  0.59873100  0.79445900  0.37968400  1
  C  C18  1  0.79445900  0.59873100  0.87968400  1
  C  C19  1  0.40126900  0.20554100  0.62031600  1
  C  C20  1  0.57331900  0.34263800  0.64613100  1
  C  C21  1  0.65736200  0.42668100  0.85386900  1
  C  C22  1  0.42668100  0.65736200  0.35386900  1
  C  C23  1  0.34263800  0.57331900  0.14613100  1
  C  C24  1  0.21065500  0.01803700  0.77726700  1
  C  C25  1  0.98196300  0.78934500  0.72273300  1
  C  C26  1  0.78934500  0.98196300  0.22273300  1
  C  C27  1  0.01803700  0.21065500  0.27726700  1
  C  C28  1  0.35444000  0.02627800  0.98862900  1
  C  C29  1  0.97372200  0.64556000  0.51137100  1
  C  C30  1  0.64556000  0.97372200  0.01137100  1
  C  C31  1  0.02627800  0.35444000  0.48862900  1
  C  C32  1  0.10481800  0.32204600  0.86427100  1
  C  C33  1  0.67795400  0.89518200  0.63572900  1
  C  C34  1  0.89518200  0.67795400  0.13572900  1
  C  C35  1  0.32204600  0.10481800  0.36427100  1
