# generated using pymatgen
data_CuNi10C7
_symmetry_space_group_name_H-M   'P 1'
_cell_length_a   9.12125026
_cell_length_b   9.12125026
_cell_length_c   9.12125026
_cell_angle_alpha   102.38589694
_cell_angle_beta   102.38589694
_cell_angle_gamma   124.82069767
_symmetry_Int_Tables_number   1
_chemical_formula_structural   CuNi10C7
_chemical_formula_sum   'Cu2 Ni20 C14'
_cell_volume   552.14178303
_cell_formula_units_Z   2
loop_
 _symmetry_equiv_pos_site_id
 _symmetry_equiv_pos_as_xyz
  1  'x, y, z'
loop_
 _atom_site_type_symbol
 _atom_site_label
 _atom_site_symmetry_multiplicity
 _atom_site_fract_x
 _atom_site_fract_y
 _atom_site_fract_z
 _atom_site_occupancy
  C  C0  1  0.31164100  0.30750100  0.61914200  1
  C  C1  1  0.68835900  0.69249900  0.38085800  1
  C  C2  1  0.69249900  0.31164100  0.00414000  1
  C  C3  1  0.30750100  0.68835900  0.99586000  1
  C  C4  1  0.24262300  0.24262300  0.00000000  1
  C  C5  1  0.75737700  0.75737700  0.00000000  1
  C  C6  1  0.87688100  0.18230100  0.67856200  1
  C  C7  1  0.50373900  0.19831800  0.32143800  1
  C  C8  1  0.19831800  0.87688100  0.69458000  1
  C  C9  1  0.18230100  0.50373900  0.30542000  1
  C  C10  1  0.12311900  0.81769900  0.32143800  1
  C  C11  1  0.49626100  0.80168200  0.67856200  1
  C  C12  1  0.80168200  0.12311900  0.30542000  1
  C  C13  1  0.81769900  0.49626100  0.69458000  1
  Ni  Ni14  1  0.68003300  0.96205500  0.64208800  1
  Ni  Ni15  1  0.31996700  0.03794500  0.35791200  1
  Ni  Ni16  1  0.03794500  0.68003300  0.71797800  1
  Ni  Ni17  1  0.96205500  0.31996700  0.28202200  1
  Ni  Ni18  1  0.07433900  0.25744900  0.81571200  1
  Ni  Ni19  1  0.44173600  0.25862700  0.18428800  1
  Ni  Ni20  1  0.25862700  0.07433900  0.81689000  1
  Ni  Ni21  1  0.25744900  0.44173600  0.18311000  1
  Ni  Ni22  1  0.92566100  0.74255100  0.18428800  1
  Ni  Ni23  1  0.55826400  0.74137300  0.81571200  1
  Ni  Ni24  1  0.74137300  0.92566100  0.18311000  1
  Ni  Ni25  1  0.74255100  0.55826400  0.81689000  1
  Ni  Ni26  1  0.89604200  0.16519100  0.50022800  1
  Ni  Ni27  1  0.66496300  0.39581500  0.49977200  1
  Ni  Ni28  1  0.39581500  0.89604200  0.73085100  1
  Ni  Ni29  1  0.16519100  0.66496300  0.26914900  1
  Ni  Ni30  1  0.10395800  0.83480900  0.49977200  1
  Ni  Ni31  1  0.33503700  0.60418500  0.50022800  1
  Ni  Ni32  1  0.60418500  0.10395800  0.26914900  1
  Ni  Ni33  1  0.83480900  0.33503700  0.73085100  1
  Cu  Cu34  1  0.00000000  0.00000000  0.00000000  1
  Cu  Cu35  1  0.50000000  0.50000000  0.00000000  1
