# generated using pymatgen
data_Cu4NiC8
_symmetry_space_group_name_H-M   'P 1'
_cell_length_a   5.99272244
_cell_length_b   5.99272244
_cell_length_c   10.67229300
_cell_angle_alpha   90.00000000
_cell_angle_beta   90.00000000
_cell_angle_gamma   120.00000488
_symmetry_Int_Tables_number   1
_chemical_formula_structural   Cu4NiC8
_chemical_formula_sum   'Cu8 Ni2 C16'
_cell_volume   331.92248800
_cell_formula_units_Z   2
loop_
 _symmetry_equiv_pos_site_id
 _symmetry_equiv_pos_as_xyz
  1  'x, y, z'
loop_
 _atom_site_type_symbol
 _atom_site_label
 _atom_site_symmetry_multiplicity
 _atom_site_fract_x
 _atom_site_fract_y
 _atom_site_fract_z
 _atom_site_occupancy
  C  C0  1  0.66666700  0.33333300  0.47027000  1
  C  C1  1  0.33333300  0.66666700  0.97027000  1
  Ni  Ni2  1  0.66666700  0.33333300  0.86928000  1
  Ni  Ni3  1  0.33333300  0.66666700  0.36928000  1
  Cu  Cu4  1  0.83419000  0.16581000  0.17830300  1
  Cu  Cu5  1  0.66838100  0.83419000  0.67830300  1
  Cu  Cu6  1  0.16581000  0.33161900  0.67830300  1
  Cu  Cu7  1  0.83419000  0.66838100  0.17830300  1
  Cu  Cu8  1  0.33161900  0.16581000  0.17830300  1
  Cu  Cu9  1  0.16581000  0.83419000  0.67830300  1
  Cu  Cu10  1  0.00000000  0.00000000  0.46600800  1
  Cu  Cu11  1  0.00000000  0.00000000  0.96600800  1
  C  C12  1  0.81594400  0.18405600  0.99303000  1
  C  C13  1  0.63188800  0.81594400  0.49303000  1
  C  C14  1  0.18405600  0.36811200  0.49303000  1
  C  C15  1  0.81594400  0.63188800  0.99303000  1
  C  C16  1  0.36811200  0.18405600  0.99303000  1
  C  C17  1  0.18405600  0.81594400  0.49303000  1
  C  C18  1  0.00000000  0.00000000  0.78324200  1
  C  C19  1  0.00000000  0.00000000  0.28324200  1
  C  C20  1  0.49314700  0.50685300  0.27706600  1
  C  C21  1  0.98629500  0.49314700  0.77706600  1
  C  C22  1  0.50685300  0.01370500  0.77706600  1
  C  C23  1  0.49314700  0.98629500  0.27706600  1
  C  C24  1  0.50685300  0.49314700  0.77706600  1
  C  C25  1  0.01370500  0.50685300  0.27706600  1
