# generated using pymatgen
data_CuNiC8
_symmetry_space_group_name_H-M   'P 1'
_cell_length_a   5.93640213
_cell_length_b   5.95565683
_cell_length_c   8.47521588
_cell_angle_alpha   90.11891188
_cell_angle_beta   89.85515620
_cell_angle_gamma   89.21657621
_symmetry_Int_Tables_number   1
_chemical_formula_structural   CuNiC8
_chemical_formula_sum   'Cu2 Ni2 C16'
_cell_volume   299.61309652
_cell_formula_units_Z   2
loop_
 _symmetry_equiv_pos_site_id
 _symmetry_equiv_pos_as_xyz
  1  'x, y, z'
loop_
 _atom_site_type_symbol
 _atom_site_label
 _atom_site_symmetry_multiplicity
 _atom_site_fract_x
 _atom_site_fract_y
 _atom_site_fract_z
 _atom_site_occupancy
  C  C0  1  0.99577256  0.02071115  0.25056633  1
  C  C1  1  0.00422744  0.97928885  0.74943367  1
  Ni  Ni2  1  0.50104431  0.53245808  0.25153835  1
  Ni  Ni3  1  0.49895569  0.46754192  0.74846165  1
  Cu  Cu4  1  0.50000000  -0.00000000  -0.00000000  1
  Cu  Cu5  1  -0.00000000  0.50000000  0.50000000  1
  C  C6  1  -0.00000000  0.50000000  -0.00000000  1
  C  C7  1  0.50000000  -0.00000000  0.50000000  1
  C  C8  1  0.20664928  0.24110051  0.96664697  1
  C  C9  1  0.30145302  0.72541407  0.53882068  1
  C  C10  1  0.79335072  0.75889949  0.03335303  1
  C  C11  1  0.69854698  0.27458593  0.46117932  1
  C  C12  1  0.27163731  0.70136215  0.96120858  1
  C  C13  1  0.24054590  0.20892934  0.52804401  1
  C  C14  1  0.72836269  0.29863785  0.03879142  1
  C  C15  1  0.75945410  0.79107066  0.47195599  1
  C  C16  1  0.44801672  0.97113433  0.26213497  1
  C  C17  1  0.08080008  0.50014265  0.23699699  1
  C  C18  1  0.55198328  0.02886567  0.73786503  1
  C  C19  1  0.91919992  0.49985735  0.76300301  1
