# generated using pymatgen
data_Cu3NiC18
_symmetry_space_group_name_H-M   'P 1'
_cell_length_a   7.33255446
_cell_length_b   7.33255446
_cell_length_c   7.29540348
_cell_angle_alpha   60.78236926
_cell_angle_beta   60.78236926
_cell_angle_gamma   60.99675905
_symmetry_Int_Tables_number   1
_chemical_formula_structural   Cu3NiC18
_chemical_formula_sum   'Cu3 Ni1 C18'
_cell_volume   282.69770113
_cell_formula_units_Z   1
loop_
 _symmetry_equiv_pos_site_id
 _symmetry_equiv_pos_as_xyz
  1  'x, y, z'
loop_
 _atom_site_type_symbol
 _atom_site_label
 _atom_site_symmetry_multiplicity
 _atom_site_fract_x
 _atom_site_fract_y
 _atom_site_fract_z
 _atom_site_occupancy
  Ni  Ni0  1  0.00000000  0.00000000  0.00000000  1
  Cu  Cu1  1  0.00000000  0.00000000  0.50000000  1
  Cu  Cu2  1  0.50000000  0.00000000  0.00000000  1
  Cu  Cu3  1  0.00000000  0.50000000  0.00000000  1
  C  C4  1  0.50000000  0.50000000  0.50000000  1
  C  C5  1  0.50000000  0.50000000  0.00000000  1
  C  C6  1  0.00000000  0.50000000  0.50000000  1
  C  C7  1  0.50000000  0.00000000  0.50000000  1
  C  C8  1  0.57060800  0.57060800  0.18217400  1
  C  C9  1  0.17257900  0.17257900  0.57090500  1
  C  C10  1  0.17625500  0.57701900  0.57649000  1
  C  C11  1  0.56162600  0.17982500  0.17872200  1
  C  C12  1  0.17982500  0.56162600  0.17872200  1
  C  C13  1  0.57701900  0.17625500  0.57649000  1
  C  C14  1  0.42939200  0.42939200  0.81782600  1
  C  C15  1  0.82742100  0.82742100  0.42909500  1
  C  C16  1  0.82374500  0.42298100  0.42351000  1
  C  C17  1  0.43837400  0.82017500  0.82127800  1
  C  C18  1  0.82017500  0.43837400  0.82127800  1
  C  C19  1  0.42298100  0.82374500  0.42351000  1
  C  C20  1  0.86999700  0.86999700  0.87297100  1
  C  C21  1  0.13000300  0.13000300  0.12702900  1
