# generated using pymatgen
data_Cu5(NiC6)2
_symmetry_space_group_name_H-M   'P 1'
_cell_length_a   15.08461600
_cell_length_b   12.53220300
_cell_length_c   14.01437200
_cell_angle_alpha   90.00000000
_cell_angle_beta   90.00000000
_cell_angle_gamma   90.00000000
_symmetry_Int_Tables_number   1
_chemical_formula_structural   Cu5(NiC6)2
_chemical_formula_sum   'Cu40 Ni16 C96'
_cell_volume   2649.32551120
_cell_formula_units_Z   8
loop_
 _symmetry_equiv_pos_site_id
 _symmetry_equiv_pos_as_xyz
  1  'x, y, z'
loop_
 _atom_site_type_symbol
 _atom_site_label
 _atom_site_symmetry_multiplicity
 _atom_site_fract_x
 _atom_site_fract_y
 _atom_site_fract_z
 _atom_site_occupancy
  C  C0  1  0.70589700  0.10165400  0.93655900  1
  C  C1  1  0.79410300  0.39834600  0.43655900  1
  C  C2  1  0.20589700  0.39834600  0.06344100  1
  C  C3  1  0.29410300  0.10165400  0.56344100  1
  C  C4  1  0.29410300  0.89834600  0.06344100  1
  C  C5  1  0.20589700  0.60165400  0.56344100  1
  C  C6  1  0.79410300  0.60165400  0.93655900  1
  C  C7  1  0.70589700  0.89834600  0.43655900  1
  C  C8  1  0.38703500  0.25916100  0.30043800  1
  C  C9  1  0.11296500  0.24083900  0.80043800  1
  C  C10  1  0.88703500  0.24083900  0.69956200  1
  C  C11  1  0.61296500  0.25916100  0.19956200  1
  C  C12  1  0.61296500  0.74083900  0.69956200  1
  C  C13  1  0.88703500  0.75916100  0.19956200  1
  C  C14  1  0.11296500  0.75916100  0.30043800  1
  C  C15  1  0.38703500  0.74083900  0.80043800  1
  C  C16  1  0.48401200  0.29745500  0.35048300  1
  C  C17  1  0.01598800  0.20254500  0.85048300  1
  C  C18  1  0.98401200  0.20254500  0.64951700  1
  C  C19  1  0.51598800  0.29745500  0.14951700  1
  C  C20  1  0.51598800  0.70254500  0.64951700  1
  C  C21  1  0.98401200  0.79745500  0.14951700  1
  C  C22  1  0.01598800  0.79745500  0.35048300  1
  C  C23  1  0.48401200  0.70254500  0.85048300  1
  C  C24  1  0.57758400  0.21911100  0.30845700  1
  C  C25  1  0.92241600  0.28088900  0.80845700  1
  C  C26  1  0.07758400  0.28088900  0.69154300  1
  C  C27  1  0.42241600  0.21911100  0.19154300  1
  C  C28  1  0.42241600  0.78088900  0.69154300  1
  C  C29  1  0.07758400  0.71911100  0.19154300  1
  C  C30  1  0.92241600  0.71911100  0.30845700  1
  C  C31  1  0.57758400  0.78088900  0.80845700  1
  C  C32  1  0.55924300  0.35531600  0.26167600  1
  C  C33  1  0.94075700  0.14468400  0.76167600  1
  C  C34  1  0.05924300  0.14468400  0.73832400  1
  C  C35  1  0.44075700  0.35531600  0.23832400  1
  C  C36  1  0.44075700  0.64468400  0.73832400  1
  C  C37  1  0.05924300  0.85531600  0.23832400  1
  C  C38  1  0.94075700  0.85531600  0.26167600  1
  C  C39  1  0.55924300  0.64468400  0.76167600  1
  C  C40  1  0.46554200  0.16227000  0.30326100  1
  C  C41  1  0.03445800  0.33773000  0.80326100  1
  C  C42  1  0.96554200  0.33773000  0.69673900  1
  C  C43  1  0.53445800  0.16227000  0.19673900  1
  C  C44  1  0.53445800  0.83773000  0.69673900  1
  C  C45  1  0.96554200  0.66227000  0.19673900  1
  C  C46  1  0.03445800  0.66227000  0.30326100  1
  C  C47  1  0.46554200  0.83773000  0.80326100  1
  C  C48  1  0.80174900  0.94626500  0.02653500  1
  C  C49  1  0.69825100  0.55373500  0.52653500  1
  C  C50  1  0.30174900  0.55373500  0.97346500  1
  C  C51  1  0.19825100  0.94626500  0.47346500  1
  C  C52  1  0.19825100  0.05373500  0.97346500  1
  C  C53  1  0.30174900  0.44626500  0.47346500  1
  C  C54  1  0.69825100  0.44626500  0.02653500  1
  C  C55  1  0.80174900  0.05373500  0.52653500  1
  C  C56  1  0.85940300  0.05716500  0.02884100  1
  C  C57  1  0.64059700  0.44283500  0.52884100  1
  C  C58  1  0.35940300  0.44283500  0.97115900  1
  C  C59  1  0.14059700  0.05716500  0.47115900  1
  C  C60  1  0.14059700  0.94283500  0.97115900  1
  C  C61  1  0.35940300  0.55716500  0.47115900  1
  C  C62  1  0.64059700  0.55716500  0.02884100  1
  C  C63  1  0.85940300  0.94283500  0.52884100  1
  C  C64  1  0.77748000  0.03875500  0.10509200  1
  C  C65  1  0.72252000  0.46124500  0.60509200  1
  C  C66  1  0.27748000  0.46124500  0.89490800  1
  C  C67  1  0.22252000  0.03875500  0.39490800  1
  C  C68  1  0.22252000  0.96124500  0.89490800  1
  C  C69  1  0.27748000  0.53875500  0.39490800  1
  C  C70  1  0.72252000  0.53875500  0.10509200  1
  C  C71  1  0.77748000  0.96124500  0.60509200  1
  C  C72  1  0.58859800  0.12022000  0.79122300  1
  C  C73  1  0.91140200  0.37978000  0.29122300  1
  C  C74  1  0.08859800  0.37978000  0.20877700  1
  C  C75  1  0.41140200  0.12022000  0.70877700  1
  C  C76  1  0.41140200  0.87978000  0.20877700  1
  C  C77  1  0.08859800  0.62022000  0.70877700  1
  C  C78  1  0.91140200  0.62022000  0.79122300  1
  C  C79  1  0.58859800  0.87978000  0.29122300  1
  C  C80  1  0.56304700  0.21148400  0.87228700  1
  C  C81  1  0.93695300  0.28851600  0.37228700  1
  C  C82  1  0.06304700  0.28851600  0.12771300  1
  C  C83  1  0.43695300  0.21148400  0.62771300  1
  C  C84  1  0.43695300  0.78851600  0.12771300  1
  C  C85  1  0.06304700  0.71148400  0.62771300  1
  C  C86  1  0.93695300  0.71148400  0.87228700  1
  C  C87  1  0.56304700  0.78851600  0.37228700  1
  C  C88  1  0.64564700  0.23283100  0.79677400  1
  C  C89  1  0.85435300  0.26716900  0.29677400  1
  C  C90  1  0.14564700  0.26716900  0.20322600  1
  C  C91  1  0.35435300  0.23283100  0.70322600  1
  C  C92  1  0.35435300  0.76716900  0.20322600  1
  C  C93  1  0.14564700  0.73283100  0.70322600  1
  C  C94  1  0.85435300  0.73283100  0.79677400  1
  C  C95  1  0.64564700  0.76716900  0.29677400  1
  Ni  Ni96  1  0.79673700  0.02703800  0.03599300  1
  Ni  Ni97  1  0.70326300  0.47296200  0.53599300  1
  Ni  Ni98  1  0.29673700  0.47296200  0.96400700  1
  Ni  Ni99  1  0.20326300  0.02703800  0.46400700  1
  Ni  Ni100  1  0.20326300  0.97296200  0.96400700  1
  Ni  Ni101  1  0.29673700  0.52703800  0.46400700  1
  Ni  Ni102  1  0.70326300  0.52703800  0.03599300  1
  Ni  Ni103  1  0.79673700  0.97296200  0.53599300  1
  Ni  Ni104  1  0.61421900  0.17620300  0.83681700  1
  Ni  Ni105  1  0.88578100  0.32379700  0.33681700  1
  Ni  Ni106  1  0.11421900  0.32379700  0.16318300  1
  Ni  Ni107  1  0.38578100  0.17620300  0.66318300  1
  Ni  Ni108  1  0.38578100  0.82379700  0.16318300  1
  Ni  Ni109  1  0.11421900  0.67620300  0.66318300  1
  Ni  Ni110  1  0.88578100  0.67620300  0.83681700  1
  Ni  Ni111  1  0.61421900  0.82379700  0.33681700  1
  Cu  Cu112  1  0.27768200  0.26144100  0.34906000  1
  Cu  Cu113  1  0.22231800  0.23855900  0.84906000  1
  Cu  Cu114  1  0.77768200  0.23855900  0.65094000  1
  Cu  Cu115  1  0.72231800  0.26144100  0.15094000  1
  Cu  Cu116  1  0.72231800  0.73855900  0.65094000  1
  Cu  Cu117  1  0.77768200  0.76144100  0.15094000  1
  Cu  Cu118  1  0.22231800  0.76144100  0.34906000  1
  Cu  Cu119  1  0.27768200  0.73855900  0.84906000  1
  Cu  Cu120  1  0.48576800  0.34599900  0.47196200  1
  Cu  Cu121  1  0.01423200  0.15400100  0.97196200  1
  Cu  Cu122  1  0.98576800  0.15400100  0.52803800  1
  Cu  Cu123  1  0.51423200  0.34599900  0.02803800  1
  Cu  Cu124  1  0.51423200  0.65400100  0.52803800  1
  Cu  Cu125  1  0.98576800  0.84599900  0.02803800  1
  Cu  Cu126  1  0.01423200  0.84599900  0.47196200  1
  Cu  Cu127  1  0.48576800  0.65400100  0.97196200  1
  Cu  Cu128  1  0.65618900  0.16870100  0.39390600  1
  Cu  Cu129  1  0.84381100  0.33129900  0.89390600  1
  Cu  Cu130  1  0.15618900  0.33129900  0.60609400  1
  Cu  Cu131  1  0.34381100  0.16870100  0.10609400  1
  Cu  Cu132  1  0.34381100  0.83129900  0.60609400  1
  Cu  Cu133  1  0.15618900  0.66870100  0.10609400  1
  Cu  Cu134  1  0.84381100  0.66870100  0.39390600  1
  Cu  Cu135  1  0.65618900  0.83129900  0.89390600  1
  Cu  Cu136  1  0.61423100  0.47987200  0.28711100  1
  Cu  Cu137  1  0.88576900  0.02012800  0.78711100  1
  Cu  Cu138  1  0.11423100  0.02012800  0.71288900  1
  Cu  Cu139  1  0.38576900  0.47987200  0.21288900  1
  Cu  Cu140  1  0.38576900  0.52012800  0.71288900  1
  Cu  Cu141  1  0.11423100  0.97987200  0.21288900  1
  Cu  Cu142  1  0.88576900  0.97987200  0.28711100  1
  Cu  Cu143  1  0.61423100  0.52012800  0.78711100  1
  Cu  Cu144  1  0.44225500  0.03758900  0.36267200  1
  Cu  Cu145  1  0.05774500  0.46241100  0.86267200  1
  Cu  Cu146  1  0.94225500  0.46241100  0.63732800  1
  Cu  Cu147  1  0.55774500  0.03758900  0.13732800  1
  Cu  Cu148  1  0.55774500  0.96241100  0.63732800  1
  Cu  Cu149  1  0.94225500  0.53758900  0.13732800  1
  Cu  Cu150  1  0.05774500  0.53758900  0.36267200  1
  Cu  Cu151  1  0.44225500  0.96241100  0.86267200  1
