# generated using pymatgen
data_CuNi2C7
_symmetry_space_group_name_H-M   'P 1'
_cell_length_a   6.27663001
_cell_length_b   6.26183600
_cell_length_c   8.84038001
_cell_angle_alpha   90.00000000
_cell_angle_beta   90.00513993
_cell_angle_gamma   90.00000000
_symmetry_Int_Tables_number   1
_chemical_formula_structural   CuNi2C7
_chemical_formula_sum   'Cu2 Ni4 C14'
_cell_volume   347.45546733
_cell_formula_units_Z   2
loop_
 _symmetry_equiv_pos_site_id
 _symmetry_equiv_pos_as_xyz
  1  'x, y, z'
loop_
 _atom_site_type_symbol
 _atom_site_label
 _atom_site_symmetry_multiplicity
 _atom_site_fract_x
 _atom_site_fract_y
 _atom_site_fract_z
 _atom_site_occupancy
  Ni  Ni0  1  0.50572800  0.52082900  0.25009700  1
  Ni  Ni1  1  0.99427200  0.02082900  0.24990300  1
  Ni  Ni2  1  0.49427200  0.47917100  0.74990300  1
  Ni  Ni3  1  0.00572800  0.97917100  0.75009700  1
  Cu  Cu4  1  0.50000000  0.00000000  0.00000000  1
  Cu  Cu5  1  0.00000000  0.50000000  0.50000000  1
  C  C6  1  0.50000000  0.00000000  0.50000000  1
  C  C7  1  0.00000000  0.50000000  0.00000000  1
  C  C8  1  0.77504000  0.77843600  0.03832800  1
  C  C9  1  0.72496000  0.27843600  0.46167200  1
  C  C10  1  0.22187600  0.22462700  0.53899700  1
  C  C11  1  0.27812400  0.72462700  0.96100300  1
  C  C12  1  0.22496000  0.22156400  0.96167200  1
  C  C13  1  0.27504000  0.72156400  0.53832800  1
  C  C14  1  0.77812400  0.77537300  0.46100300  1
  C  C15  1  0.72187600  0.27537300  0.03899700  1
  C  C16  1  0.42937300  0.98838600  0.24863300  1
  C  C17  1  0.07062700  0.48838600  0.25136700  1
  C  C18  1  0.57062700  0.01161400  0.75136700  1
  C  C19  1  0.92937300  0.51161400  0.74863300  1
