# generated using pymatgen
data_Cu9Ni6C7
_symmetry_space_group_name_H-M   'P 1'
_cell_length_a   9.77984935
_cell_length_b   23.98276264
_cell_length_c   27.73227876
_cell_angle_alpha   102.41539643
_cell_angle_beta   90.00000000
_cell_angle_gamma   90.00000000
_symmetry_Int_Tables_number   1
_chemical_formula_structural   Cu9Ni6C7
_chemical_formula_sum   'Cu72 Ni48 C56'
_cell_volume   6352.43334525
_cell_formula_units_Z   8
loop_
 _symmetry_equiv_pos_site_id
 _symmetry_equiv_pos_as_xyz
  1  'x, y, z'
loop_
 _atom_site_type_symbol
 _atom_site_label
 _atom_site_symmetry_multiplicity
 _atom_site_fract_x
 _atom_site_fract_y
 _atom_site_fract_z
 _atom_site_occupancy
  C  C0  1  0.77369002  0.85526094  0.31316241  1
  C  C1  1  0.77369002  0.64473906  0.68683759  1
  C  C2  1  0.22630998  0.14473906  0.68683759  1
  C  C3  1  0.22630998  0.35526094  0.31316241  1
  C  C4  1  0.74058240  0.58616937  0.43587256  1
  C  C5  1  0.74058240  0.91383063  0.56412744  1
  C  C6  1  0.25941760  0.41383063  0.56412744  1
  C  C7  1  0.25941760  0.08616937  0.43587256  1
  C  C8  1  0.73784055  0.46237104  0.19363042  1
  C  C9  1  0.73784055  0.03762896  0.80636958  1
  C  C10  1  0.26215945  0.53762896  0.80636958  1
  C  C11  1  0.26215945  0.96237104  0.19363042  1
  C  C12  1  0.23052605  0.59637112  0.04267129  1
  C  C13  1  0.23052605  0.90362888  0.95732871  1
  C  C14  1  0.76947395  0.40362888  0.95732871  1
  C  C15  1  0.76947395  0.09637112  0.04267129  1
  C  C16  1  0.29160828  0.75000000  0.50000000  1
  C  C17  1  0.70839172  0.25000000  0.50000000  1
  C  C18  1  0.04775245  0.84293816  0.43562828  1
  C  C19  1  0.04775245  0.65706184  0.56437172  1
  C  C20  1  0.95224755  0.15706184  0.56437172  1
  C  C21  1  0.95224755  0.34293816  0.43562828  1
  C  C22  1  0.42596335  0.85283093  0.41256053  1
  C  C23  1  0.42596335  0.64716907  0.58743947  1
  C  C24  1  0.57403665  0.14716907  0.58743947  1
  C  C25  1  0.57403665  0.35283093  0.41256053  1
  C  C26  1  0.23483583  0.71268672  0.34609829  1
  C  C27  1  0.23483583  0.78731328  0.65390171  1
  C  C28  1  0.76516417  0.28731328  0.65390171  1
  C  C29  1  0.76516417  0.21268672  0.34609829  1
  C  C30  1  0.08401673  0.54935447  0.30046216  1
  C  C31  1  0.08401673  0.95064553  0.69953784  1
  C  C32  1  0.91598327  0.45064553  0.69953784  1
  C  C33  1  0.91598327  0.04935447  0.30046216  1
  C  C34  1  0.46985292  0.57453209  0.30088913  1
  C  C35  1  0.46985292  0.92546791  0.69911087  1
  C  C36  1  0.53014708  0.42546791  0.69911087  1
  C  C37  1  0.53014708  0.07453209  0.30088913  1
  C  C38  1  0.24133411  0.62727095  0.20128523  1
  C  C39  1  0.24133411  0.87272905  0.79871477  1
  C  C40  1  0.75866589  0.37272905  0.79871477  1
  C  C41  1  0.75866589  0.12727095  0.20128523  1
  C  C42  1  0.79669831  0.75000000  0.00000000  1
  C  C43  1  0.20330169  0.25000000  0.00000000  1
  C  C44  1  0.54820734  0.87843765  0.04065077  1
  C  C45  1  0.54820734  0.62156235  0.95934923  1
  C  C46  1  0.45179266  0.12156235  0.95934923  1
  C  C47  1  0.45179266  0.37843765  0.04065077  1
  C  C48  1  0.92246624  0.90543745  0.06600438  1
  C  C49  1  0.92246624  0.59456255  0.93399562  1
  C  C50  1  0.07753376  0.09456255  0.93399562  1
  C  C51  1  0.07753376  0.40543745  0.06600438  1
  C  C52  1  0.72294681  0.81426012  0.14825995  1
  C  C53  1  0.72294681  0.68573988  0.85174005  1
  C  C54  1  0.27705319  0.18573988  0.85174005  1
  C  C55  1  0.27705319  0.31426012  0.14825995  1
  Ni  Ni56  1  0.26979208  0.86998908  0.49433389  1
  Ni  Ni57  1  0.26979208  0.63001092  0.50566611  1
  Ni  Ni58  1  0.73020792  0.13001092  0.50566611  1
  Ni  Ni59  1  0.73020792  0.36998908  0.49433389  1
  Ni  Ni60  1  0.07597692  0.73048087  0.43490495  1
  Ni  Ni61  1  0.07597692  0.76951913  0.56509505  1
  Ni  Ni62  1  0.92402308  0.26951913  0.56509505  1
  Ni  Ni63  1  0.92402308  0.23048087  0.43490495  1
  Ni  Ni64  1  0.45861083  0.74109943  0.40111010  1
  Ni  Ni65  1  0.45861083  0.75890057  0.59888990  1
  Ni  Ni66  1  0.54138917  0.25890057  0.59888990  1
  Ni  Ni67  1  0.54138917  0.24109943  0.40111010  1
  Ni  Ni68  1  0.20182075  0.84648183  0.35859439  1
  Ni  Ni69  1  0.20182075  0.65351817  0.64140561  1
  Ni  Ni70  1  0.79817925  0.15351817  0.64140561  1
  Ni  Ni71  1  0.79817925  0.34648183  0.35859439  1
  Ni  Ni72  1  0.26508199  0.60730504  0.36930697  1
  Ni  Ni73  1  0.26508199  0.89269496  0.63069303  1
  Ni  Ni74  1  0.73491801  0.39269496  0.63069303  1
  Ni  Ni75  1  0.73491801  0.10730504  0.36930697  1
  Ni  Ni76  1  0.43703849  0.66938351  0.26767122  1
  Ni  Ni77  1  0.43703849  0.83061649  0.73232878  1
  Ni  Ni78  1  0.56296151  0.33061649  0.73232878  1
  Ni  Ni79  1  0.56296151  0.16938351  0.26767122  1
  Ni  Ni80  1  0.03139201  0.63784377  0.26269130  1
  Ni  Ni81  1  0.03139201  0.86215623  0.73730870  1
  Ni  Ni82  1  0.96860799  0.36215623  0.73730870  1
  Ni  Ni83  1  0.96860799  0.13784377  0.26269130  1
  Ni  Ni84  1  0.29218205  0.51063089  0.24317532  1
  Ni  Ni85  1  0.29218205  0.98936911  0.75682468  1
  Ni  Ni86  1  0.70781795  0.48936911  0.75682468  1
  Ni  Ni87  1  0.70781795  0.01063089  0.24317532  1
  Ni  Ni88  1  0.77030316  0.86396191  0.98381230  1
  Ni  Ni89  1  0.77030316  0.63603809  0.01618770  1
  Ni  Ni90  1  0.22969684  0.13603809  0.01618770  1
  Ni  Ni91  1  0.22969684  0.36396191  0.98381230  1
  Ni  Ni92  1  0.57528024  0.77376619  0.06330375  1
  Ni  Ni93  1  0.57528024  0.72623381  0.93669625  1
  Ni  Ni94  1  0.42471976  0.22623381  0.93669625  1
  Ni  Ni95  1  0.42471976  0.27376619  0.06330375  1
  Ni  Ni96  1  0.95028972  0.80860684  0.09701332  1
  Ni  Ni97  1  0.95028972  0.69139316  0.90298668  1
  Ni  Ni98  1  0.04971028  0.19139316  0.90298668  1
  Ni  Ni99  1  0.04971028  0.30860684  0.09701332  1
  Ni  Ni100  1  0.69126144  0.93644283  0.11383098  1
  Ni  Ni101  1  0.69126144  0.56355717  0.88616902  1
  Ni  Ni102  1  0.30873856  0.06355717  0.88616902  1
  Ni  Ni103  1  0.30873856  0.43644283  0.11383098  1
  Cu  Cu104  1  0.19970514  0.72971561  0.19025868  1
  Cu  Cu105  1  0.19970514  0.77028439  0.80974132  1
  Cu  Cu106  1  0.80029486  0.27028439  0.80974132  1
  Cu  Cu107  1  0.80029486  0.22971561  0.19025868  1
  Cu  Cu108  1  0.75262048  0.71226182  0.16157362  1
  Cu  Cu109  1  0.75262048  0.78773818  0.83842638  1
  Cu  Cu110  1  0.24737952  0.28773818  0.83842638  1
  Cu  Cu111  1  0.24737952  0.21226182  0.16157362  1
  Cu  Cu112  1  0.84378536  0.78055875  0.35048942  1
  Cu  Cu113  1  0.84378536  0.71944125  0.64951058  1
  Cu  Cu114  1  0.15621464  0.21944125  0.64951058  1
  Cu  Cu115  1  0.15621464  0.28055875  0.35048942  1
  Cu  Cu116  1  0.54839306  0.83789529  0.28779351  1
  Cu  Cu117  1  0.54839306  0.66210471  0.71220649  1
  Cu  Cu118  1  0.45160694  0.16210471  0.71220649  1
  Cu  Cu119  1  0.45160694  0.33789529  0.28779351  1
  Cu  Cu120  1  0.91426126  0.85627424  0.24570215  1
  Cu  Cu121  1  0.91426126  0.64372576  0.75429785  1
  Cu  Cu122  1  0.08573874  0.14372576  0.75429785  1
  Cu  Cu123  1  0.08573874  0.35627424  0.24570215  1
  Cu  Cu124  1  0.79595255  0.93906983  0.37156211  1
  Cu  Cu125  1  0.79595255  0.56093017  0.62843789  1
  Cu  Cu126  1  0.20404745  0.06093017  0.62843789  1
  Cu  Cu127  1  0.20404745  0.43906983  0.37156211  1
  Cu  Cu128  1  0.68377554  0.66155272  0.50162375  1
  Cu  Cu129  1  0.68377554  0.83844728  0.49837625  1
  Cu  Cu130  1  0.31622446  0.33844728  0.49837625  1
  Cu  Cu131  1  0.31622446  0.16155272  0.50162375  1
  Cu  Cu132  1  0.77865923  0.62406864  0.36593409  1
  Cu  Cu133  1  0.77865923  0.87593136  0.63406591  1
  Cu  Cu134  1  0.22134077  0.37593136  0.63406591  1
  Cu  Cu135  1  0.22134077  0.12406864  0.36593409  1
  Cu  Cu136  1  0.56272118  0.52091578  0.42064326  1
  Cu  Cu137  1  0.56272118  0.97908422  0.57935674  1
  Cu  Cu138  1  0.43727882  0.47908422  0.57935674  1
  Cu  Cu139  1  0.43727882  0.02091578  0.42064326  1
  Cu  Cu140  1  0.94298395  0.54503631  0.45423905  1
  Cu  Cu141  1  0.94298395  0.95496369  0.54576095  1
  Cu  Cu142  1  0.05701605  0.45496369  0.54576095  1
  Cu  Cu143  1  0.05701605  0.04503631  0.45423905  1
  Cu  Cu144  1  0.72127925  0.45897351  0.27544561  1
  Cu  Cu145  1  0.72127925  0.04102649  0.72455439  1
  Cu  Cu146  1  0.27872075  0.54102649  0.72455439  1
  Cu  Cu147  1  0.27872075  0.95897351  0.27544561  1
  Cu  Cu148  1  0.61772380  0.54204513  0.18139162  1
  Cu  Cu149  1  0.61772380  0.95795487  0.81860838  1
  Cu  Cu150  1  0.38227620  0.45795487  0.81860838  1
  Cu  Cu151  1  0.38227620  0.04204513  0.18139162  1
  Cu  Cu152  1  0.66452992  0.37825167  0.14109576  1
  Cu  Cu153  1  0.66452992  0.12174833  0.85890424  1
  Cu  Cu154  1  0.33547008  0.62174833  0.85890424  1
  Cu  Cu155  1  0.33547008  0.87825167  0.14109576  1
  Cu  Cu156  1  0.97052360  0.47503090  0.17726775  1
  Cu  Cu157  1  0.97052360  0.02496910  0.82273225  1
  Cu  Cu158  1  0.02947640  0.52496910  0.82273225  1
  Cu  Cu159  1  0.02947640  0.97503090  0.17726775  1
  Cu  Cu160  1  0.16488873  0.67348376  0.00758612  1
  Cu  Cu161  1  0.16488873  0.82651624  0.99241388  1
  Cu  Cu162  1  0.83511127  0.32651624  0.99241388  1
  Cu  Cu163  1  0.83511127  0.17348376  0.00758612  1
  Cu  Cu164  1  0.43122613  0.62062772  0.08702862  1
  Cu  Cu165  1  0.43122613  0.87937228  0.91297138  1
  Cu  Cu166  1  0.56877387  0.37937228  0.91297138  1
  Cu  Cu167  1  0.56877387  0.12062772  0.08702862  1
  Cu  Cu168  1  0.05582025  0.57802169  0.09361255  1
  Cu  Cu169  1  0.05582025  0.92197831  0.90638745  1
  Cu  Cu170  1  0.94417975  0.42197831  0.90638745  1
  Cu  Cu171  1  0.94417975  0.07802169  0.09361255  1
  Cu  Cu172  1  0.26989376  0.51919613  0.97870942  1
  Cu  Cu173  1  0.26989376  0.98080387  0.02129058  1
  Cu  Cu174  1  0.73010624  0.48080387  0.02129058  1
  Cu  Cu175  1  0.73010624  0.01919613  0.97870942  1
