# generated using pymatgen
data_Cu2Ni3
_symmetry_space_group_name_H-M   'P 1'
_cell_length_a   5.81801700
_cell_length_b   9.34671200
_cell_length_c   11.62810300
_cell_angle_alpha   90.00000000
_cell_angle_beta   90.00000000
_cell_angle_gamma   90.00000000
_symmetry_Int_Tables_number   1
_chemical_formula_structural   Cu2Ni3
_chemical_formula_sum   'Cu16 Ni24'
_cell_volume   632.32844229
_cell_formula_units_Z   8
loop_
 _symmetry_equiv_pos_site_id
 _symmetry_equiv_pos_as_xyz
  1  'x, y, z'
loop_
 _atom_site_type_symbol
 _atom_site_label
 _atom_site_symmetry_multiplicity
 _atom_site_fract_x
 _atom_site_fract_y
 _atom_site_fract_z
 _atom_site_occupancy
  Ni  Ni0  1  0.60011000  0.10523400  0.36808400  1
  Ni  Ni1  1  0.10011000  0.39476600  0.13191600  1
  Ni  Ni2  1  0.89989000  0.10523400  0.63191600  1
  Ni  Ni3  1  0.39989000  0.39476600  0.86808400  1
  Ni  Ni4  1  0.39989000  0.89476600  0.63191600  1
  Ni  Ni5  1  0.89989000  0.60523400  0.86808400  1
  Ni  Ni6  1  0.10011000  0.89476600  0.36808400  1
  Ni  Ni7  1  0.60011000  0.60523400  0.13191600  1
  Ni  Ni8  1  0.90899400  0.06570200  0.17834500  1
  Ni  Ni9  1  0.40899400  0.43429800  0.32165500  1
  Ni  Ni10  1  0.59100600  0.06570200  0.82165500  1
  Ni  Ni11  1  0.09100600  0.43429800  0.67834500  1
  Ni  Ni12  1  0.09100600  0.93429800  0.82165500  1
  Ni  Ni13  1  0.59100600  0.56570200  0.67834500  1
  Ni  Ni14  1  0.40899400  0.93429800  0.17834500  1
  Ni  Ni15  1  0.90899400  0.56570200  0.32165500  1
  Ni  Ni16  1  0.54196000  0.71349800  0.42676400  1
  Ni  Ni17  1  0.04196000  0.78650200  0.07323600  1
  Ni  Ni18  1  0.95804000  0.71349800  0.57323600  1
  Ni  Ni19  1  0.45804000  0.78650200  0.92676400  1
  Ni  Ni20  1  0.45804000  0.28650200  0.57323600  1
  Ni  Ni21  1  0.95804000  0.21349800  0.92676400  1
  Ni  Ni22  1  0.04196000  0.28650200  0.42676400  1
  Ni  Ni23  1  0.54196000  0.21349800  0.07323600  1
  Cu  Cu24  1  0.75000000  0.92541200  0.50000000  1
  Cu  Cu25  1  0.25000000  0.57458800  0.00000000  1
  Cu  Cu26  1  0.25000000  0.07458800  0.50000000  1
  Cu  Cu27  1  0.75000000  0.42541200  0.00000000  1
  Cu  Cu28  1  0.75000000  0.45995100  0.50000000  1
  Cu  Cu29  1  0.25000000  0.04004900  0.00000000  1
  Cu  Cu30  1  0.25000000  0.54004900  0.50000000  1
  Cu  Cu31  1  0.75000000  0.95995100  0.00000000  1
  Cu  Cu32  1  0.75897700  0.31348700  0.25431000  1
  Cu  Cu33  1  0.25897700  0.18651300  0.24569000  1
  Cu  Cu34  1  0.74102300  0.31348700  0.74569000  1
  Cu  Cu35  1  0.24102300  0.18651300  0.75431000  1
  Cu  Cu36  1  0.24102300  0.68651300  0.74569000  1
  Cu  Cu37  1  0.74102300  0.81348700  0.75431000  1
  Cu  Cu38  1  0.25897700  0.68651300  0.25431000  1
  Cu  Cu39  1  0.75897700  0.81348700  0.24569000  1
