# generated using pymatgen
data_Cu6NiC7
_symmetry_space_group_name_H-M   'P 1'
_cell_length_a   5.35518226
_cell_length_b   5.35518226
_cell_length_c   5.35518203
_cell_angle_alpha   101.37779339
_cell_angle_beta   101.37779339
_cell_angle_gamma   101.37779407
_symmetry_Int_Tables_number   1
_chemical_formula_structural   Cu6NiC7
_chemical_formula_sum   'Cu6 Ni1 C7'
_cell_volume   143.07210162
_cell_formula_units_Z   1
loop_
 _symmetry_equiv_pos_site_id
 _symmetry_equiv_pos_as_xyz
  1  'x, y, z'
loop_
 _atom_site_type_symbol
 _atom_site_label
 _atom_site_symmetry_multiplicity
 _atom_site_fract_x
 _atom_site_fract_y
 _atom_site_fract_z
 _atom_site_occupancy
  Ni  Ni0  1  0.50000000  0.50000000  0.50000000  1
  Cu  Cu1  1  0.00000000  0.33816500  0.66183500  1
  Cu  Cu2  1  0.66183500  0.00000000  0.33816500  1
  Cu  Cu3  1  0.66183500  0.33816500  0.00000000  1
  Cu  Cu4  1  0.33816500  0.00000000  0.66183500  1
  Cu  Cu5  1  0.00000000  0.66183500  0.33816500  1
  Cu  Cu6  1  0.33816500  0.66183500  0.00000000  1
  C  C7  1  0.00000000  0.00000000  0.00000000  1
  C  C8  1  0.07702100  0.72571000  0.72571000  1
  C  C9  1  0.72571000  0.72571000  0.07702100  1
  C  C10  1  0.92297900  0.27429000  0.27429000  1
  C  C11  1  0.27429000  0.27429000  0.92297900  1
  C  C12  1  0.27429000  0.92297900  0.27429000  1
  C  C13  1  0.72571000  0.07702100  0.72571000  1
