# generated using pymatgen
data_Cu2Ni3C8
_symmetry_space_group_name_H-M   'P 1'
_cell_length_a   7.44957479
_cell_length_b   7.44957479
_cell_length_c   14.63558259
_cell_angle_alpha   86.83195986
_cell_angle_beta   86.83195986
_cell_angle_gamma   45.98991086
_symmetry_Int_Tables_number   1
_chemical_formula_structural   Cu2Ni3C8
_chemical_formula_sum   'Cu4 Ni6 C16'
_cell_volume   583.10820787
_cell_formula_units_Z   2
loop_
 _symmetry_equiv_pos_site_id
 _symmetry_equiv_pos_as_xyz
  1  'x, y, z'
loop_
 _atom_site_type_symbol
 _atom_site_label
 _atom_site_symmetry_multiplicity
 _atom_site_fract_x
 _atom_site_fract_y
 _atom_site_fract_z
 _atom_site_occupancy
  Ni  Ni0  1  0.56806000  0.43194000  0.25000000  1
  Ni  Ni1  1  0.43194000  0.56806000  0.75000000  1
  Ni  Ni2  1  0.81276400  0.77570300  0.34608300  1
  Ni  Ni3  1  0.22429700  0.18723600  0.15391700  1
  Ni  Ni4  1  0.18723600  0.22429700  0.65391700  1
  Ni  Ni5  1  0.77570300  0.81276400  0.84608300  1
  Cu  Cu6  1  0.88902000  0.90255700  0.62859200  1
  Cu  Cu7  1  0.09744300  0.11098000  0.87140800  1
  Cu  Cu8  1  0.11098000  0.09744300  0.37140800  1
  Cu  Cu9  1  0.90255700  0.88902000  0.12859200  1
  C  C10  1  0.35275600  0.36740900  0.44711100  1
  C  C11  1  0.63259100  0.64724400  0.05288900  1
  C  C12  1  0.64724400  0.63259100  0.55288900  1
  C  C13  1  0.36740900  0.35275600  0.94711100  1
  C  C14  1  0.93576800  0.37399500  0.30143600  1
  C  C15  1  0.62600500  0.06423200  0.19856400  1
  C  C16  1  0.06423200  0.62600500  0.69856400  1
  C  C17  1  0.37399500  0.93576800  0.80143600  1
  C  C18  1  0.97149800  0.06037700  0.14511700  1
  C  C19  1  0.93962300  0.02850200  0.35488300  1
  C  C20  1  0.02850200  0.93962300  0.85488300  1
  C  C21  1  0.06037700  0.97149800  0.64511700  1
  C  C22  1  0.09575400  0.62626000  0.20167200  1
  C  C23  1  0.37374000  0.90424600  0.29832800  1
  C  C24  1  0.90424600  0.37374000  0.79832800  1
  C  C25  1  0.62626000  0.09575400  0.70167200  1
