# generated using pymatgen
data_CuNiC8
_symmetry_space_group_name_H-M   'P 1'
_cell_length_a   8.61329636
_cell_length_b   8.59603562
_cell_length_c   8.60820969
_cell_angle_alpha   90.00000000
_cell_angle_beta   90.00000000
_cell_angle_gamma   90.00000000
_symmetry_Int_Tables_number   1
_chemical_formula_structural   CuNiC8
_chemical_formula_sum   'Cu4 Ni4 C32'
_cell_volume   637.35358703
_cell_formula_units_Z   4
loop_
 _symmetry_equiv_pos_site_id
 _symmetry_equiv_pos_as_xyz
  1  'x, y, z'
loop_
 _atom_site_type_symbol
 _atom_site_label
 _atom_site_symmetry_multiplicity
 _atom_site_fract_x
 _atom_site_fract_y
 _atom_site_fract_z
 _atom_site_occupancy
  Ni  Ni0  1  0.50000000  0.00000000  0.50000000  1
  Ni  Ni1  1  0.50000000  0.50000000  0.00000000  1
  Ni  Ni2  1  -0.00000000  0.50000000  0.00000000  1
  Ni  Ni3  1  -0.00000000  0.00000000  0.50000000  1
  Cu  Cu4  1  0.00000000  0.50000000  0.50000000  1
  Cu  Cu5  1  0.50000000  0.00000000  0.00000000  1
  Cu  Cu6  1  -0.00000000  0.00000000  -0.00000000  1
  Cu  Cu7  1  0.50000000  0.50000000  0.50000000  1
  C  C8  1  0.75000000  0.75000000  0.75000000  1
  C  C9  1  0.25000000  0.25000000  0.75000000  1
  C  C10  1  0.25000000  0.75000000  0.25000000  1
  C  C11  1  0.75000000  0.25000000  0.25000000  1
  C  C12  1  0.25000000  0.25000000  0.25000000  1
  C  C13  1  0.75000000  0.75000000  0.25000000  1
  C  C14  1  0.75000000  0.25000000  0.75000000  1
  C  C15  1  0.25000000  0.75000000  0.75000000  1
  C  C16  1  0.02317064  0.23263756  0.26629631  1
  C  C17  1  0.97682936  0.76736244  0.26629631  1
  C  C18  1  0.97682936  0.23263756  0.73370369  1
  C  C19  1  0.02317064  0.76736244  0.73370369  1
  C  C20  1  0.26572735  0.02235679  0.22617610  1
  C  C21  1  0.26572735  0.97764321  0.77382390  1
  C  C22  1  0.73427265  0.97764321  0.22617610  1
  C  C23  1  0.73427265  0.02235679  0.77382390  1
  C  C24  1  0.23168868  0.26027446  0.02304236  1
  C  C25  1  0.76831132  0.26027446  0.97695764  1
  C  C26  1  0.23168868  0.73972554  0.97695764  1
  C  C27  1  0.76831132  0.73972554  0.02304236  1
  C  C28  1  0.47682936  0.26736244  0.23370369  1
  C  C29  1  0.52317064  0.73263756  0.23370369  1
  C  C30  1  0.52317064  0.26736244  0.76629631  1
  C  C31  1  0.47682936  0.73263756  0.76629631  1
  C  C32  1  0.23427265  0.47764321  0.27382390  1
  C  C33  1  0.23427265  0.52235679  0.72617610  1
  C  C34  1  0.76572735  0.52235679  0.27382390  1
  C  C35  1  0.76572735  0.47764321  0.72617610  1
  C  C36  1  0.26831132  0.23972554  0.47695764  1
  C  C37  1  0.73168868  0.23972554  0.52304236  1
  C  C38  1  0.26831132  0.76027446  0.52304236  1
  C  C39  1  0.73168868  0.76027446  0.47695764  1
