# generated using pymatgen
data_CuNiC5
_symmetry_space_group_name_H-M   'P 1'
_cell_length_a   3.45857700
_cell_length_b   11.80731200
_cell_length_c   14.17585739
_cell_angle_alpha   80.25195379
_cell_angle_beta   90.00000000
_cell_angle_gamma   90.00000000
_symmetry_Int_Tables_number   1
_chemical_formula_structural   CuNiC5
_chemical_formula_sum   'Cu4 Ni4 C20'
_cell_volume   570.53422349
_cell_formula_units_Z   4
loop_
 _symmetry_equiv_pos_site_id
 _symmetry_equiv_pos_as_xyz
  1  'x, y, z'
loop_
 _atom_site_type_symbol
 _atom_site_label
 _atom_site_symmetry_multiplicity
 _atom_site_fract_x
 _atom_site_fract_y
 _atom_site_fract_z
 _atom_site_occupancy
  C  C0  1  0.00000000  0.06552000  0.87263800  1
  C  C1  1  0.50000000  0.38877400  0.24833400  1
  C  C2  1  0.00000000  0.61202000  0.79076000  1
  C  C3  1  0.00000000  0.88532200  0.26341900  1
  Ni  Ni4  1  0.50000000  0.97299300  0.07364600  1
  Ni  Ni5  1  0.00000000  0.42746100  0.43331400  1
  Ni  Ni6  1  0.50000000  0.52750000  0.61543900  1
  Ni  Ni7  1  0.50000000  0.15289500  0.65433000  1
  Cu  Cu8  1  0.00000000  0.66514100  0.03904900  1
  Cu  Cu9  1  0.50000000  0.35333800  0.00864900  1
  Cu  Cu10  1  0.50000000  0.08650300  0.42112500  1
  Cu  Cu11  1  0.00000000  0.87171400  0.64442200  1
  C  C12  1  0.00000000  0.44735100  0.12742200  1
  C  C13  1  0.50000000  0.57378300  0.91233100  1
  C  C14  1  0.50000000  0.89212100  0.37700200  1
  C  C15  1  0.00000000  0.07278400  0.56736400  1
  C  C16  1  0.50000000  0.15356700  0.96272800  1
  C  C17  1  0.00000000  0.88951300  0.98996700  1
  C  C18  1  0.00000000  0.59274700  0.50806700  1
  C  C19  1  0.50000000  0.35312900  0.54363600  1
  C  C20  1  0.50000000  0.79124300  0.18097600  1
  C  C21  1  0.00000000  0.21829100  0.74293500  1
  C  C22  1  0.00000000  0.27107500  0.33797300  1
  C  C23  1  0.50000000  0.70707000  0.68168100  1
  C  C24  1  0.00000000  0.05561300  0.16097800  1
  C  C25  1  0.50000000  0.98751100  0.78154500  1
  C  C26  1  0.50000000  0.53206100  0.33169300  1
  C  C27  1  0.00000000  0.45295900  0.72858000  1
