# generated using pymatgen
data_Cu32Ni4C3
_symmetry_space_group_name_H-M   'P 1'
_cell_length_a   4.66523600
_cell_length_b   6.43219183
_cell_length_c   18.11719486
_cell_angle_alpha   92.91211571
_cell_angle_beta   82.60254143
_cell_angle_gamma   111.26287461
_symmetry_Int_Tables_number   1
_chemical_formula_structural   Cu32Ni4C3
_chemical_formula_sum   'Cu32 Ni4 C3'
_cell_volume   502.42479494
_cell_formula_units_Z   1
loop_
 _symmetry_equiv_pos_site_id
 _symmetry_equiv_pos_as_xyz
  1  'x, y, z'
loop_
 _atom_site_type_symbol
 _atom_site_label
 _atom_site_symmetry_multiplicity
 _atom_site_fract_x
 _atom_site_fract_y
 _atom_site_fract_z
 _atom_site_occupancy
  C  C0  1  0.99985400  0.99995700  0.00024800  1
  C  C1  1  0.32958100  0.99423200  0.33506900  1
  C  C2  1  0.66311700  0.99464900  0.66841500  1
  Ni  Ni3  1  0.57228700  0.35790200  0.21332800  1
  Ni  Ni4  1  0.91329700  0.37005800  0.54346500  1
  Ni  Ni5  1  0.24686900  0.37022300  0.87648500  1
  Ni  Ni6  1  0.76066800  0.64140400  0.12006800  1
  Cu  Cu7  1  0.34856700  0.77272000  0.07558700  1
  Cu  Cu8  1  0.68093100  0.77172600  0.40986300  1
  Cu  Cu9  1  0.01378700  0.77044100  0.74286800  1
  Cu  Cu10  1  0.98539200  0.22811100  0.25732600  1
  Cu  Cu11  1  0.31913900  0.22866100  0.59038400  1
  Cu  Cu12  1  0.65226000  0.22836900  0.92384900  1
  Cu  Cu13  1  0.75850100  0.77484300  0.25783900  1
  Cu  Cu14  1  0.09193100  0.77552200  0.59166100  1
  Cu  Cu15  1  0.42499500  0.77514800  0.92515800  1
  Cu  Cu16  1  0.57503200  0.22532900  0.07526500  1
  Cu  Cu17  1  0.90857600  0.22529800  0.40814600  1
  Cu  Cu18  1  0.24218400  0.22571200  0.74134400  1
  Cu  Cu19  1  0.16720500  0.00015300  0.16677800  1
  Cu  Cu20  1  0.49965800  0.99940900  0.50039400  1
  Cu  Cu21  1  0.83244200  0.99900700  0.83362700  1
  Cu  Cu22  1  0.66617100  0.00015300  0.16677800  1
  Cu  Cu23  1  0.99935600  0.99940900  0.50039400  1
  Cu  Cu24  1  0.33293600  0.99900700  0.83362700  1
  Cu  Cu25  1  0.33380800  0.50006700  0.33335600  1
  Cu  Cu26  1  0.66593600  0.49892200  0.66691000  1
  Cu  Cu27  1  0.99934400  0.49923300  0.00005600  1
  Cu  Cu28  1  0.83290100  0.50006700  0.33335600  1
  Cu  Cu29  1  0.16607700  0.49892200  0.66691000  1
  Cu  Cu30  1  0.49983300  0.49923300  0.00005600  1
  Cu  Cu31  1  0.09097100  0.63655300  0.45461000  1
  Cu  Cu32  1  0.42419500  0.63629900  0.78791000  1
  Cu  Cu33  1  0.11953300  0.35865200  0.11958500  1
  Cu  Cu34  1  0.45361000  0.35991200  0.45269200  1
  Cu  Cu35  1  0.78695100  0.35994600  0.78604600  1
  Cu  Cu36  1  0.21409500  0.64162200  0.21343100  1
  Cu  Cu37  1  0.54754200  0.64193300  0.54685000  1
  Cu  Cu38  1  0.88046600  0.64119800  0.88026600  1
