# generated using pymatgen
data_Cu2NiC2
_symmetry_space_group_name_H-M   'P 1'
_cell_length_a   8.33921200
_cell_length_b   8.33921200
_cell_length_c   5.88075100
_cell_angle_alpha   90.00000000
_cell_angle_beta   90.00000000
_cell_angle_gamma   90.00000000
_symmetry_Int_Tables_number   1
_chemical_formula_structural   Cu2NiC2
_chemical_formula_sum   'Cu8 Ni4 C8'
_cell_volume   408.96187226
_cell_formula_units_Z   4
loop_
 _symmetry_equiv_pos_site_id
 _symmetry_equiv_pos_as_xyz
  1  'x, y, z'
loop_
 _atom_site_type_symbol
 _atom_site_label
 _atom_site_symmetry_multiplicity
 _atom_site_fract_x
 _atom_site_fract_y
 _atom_site_fract_z
 _atom_site_occupancy
  C  C0  1  0.00000000  0.25796000  0.79459600  1
  C  C1  1  0.25796000  0.00000000  0.20540400  1
  C  C2  1  0.00000000  0.74204000  0.79459600  1
  C  C3  1  0.74204000  0.00000000  0.20540400  1
  C  C4  1  0.50000000  0.23761900  0.68781900  1
  C  C5  1  0.23761900  0.50000000  0.31218100  1
  C  C6  1  0.50000000  0.76238100  0.68781900  1
  C  C7  1  0.76238100  0.50000000  0.31218100  1
  Ni  Ni8  1  0.00000000  0.00000000  0.00000000  1
  Ni  Ni9  1  0.50000000  0.50000000  0.50000000  1
  Ni  Ni10  1  0.50000000  0.00000000  0.47495700  1
  Ni  Ni11  1  0.00000000  0.50000000  0.52504300  1
  Cu  Cu12  1  0.72424100  0.27575900  0.00000000  1
  Cu  Cu13  1  0.27575900  0.27575900  0.00000000  1
  Cu  Cu14  1  0.27575900  0.72424100  0.00000000  1
  Cu  Cu15  1  0.72424100  0.72424100  0.00000000  1
  Cu  Cu16  1  0.79431700  0.20568300  0.50000000  1
  Cu  Cu17  1  0.20568300  0.20568300  0.50000000  1
  Cu  Cu18  1  0.20568300  0.79431700  0.50000000  1
  Cu  Cu19  1  0.79431700  0.79431700  0.50000000  1
