# generated using pymatgen
data_Cu2NiC11
_symmetry_space_group_name_H-M   'P 1'
_cell_length_a   5.50621300
_cell_length_b   5.57129600
_cell_length_c   11.33664674
_cell_angle_alpha   89.96017928
_cell_angle_beta   90.00000000
_cell_angle_gamma   90.00000000
_symmetry_Int_Tables_number   1
_chemical_formula_structural   Cu2NiC11
_chemical_formula_sum   'Cu4 Ni2 C22'
_cell_volume   347.77130837
_cell_formula_units_Z   2
loop_
 _symmetry_equiv_pos_site_id
 _symmetry_equiv_pos_as_xyz
  1  'x, y, z'
loop_
 _atom_site_type_symbol
 _atom_site_label
 _atom_site_symmetry_multiplicity
 _atom_site_fract_x
 _atom_site_fract_y
 _atom_site_fract_z
 _atom_site_occupancy
  C  C0  1  0.96810500  0.22628600  0.81295300  1
  C  C1  1  0.96834000  0.22711800  0.18654500  1
  C  C2  1  0.46810500  0.77371400  0.18704700  1
  C  C3  1  0.46834000  0.77288200  0.81345500  1
  C  C4  1  0.01955900  0.23009400  0.49983800  1
  C  C5  1  0.51955900  0.76990600  0.50016200  1
  Ni  Ni6  1  0.49645800  0.26537700  0.33706900  1
  Ni  Ni7  1  0.99645800  0.73462300  0.66293100  1
  Cu  Cu8  1  0.44409000  0.31261100  0.00093800  1
  Cu  Cu9  1  0.94409000  0.68738900  0.99906200  1
  Cu  Cu10  1  0.49668300  0.25606800  0.67141900  1
  Cu  Cu11  1  0.99668300  0.74393200  0.32858100  1
  C  C12  1  0.26871200  0.97590300  0.64632600  1
  C  C13  1  0.27534800  0.98221500  0.35363200  1
  C  C14  1  0.76871200  0.02409700  0.35367400  1
  C  C15  1  0.77534800  0.01778500  0.64636800  1
  C  C16  1  0.22398900  0.48164800  0.70287900  1
  C  C17  1  0.22985700  0.47118800  0.29781500  1
  C  C18  1  0.72398900  0.51835200  0.29712100  1
  C  C19  1  0.72985700  0.52881200  0.70218500  1
  C  C20  1  0.09236400  0.36914700  0.99969700  1
  C  C21  1  0.59236400  0.63085300  0.00030300  1
  C  C22  1  0.53151000  0.17361400  0.85558200  1
  C  C23  1  0.52890700  0.17376200  0.14540100  1
  C  C24  1  0.03151000  0.82638600  0.14441800  1
  C  C25  1  0.02890700  0.82623800  0.85459900  1
  C  C26  1  0.48807800  0.33851800  0.49775200  1
  C  C27  1  0.98807800  0.66148200  0.50224800  1
