# generated using pymatgen
data_Cu9(NiC2)2
_symmetry_space_group_name_H-M   'P 1'
_cell_length_a   8.45823200
_cell_length_b   10.28840345
_cell_length_c   10.50541528
_cell_angle_alpha   119.53430995
_cell_angle_beta   90.00000000
_cell_angle_gamma   90.00000000
_symmetry_Int_Tables_number   1
_chemical_formula_structural   Cu9(NiC2)2
_chemical_formula_sum   'Cu36 Ni8 C16'
_cell_volume   795.40870530
_cell_formula_units_Z   4
loop_
 _symmetry_equiv_pos_site_id
 _symmetry_equiv_pos_as_xyz
  1  'x, y, z'
loop_
 _atom_site_type_symbol
 _atom_site_label
 _atom_site_symmetry_multiplicity
 _atom_site_fract_x
 _atom_site_fract_y
 _atom_site_fract_z
 _atom_site_occupancy
  C  C0  1  0.67747700  0.21017300  0.69133300  1
  C  C1  1  0.17747700  0.78982700  0.80866700  1
  C  C2  1  0.32252300  0.78982700  0.30866700  1
  C  C3  1  0.82252300  0.21017300  0.19133300  1
  C  C4  1  0.64920500  0.74185200  0.96206600  1
  C  C5  1  0.14920500  0.25814800  0.53793400  1
  C  C6  1  0.35079500  0.25814800  0.03793400  1
  C  C7  1  0.85079500  0.74185200  0.46206600  1
  C  C8  1  0.51926000  0.72093100  0.55412400  1
  C  C9  1  0.01926000  0.27906900  0.94587600  1
  C  C10  1  0.48074000  0.27906900  0.44587600  1
  C  C11  1  0.98074000  0.72093100  0.05412400  1
  C  C12  1  0.51479700  0.58688200  0.39473000  1
  C  C13  1  0.01479700  0.41311800  0.10527000  1
  C  C14  1  0.48520300  0.41311800  0.60527000  1
  C  C15  1  0.98520300  0.58688200  0.89473000  1
  Ni  Ni16  1  0.63373300  0.94860600  0.82014300  1
  Ni  Ni17  1  0.13373300  0.05139400  0.67985700  1
  Ni  Ni18  1  0.36626700  0.05139400  0.17985700  1
  Ni  Ni19  1  0.86626700  0.94860600  0.32014300  1
  Ni  Ni20  1  0.80405400  0.49989500  0.60123600  1
  Ni  Ni21  1  0.30405400  0.50010500  0.89876400  1
  Ni  Ni22  1  0.19594600  0.50010500  0.39876400  1
  Ni  Ni23  1  0.69594600  0.49989500  0.10123600  1
  Cu  Cu24  1  0.71290400  0.92512200  0.68461500  1
  Cu  Cu25  1  0.21290400  0.07487800  0.81538500  1
  Cu  Cu26  1  0.28709600  0.07487800  0.31538500  1
  Cu  Cu27  1  0.78709600  0.92512200  0.18461500  1
  Cu  Cu28  1  0.75062800  0.94288400  0.92485200  1
  Cu  Cu29  1  0.25062800  0.05711600  0.57514800  1
  Cu  Cu30  1  0.24937200  0.05711600  0.07514800  1
  Cu  Cu31  1  0.74937200  0.94288400  0.42485200  1
  Cu  Cu32  1  0.51648800  0.82774300  0.78823100  1
  Cu  Cu33  1  0.01648800  0.17225700  0.71176900  1
  Cu  Cu34  1  0.48351200  0.17225700  0.21176900  1
  Cu  Cu35  1  0.98351200  0.82774300  0.28823100  1
  Cu  Cu36  1  0.55723000  0.09811100  0.88836700  1
  Cu  Cu37  1  0.05723000  0.90188900  0.61163300  1
  Cu  Cu38  1  0.44277000  0.90188900  0.11163300  1
  Cu  Cu39  1  0.94277000  0.09811100  0.38836700  1
  Cu  Cu40  1  0.91966100  0.40417000  0.62375400  1
  Cu  Cu41  1  0.41966100  0.59583000  0.87624600  1
  Cu  Cu42  1  0.08033900  0.59583000  0.37624600  1
  Cu  Cu43  1  0.58033900  0.40417000  0.12375400  1
  Cu  Cu44  1  0.68254400  0.54476600  0.71974500  1
  Cu  Cu45  1  0.18254400  0.45523400  0.78025500  1
  Cu  Cu46  1  0.31745600  0.45523400  0.28025500  1
  Cu  Cu47  1  0.81745600  0.54476600  0.21974500  1
  Cu  Cu48  1  0.61626400  0.63872100  0.12017600  1
  Cu  Cu49  1  0.11626400  0.36127900  0.37982400  1
  Cu  Cu50  1  0.38373600  0.36127900  0.87982400  1
  Cu  Cu51  1  0.88373600  0.63872100  0.62017600  1
  Cu  Cu52  1  0.72773500  0.41999400  0.45744800  1
  Cu  Cu53  1  0.22773500  0.58000600  0.04255200  1
  Cu  Cu54  1  0.27226500  0.58000600  0.54255200  1
  Cu  Cu55  1  0.77226500  0.41999400  0.95744800  1
  Cu  Cu56  1  0.56053900  0.68704500  0.45497100  1
  Cu  Cu57  1  0.06053900  0.31295500  0.04502900  1
  Cu  Cu58  1  0.43946100  0.31295500  0.54502900  1
  Cu  Cu59  1  0.93946100  0.68704500  0.95497100  1
