# generated using pymatgen
data_CuNiC4
_symmetry_space_group_name_H-M   'P 1'
_cell_length_a   3.60900900
_cell_length_b   5.92275700
_cell_length_c   6.99712200
_cell_angle_alpha   90.00000000
_cell_angle_beta   90.00000000
_cell_angle_gamma   90.00000000
_symmetry_Int_Tables_number   1
_chemical_formula_structural   CuNiC4
_chemical_formula_sum   'Cu2 Ni2 C8'
_cell_volume   149.56546516
_cell_formula_units_Z   2
loop_
 _symmetry_equiv_pos_site_id
 _symmetry_equiv_pos_as_xyz
  1  'x, y, z'
loop_
 _atom_site_type_symbol
 _atom_site_label
 _atom_site_symmetry_multiplicity
 _atom_site_fract_x
 _atom_site_fract_y
 _atom_site_fract_z
 _atom_site_occupancy
  C  C0  1  0.50000000  0.46473600  0.07896100  1
  C  C1  1  0.50000000  0.96473600  0.92103900  1
  C  C2  1  0.00000000  0.52822600  0.42736900  1
  C  C3  1  0.00000000  0.02822600  0.57263100  1
  Ni  Ni4  1  0.50000000  0.74244000  0.62179100  1
  Ni  Ni5  1  0.50000000  0.24244000  0.37820900  1
  C  C6  1  0.50000000  0.36068200  0.68210300  1
  C  C7  1  0.50000000  0.86068200  0.31789700  1
  C  C8  1  0.00000000  0.64795500  0.80120800  1
  C  C9  1  0.00000000  0.14795500  0.19879200  1
  Cu  Cu10  1  0.00000000  0.25596200  0.87814000  1
  Cu  Cu11  1  0.00000000  0.75596100  0.12186000  1
