# generated using pymatgen
data_Cu12Ni12C5
_symmetry_space_group_name_H-M   'P 1'
_cell_length_a   7.59768200
_cell_length_b   7.59768200
_cell_length_c   10.75716300
_cell_angle_alpha   90.00000000
_cell_angle_beta   90.00000000
_cell_angle_gamma   90.00000000
_symmetry_Int_Tables_number   1
_chemical_formula_structural   Cu12Ni12C5
_chemical_formula_sum   'Cu12 Ni12 C5'
_cell_volume   620.95477910
_cell_formula_units_Z   1
loop_
 _symmetry_equiv_pos_site_id
 _symmetry_equiv_pos_as_xyz
  1  'x, y, z'
loop_
 _atom_site_type_symbol
 _atom_site_label
 _atom_site_symmetry_multiplicity
 _atom_site_fract_x
 _atom_site_fract_y
 _atom_site_fract_z
 _atom_site_occupancy
  C  C0  1  0.50000000  0.00000000  0.25636000  1
  C  C1  1  0.00000000  0.50000000  0.74364000  1
  C  C2  1  0.50000000  0.50000000  0.00000000  1
  C  C3  1  0.50000000  0.00000000  0.74940000  1
  C  C4  1  0.00000000  0.50000000  0.25060000  1
  Ni  Ni5  1  0.50000000  0.00000000  0.92288400  1
  Ni  Ni6  1  0.00000000  0.50000000  0.42425500  1
  Ni  Ni7  1  0.17450400  0.32684700  0.24983100  1
  Ni  Ni8  1  0.67315300  0.82549600  0.75016900  1
  Ni  Ni9  1  0.82549600  0.32684700  0.24983100  1
  Ni  Ni10  1  0.32684700  0.82549600  0.75016900  1
  Ni  Ni11  1  0.50000000  0.00000000  0.57574500  1
  Ni  Ni12  1  0.00000000  0.50000000  0.07711600  1
  Ni  Ni13  1  0.82549600  0.67315300  0.24983100  1
  Ni  Ni14  1  0.32684700  0.17450400  0.75016900  1
  Ni  Ni15  1  0.17450400  0.67315300  0.24983100  1
  Ni  Ni16  1  0.67315300  0.17450400  0.75016900  1
  Cu  Cu17  1  0.50000000  0.00000000  0.03197100  1
  Cu  Cu18  1  0.00000000  0.50000000  0.53257000  1
  Cu  Cu19  1  0.28614700  0.22084000  0.24554900  1
  Cu  Cu20  1  0.77916000  0.71385300  0.75445100  1
  Cu  Cu21  1  0.71385300  0.22084000  0.24554900  1
  Cu  Cu22  1  0.22084000  0.71385300  0.75445100  1
  Cu  Cu23  1  0.50000000  0.00000000  0.46743000  1
  Cu  Cu24  1  0.00000000  0.50000000  0.96802900  1
  Cu  Cu25  1  0.71385300  0.77916000  0.24554900  1
  Cu  Cu26  1  0.22084000  0.28614700  0.75445100  1
  Cu  Cu27  1  0.28614700  0.77916000  0.24554900  1
  Cu  Cu28  1  0.77916000  0.28614700  0.75445100  1
