# generated using pymatgen
data_Cu(NiC17)2
_symmetry_space_group_name_H-M   'P 1'
_cell_length_a   7.48110400
_cell_length_b   7.51644510
_cell_length_c   7.66617231
_cell_angle_alpha   60.76180808
_cell_angle_beta   76.68933192
_cell_angle_gamma   74.82786263
_symmetry_Int_Tables_number   1
_chemical_formula_structural   Cu(NiC17)2
_chemical_formula_sum   'Cu1 Ni2 C34'
_cell_volume   360.35319866
_cell_formula_units_Z   1
loop_
 _symmetry_equiv_pos_site_id
 _symmetry_equiv_pos_as_xyz
  1  'x, y, z'
loop_
 _atom_site_type_symbol
 _atom_site_label
 _atom_site_symmetry_multiplicity
 _atom_site_fract_x
 _atom_site_fract_y
 _atom_site_fract_z
 _atom_site_occupancy
  Ni  Ni0  1  0.83967500  0.41575200  0.76792700  1
  Ni  Ni1  1  0.16032500  0.58424800  0.23207300  1
  Cu  Cu2  1  0.50000000  0.00000000  0.50000000  1
  C  C3  1  0.13630600  0.17156800  0.94671200  1
  C  C4  1  0.86369400  0.82843200  0.05328800  1
  C  C5  1  0.20432800  0.33584500  0.70730600  1
  C  C6  1  0.79567200  0.66415500  0.29269400  1
  C  C7  1  0.15371000  0.41103300  0.89051300  1
  C  C8  1  0.84629000  0.58896700  0.10948700  1
  C  C9  1  0.38685800  0.90493000  0.87612500  1
  C  C10  1  0.61314200  0.09507000  0.12387500  1
  C  C11  1  0.59824100  0.77902900  0.84571200  1
  C  C12  1  0.40175900  0.22097100  0.15428800  1
  C  C13  1  0.56744000  0.02871300  0.79555600  1
  C  C14  1  0.43256000  0.97128700  0.20444400  1
  C  C15  1  0.84572800  0.00830700  0.42247500  1
  C  C16  1  0.15427200  0.99169300  0.57752500  1
  C  C17  1  0.73870800  0.24069000  0.26714400  1
  C  C18  1  0.26129200  0.75931000  0.73285600  1
  C  C19  1  0.74758000  0.18437200  0.50547500  1
  C  C20  1  0.25242000  0.81562800  0.49452500  1
  C  C21  1  0.11804000  0.32349100  0.83867900  1
  C  C22  1  0.88196000  0.67650900  0.16132100  1
  C  C23  1  0.51301700  0.92073000  0.78767200  1
  C  C24  1  0.48698300  0.07927000  0.21232800  1
  C  C25  1  0.73493300  0.12534500  0.41333000  1
  C  C26  1  0.26506700  0.87465500  0.58667000  1
  C  C27  1  0.85482000  0.12885800  0.85405700  1
  C  C28  1  0.14518000  0.87114200  0.14594300  1
  C  C29  1  0.69185500  0.25593600  0.74658700  1
  C  C30  1  0.30814500  0.74406400  0.25341300  1
  C  C31  1  0.92626500  0.66163100  0.56186300  1
  C  C32  1  0.07373500  0.33836900  0.43813700  1
  C  C33  1  0.73652200  0.65664400  0.54431900  1
  C  C34  1  0.26347800  0.34335600  0.45568100  1
  C  C35  1  0.74844800  0.45564700  0.96827000  1
  C  C36  1  0.25155200  0.54435300  0.03173000  1
