# generated using pymatgen
data_Cu7(Ni2C)5
_symmetry_space_group_name_H-M   'P 1'
_cell_length_a   7.18303500
_cell_length_b   7.82066021
_cell_length_c   8.84749947
_cell_angle_alpha   67.00330674
_cell_angle_beta   76.46353224
_cell_angle_gamma   74.03386762
_symmetry_Int_Tables_number   1
_chemical_formula_structural   Cu7(Ni2C)5
_chemical_formula_sum   'Cu7 Ni10 C5'
_cell_volume   435.34569994
_cell_formula_units_Z   1
loop_
 _symmetry_equiv_pos_site_id
 _symmetry_equiv_pos_as_xyz
  1  'x, y, z'
loop_
 _atom_site_type_symbol
 _atom_site_label
 _atom_site_symmetry_multiplicity
 _atom_site_fract_x
 _atom_site_fract_y
 _atom_site_fract_z
 _atom_site_occupancy
  C  C0  1  0.44955800  0.84721400  0.95993700  1
  C  C1  1  0.55044200  0.15278600  0.04006300  1
  C  C2  1  0.50000000  0.00000000  0.50000000  1
  C  C3  1  0.99195400  0.99970500  0.73132100  1
  C  C4  1  0.00804600  0.00029500  0.26867900  1
  Ni  Ni5  1  0.02573500  0.74389500  0.81043800  1
  Ni  Ni6  1  0.97426500  0.25610500  0.18956200  1
  Ni  Ni7  1  0.95771900  0.25470600  0.65454100  1
  Ni  Ni8  1  0.04228100  0.74529400  0.34545900  1
  Ni  Ni9  1  0.39930800  0.44735600  0.71377800  1
  Ni  Ni10  1  0.60069200  0.55264400  0.28622200  1
  Ni  Ni11  1  0.47202800  0.45938200  0.33485500  1
  Ni  Ni12  1  0.52797200  0.54061800  0.66514500  1
  Ni  Ni13  1  0.58049000  0.51851600  0.96017300  1
  Ni  Ni14  1  0.41951000  0.48148400  0.03982700  1
  Cu  Cu15  1  0.00000000  0.00000000  0.00000000  1
  Cu  Cu16  1  0.31537800  0.96539900  0.73969300  1
  Cu  Cu17  1  0.68462200  0.03460100  0.26030700  1
  Cu  Cu18  1  0.67539000  0.02147600  0.85460900  1
  Cu  Cu19  1  0.32461000  0.97852400  0.14539100  1
  Cu  Cu20  1  0.81274400  0.00689500  0.53148800  1
  Cu  Cu21  1  0.18725600  0.99310500  0.46851200  1
