# generated using pymatgen
data_Cu8Ni5C2
_symmetry_space_group_name_H-M   'P 1'
_cell_length_a   10.23198300
_cell_length_b   10.44369600
_cell_length_c   12.69860200
_cell_angle_alpha   90.00000000
_cell_angle_beta   90.00000000
_cell_angle_gamma   90.00000000
_symmetry_Int_Tables_number   1
_chemical_formula_structural   Cu8Ni5C2
_chemical_formula_sum   'Cu32 Ni20 C8'
_cell_volume   1356.96905321
_cell_formula_units_Z   4
loop_
 _symmetry_equiv_pos_site_id
 _symmetry_equiv_pos_as_xyz
  1  'x, y, z'
loop_
 _atom_site_type_symbol
 _atom_site_label
 _atom_site_symmetry_multiplicity
 _atom_site_fract_x
 _atom_site_fract_y
 _atom_site_fract_z
 _atom_site_occupancy
  C  C0  1  0.29028000  0.25000000  0.71827300  1
  C  C1  1  0.20972000  0.25000000  0.21827300  1
  C  C2  1  0.70972000  0.75000000  0.28172700  1
  C  C3  1  0.79028000  0.75000000  0.78172700  1
  C  C4  1  0.43757200  0.75000000  0.56393000  1
  C  C5  1  0.06242800  0.75000000  0.06393000  1
  C  C6  1  0.56242800  0.25000000  0.43607000  1
  C  C7  1  0.93757200  0.25000000  0.93607000  1
  Ni  Ni8  1  0.60099600  0.75000000  0.02498900  1
  Ni  Ni9  1  0.89900400  0.75000000  0.52498900  1
  Ni  Ni10  1  0.39900400  0.25000000  0.97501100  1
  Ni  Ni11  1  0.10099600  0.25000000  0.47501100  1
  Ni  Ni12  1  0.23383200  0.41964200  0.20860100  1
  Ni  Ni13  1  0.26616800  0.08035800  0.70860100  1
  Ni  Ni14  1  0.76616800  0.91964200  0.79139900  1
  Ni  Ni15  1  0.73383200  0.58035800  0.29139900  1
  Ni  Ni16  1  0.76616800  0.58035800  0.79139900  1
  Ni  Ni17  1  0.73383200  0.91964200  0.29139900  1
  Ni  Ni18  1  0.23383200  0.08035800  0.20860100  1
  Ni  Ni19  1  0.26616800  0.41964200  0.70860100  1
  Ni  Ni20  1  0.37306500  0.35481500  0.92658700  1
  Ni  Ni21  1  0.12693500  0.14518500  0.42658700  1
  Ni  Ni22  1  0.62693500  0.85481500  0.07341300  1
  Ni  Ni23  1  0.87306500  0.64518500  0.57341300  1
  Ni  Ni24  1  0.62693500  0.64518500  0.07341300  1
  Ni  Ni25  1  0.87306500  0.85481500  0.57341300  1
  Ni  Ni26  1  0.37306500  0.14518500  0.92658700  1
  Ni  Ni27  1  0.12693500  0.35481500  0.42658700  1
  Cu  Cu28  1  0.40058400  0.60379400  0.46342800  1
  Cu  Cu29  1  0.09941600  0.89620600  0.96342800  1
  Cu  Cu30  1  0.59941600  0.10379400  0.53657200  1
  Cu  Cu31  1  0.90058400  0.39620600  0.03657200  1
  Cu  Cu32  1  0.59941600  0.39620600  0.53657200  1
  Cu  Cu33  1  0.90058400  0.10379400  0.03657200  1
  Cu  Cu34  1  0.40058400  0.89620600  0.46342800  1
  Cu  Cu35  1  0.09941600  0.60379400  0.96342800  1
  Cu  Cu36  1  0.38639800  0.25000000  0.54998400  1
  Cu  Cu37  1  0.11360200  0.25000000  0.04998400  1
  Cu  Cu38  1  0.61360200  0.75000000  0.45001600  1
  Cu  Cu39  1  0.88639800  0.75000000  0.95001600  1
  Cu  Cu40  1  0.36346300  0.25000000  0.35280000  1
  Cu  Cu41  1  0.13653700  0.25000000  0.85280000  1
  Cu  Cu42  1  0.63653700  0.75000000  0.64720000  1
  Cu  Cu43  1  0.86346300  0.75000000  0.14720000  1
  Cu  Cu44  1  0.43540900  0.61157700  0.67417900  1
  Cu  Cu45  1  0.06459100  0.88842300  0.17417900  1
  Cu  Cu46  1  0.56459100  0.11157700  0.32582100  1
  Cu  Cu47  1  0.93540900  0.38842300  0.82582100  1
  Cu  Cu48  1  0.56459100  0.38842300  0.32582100  1
  Cu  Cu49  1  0.93540900  0.11157700  0.82582100  1
  Cu  Cu50  1  0.43540900  0.88842300  0.67417900  1
  Cu  Cu51  1  0.06459100  0.61157700  0.17417900  1
  Cu  Cu52  1  0.51167300  0.75000000  0.24425400  1
  Cu  Cu53  1  0.98832700  0.75000000  0.74425400  1
  Cu  Cu54  1  0.48832700  0.25000000  0.75574600  1
  Cu  Cu55  1  0.01167300  0.25000000  0.25574600  1
  Cu  Cu56  1  0.23958000  0.75000000  0.58172400  1
  Cu  Cu57  1  0.26042000  0.75000000  0.08172400  1
  Cu  Cu58  1  0.76042000  0.25000000  0.41827600  1
  Cu  Cu59  1  0.73958000  0.25000000  0.91827600  1
