# generated using pymatgen
data_CuNi14C
_symmetry_space_group_name_H-M   'P 1'
_cell_length_a   6.51344529
_cell_length_b   6.47635107
_cell_length_c   10.57126018
_cell_angle_alpha   90.00000000
_cell_angle_beta   90.00000000
_cell_angle_gamma   119.81179392
_symmetry_Int_Tables_number   1
_chemical_formula_structural   CuNi14C
_chemical_formula_sum   'Cu1 Ni14 C1'
_cell_volume   386.91811279
_cell_formula_units_Z   1
loop_
 _symmetry_equiv_pos_site_id
 _symmetry_equiv_pos_as_xyz
  1  'x, y, z'
loop_
 _atom_site_type_symbol
 _atom_site_label
 _atom_site_symmetry_multiplicity
 _atom_site_fract_x
 _atom_site_fract_y
 _atom_site_fract_z
 _atom_site_occupancy
  C  C0  1  0.15777595  0.82888747  0.12500000  1
  Ni  Ni1  1  0.16335791  0.33167846  0.62500000  1
  Ni  Ni2  1  0.16779177  0.83389539  0.62500000  1
  Ni  Ni3  1  0.65108487  0.33769783  0.12500000  1
  Ni  Ni4  1  0.66627487  0.32975004  0.62500000  1
  Ni  Ni5  1  0.65108487  0.81338604  0.12500000  1
  Ni  Ni6  1  0.66627487  0.83652382  0.62500000  1
  Ni  Ni7  1  0.33630227  0.17531636  0.38469043  1
  Ni  Ni8  1  0.33630227  0.17531636  0.86530957  1
  Ni  Ni9  1  0.33630227  0.66098692  0.38469043  1
  Ni  Ni10  1  0.33630227  0.66098692  0.86530957  1
  Ni  Ni11  1  0.83961267  0.16980683  0.36184776  1
  Ni  Ni12  1  0.83961267  0.16980683  0.88815224  1
  Ni  Ni13  1  0.82516483  0.66258292  0.38844323  1
  Ni  Ni14  1  0.82516483  0.66258292  0.86155677  1
  Cu  Cu15  1  0.20159081  0.35079490  0.12500000  1
