# generated using pymatgen
data_Cu(NiC12)3
_symmetry_space_group_name_H-M   'P 1'
_cell_length_a   9.09709400
_cell_length_b   5.33214300
_cell_length_c   9.89849195
_cell_angle_alpha   75.01418524
_cell_angle_beta   90.00000000
_cell_angle_gamma   90.00000000
_symmetry_Int_Tables_number   1
_chemical_formula_structural   Cu(NiC12)3
_chemical_formula_sum   'Cu1 Ni3 C36'
_cell_volume   463.81637666
_cell_formula_units_Z   1
loop_
 _symmetry_equiv_pos_site_id
 _symmetry_equiv_pos_as_xyz
  1  'x, y, z'
loop_
 _atom_site_type_symbol
 _atom_site_label
 _atom_site_symmetry_multiplicity
 _atom_site_fract_x
 _atom_site_fract_y
 _atom_site_fract_z
 _atom_site_occupancy
  C  C0  1  0.80354000  0.50000000  0.50000000  1
  Ni  Ni1  1  0.29569700  0.00000000  0.00000000  1
  Ni  Ni2  1  0.19696200  0.00000000  0.50000000  1
  Ni  Ni3  1  0.70403200  0.50000000  0.00000000  1
  Cu  Cu4  1  0.60332100  0.00000000  0.50000000  1
  C  C5  1  0.40050000  0.50000000  0.50000000  1
  C  C6  1  0.90483200  0.00000000  0.00000000  1
  C  C7  1  0.09445900  0.50000000  0.00000000  1
  C  C8  1  0.09012200  0.69424500  0.28761900  1
  C  C9  1  0.59217700  0.19570000  0.78708500  1
  C  C10  1  0.09012200  0.30575500  0.71238100  1
  C  C11  1  0.59217700  0.80430000  0.21291500  1
  C  C12  1  0.90967900  0.80364300  0.71312700  1
  C  C13  1  0.40799900  0.30531400  0.21215300  1
  C  C14  1  0.90967900  0.19635700  0.28687300  1
  C  C15  1  0.40799900  0.69468600  0.78784700  1
  C  C16  1  0.08876000  0.77815900  0.11699300  1
  C  C17  1  0.58425800  0.27476900  0.61741600  1
  C  C18  1  0.08876000  0.22184100  0.88300700  1
  C  C19  1  0.58425800  0.72523100  0.38258400  1
  C  C20  1  0.91000700  0.72077500  0.88323300  1
  C  C21  1  0.41393400  0.21854900  0.38294000  1
  C  C22  1  0.91000700  0.27922500  0.11676700  1
  C  C23  1  0.41393400  0.78145100  0.61706000  1
  C  C24  1  0.24677800  0.71034500  0.36133400  1
  C  C25  1  0.74690700  0.21125100  0.86179600  1
  C  C26  1  0.24677800  0.28965500  0.63866600  1
  C  C27  1  0.74690700  0.78874900  0.13820400  1
  C  C28  1  0.75139200  0.79752800  0.63999500  1
  C  C29  1  0.25242200  0.28893700  0.13880800  1
  C  C30  1  0.75139200  0.20247200  0.36000500  1
  C  C31  1  0.25242200  0.71106300  0.86119200  1
  C  C32  1  0.01805700  0.39764800  0.34883900  1
  C  C33  1  0.51651000  0.89944500  0.85000800  1
  C  C34  1  0.01805700  0.60235200  0.65116100  1
  C  C35  1  0.51651000  0.10055500  0.14999200  1
  C  C36  1  0.98592900  0.09611800  0.65098000  1
  C  C37  1  0.48339700  0.59951600  0.15057900  1
  C  C38  1  0.98592900  0.90388200  0.34902000  1
  C  C39  1  0.48339700  0.40048400  0.84942100  1
