# generated using pymatgen
data_Cu3NiC11
_symmetry_space_group_name_H-M   'P 1'
_cell_length_a   5.71493038
_cell_length_b   5.71493038
_cell_length_c   13.98936300
_cell_angle_alpha   90.00000000
_cell_angle_beta   90.00000000
_cell_angle_gamma   120.00000440
_symmetry_Int_Tables_number   1
_chemical_formula_structural   Cu3NiC11
_chemical_formula_sum   'Cu6 Ni2 C22'
_cell_volume   395.68577747
_cell_formula_units_Z   2
loop_
 _symmetry_equiv_pos_site_id
 _symmetry_equiv_pos_as_xyz
  1  'x, y, z'
loop_
 _atom_site_type_symbol
 _atom_site_label
 _atom_site_symmetry_multiplicity
 _atom_site_fract_x
 _atom_site_fract_y
 _atom_site_fract_z
 _atom_site_occupancy
  C  C0  1  0.00000000  0.00000000  0.50000000  1
  C  C1  1  0.33333300  0.66666700  0.16609100  1
  C  C2  1  0.66666700  0.33333300  0.83390900  1
  Ni  Ni3  1  0.33333300  0.66666700  0.66651200  1
  Ni  Ni4  1  0.66666700  0.33333300  0.33348800  1
  Cu  Cu5  1  0.33333300  0.66666700  0.41656600  1
  Cu  Cu6  1  0.66666700  0.33333300  0.08369000  1
  Cu  Cu7  1  0.00000000  0.00000000  0.74963600  1
  Cu  Cu8  1  0.00000000  0.00000000  0.25036400  1
  Cu  Cu9  1  0.33333300  0.66666700  0.91631000  1
  Cu  Cu10  1  0.66666700  0.33333300  0.58343400  1
  C  C11  1  0.00000000  0.00000000  0.00000000  1
  C  C12  1  0.82745200  0.17254800  0.41366700  1
  C  C13  1  0.16145500  0.83854500  0.08077700  1
  C  C14  1  0.49376200  0.50623800  0.74697600  1
  C  C15  1  0.50623800  0.01247600  0.25302400  1
  C  C16  1  0.83854500  0.67709100  0.91922300  1
  C  C17  1  0.17254800  0.34509600  0.58633300  1
  C  C18  1  0.34509600  0.17254800  0.41366700  1
  C  C19  1  0.67709100  0.83854500  0.08077700  1
  C  C20  1  0.01247600  0.50623800  0.74697600  1
  C  C21  1  0.50623800  0.49376200  0.25302400  1
  C  C22  1  0.83854500  0.16145500  0.91922300  1
  C  C23  1  0.17254800  0.82745200  0.58633300  1
  C  C24  1  0.82745200  0.65490400  0.41366700  1
  C  C25  1  0.16145500  0.32290900  0.08077700  1
  C  C26  1  0.49376200  0.98752400  0.74697600  1
  C  C27  1  0.98752400  0.49376200  0.25302400  1
  C  C28  1  0.32290900  0.16145500  0.91922300  1
  C  C29  1  0.65490400  0.82745200  0.58633300  1
