# generated using pymatgen
data_CuNi14C
_symmetry_space_group_name_H-M   'P 1'
_cell_length_a   6.54383902
_cell_length_b   6.18062031
_cell_length_c   10.43377641
_cell_angle_alpha   90.00000000
_cell_angle_beta   90.00000000
_cell_angle_gamma   118.18027672
_symmetry_Int_Tables_number   1
_chemical_formula_structural   CuNi14C
_chemical_formula_sum   'Cu1 Ni14 C1'
_cell_volume   371.97332519
_cell_formula_units_Z   1
loop_
 _symmetry_equiv_pos_site_id
 _symmetry_equiv_pos_as_xyz
  1  'x, y, z'
loop_
 _atom_site_type_symbol
 _atom_site_label
 _atom_site_symmetry_multiplicity
 _atom_site_fract_x
 _atom_site_fract_y
 _atom_site_fract_z
 _atom_site_occupancy
  C  C0  1  0.16070195  0.33035047  0.12500000  1
  Ni  Ni1  1  0.16570874  0.33285387  0.62500000  1
  Ni  Ni2  1  0.16445065  0.83222483  0.62500000  1
  Ni  Ni3  1  0.66137332  0.32782746  0.12500000  1
  Ni  Ni4  1  0.66448292  0.33296171  0.62500000  1
  Ni  Ni5  1  0.66137332  0.83354486  0.12500000  1
  Ni  Ni6  1  0.66448292  0.83152021  0.62500000  1
  Ni  Ni7  1  0.33534560  0.15921545  0.37911341  1
  Ni  Ni8  1  0.33534560  0.15921545  0.87088659  1
  Ni  Ni9  1  0.33534560  0.67613115  0.37911341  1
  Ni  Ni10  1  0.33534560  0.67613115  0.87088659  1
  Ni  Ni11  1  0.82885402  0.16442751  0.38395821  1
  Ni  Ni12  1  0.82885402  0.16442751  0.86604179  1
  Ni  Ni13  1  0.84396566  0.67198333  0.36716530  1
  Ni  Ni14  1  0.84396566  0.67198333  0.88283470  1
  Cu  Cu15  1  0.17040439  0.83520170  0.12500000  1
