# generated using pymatgen
data_Cu4NiC3
_symmetry_space_group_name_H-M   'P 1'
_cell_length_a   6.87729900
_cell_length_b   6.48499400
_cell_length_c   10.31063077
_cell_angle_alpha   51.33125287
_cell_angle_beta   90.00000000
_cell_angle_gamma   90.00000000
_symmetry_Int_Tables_number   1
_chemical_formula_structural   Cu4NiC3
_chemical_formula_sum   'Cu8 Ni2 C6'
_cell_volume   359.03483096
_cell_formula_units_Z   2
loop_
 _symmetry_equiv_pos_site_id
 _symmetry_equiv_pos_as_xyz
  1  'x, y, z'
loop_
 _atom_site_type_symbol
 _atom_site_label
 _atom_site_symmetry_multiplicity
 _atom_site_fract_x
 _atom_site_fract_y
 _atom_site_fract_z
 _atom_site_occupancy
  C  C0  1  0.33826200  0.16099900  0.23124900  1
  C  C1  1  0.66173800  0.16099900  0.73124900  1
  C  C2  1  0.83132800  0.91974600  0.47544600  1
  C  C3  1  0.16867200  0.91974600  0.97544600  1
  C  C4  1  0.17114300  0.41963300  0.47350400  1
  C  C5  1  0.82885700  0.41963300  0.97350400  1
  Ni  Ni6  1  0.67169300  0.66482600  0.22833900  1
  Ni  Ni7  1  0.32830700  0.66482600  0.72833900  1
  Cu  Cu8  1  0.33770000  0.54424100  0.22804500  1
  Cu  Cu9  1  0.66230000  0.54424100  0.72804500  1
  Cu  Cu10  1  0.83873500  0.29886400  0.47554800  1
  Cu  Cu11  1  0.16126500  0.29886400  0.97554800  1
  Cu  Cu12  1  0.83277900  0.78207000  0.98064600  1
  Cu  Cu13  1  0.16722100  0.78207000  0.48064600  1
  Cu  Cu14  1  0.67607800  0.04455000  0.22232400  1
  Cu  Cu15  1  0.32392200  0.04455000  0.72232400  1
