# generated using pymatgen
data_CuNiC5
_symmetry_space_group_name_H-M   'P 1'
_cell_length_a   4.87595200
_cell_length_b   6.07405600
_cell_length_c   10.43493100
_cell_angle_alpha   90.00000000
_cell_angle_beta   90.00000000
_cell_angle_gamma   90.00000000
_symmetry_Int_Tables_number   1
_chemical_formula_structural   CuNiC5
_chemical_formula_sum   'Cu4 Ni4 C20'
_cell_volume   309.04932185
_cell_formula_units_Z   4
loop_
 _symmetry_equiv_pos_site_id
 _symmetry_equiv_pos_as_xyz
  1  'x, y, z'
loop_
 _atom_site_type_symbol
 _atom_site_label
 _atom_site_symmetry_multiplicity
 _atom_site_fract_x
 _atom_site_fract_y
 _atom_site_fract_z
 _atom_site_occupancy
  Ni  Ni0  1  0.49086300  0.75000000  0.22199900  1
  Ni  Ni1  1  0.00913700  0.75000000  0.72199900  1
  Ni  Ni2  1  0.50913700  0.25000000  0.77800100  1
  Ni  Ni3  1  0.99086300  0.25000000  0.27800100  1
  C  C4  1  0.50000000  0.00000000  0.50000000  1
  C  C5  1  0.00000000  0.50000000  0.00000000  1
  C  C6  1  0.50000000  0.50000000  0.50000000  1
  C  C7  1  0.00000000  0.00000000  0.00000000  1
  Cu  Cu8  1  0.92585600  0.75000000  0.40385100  1
  Cu  Cu9  1  0.57414400  0.75000000  0.90385100  1
  Cu  Cu10  1  0.07414400  0.25000000  0.59614900  1
  Cu  Cu11  1  0.42585600  0.25000000  0.09614900  1
  C  C12  1  0.26377500  0.75000000  0.40418400  1
  C  C13  1  0.23622500  0.75000000  0.90418400  1
  C  C14  1  0.73622500  0.25000000  0.59581600  1
  C  C15  1  0.76377500  0.25000000  0.09581600  1
  C  C16  1  0.70716400  0.75000000  0.05165200  1
  C  C17  1  0.79283600  0.75000000  0.55165200  1
  C  C18  1  0.29283600  0.25000000  0.94834800  1
  C  C19  1  0.20716400  0.25000000  0.44834800  1
  C  C20  1  0.78269300  0.96548000  0.33418900  1
  C  C21  1  0.71730700  0.53452000  0.83418900  1
  C  C22  1  0.21730700  0.46548000  0.66581100  1
  C  C23  1  0.28269300  0.03452000  0.16581100  1
  C  C24  1  0.21730700  0.03452000  0.66581100  1
  C  C25  1  0.28269300  0.46548000  0.16581100  1
  C  C26  1  0.78269300  0.53452000  0.33418900  1
  C  C27  1  0.71730700  0.96548000  0.83418900  1
