# generated using pymatgen
data_Cu9Ni11C4
_symmetry_space_group_name_H-M   'P 1'
_cell_length_a   7.52064872
_cell_length_b   7.52064872
_cell_length_c   14.25880011
_cell_angle_alpha   84.86180607
_cell_angle_beta   84.86180607
_cell_angle_gamma   120.20058318
_symmetry_Int_Tables_number   1
_chemical_formula_structural   Cu9Ni11C4
_chemical_formula_sum   'Cu18 Ni22 C8'
_cell_volume   685.67468977
_cell_formula_units_Z   2
loop_
 _symmetry_equiv_pos_site_id
 _symmetry_equiv_pos_as_xyz
  1  'x, y, z'
loop_
 _atom_site_type_symbol
 _atom_site_label
 _atom_site_symmetry_multiplicity
 _atom_site_fract_x
 _atom_site_fract_y
 _atom_site_fract_z
 _atom_site_occupancy
  Ni  Ni0  1  0.00000000  0.50000000  0.00000000  1
  Ni  Ni1  1  0.50000000  0.00000000  0.50000000  1
  Ni  Ni2  1  0.24930200  0.75069800  0.25000000  1
  Ni  Ni3  1  0.75069800  0.24930200  0.75000000  1
  Ni  Ni4  1  0.58553700  0.41446300  0.25000000  1
  Ni  Ni5  1  0.41446300  0.58553700  0.75000000  1
  Ni  Ni6  1  0.83411500  0.67324900  0.49971100  1
  Ni  Ni7  1  0.32675100  0.16588500  0.00028900  1
  Ni  Ni8  1  0.16588500  0.32675100  0.50028900  1
  Ni  Ni9  1  0.67325000  0.83411500  0.99971100  1
  Ni  Ni10  1  0.62103700  0.78320900  0.35034500  1
  Ni  Ni11  1  0.21679100  0.37896300  0.14965500  1
  Ni  Ni12  1  0.37896300  0.21679100  0.64965500  1
  Ni  Ni13  1  0.78320900  0.62103700  0.85034500  1
  Ni  Ni14  1  0.88395500  0.33373200  0.36227900  1
  Ni  Ni15  1  0.66626800  0.11604500  0.13772100  1
  Ni  Ni16  1  0.11604500  0.66626800  0.63772100  1
  Ni  Ni17  1  0.33373200  0.88395500  0.86227900  1
  Ni  Ni18  1  0.13599200  0.05147700  0.34124200  1
  Ni  Ni19  1  0.94852300  0.86400800  0.15875800  1
  Ni  Ni20  1  0.86400800  0.94852300  0.65875800  1
  Ni  Ni21  1  0.05147700  0.13599200  0.84124200  1
  Cu  Cu22  1  0.88084000  0.11916000  0.25000000  1
  Cu  Cu23  1  0.11916000  0.88084000  0.75000000  1
  Cu  Cu24  1  0.49781300  0.05937600  0.32317200  1
  Cu  Cu25  1  0.94062400  0.50218700  0.17682800  1
  Cu  Cu26  1  0.50218700  0.94062400  0.67682800  1
  Cu  Cu27  1  0.05937600  0.49781300  0.82317200  1
  Cu  Cu28  1  0.89020100  0.66236300  0.32497900  1
  Cu  Cu29  1  0.33763700  0.10979900  0.17502100  1
  Cu  Cu30  1  0.10979900  0.33763700  0.67502100  1
  Cu  Cu31  1  0.66236300  0.89020100  0.82497900  1
  Cu  Cu32  1  0.28771600  0.45729500  0.32381800  1
  Cu  Cu33  1  0.54270500  0.71228400  0.17618200  1
  Cu  Cu34  1  0.71228400  0.54270500  0.67618200  1
  Cu  Cu35  1  0.45729500  0.28771600  0.82381800  1
  Cu  Cu36  1  0.01058700  0.84124300  0.97786800  1
  Cu  Cu37  1  0.15875700  0.98941300  0.52213200  1
  Cu  Cu38  1  0.98941300  0.15875700  0.02213200  1
  Cu  Cu39  1  0.84124300  0.01058700  0.47786800  1
  C  C40  1  0.68418300  0.18729300  0.93753400  1
  C  C41  1  0.81270700  0.31581700  0.56246600  1
  C  C42  1  0.31581700  0.81270700  0.06246600  1
  C  C43  1  0.18729300  0.68418300  0.43753400  1
  C  C44  1  0.64560500  0.47698800  0.06175600  1
  C  C45  1  0.52301200  0.35439500  0.43824400  1
  C  C46  1  0.35439500  0.52301200  0.93824400  1
  C  C47  1  0.47698800  0.64560500  0.56175600  1
