# generated using pymatgen
data_Cu9Ni5C6
_symmetry_space_group_name_H-M   'P 1'
_cell_length_a   8.15169500
_cell_length_b   8.15169500
_cell_length_c   13.05756308
_cell_angle_alpha   108.18851796
_cell_angle_beta   108.18851796
_cell_angle_gamma   90.00000000
_symmetry_Int_Tables_number   1
_chemical_formula_structural   Cu9Ni5C6
_chemical_formula_sum   'Cu18 Ni10 C12'
_cell_volume   778.55877787
_cell_formula_units_Z   2
loop_
 _symmetry_equiv_pos_site_id
 _symmetry_equiv_pos_as_xyz
  1  'x, y, z'
loop_
 _atom_site_type_symbol
 _atom_site_label
 _atom_site_symmetry_multiplicity
 _atom_site_fract_x
 _atom_site_fract_y
 _atom_site_fract_z
 _atom_site_occupancy
  C  C0  1  0.10589500  0.10589500  0.21179000  1
  C  C1  1  0.89410500  0.89410500  0.78821000  1
  C  C2  1  0.39410500  0.39410500  0.78821000  1
  C  C3  1  0.60589500  0.60589500  0.21179000  1
  C  C4  1  0.35695000  0.85695000  0.38047700  1
  C  C5  1  0.64305000  0.14305000  0.61952300  1
  C  C6  1  0.02352700  0.52352700  0.38047700  1
  C  C7  1  0.52352700  0.35695000  0.38047700  1
  C  C8  1  0.14305000  0.97647300  0.61952300  1
  C  C9  1  0.97647300  0.47647300  0.61952300  1
  C  C10  1  0.47647300  0.64305000  0.61952300  1
  C  C11  1  0.85695000  0.02352700  0.38047700  1
  Ni  Ni12  1  0.71276200  0.21276100  0.18728500  1
  Ni  Ni13  1  0.28723900  0.78723800  0.81271500  1
  Ni  Ni14  1  0.47452300  0.97452300  0.18728500  1
  Ni  Ni15  1  0.97452300  0.71276200  0.18728500  1
  Ni  Ni16  1  0.78723800  0.52547700  0.81271500  1
  Ni  Ni17  1  0.52547700  0.02547700  0.81271500  1
  Ni  Ni18  1  0.02547700  0.28723900  0.81271500  1
  Ni  Ni19  1  0.21276100  0.47452300  0.18728500  1
  Ni  Ni20  1  0.25000000  0.25000000  0.50000000  1
  Ni  Ni21  1  0.75000000  0.75000000  0.50000000  1
  Cu  Cu22  1  0.23289500  0.73289500  0.11386000  1
  Cu  Cu23  1  0.76710500  0.26710500  0.88614000  1
  Cu  Cu24  1  0.88096500  0.38096500  0.11386000  1
  Cu  Cu25  1  0.38096500  0.23289500  0.11386000  1
  Cu  Cu26  1  0.26710500  0.11903500  0.88614000  1
  Cu  Cu27  1  0.11903500  0.61903500  0.88614000  1
  Cu  Cu28  1  0.61903500  0.76710500  0.88614000  1
  Cu  Cu29  1  0.73289500  0.88096500  0.11386000  1
  Cu  Cu30  1  0.00000000  0.50000000  0.00000000  1
  Cu  Cu31  1  0.50000000  0.00000000  0.00000000  1
  Cu  Cu32  1  0.06829900  0.21128300  0.00000000  1
  Cu  Cu33  1  0.93170100  0.78871700  0.00000000  1
  Cu  Cu34  1  0.78871700  0.06829900  0.00000000  1
  Cu  Cu35  1  0.43170100  0.71128300  0.00000000  1
  Cu  Cu36  1  0.21128300  0.93170100  0.00000000  1
  Cu  Cu37  1  0.56829900  0.28871700  0.00000000  1
  Cu  Cu38  1  0.71128300  0.56829900  0.00000000  1
  Cu  Cu39  1  0.28871700  0.43170100  0.00000000  1
