# generated using pymatgen
data_CuNi3C2
_symmetry_space_group_name_H-M   'P 1'
_cell_length_a   3.45797954
_cell_length_b   3.45797954
_cell_length_c   39.31681900
_cell_angle_alpha   90.00000000
_cell_angle_beta   90.00000000
_cell_angle_gamma   119.99999129
_symmetry_Int_Tables_number   1
_chemical_formula_structural   CuNi3C2
_chemical_formula_sum   'Cu2 Ni6 C4'
_cell_volume   407.14947848
_cell_formula_units_Z   2
loop_
 _symmetry_equiv_pos_site_id
 _symmetry_equiv_pos_as_xyz
  1  'x, y, z'
loop_
 _atom_site_type_symbol
 _atom_site_label
 _atom_site_symmetry_multiplicity
 _atom_site_fract_x
 _atom_site_fract_y
 _atom_site_fract_z
 _atom_site_occupancy
  Ni  Ni0  1  0.00000000  0.00000000  0.32870700  1
  Ni  Ni1  1  0.00000000  0.00000000  0.70478900  1
  Ni  Ni2  1  0.33333300  0.66666700  0.42241300  1
  Ni  Ni3  1  0.33333300  0.66666700  0.51687300  1
  Ni  Ni4  1  0.00000000  0.00000000  0.23476500  1
  Ni  Ni5  1  0.00000000  0.00000000  0.61032000  1
  C  C6  1  0.00000000  0.00000000  0.09396200  1
  C  C7  1  0.33333300  0.66666700  0.28175500  1
  C  C8  1  0.00000000  0.00000000  0.46967200  1
  C  C9  1  0.33333300  0.66666700  0.65758400  1
  Cu  Cu10  1  0.33333300  0.66666700  0.05605600  1
  Cu  Cu11  1  0.33333300  0.66666700  0.13185200  1
