# generated using pymatgen
data_CuNi2C11
_symmetry_space_group_name_H-M   'P 1'
_cell_length_a   12.89135970
_cell_length_b   12.89135970
_cell_length_c   12.89135970
_cell_angle_alpha   154.67247582
_cell_angle_beta   154.67247582
_cell_angle_gamma   36.12290323
_symmetry_Int_Tables_number   1
_chemical_formula_structural   CuNi2C11
_chemical_formula_sum   'Cu2 Ni4 C22'
_cell_volume   391.56830070
_cell_formula_units_Z   2
loop_
 _symmetry_equiv_pos_site_id
 _symmetry_equiv_pos_as_xyz
  1  'x, y, z'
loop_
 _atom_site_type_symbol
 _atom_site_label
 _atom_site_symmetry_multiplicity
 _atom_site_fract_x
 _atom_site_fract_y
 _atom_site_fract_z
 _atom_site_occupancy
  Ni  Ni0  1  0.90150400  0.40150400  0.50000000  1
  Ni  Ni1  1  0.40150400  0.90150400  0.50000000  1
  Ni  Ni2  1  0.09849600  0.59849600  0.50000000  1
  Ni  Ni3  1  0.59849600  0.09849600  0.50000000  1
  Cu  Cu4  1  0.75000000  0.25000000  0.50000000  1
  Cu  Cu5  1  0.25000000  0.75000000  0.50000000  1
  C  C6  1  0.50000000  0.50000000  0.00000000  1
  C  C7  1  0.00000000  0.00000000  0.00000000  1
  C  C8  1  0.32059900  0.32059900  0.00000000  1
  C  C9  1  0.82059900  0.82059900  0.00000000  1
  C  C10  1  0.67940100  0.67940100  0.00000000  1
  C  C11  1  0.17940100  0.17940100  0.00000000  1
  C  C12  1  0.29060900  0.79060900  0.08121700  1
  C  C13  1  0.70939100  0.20939100  0.91878300  1
  C  C14  1  0.79060900  0.70939100  0.50000000  1
  C  C15  1  0.20939100  0.29060900  0.50000000  1
  C  C16  1  0.41840400  0.41840400  0.00000000  1
  C  C17  1  0.91840400  0.91840400  0.00000000  1
  C  C18  1  0.58159600  0.58159600  0.00000000  1
  C  C19  1  0.08159600  0.08159600  0.00000000  1
  C  C20  1  0.06167100  0.56167100  0.99681400  1
  C  C21  1  0.56485600  0.06485600  0.00318600  1
  C  C22  1  0.56167100  0.56485600  0.50000000  1
  C  C23  1  0.06485600  0.06167100  0.50000000  1
  C  C24  1  0.93832900  0.43832900  0.00318600  1
  C  C25  1  0.43514400  0.93514400  0.99681400  1
  C  C26  1  0.43832900  0.43514400  0.50000000  1
  C  C27  1  0.93514400  0.93832900  0.50000000  1
