# generated using pymatgen
data_Cu2Ni2C
_symmetry_space_group_name_H-M   'P 1'
_cell_length_a   6.06104300
_cell_length_b   7.12012900
_cell_length_c   11.45423600
_cell_angle_alpha   90.00000000
_cell_angle_beta   90.00000000
_cell_angle_gamma   90.00000000
_symmetry_Int_Tables_number   1
_chemical_formula_structural   Cu2Ni2C
_chemical_formula_sum   'Cu16 Ni16 C8'
_cell_volume   494.31222830
_cell_formula_units_Z   8
loop_
 _symmetry_equiv_pos_site_id
 _symmetry_equiv_pos_as_xyz
  1  'x, y, z'
loop_
 _atom_site_type_symbol
 _atom_site_label
 _atom_site_symmetry_multiplicity
 _atom_site_fract_x
 _atom_site_fract_y
 _atom_site_fract_z
 _atom_site_occupancy
  C  C0  1  0.50152800  0.11292800  0.36917200  1
  C  C1  1  0.00152800  0.38707200  0.63082800  1
  C  C2  1  0.49847200  0.61292800  0.13082800  1
  C  C3  1  0.99847200  0.88707200  0.86917200  1
  C  C4  1  0.49847200  0.88707200  0.63082800  1
  C  C5  1  0.99847200  0.61292800  0.36917200  1
  C  C6  1  0.50152800  0.38707200  0.86917200  1
  C  C7  1  0.00152800  0.11292800  0.13082800  1
  Ni  Ni8  1  0.74408800  0.24390300  0.42222500  1
  Ni  Ni9  1  0.24408800  0.25609700  0.57777500  1
  Ni  Ni10  1  0.25591200  0.74390300  0.07777500  1
  Ni  Ni11  1  0.75591200  0.75609700  0.92222500  1
  Ni  Ni12  1  0.25591200  0.75609700  0.57777500  1
  Ni  Ni13  1  0.75591200  0.74390300  0.42222500  1
  Ni  Ni14  1  0.74408800  0.25609700  0.92222500  1
  Ni  Ni15  1  0.24408800  0.24390300  0.07777500  1
  Ni  Ni16  1  0.39881500  0.34650800  0.31598700  1
  Ni  Ni17  1  0.89881500  0.15349200  0.68401300  1
  Ni  Ni18  1  0.60118500  0.84650800  0.18401300  1
  Ni  Ni19  1  0.10118500  0.65349200  0.81598700  1
  Ni  Ni20  1  0.60118500  0.65349200  0.68401300  1
  Ni  Ni21  1  0.10118500  0.84650800  0.31598700  1
  Ni  Ni22  1  0.39881500  0.15349200  0.81598700  1
  Ni  Ni23  1  0.89881500  0.34650800  0.18401300  1
  Cu  Cu24  1  0.87872900  0.35169100  0.46066700  1
  Cu  Cu25  1  0.37872900  0.14830900  0.53933300  1
  Cu  Cu26  1  0.12127100  0.85169100  0.03933300  1
  Cu  Cu27  1  0.62127100  0.64830900  0.96066700  1
  Cu  Cu28  1  0.12127100  0.64830900  0.53933300  1
  Cu  Cu29  1  0.62127100  0.85169100  0.46066700  1
  Cu  Cu30  1  0.87872900  0.14830900  0.96066700  1
  Cu  Cu31  1  0.37872900  0.35169100  0.03933300  1
  Cu  Cu32  1  0.33768000  0.50193900  0.28848200  1
  Cu  Cu33  1  0.83768000  0.99806100  0.71151800  1
  Cu  Cu34  1  0.66232000  0.00193900  0.21151800  1
  Cu  Cu35  1  0.16232000  0.49806100  0.78848200  1
  Cu  Cu36  1  0.66232000  0.49806100  0.71151800  1
  Cu  Cu37  1  0.16232000  0.00193900  0.28848200  1
  Cu  Cu38  1  0.33768000  0.99806100  0.78848200  1
  Cu  Cu39  1  0.83768000  0.50193900  0.21151800  1
