# generated using pymatgen
data_Cu13Ni2C3
_symmetry_space_group_name_H-M   'P 1'
_cell_length_a   6.99587200
_cell_length_b   8.10172169
_cell_length_c   22.11053085
_cell_angle_alpha   97.28060337
_cell_angle_beta   90.00000000
_cell_angle_gamma   90.00000000
_symmetry_Int_Tables_number   1
_chemical_formula_structural   Cu13Ni2C3
_chemical_formula_sum   'Cu52 Ni8 C12'
_cell_volume   1243.09010751
_cell_formula_units_Z   4
loop_
 _symmetry_equiv_pos_site_id
 _symmetry_equiv_pos_as_xyz
  1  'x, y, z'
loop_
 _atom_site_type_symbol
 _atom_site_label
 _atom_site_symmetry_multiplicity
 _atom_site_fract_x
 _atom_site_fract_y
 _atom_site_fract_z
 _atom_site_occupancy
  C  C0  1  0.62475900  0.13362200  0.63899400  1
  C  C1  1  0.12475900  0.86637800  0.86100600  1
  C  C2  1  0.37524100  0.86637800  0.36100600  1
  C  C3  1  0.87524100  0.13362200  0.13899400  1
  C  C4  1  0.82584600  0.60366900  0.62561800  1
  C  C5  1  0.32584600  0.39633100  0.87438200  1
  C  C6  1  0.17415400  0.39633100  0.37438200  1
  C  C7  1  0.67415400  0.60366900  0.12561800  1
  C  C8  1  0.80460300  0.47498700  0.78132700  1
  C  C9  1  0.30460300  0.52501300  0.71867300  1
  C  C10  1  0.19539700  0.52501300  0.21867300  1
  C  C11  1  0.69539700  0.47498700  0.28132700  1
  Ni  Ni12  1  0.82728300  0.83965600  0.47431300  1
  Ni  Ni13  1  0.32728300  0.16034400  0.02568700  1
  Ni  Ni14  1  0.17271700  0.16034400  0.52568700  1
  Ni  Ni15  1  0.67271700  0.83965600  0.97431300  1
  Ni  Ni16  1  0.32705900  0.69940600  0.55211100  1
  Ni  Ni17  1  0.82705900  0.30059400  0.94788900  1
  Ni  Ni18  1  0.67294100  0.30059400  0.44788900  1
  Ni  Ni19  1  0.17294100  0.69940600  0.05211100  1
  Cu  Cu20  1  0.92178800  0.69577300  0.52576700  1
  Cu  Cu21  1  0.42178800  0.30422700  0.97423300  1
  Cu  Cu22  1  0.07821200  0.30422700  0.47423300  1
  Cu  Cu23  1  0.57821200  0.69577300  0.02576700  1
  Cu  Cu24  1  0.57478300  0.78045200  0.46851400  1
  Cu  Cu25  1  0.07478300  0.21954800  0.03148600  1
  Cu  Cu26  1  0.42521700  0.21954800  0.53148600  1
  Cu  Cu27  1  0.92521700  0.78045200  0.96851400  1
  Cu  Cu28  1  0.81853400  0.02986300  0.52938300  1
  Cu  Cu29  1  0.31853400  0.97013700  0.97061700  1
  Cu  Cu30  1  0.18146600  0.97013700  0.47061700  1
  Cu  Cu31  1  0.68146600  0.02986300  0.02938300  1
  Cu  Cu32  1  0.19055100  0.61123900  0.61273500  1
  Cu  Cu33  1  0.69055100  0.38876100  0.88726500  1
  Cu  Cu34  1  0.80944900  0.38876100  0.38726500  1
  Cu  Cu35  1  0.30944900  0.61123900  0.11273500  1
  Cu  Cu36  1  0.54816800  0.59167100  0.56895700  1
  Cu  Cu37  1  0.04816800  0.40832900  0.93104300  1
  Cu  Cu38  1  0.45183200  0.40832900  0.43104300  1
  Cu  Cu39  1  0.95183200  0.59167100  0.06895700  1
  Cu  Cu40  1  0.35586200  0.90744000  0.59164900  1
  Cu  Cu41  1  0.85586200  0.09256000  0.90835100  1
  Cu  Cu42  1  0.64413800  0.09256000  0.40835100  1
  Cu  Cu43  1  0.14413800  0.90744000  0.09164900  1
  Cu  Cu44  1  0.85373300  0.38032200  0.59434200  1
  Cu  Cu45  1  0.35373300  0.61967800  0.90565800  1
  Cu  Cu46  1  0.14626700  0.61967800  0.40565800  1
  Cu  Cu47  1  0.64626700  0.38032200  0.09434200  1
  Cu  Cu48  1  0.78610400  0.82758900  0.65152300  1
  Cu  Cu49  1  0.28610400  0.17241100  0.84847700  1
  Cu  Cu50  1  0.21389600  0.17241100  0.34847700  1
  Cu  Cu51  1  0.71389600  0.82758900  0.15152300  1
  Cu  Cu52  1  0.61775200  0.52598200  0.69260100  1
  Cu  Cu53  1  0.11775200  0.47401800  0.80739900  1
  Cu  Cu54  1  0.38224800  0.47401800  0.30739900  1
  Cu  Cu55  1  0.88224800  0.52598200  0.19260100  1
  Cu  Cu56  1  0.81967200  0.25383900  0.74569300  1
  Cu  Cu57  1  0.31967200  0.74616100  0.75430700  1
  Cu  Cu58  1  0.18032800  0.74616100  0.25430700  1
  Cu  Cu59  1  0.68032800  0.25383900  0.24569300  1
  Cu  Cu60  1  0.79203200  0.69023600  0.82139900  1
  Cu  Cu61  1  0.29203200  0.30976400  0.67860100  1
  Cu  Cu62  1  0.20796800  0.30976400  0.17860100  1
  Cu  Cu63  1  0.70796800  0.69023600  0.32139900  1
  Cu  Cu64  1  0.48656500  0.43806300  0.79286800  1
  Cu  Cu65  1  0.98656500  0.56193700  0.70713200  1
  Cu  Cu66  1  0.51343500  0.56193700  0.20713200  1
  Cu  Cu67  1  0.01343500  0.43806300  0.29286800  1
  Cu  Cu68  1  0.51435000  0.00606800  0.75271700  1
  Cu  Cu69  1  0.01435000  0.99393200  0.74728300  1
  Cu  Cu70  1  0.48565000  0.99393200  0.24728300  1
  Cu  Cu71  1  0.98565000  0.00606800  0.25271700  1
