# generated using pymatgen
data_CuNiC6
_symmetry_space_group_name_H-M   'P 1'
_cell_length_a   5.33575000
_cell_length_b   7.19863100
_cell_length_c   11.68764900
_cell_angle_alpha   90.00000000
_cell_angle_beta   90.00000000
_cell_angle_gamma   90.00000000
_symmetry_Int_Tables_number   1
_chemical_formula_structural   CuNiC6
_chemical_formula_sum   'Cu2 Ni2 C12'
_cell_volume   448.92371260
_cell_formula_units_Z   2
loop_
 _symmetry_equiv_pos_site_id
 _symmetry_equiv_pos_as_xyz
  1  'x, y, z'
loop_
 _atom_site_type_symbol
 _atom_site_label
 _atom_site_symmetry_multiplicity
 _atom_site_fract_x
 _atom_site_fract_y
 _atom_site_fract_z
 _atom_site_occupancy
  Ni  Ni0  1  0.50000000  0.50000000  0.83200700  1
  Ni  Ni1  1  0.50000000  0.00000000  0.33200700  1
  Cu  Cu2  1  0.50000000  0.50000000  0.34274300  1
  Cu  Cu3  1  0.50000000  0.00000000  0.84274300  1
  C  C4  1  0.50000000  0.25882500  0.08202600  1
  C  C5  1  0.50000000  0.74117500  0.08202600  1
  C  C6  1  0.00000000  0.23494100  0.92523100  1
  C  C7  1  0.00000000  0.76505900  0.92523100  1
  C  C8  1  0.00000000  0.50000000  0.16420900  1
  C  C9  1  0.00000000  0.50000000  0.64653200  1
  C  C10  1  0.50000000  0.75882500  0.58202600  1
  C  C11  1  0.50000000  0.24117500  0.58202600  1
  C  C12  1  0.00000000  0.73494100  0.42523100  1
  C  C13  1  0.00000000  0.26505900  0.42523100  1
  C  C14  1  0.00000000  0.00000000  0.66420900  1
  C  C15  1  0.00000000  0.00000000  0.14653200  1
