# generated using pymatgen
data_Cu(NiC2)2
_symmetry_space_group_name_H-M   'P 1'
_cell_length_a   6.08388035
_cell_length_b   6.08388035
_cell_length_c   20.13315765
_cell_angle_alpha   81.59376542
_cell_angle_beta   81.59376542
_cell_angle_gamma   59.72851362
_symmetry_Int_Tables_number   1
_chemical_formula_structural   Cu(NiC2)2
_chemical_formula_sum   'Cu8 Ni16 C32'
_cell_volume   634.37927545
_cell_formula_units_Z   8
loop_
 _symmetry_equiv_pos_site_id
 _symmetry_equiv_pos_as_xyz
  1  'x, y, z'
loop_
 _atom_site_type_symbol
 _atom_site_label
 _atom_site_symmetry_multiplicity
 _atom_site_fract_x
 _atom_site_fract_y
 _atom_site_fract_z
 _atom_site_occupancy
  Ni  Ni0  1  0.37512100  0.87470100  0.87481100  1
  Ni  Ni1  1  0.24898700  0.24898700  0.74984400  1
  Ni  Ni2  1  0.87470100  0.37512100  0.87481100  1
  Ni  Ni3  1  0.35016100  0.35016100  0.46621800  1
  Ni  Ni4  1  0.12579200  0.62620300  0.62509800  1
  Ni  Ni5  1  0.90136600  0.90136600  0.78047300  1
  Ni  Ni6  1  0.09944000  0.09944000  0.21871400  1
  Ni  Ni7  1  0.62620300  0.12579200  0.62509800  1
  Ni  Ni8  1  0.87488300  0.37505800  0.37523900  1
  Ni  Ni9  1  0.65025800  0.65025800  0.53231900  1
  Ni  Ni10  1  0.37505800  0.87488300  0.37523900  1
  Ni  Ni11  1  0.12352500  0.62447300  0.12488200  1
  Ni  Ni12  1  0.62447300  0.12352500  0.12488200  1
  Ni  Ni13  1  0.39990100  0.39990100  0.28349900  1
  Ni  Ni14  1  0.50109300  0.50109300  0.99958400  1
  Ni  Ni15  1  0.15094600  0.15094600  0.03121800  1
  Cu  Cu16  1  0.84969300  0.84969300  0.97012900  1
  Cu  Cu17  1  0.37537800  0.37537800  0.87490800  1
  Cu  Cu18  1  0.60110500  0.60110500  0.71821700  1
  Cu  Cu19  1  0.12568600  0.12568600  0.62335500  1
  Cu  Cu20  1  0.87483600  0.87483600  0.37517400  1
  Cu  Cu21  1  0.99919000  0.99919000  0.50002400  1
  Cu  Cu22  1  0.62464500  0.62464500  0.12672100  1
  Cu  Cu23  1  0.75068000  0.75068000  0.25028200  1
  C  C24  1  0.68307000  0.22568100  0.93658200  1
  C  C25  1  0.56896700  0.56896700  0.82143400  1
  C  C26  1  0.22568100  0.68307000  0.93658200  1
  C  C27  1  0.68149300  0.68149300  0.93703600  1
  C  C28  1  0.07062100  0.07062100  0.81307100  1
  C  C29  1  0.43377800  0.97764200  0.68653000  1
  C  C30  1  0.52072000  0.06749600  0.81317300  1
  C  C31  1  0.31925700  0.31925700  0.57104400  1
  C  C32  1  0.97764200  0.43377800  0.68653000  1
  C  C33  1  0.18062600  0.18062600  0.92701500  1
  C  C34  1  0.42881900  0.42881900  0.68501500  1
  C  C35  1  0.06749600  0.52072000  0.81317300  1
  C  C36  1  0.19048800  0.72195500  0.43169000  1
  C  C37  1  0.81577100  0.81577100  0.57096300  1
  C  C38  1  0.28056200  0.80721700  0.56935200  1
  C  C39  1  0.07040400  0.07040400  0.32098200  1
  C  C40  1  0.72195500  0.19048800  0.43169000  1
  C  C41  1  0.93004100  0.93004100  0.67832200  1
  C  C42  1  0.17994600  0.17994600  0.42990500  1
  C  C43  1  0.80721700  0.28056200  0.56935200  1
  C  C44  1  0.56985500  0.56985500  0.32042900  1
  C  C45  1  0.94278600  0.46833900  0.18071400  1
  C  C46  1  0.02826800  0.55910700  0.31865000  1
  C  C47  1  0.81954800  0.81954800  0.07121200  1
  C  C48  1  0.46833900  0.94278600  0.18071400  1
  C  C49  1  0.67942600  0.67942600  0.42973300  1
  C  C50  1  0.93434000  0.93434000  0.17973400  1
  C  C51  1  0.55910700  0.02826800  0.31865000  1
  C  C52  1  0.32407100  0.32407100  0.06468500  1
  C  C53  1  0.76869100  0.31752600  0.06330100  1
  C  C54  1  0.43030700  0.43030700  0.17869900  1
  C  C55  1  0.31752600  0.76869100  0.06330100  1
