# generated using pymatgen
data_Cu2NiC6
_symmetry_space_group_name_H-M   'P 1'
_cell_length_a   11.39451699
_cell_length_b   11.39451713
_cell_length_c   11.39555018
_cell_angle_alpha   20.76595276
_cell_angle_beta   20.76594853
_cell_angle_gamma   20.76688713
_symmetry_Int_Tables_number   1
_chemical_formula_structural   Cu2NiC6
_chemical_formula_sum   'Cu2 Ni1 C6'
_cell_volume   162.83785655
_cell_formula_units_Z   1
loop_
 _symmetry_equiv_pos_site_id
 _symmetry_equiv_pos_as_xyz
  1  'x, y, z'
loop_
 _atom_site_type_symbol
 _atom_site_label
 _atom_site_symmetry_multiplicity
 _atom_site_fract_x
 _atom_site_fract_y
 _atom_site_fract_z
 _atom_site_occupancy
  Ni  Ni0  1  0.75145500  0.75145500  0.75035000  1
  Cu  Cu1  1  0.61471400  0.61471400  0.61467800  1
  Cu  Cu2  1  0.36662500  0.36662500  0.36606200  1
  C  C3  1  0.20073100  0.20073100  0.20092800  1
  C  C4  1  0.81697900  0.81697900  0.81794200  1
  C  C5  1  0.11700900  0.11700900  0.11656600  1
  C  C6  1  0.88758100  0.88758100  0.88759600  1
  C  C7  1  0.69449500  0.69449500  0.69401500  1
  C  C8  1  0.29884600  0.29884600  0.29873800  1
