# generated using pymatgen
data_CuNi3C10
_symmetry_space_group_name_H-M   'P 1'
_cell_length_a   5.80410700
_cell_length_b   5.93607683
_cell_length_c   5.97248210
_cell_angle_alpha   119.41964205
_cell_angle_beta   90.20745545
_cell_angle_gamma   118.96631147
_symmetry_Int_Tables_number   1
_chemical_formula_structural   CuNi3C10
_chemical_formula_sum   'Cu1 Ni3 C10'
_cell_volume   148.73358087
_cell_formula_units_Z   1
loop_
 _symmetry_equiv_pos_site_id
 _symmetry_equiv_pos_as_xyz
  1  'x, y, z'
loop_
 _atom_site_type_symbol
 _atom_site_label
 _atom_site_symmetry_multiplicity
 _atom_site_fract_x
 _atom_site_fract_y
 _atom_site_fract_z
 _atom_site_occupancy
  C  C0  1  0.00000000  0.50000000  0.50000000  1
  C  C1  1  0.50000000  0.00000000  0.50000000  1
  Ni  Ni2  1  0.50000000  0.00000000  0.00000000  1
  Ni  Ni3  1  0.50000000  0.50000000  0.00000000  1
  Ni  Ni4  1  0.00000000  0.50000000  0.00000000  1
  Cu  Cu5  1  0.00000000  0.00000000  0.00000000  1
  C  C6  1  0.72008500  0.75390400  0.19587000  1
  C  C7  1  0.23170600  0.75381600  0.20407100  1
  C  C8  1  0.24366500  0.70838700  0.77223400  1
  C  C9  1  0.76191000  0.73489000  0.79577400  1
  C  C10  1  0.23809000  0.26511000  0.20422600  1
  C  C11  1  0.75633500  0.29161300  0.22776600  1
  C  C12  1  0.76829400  0.24618400  0.79592900  1
  C  C13  1  0.27991500  0.24609600  0.80413000  1
