# generated using pymatgen
data_CuNiC
_symmetry_space_group_name_H-M   'P 1'
_cell_length_a   4.47092600
_cell_length_b   7.06609700
_cell_length_c   7.84197400
_cell_angle_alpha   90.00000000
_cell_angle_beta   90.00000000
_cell_angle_gamma   90.00000000
_symmetry_Int_Tables_number   1
_chemical_formula_structural   CuNiC
_chemical_formula_sum   'Cu4 Ni4 C4'
_cell_volume   247.74361748
_cell_formula_units_Z   4
loop_
 _symmetry_equiv_pos_site_id
 _symmetry_equiv_pos_as_xyz
  1  'x, y, z'
loop_
 _atom_site_type_symbol
 _atom_site_label
 _atom_site_symmetry_multiplicity
 _atom_site_fract_x
 _atom_site_fract_y
 _atom_site_fract_z
 _atom_site_occupancy
  C  C0  1  0.25000000  0.02975900  0.68208800  1
  C  C1  1  0.25000000  0.52975900  0.81791200  1
  C  C2  1  0.75000000  0.97024100  0.31791200  1
  C  C3  1  0.75000000  0.47024100  0.18208800  1
  Ni  Ni4  1  0.25000000  0.14673100  0.06591000  1
  Ni  Ni5  1  0.25000000  0.64673100  0.43409000  1
  Ni  Ni6  1  0.75000000  0.85326900  0.93409000  1
  Ni  Ni7  1  0.75000000  0.35326900  0.56591000  1
  Cu  Cu8  1  0.25000000  0.28007000  0.38798000  1
  Cu  Cu9  1  0.25000000  0.78007000  0.11202000  1
  Cu  Cu10  1  0.75000000  0.71993000  0.61202000  1
  Cu  Cu11  1  0.75000000  0.21993000  0.88798000  1
