# generated using pymatgen
data_Cu14NiC3
_symmetry_space_group_name_H-M   'P 1'
_cell_length_a   8.14249963
_cell_length_b   10.25893851
_cell_length_c   15.29805900
_cell_angle_alpha   90.00000000
_cell_angle_beta   90.00000000
_cell_angle_gamma   99.96214785
_symmetry_Int_Tables_number   1
_chemical_formula_structural   Cu14NiC3
_chemical_formula_sum   'Cu56 Ni4 C12'
_cell_volume   1258.63109709
_cell_formula_units_Z   4
loop_
 _symmetry_equiv_pos_site_id
 _symmetry_equiv_pos_as_xyz
  1  'x, y, z'
loop_
 _atom_site_type_symbol
 _atom_site_label
 _atom_site_symmetry_multiplicity
 _atom_site_fract_x
 _atom_site_fract_y
 _atom_site_fract_z
 _atom_site_occupancy
  C  C0  1  0.77900900  0.30392600  0.64557900  1
  C  C1  1  0.22099100  0.19607400  0.14557900  1
  C  C2  1  0.22099100  0.69607400  0.35442100  1
  C  C3  1  0.77900900  0.80392600  0.85442100  1
  C  C4  1  0.15717600  0.29882500  0.45216300  1
  C  C5  1  0.84282400  0.20117500  0.95216300  1
  C  C6  1  0.84282400  0.70117500  0.54783700  1
  C  C7  1  0.15717600  0.79882500  0.04783700  1
  C  C8  1  0.38804900  0.48004500  0.76899800  1
  C  C9  1  0.61195100  0.01995500  0.26899800  1
  C  C10  1  0.61195100  0.51995500  0.23100200  1
  C  C11  1  0.38804900  0.98004500  0.73100200  1
  Ni  Ni12  1  0.90424700  0.39116600  0.72931000  1
  Ni  Ni13  1  0.09575300  0.10883400  0.22931000  1
  Ni  Ni14  1  0.09575300  0.60883400  0.27069000  1
  Ni  Ni15  1  0.90424700  0.89116600  0.77069000  1
  Cu  Cu16  1  0.02477600  0.33412600  0.55773300  1
  Cu  Cu17  1  0.97522400  0.16587400  0.05773300  1
  Cu  Cu18  1  0.97522400  0.66587400  0.44226700  1
  Cu  Cu19  1  0.02477600  0.83412600  0.94226700  1
  Cu  Cu20  1  0.79862700  0.50126400  0.56540100  1
  Cu  Cu21  1  0.20137300  0.99873600  0.06540100  1
  Cu  Cu22  1  0.20137300  0.49873600  0.43459900  1
  Cu  Cu23  1  0.79862700  0.00126400  0.93459900  1
  Cu  Cu24  1  0.11389900  0.11619100  0.47515200  1
  Cu  Cu25  1  0.88610100  0.38380900  0.97515200  1
  Cu  Cu26  1  0.88610100  0.88380900  0.52484800  1
  Cu  Cu27  1  0.11389900  0.61619100  0.02484800  1
  Cu  Cu28  1  0.21886900  0.54014800  0.83363900  1
  Cu  Cu29  1  0.78113100  0.95985200  0.33363900  1
  Cu  Cu30  1  0.78113100  0.45985200  0.16636100  1
  Cu  Cu31  1  0.21886900  0.04014800  0.66636100  1
  Cu  Cu32  1  0.54793700  0.14668400  0.70076800  1
  Cu  Cu33  1  0.45206300  0.35331600  0.20076800  1
  Cu  Cu34  1  0.45206300  0.85331600  0.29923200  1
  Cu  Cu35  1  0.54793700  0.64668400  0.79923200  1
  Cu  Cu36  1  0.95790100  0.30329100  0.39010300  1
  Cu  Cu37  1  0.04209900  0.19670900  0.89010300  1
  Cu  Cu38  1  0.04209900  0.69670900  0.60989700  1
  Cu  Cu39  1  0.95790100  0.80329100  0.10989700  1
  Cu  Cu40  1  0.58010400  0.42081200  0.70097500  1
  Cu  Cu41  1  0.41989600  0.07918800  0.20097500  1
  Cu  Cu42  1  0.41989600  0.57918800  0.29902500  1
  Cu  Cu43  1  0.58010400  0.92081200  0.79902500  1
  Cu  Cu44  1  0.34614900  0.56504100  0.66406500  1
  Cu  Cu45  1  0.65385100  0.93495900  0.16406500  1
  Cu  Cu46  1  0.65385100  0.43495900  0.33593500  1
  Cu  Cu47  1  0.34614900  0.06504100  0.83593500  1
  Cu  Cu48  1  0.35087800  0.33012000  0.52185700  1
  Cu  Cu49  1  0.64912200  0.16988000  0.02185700  1
  Cu  Cu50  1  0.64912200  0.66988000  0.47814300  1
  Cu  Cu51  1  0.35087800  0.83012000  0.97814300  1
  Cu  Cu52  1  0.25855700  0.31802300  0.73339200  1
  Cu  Cu53  1  0.74144300  0.18197700  0.23339200  1
  Cu  Cu54  1  0.74144300  0.68197700  0.26660800  1
  Cu  Cu55  1  0.25855700  0.81802300  0.76660800  1
  Cu  Cu56  1  0.27788100  0.28770600  0.34707400  1
  Cu  Cu57  1  0.72211900  0.21229400  0.84707400  1
  Cu  Cu58  1  0.72211900  0.71229400  0.65292600  1
  Cu  Cu59  1  0.27788100  0.78770600  0.15292600  1
  Cu  Cu60  1  0.87065900  0.13665800  0.66844400  1
  Cu  Cu61  1  0.12934100  0.36334200  0.16844400  1
  Cu  Cu62  1  0.12934100  0.86334200  0.33155600  1
  Cu  Cu63  1  0.87065900  0.63665800  0.83155600  1
  Cu  Cu64  1  0.47867700  0.40543500  0.86687400  1
  Cu  Cu65  1  0.52132300  0.09456500  0.36687400  1
  Cu  Cu66  1  0.52132300  0.59456500  0.13312600  1
  Cu  Cu67  1  0.47867700  0.90543500  0.63312600  1
  Cu  Cu68  1  0.66657600  0.22805300  0.53935400  1
  Cu  Cu69  1  0.33342400  0.27194700  0.03935400  1
  Cu  Cu70  1  0.33342400  0.77194700  0.46064600  1
  Cu  Cu71  1  0.66657600  0.72805300  0.96064600  1
