# generated using pymatgen
data_Cu2NiC3
_symmetry_space_group_name_H-M   'P 1'
_cell_length_a   13.44278400
_cell_length_b   7.66661200
_cell_length_c   12.70652982
_cell_angle_alpha   55.51658634
_cell_angle_beta   90.00000000
_cell_angle_gamma   90.00000000
_symmetry_Int_Tables_number   1
_chemical_formula_structural   Cu2NiC3
_chemical_formula_sum   'Cu16 Ni8 C24'
_cell_volume   1079.44311294
_cell_formula_units_Z   8
loop_
 _symmetry_equiv_pos_site_id
 _symmetry_equiv_pos_as_xyz
  1  'x, y, z'
loop_
 _atom_site_type_symbol
 _atom_site_label
 _atom_site_symmetry_multiplicity
 _atom_site_fract_x
 _atom_site_fract_y
 _atom_site_fract_z
 _atom_site_occupancy
  C  C0  1  0.69050800  0.22773500  0.23364400  1
  C  C1  1  0.30949200  0.77226500  0.76635600  1
  C  C2  1  0.19050800  0.77226500  0.26635600  1
  C  C3  1  0.80949200  0.22773500  0.73364400  1
  C  C4  1  0.69141600  0.44533900  0.43050700  1
  C  C5  1  0.30858400  0.55466100  0.56949300  1
  C  C6  1  0.19141600  0.55466100  0.06949300  1
  C  C7  1  0.80858400  0.44533900  0.93050700  1
  C  C8  1  0.67511600  0.97805800  0.04073900  1
  C  C9  1  0.32488400  0.02194200  0.95926100  1
  C  C10  1  0.17511600  0.02194200  0.45926100  1
  C  C11  1  0.82488400  0.97805800  0.54073900  1
  C  C12  1  0.89640900  0.85462800  0.26147400  1
  C  C13  1  0.10359100  0.14537200  0.73852600  1
  C  C14  1  0.39640900  0.14537200  0.23852600  1
  C  C15  1  0.60359100  0.85462800  0.76147400  1
  C  C16  1  0.86048800  0.69252700  0.00697900  1
  C  C17  1  0.13951200  0.30747300  0.99302100  1
  C  C18  1  0.36048800  0.30747300  0.49302100  1
  C  C19  1  0.63951200  0.69252700  0.50697900  1
  C  C20  1  0.55175700  0.65791000  0.18658600  1
  C  C21  1  0.44824300  0.34209000  0.81341400  1
  C  C22  1  0.05175700  0.34209000  0.31341400  1
  C  C23  1  0.94824300  0.65791000  0.68658600  1
  Ni  Ni24  1  0.21352900  0.80504100  0.09588300  1
  Ni  Ni25  1  0.78647100  0.19495900  0.90411700  1
  Ni  Ni26  1  0.71352900  0.19495900  0.40411700  1
  Ni  Ni27  1  0.28647100  0.80504100  0.59588300  1
  Ni  Ni28  1  0.67621700  0.26324100  0.06383900  1
  Ni  Ni29  1  0.32378300  0.73675900  0.93616100  1
  Ni  Ni30  1  0.17621700  0.73675900  0.43616100  1
  Ni  Ni31  1  0.82378300  0.26324100  0.56383900  1
  Cu  Cu32  1  0.80436500  0.77748000  0.24008700  1
  Cu  Cu33  1  0.19563500  0.22252000  0.75991300  1
  Cu  Cu34  1  0.30436500  0.22252000  0.25991300  1
  Cu  Cu35  1  0.69563500  0.77748000  0.74008700  1
  Cu  Cu36  1  0.96816400  0.87078600  0.17519100  1
  Cu  Cu37  1  0.03183600  0.12921400  0.82480900  1
  Cu  Cu38  1  0.46816400  0.12921400  0.32480900  1
  Cu  Cu39  1  0.53183600  0.87078600  0.67519100  1
  Cu  Cu40  1  0.92521700  0.71594200  0.38735700  1
  Cu  Cu41  1  0.07478300  0.28405800  0.61264300  1
  Cu  Cu42  1  0.42521700  0.28405800  0.11264300  1
  Cu  Cu43  1  0.57478300  0.71594200  0.88735700  1
  Cu  Cu44  1  0.37663400  0.94137900  0.26498600  1
  Cu  Cu45  1  0.62336600  0.05862100  0.73501400  1
  Cu  Cu46  1  0.87663400  0.05862100  0.23501400  1
  Cu  Cu47  1  0.12336600  0.94137900  0.76498600  1
