# generated using pymatgen
data_CuNi4C9
_symmetry_space_group_name_H-M   'P 1'
_cell_length_a   8.61044800
_cell_length_b   6.22493400
_cell_length_c   12.73331100
_cell_angle_alpha   90.00000000
_cell_angle_beta   90.00000000
_cell_angle_gamma   90.00000000
_symmetry_Int_Tables_number   1
_chemical_formula_structural   CuNi4C9
_chemical_formula_sum   'Cu4 Ni16 C36'
_cell_volume   682.49872744
_cell_formula_units_Z   4
loop_
 _symmetry_equiv_pos_site_id
 _symmetry_equiv_pos_as_xyz
  1  'x, y, z'
loop_
 _atom_site_type_symbol
 _atom_site_label
 _atom_site_symmetry_multiplicity
 _atom_site_fract_x
 _atom_site_fract_y
 _atom_site_fract_z
 _atom_site_occupancy
  C  C0  1  0.00000000  0.24856800  0.91886900  1
  C  C1  1  0.00000000  0.75143200  0.08113100  1
  C  C2  1  0.50000000  0.24856800  0.58113100  1
  C  C3  1  0.50000000  0.75143200  0.41886900  1
  C  C4  1  0.00000000  0.22939200  0.59655600  1
  C  C5  1  0.00000000  0.77060800  0.40344400  1
  C  C6  1  0.50000000  0.22939200  0.90344400  1
  C  C7  1  0.50000000  0.77060800  0.09655600  1
  Ni  Ni8  1  0.16146000  0.65449400  0.78185600  1
  Ni  Ni9  1  0.16146000  0.34550600  0.21814400  1
  Ni  Ni10  1  0.33854000  0.65449400  0.71814400  1
  Ni  Ni11  1  0.33854000  0.34550600  0.28185600  1
  Ni  Ni12  1  0.83854000  0.34550600  0.21814400  1
  Ni  Ni13  1  0.83854000  0.65449400  0.78185600  1
  Ni  Ni14  1  0.66146000  0.34550600  0.28185600  1
  Ni  Ni15  1  0.66146000  0.65449400  0.71814400  1
  Ni  Ni16  1  0.20260200  0.84444900  0.69251600  1
  Ni  Ni17  1  0.20260200  0.15555100  0.30748400  1
  Ni  Ni18  1  0.29739800  0.84444900  0.80748400  1
  Ni  Ni19  1  0.29739800  0.15555100  0.19251600  1
  Ni  Ni20  1  0.79739800  0.15555100  0.30748400  1
  Ni  Ni21  1  0.79739800  0.84444900  0.69251600  1
  Ni  Ni22  1  0.70260200  0.15555100  0.19251600  1
  Ni  Ni23  1  0.70260200  0.84444900  0.80748400  1
  Cu  Cu24  1  0.25000000  0.74828500  0.75000000  1
  Cu  Cu25  1  0.25000000  0.25171500  0.25000000  1
  Cu  Cu26  1  0.75000000  0.25171500  0.25000000  1
  Cu  Cu27  1  0.75000000  0.74828500  0.75000000  1
  C  C28  1  0.13942100  0.50000000  0.00000000  1
  C  C29  1  0.36057900  0.50000000  0.50000000  1
  C  C30  1  0.86057900  0.50000000  0.00000000  1
  C  C31  1  0.63942100  0.50000000  0.50000000  1
  C  C32  1  0.00000000  0.12342600  0.07162800  1
  C  C33  1  0.00000000  0.87657400  0.92837200  1
  C  C34  1  0.50000000  0.12342600  0.42837200  1
  C  C35  1  0.50000000  0.87657400  0.57162800  1
  C  C36  1  0.00000000  0.49924200  0.81016800  1
  C  C37  1  0.00000000  0.50075800  0.18983200  1
  C  C38  1  0.50000000  0.49924200  0.68983200  1
  C  C39  1  0.50000000  0.50075800  0.31016800  1
  C  C40  1  0.00000000  0.10831800  0.76345000  1
  C  C41  1  0.00000000  0.89168200  0.23655000  1
  C  C42  1  0.50000000  0.10831800  0.73655000  1
  C  C43  1  0.50000000  0.89168200  0.26345000  1
  C  C44  1  0.23170300  0.16428100  0.89511300  1
  C  C45  1  0.23170300  0.83571900  0.10488700  1
  C  C46  1  0.26829700  0.16428100  0.60488700  1
  C  C47  1  0.26829700  0.83571900  0.39511300  1
  C  C48  1  0.76829700  0.83571900  0.10488700  1
  C  C49  1  0.76829700  0.16428100  0.89511300  1
  C  C50  1  0.73170300  0.83571900  0.39511300  1
  C  C51  1  0.73170300  0.16428100  0.60488700  1
  C  C52  1  0.00000000  0.88578100  0.58701300  1
  C  C53  1  0.00000000  0.11421900  0.41298700  1
  C  C54  1  0.50000000  0.88578100  0.91298700  1
  C  C55  1  0.50000000  0.11421900  0.08701300  1
