# generated using pymatgen
data_Cu2Ni10C
_symmetry_space_group_name_H-M   'P 1'
_cell_length_a   6.94965027
_cell_length_b   6.94965027
_cell_length_c   26.93739800
_cell_angle_alpha   90.00000000
_cell_angle_beta   90.00000000
_cell_angle_gamma   95.88332027
_symmetry_Int_Tables_number   1
_chemical_formula_structural   Cu2Ni10C
_chemical_formula_sum   'Cu12 Ni60 C6'
_cell_volume   1294.15989742
_cell_formula_units_Z   6
loop_
 _symmetry_equiv_pos_site_id
 _symmetry_equiv_pos_as_xyz
  1  'x, y, z'
loop_
 _atom_site_type_symbol
 _atom_site_label
 _atom_site_symmetry_multiplicity
 _atom_site_fract_x
 _atom_site_fract_y
 _atom_site_fract_z
 _atom_site_occupancy
  C  C0  1  0.87612100  0.12387900  0.58479600  1
  C  C1  1  0.12387900  0.87612100  0.41520400  1
  C  C2  1  0.12387900  0.87612100  0.08479600  1
  C  C3  1  0.87612100  0.12387900  0.91520400  1
  C  C4  1  0.61698900  0.38301100  0.75000000  1
  C  C5  1  0.38301100  0.61698900  0.25000000  1
  Ni  Ni6  1  0.59793600  0.40206400  0.63390300  1
  Ni  Ni7  1  0.40206400  0.59793600  0.36609700  1
  Ni  Ni8  1  0.40206400  0.59793600  0.13390300  1
  Ni  Ni9  1  0.59793600  0.40206400  0.86609700  1
  Ni  Ni10  1  0.18248300  0.40433900  0.75000000  1
  Ni  Ni11  1  0.81751700  0.59566100  0.25000000  1
  Ni  Ni12  1  0.59566100  0.81751700  0.75000000  1
  Ni  Ni13  1  0.40433900  0.18248300  0.25000000  1
  Ni  Ni14  1  0.87560300  0.12439700  0.14573300  1
  Ni  Ni15  1  0.12439700  0.87560300  0.85426700  1
  Ni  Ni16  1  0.12439700  0.87560300  0.64573300  1
  Ni  Ni17  1  0.87560300  0.12439700  0.35426700  1
  Ni  Ni18  1  0.37009300  0.62990700  0.67760000  1
  Ni  Ni19  1  0.62990700  0.37009300  0.32240000  1
  Ni  Ni20  1  0.62990700  0.37009300  0.17760000  1
  Ni  Ni21  1  0.37009300  0.62990700  0.82240000  1
  Ni  Ni22  1  0.22718300  0.47091800  0.58068400  1
  Ni  Ni23  1  0.77281700  0.52908200  0.41931600  1
  Ni  Ni24  1  0.77281700  0.52908200  0.08068400  1
  Ni  Ni25  1  0.52908200  0.77281700  0.91931600  1
  Ni  Ni26  1  0.22718300  0.47091800  0.91931600  1
  Ni  Ni27  1  0.47091800  0.22718300  0.08068400  1
  Ni  Ni28  1  0.47091800  0.22718300  0.41931600  1
  Ni  Ni29  1  0.52908200  0.77281700  0.58068400  1
  Ni  Ni30  1  0.96189800  0.73926000  0.75000000  1
  Ni  Ni31  1  0.03810200  0.26074000  0.25000000  1
  Ni  Ni32  1  0.26074000  0.03810200  0.75000000  1
  Ni  Ni33  1  0.73926000  0.96189800  0.25000000  1
  Ni  Ni34  1  0.62297200  0.37702800  0.52214900  1
  Ni  Ni35  1  0.37702800  0.62297200  0.47785100  1
  Ni  Ni36  1  0.37702800  0.62297200  0.02214900  1
  Ni  Ni37  1  0.62297200  0.37702800  0.97785100  1
  Ni  Ni38  1  0.96798000  0.47402300  0.67151100  1
  Ni  Ni39  1  0.03202000  0.52597700  0.32848900  1
  Ni  Ni40  1  0.03202000  0.52597700  0.17151100  1
  Ni  Ni41  1  0.52597700  0.03202000  0.82848900  1
  Ni  Ni42  1  0.96798000  0.47402300  0.82848900  1
  Ni  Ni43  1  0.47402300  0.96798000  0.17151100  1
  Ni  Ni44  1  0.47402300  0.96798000  0.32848900  1
  Ni  Ni45  1  0.52597700  0.03202000  0.67151100  1
  Ni  Ni46  1  0.90600900  0.09399100  0.69961000  1
  Ni  Ni47  1  0.09399100  0.90600900  0.30039000  1
  Ni  Ni48  1  0.09399100  0.90600900  0.19961000  1
  Ni  Ni49  1  0.90600900  0.09399100  0.80039000  1
  Ni  Ni50  1  0.87605300  0.61985000  0.58303600  1
  Ni  Ni51  1  0.12394700  0.38015000  0.41696400  1
  Ni  Ni52  1  0.12394700  0.38015000  0.08303600  1
  Ni  Ni53  1  0.38015000  0.12394700  0.91696400  1
  Ni  Ni54  1  0.87605300  0.61985000  0.91696400  1
  Ni  Ni55  1  0.61985000  0.87605300  0.08303600  1
  Ni  Ni56  1  0.61985000  0.87605300  0.41696400  1
  Ni  Ni57  1  0.38015000  0.12394700  0.58303600  1
  Ni  Ni58  1  0.20550100  0.20550100  0.50000000  1
  Ni  Ni59  1  0.79449900  0.79449900  0.50000000  1
  Ni  Ni60  1  0.79449900  0.79449900  0.00000000  1
  Ni  Ni61  1  0.20550100  0.20550100  0.00000000  1
  Ni  Ni62  1  0.83566600  0.16433400  0.03402100  1
  Ni  Ni63  1  0.16433400  0.83566600  0.96597900  1
  Ni  Ni64  1  0.16433400  0.83566600  0.53402100  1
  Ni  Ni65  1  0.83566600  0.16433400  0.46597900  1
  Cu  Cu66  1  0.24849400  0.25500100  0.66306100  1
  Cu  Cu67  1  0.75150600  0.74499900  0.33693900  1
  Cu  Cu68  1  0.75150600  0.74499900  0.16306100  1
  Cu  Cu69  1  0.74499900  0.75150600  0.83693900  1
  Cu  Cu70  1  0.24849400  0.25500100  0.83693900  1
  Cu  Cu71  1  0.25500100  0.24849400  0.16306100  1
  Cu  Cu72  1  0.25500100  0.24849400  0.33693900  1
  Cu  Cu73  1  0.74499900  0.75150600  0.66306100  1
  Cu  Cu74  1  0.00000000  0.50000000  0.50000000  1
  Cu  Cu75  1  0.00000000  0.50000000  0.00000000  1
  Cu  Cu76  1  0.50000000  0.00000000  0.00000000  1
  Cu  Cu77  1  0.50000000  0.00000000  0.50000000  1
