# generated using pymatgen
data_CuNiC13
_symmetry_space_group_name_H-M   'P 1'
_cell_length_a   5.88579612
_cell_length_b   5.88579612
_cell_length_c   14.54260300
_cell_angle_alpha   90.00000000
_cell_angle_beta   90.00000000
_cell_angle_gamma   120.00000139
_symmetry_Int_Tables_number   1
_chemical_formula_structural   CuNiC13
_chemical_formula_sum   'Cu2 Ni2 C26'
_cell_volume   436.29798101
_cell_formula_units_Z   2
loop_
 _symmetry_equiv_pos_site_id
 _symmetry_equiv_pos_as_xyz
  1  'x, y, z'
loop_
 _atom_site_type_symbol
 _atom_site_label
 _atom_site_symmetry_multiplicity
 _atom_site_fract_x
 _atom_site_fract_y
 _atom_site_fract_z
 _atom_site_occupancy
  C  C0  1  0.66666700  0.33333300  0.59050600  1
  C  C1  1  0.33333300  0.66666700  0.40949400  1
  C  C2  1  0.33333300  0.66666700  0.08564000  1
  C  C3  1  0.66666700  0.33333300  0.91436000  1
  C  C4  1  0.00000000  0.00000000  0.24927300  1
  C  C5  1  0.00000000  0.00000000  0.75072700  1
  Ni  Ni6  1  0.00000000  0.00000000  0.50000000  1
  Ni  Ni7  1  0.00000000  0.00000000  0.00000000  1
  C  C8  1  0.33333300  0.66666700  0.84357800  1
  C  C9  1  0.66666700  0.33333300  0.15642200  1
  Cu  Cu10  1  0.66666700  0.33333300  0.35069400  1
  Cu  Cu11  1  0.33333300  0.66666700  0.64930600  1
  C  C12  1  0.34126600  0.17063300  0.08668000  1
  C  C13  1  0.82936700  0.17063300  0.08668000  1
  C  C14  1  0.82936700  0.65873400  0.08668000  1
  C  C15  1  0.65873400  0.82936700  0.91332000  1
  C  C16  1  0.17063300  0.82936700  0.91332000  1
  C  C17  1  0.17063300  0.34126600  0.91332000  1
  C  C18  1  0.65800800  0.82900400  0.58070200  1
  C  C19  1  0.17099600  0.82900400  0.58070200  1
  C  C20  1  0.17099600  0.34199200  0.58070200  1
  C  C21  1  0.34199200  0.17099600  0.41929800  1
  C  C22  1  0.82900400  0.17099600  0.41929800  1
  C  C23  1  0.82900400  0.65800800  0.41929800  1
  C  C24  1  0.96529700  0.48264800  0.25311500  1
  C  C25  1  0.51735200  0.48264800  0.25311500  1
  C  C26  1  0.51735200  0.03470300  0.25311500  1
  C  C27  1  0.03470300  0.51735200  0.74688500  1
  C  C28  1  0.48264800  0.51735200  0.74688500  1
  C  C29  1  0.48264800  0.96529700  0.74688500  1
