# generated using pymatgen
data_CuNiC6
_symmetry_space_group_name_H-M   'P 1'
_cell_length_a   4.79927200
_cell_length_b   6.39275810
_cell_length_c   14.39678589
_cell_angle_alpha   94.05239955
_cell_angle_beta   90.00000000
_cell_angle_gamma   90.00000000
_symmetry_Int_Tables_number   1
_chemical_formula_structural   CuNiC6
_chemical_formula_sum   'Cu4 Ni4 C24'
_cell_volume   440.59748626
_cell_formula_units_Z   4
loop_
 _symmetry_equiv_pos_site_id
 _symmetry_equiv_pos_as_xyz
  1  'x, y, z'
loop_
 _atom_site_type_symbol
 _atom_site_label
 _atom_site_symmetry_multiplicity
 _atom_site_fract_x
 _atom_site_fract_y
 _atom_site_fract_z
 _atom_site_occupancy
  Ni  Ni0  1  0.14638400  0.85658200  0.17833200  1
  Ni  Ni1  1  0.64638400  0.14341800  0.32166800  1
  Ni  Ni2  1  0.85361600  0.14341800  0.82166800  1
  Ni  Ni3  1  0.35361600  0.85658200  0.67833200  1
  Cu  Cu4  1  0.34756100  0.65046700  0.38356900  1
  Cu  Cu5  1  0.84756100  0.34953300  0.11643100  1
  Cu  Cu6  1  0.65243900  0.34953300  0.61643100  1
  Cu  Cu7  1  0.15243900  0.65046700  0.88356900  1
  C  C8  1  0.91170900  0.74804700  0.44159300  1
  C  C9  1  0.41170900  0.25195300  0.05840700  1
  C  C10  1  0.08829100  0.25195300  0.55840700  1
  C  C11  1  0.58829100  0.74804700  0.94159300  1
  C  C12  1  0.43643500  0.39725600  0.40133600  1
  C  C13  1  0.93643500  0.60274400  0.09866400  1
  C  C14  1  0.56356500  0.60274400  0.59866400  1
  C  C15  1  0.06356500  0.39725600  0.90133600  1
  C  C16  1  0.18103700  0.64135700  0.27465900  1
  C  C17  1  0.68103700  0.35864300  0.22534100  1
  C  C18  1  0.81896300  0.35864300  0.72534100  1
  C  C19  1  0.31896300  0.64135700  0.77465900  1
  C  C20  1  0.77172700  0.93033200  0.21333600  1
  C  C21  1  0.27172700  0.06966800  0.28666400  1
  C  C22  1  0.22827300  0.06966800  0.78666400  1
  C  C23  1  0.72827300  0.93033200  0.71333600  1
  C  C24  1  0.62231000  0.82002800  0.39645300  1
  C  C25  1  0.12231000  0.17997200  0.10354700  1
  C  C26  1  0.37769000  0.17997200  0.60354700  1
  C  C27  1  0.87769000  0.82002800  0.89645300  1
  C  C28  1  0.10587200  0.73314000  0.46868700  1
  C  C29  1  0.60587200  0.26686000  0.03131300  1
  C  C30  1  0.89412800  0.26686000  0.53131300  1
  C  C31  1  0.39412800  0.73314000  0.96868700  1
