# generated using pymatgen
data_Cu4NiC18
_symmetry_space_group_name_H-M   'P 1'
_cell_length_a   7.83188454
_cell_length_b   10.45015000
_cell_length_c   13.77012160
_cell_angle_alpha   90.00000000
_cell_angle_beta   98.14585689
_cell_angle_gamma   90.00000000
_symmetry_Int_Tables_number   1
_chemical_formula_structural   Cu4NiC18
_chemical_formula_sum   'Cu16 Ni4 C72'
_cell_volume   1115.63604483
_cell_formula_units_Z   4
loop_
 _symmetry_equiv_pos_site_id
 _symmetry_equiv_pos_as_xyz
  1  'x, y, z'
loop_
 _atom_site_type_symbol
 _atom_site_label
 _atom_site_symmetry_multiplicity
 _atom_site_fract_x
 _atom_site_fract_y
 _atom_site_fract_z
 _atom_site_occupancy
  C  C0  1  0.74612000  0.88719800  0.99199800  1
  C  C1  1  0.24612000  0.61280200  0.49199800  1
  C  C2  1  0.25388000  0.11280200  0.00800200  1
  C  C3  1  0.75388000  0.38719800  0.50800200  1
  C  C4  1  0.20560500  0.07703700  0.33813300  1
  C  C5  1  0.70560500  0.42296300  0.83813300  1
  C  C6  1  0.79439500  0.92296300  0.66186700  1
  C  C7  1  0.29439500  0.57703700  0.16186700  1
  Ni  Ni8  1  0.79605800  0.34146700  0.18578300  1
  Ni  Ni9  1  0.29605800  0.15853300  0.68578300  1
  Ni  Ni10  1  0.20394200  0.65853300  0.81421700  1
  Ni  Ni11  1  0.70394200  0.84146700  0.31421700  1
  Cu  Cu12  1  0.48271000  0.89623200  0.15944700  1
  Cu  Cu13  1  0.98271000  0.60376800  0.65944700  1
  Cu  Cu14  1  0.51729000  0.10376800  0.84055300  1
  Cu  Cu15  1  0.01729000  0.39623200  0.34055300  1
  Cu  Cu16  1  0.25772900  0.96923300  0.56650500  1
  Cu  Cu17  1  0.75772900  0.53076700  0.06650500  1
  Cu  Cu18  1  0.74227100  0.03076700  0.43349500  1
  Cu  Cu19  1  0.24227100  0.46923300  0.93349500  1
  Cu  Cu20  1  0.98755400  0.19677600  0.71916900  1
  Cu  Cu21  1  0.48755400  0.30322400  0.21916900  1
  Cu  Cu22  1  0.01244600  0.80322400  0.28083100  1
  Cu  Cu23  1  0.51244600  0.69677600  0.78083100  1
  Cu  Cu24  1  0.07301000  0.84134500  0.91054600  1
  Cu  Cu25  1  0.57301000  0.65865500  0.41054600  1
  Cu  Cu26  1  0.92699000  0.15865500  0.08945400  1
  Cu  Cu27  1  0.42699000  0.34134500  0.58945400  1
  C  C28  1  0.37347400  0.97561200  0.17059700  1
  C  C29  1  0.87347400  0.52438800  0.67059700  1
  C  C30  1  0.62652600  0.02438800  0.82940300  1
  C  C31  1  0.12652600  0.47561200  0.32940300  1
  C  C32  1  0.46592600  0.81065600  0.22040900  1
  C  C33  1  0.96592600  0.68934400  0.72040900  1
  C  C34  1  0.53407400  0.18934400  0.77959100  1
  C  C35  1  0.03407400  0.31065600  0.27959100  1
  C  C36  1  0.46235700  0.84504800  0.07918000  1
  C  C37  1  0.96235700  0.65495200  0.57918000  1
  C  C38  1  0.53764300  0.15495200  0.92082000  1
  C  C39  1  0.03764300  0.34504800  0.42082000  1
  C  C40  1  0.62435400  0.95100200  0.17270400  1
  C  C41  1  0.12435400  0.54899800  0.67270400  1
  C  C42  1  0.37564600  0.04899800  0.82729600  1
  C  C43  1  0.87564600  0.45100200  0.32729600  1
  C  C44  1  0.34876500  0.90408000  0.52097100  1
  C  C45  1  0.84876500  0.59592000  0.02097100  1
  C  C46  1  0.65123500  0.09592000  0.47902900  1
  C  C47  1  0.15123500  0.40408000  0.97902900  1
  C  C48  1  0.34628400  0.97600500  0.64997600  1
  C  C49  1  0.84628400  0.52399500  0.14997600  1
  C  C50  1  0.65371600  0.02399500  0.35002400  1
  C  C51  1  0.15371600  0.47600500  0.85002400  1
  C  C52  1  0.23342600  0.07425300  0.52630200  1
  C  C53  1  0.73342600  0.42574700  0.02630200  1
  C  C54  1  0.76657400  0.92574700  0.47369800  1
  C  C55  1  0.26657400  0.57425300  0.97369800  1
  C  C56  1  0.12020700  0.92018800  0.57578800  1
  C  C57  1  0.62020800  0.57981200  0.07578800  1
  C  C58  1  0.87979200  0.07981200  0.42421200  1
  C  C59  1  0.37979200  0.42018800  0.92421200  1
  C  C60  1  0.11852400  0.23704600  0.77334500  1
  C  C61  1  0.61852400  0.26295400  0.27334500  1
  C  C62  1  0.88147600  0.76295400  0.22665500  1
  C  C63  1  0.38147600  0.73704600  0.72665500  1
  C  C64  1  0.01591300  0.15154900  0.63967200  1
  C  C65  1  0.51591300  0.34845100  0.13967200  1
  C  C66  1  0.98408700  0.84845100  0.36032800  1
  C  C67  1  0.48408700  0.65154900  0.86032800  1
  C  C68  1  0.92255100  0.11693700  0.76563000  1
  C  C69  1  0.42255100  0.38306300  0.26563000  1
  C  C70  1  0.07744900  0.88306300  0.23437000  1
  C  C71  1  0.57744900  0.61693700  0.73437000  1
  C  C72  1  0.89660000  0.29092900  0.69945700  1
  C  C73  1  0.39660000  0.20907100  0.19945700  1
  C  C74  1  0.10340000  0.70907100  0.30054300  1
  C  C75  1  0.60340000  0.79092900  0.80054300  1
  C  C76  1  0.98777800  0.93110000  0.87266500  1
  C  C77  1  0.48777800  0.56890000  0.37266500  1
  C  C78  1  0.01222200  0.06890000  0.12733500  1
  C  C79  1  0.51222200  0.43110000  0.62733500  1
  C  C80  1  0.12091800  0.85698000  0.99791400  1
  C  C81  1  0.62091800  0.64302000  0.49791400  1
  C  C82  1  0.87908200  0.14302000  0.00208600  1
  C  C83  1  0.37908200  0.35698000  0.50208600  1
  C  C84  1  0.98562900  0.74310600  0.90024000  1
  C  C85  1  0.48562900  0.75689400  0.40024000  1
  C  C86  1  0.01437100  0.25689400  0.09976000  1
  C  C87  1  0.51437100  0.24310600  0.59976000  1
  C  C88  1  0.20617900  0.83996000  0.87027600  1
  C  C89  1  0.70617900  0.66004000  0.37027600  1
  C  C90  1  0.79382100  0.16004000  0.12972400  1
  C  C91  1  0.29382100  0.33996000  0.62972400  1
