# generated using pymatgen
data_Cu(NiC2)2
_symmetry_space_group_name_H-M   'P 1'
_cell_length_a   5.89323618
_cell_length_b   5.89323618
_cell_length_c   7.01455819
_cell_angle_alpha   54.60464578
_cell_angle_beta   54.60464578
_cell_angle_gamma   40.79314564
_symmetry_Int_Tables_number   1
_chemical_formula_structural   Cu(NiC2)2
_chemical_formula_sum   'Cu1 Ni2 C4'
_cell_volume   125.13512228
_cell_formula_units_Z   1
loop_
 _symmetry_equiv_pos_site_id
 _symmetry_equiv_pos_as_xyz
  1  'x, y, z'
loop_
 _atom_site_type_symbol
 _atom_site_label
 _atom_site_symmetry_multiplicity
 _atom_site_fract_x
 _atom_site_fract_y
 _atom_site_fract_z
 _atom_site_occupancy
  C  C0  1  0.42940200  0.42940200  0.29848000  1
  C  C1  1  0.57059800  0.57059800  0.70152000  1
  C  C2  1  0.79249100  0.79249100  0.09359200  1
  C  C3  1  0.20750900  0.20750900  0.90640800  1
  Ni  Ni4  1  0.85572100  0.85572100  0.68808100  1
  Ni  Ni5  1  0.14427900  0.14427900  0.31191900  1
  Cu  Cu6  1  0.00000000  0.00000000  0.00000000  1
