# generated using pymatgen
data_CuNi4C3
_symmetry_space_group_name_H-M   'P 1'
_cell_length_a   10.72563000
_cell_length_b   5.95959900
_cell_length_c   6.65706892
_cell_angle_alpha   80.59231580
_cell_angle_beta   90.00000000
_cell_angle_gamma   90.00000000
_symmetry_Int_Tables_number   1
_chemical_formula_structural   CuNi4C3
_chemical_formula_sum   'Cu4 Ni16 C12'
_cell_volume   419.79968985
_cell_formula_units_Z   4
loop_
 _symmetry_equiv_pos_site_id
 _symmetry_equiv_pos_as_xyz
  1  'x, y, z'
loop_
 _atom_site_type_symbol
 _atom_site_label
 _atom_site_symmetry_multiplicity
 _atom_site_fract_x
 _atom_site_fract_y
 _atom_site_fract_z
 _atom_site_occupancy
  C  C0  1  0.08487300  0.73573700  0.06076400  1
  C  C1  1  0.58487300  0.26426300  0.43923600  1
  C  C2  1  0.91512700  0.26426300  0.93923600  1
  C  C3  1  0.41512700  0.73573700  0.56076400  1
  C  C4  1  0.68996700  0.80884400  0.16893600  1
  C  C5  1  0.18996700  0.19115600  0.33106400  1
  C  C6  1  0.31003300  0.19115600  0.83106400  1
  C  C7  1  0.81003300  0.80884400  0.66893600  1
  C  C8  1  0.37163800  0.66515700  0.11110700  1
  C  C9  1  0.87163800  0.33484300  0.38889300  1
  C  C10  1  0.62836200  0.33484300  0.88889300  1
  C  C11  1  0.12836200  0.66515700  0.61110700  1
  Ni  Ni12  1  0.49297100  0.59895700  0.25577600  1
  Ni  Ni13  1  0.99297100  0.40104300  0.24422400  1
  Ni  Ni14  1  0.50702900  0.40104300  0.74422400  1
  Ni  Ni15  1  0.00702900  0.59895700  0.75577600  1
  Ni  Ni16  1  0.27830600  0.46138400  0.07463800  1
  Ni  Ni17  1  0.77830600  0.53861600  0.42536200  1
  Ni  Ni18  1  0.72169400  0.53861600  0.92536200  1
  Ni  Ni19  1  0.22169400  0.46138400  0.57463800  1
  Ni  Ni20  1  0.28797700  0.85958900  0.21005600  1
  Ni  Ni21  1  0.78797700  0.14041100  0.28994400  1
  Ni  Ni22  1  0.71202300  0.14041100  0.78994400  1
  Ni  Ni23  1  0.21202300  0.85958900  0.71005600  1
  Ni  Ni24  1  0.41666200  0.82634300  0.89529900  1
  Ni  Ni25  1  0.91666200  0.17365700  0.60470100  1
  Ni  Ni26  1  0.58333800  0.17365700  0.10470100  1
  Ni  Ni27  1  0.08333800  0.82634300  0.39529900  1
  Cu  Cu28  1  0.88742300  0.87229600  0.00885200  1
  Cu  Cu29  1  0.38742300  0.12770400  0.49114800  1
  Cu  Cu30  1  0.11257700  0.12770400  0.99114800  1
  Cu  Cu31  1  0.61257700  0.87229600  0.50885200  1
