# generated using pymatgen
data_CuNi7C4
_symmetry_space_group_name_H-M   'P 1'
_cell_length_a   6.03215400
_cell_length_b   6.41624200
_cell_length_c   6.61664500
_cell_angle_alpha   90.00000000
_cell_angle_beta   90.00000000
_cell_angle_gamma   90.00000000
_symmetry_Int_Tables_number   1
_chemical_formula_structural   CuNi7C4
_chemical_formula_sum   'Cu2 Ni14 C8'
_cell_volume   256.08903906
_cell_formula_units_Z   2
loop_
 _symmetry_equiv_pos_site_id
 _symmetry_equiv_pos_as_xyz
  1  'x, y, z'
loop_
 _atom_site_type_symbol
 _atom_site_label
 _atom_site_symmetry_multiplicity
 _atom_site_fract_x
 _atom_site_fract_y
 _atom_site_fract_z
 _atom_site_occupancy
  C  C0  1  0.74278100  0.00000000  0.74156500  1
  C  C1  1  0.25721900  0.00000000  0.74156500  1
  C  C2  1  0.50000000  0.50000000  0.73173800  1
  C  C3  1  0.00000000  0.50000000  0.75624100  1
  C  C4  1  0.50000000  0.00000000  0.24375900  1
  C  C5  1  0.00000000  0.00000000  0.26826200  1
  C  C6  1  0.24278100  0.50000000  0.25843500  1
  C  C7  1  0.75721900  0.50000000  0.25843500  1
  Ni  Ni8  1  0.00000000  0.00000000  0.56681600  1
  Ni  Ni9  1  0.50000000  0.00000000  0.54644000  1
  Ni  Ni10  1  0.75257900  0.69391600  0.75265800  1
  Ni  Ni11  1  0.24742100  0.69391600  0.75265800  1
  Ni  Ni12  1  0.74742100  0.80608400  0.24734200  1
  Ni  Ni13  1  0.25257900  0.80608400  0.24734200  1
  Ni  Ni14  1  0.75257900  0.30608400  0.75265800  1
  Ni  Ni15  1  0.24742100  0.30608400  0.75265800  1
  Ni  Ni16  1  0.50000000  0.00000000  0.93695300  1
  Ni  Ni17  1  0.00000000  0.50000000  0.45356000  1
  Ni  Ni18  1  0.50000000  0.50000000  0.43318400  1
  Ni  Ni19  1  0.00000000  0.50000000  0.06304700  1
  Ni  Ni20  1  0.74742100  0.19391600  0.24734200  1
  Ni  Ni21  1  0.25257900  0.19391600  0.24734200  1
  Cu  Cu22  1  0.00000000  0.00000000  0.95339500  1
  Cu  Cu23  1  0.50000000  0.50000000  0.04660500  1
