# generated using pymatgen
data_Cu4NiC13
_symmetry_space_group_name_H-M   'P 1'
_cell_length_a   8.38356600
_cell_length_b   9.20569800
_cell_length_c   12.69074700
_cell_angle_alpha   90.00000000
_cell_angle_beta   90.00000000
_cell_angle_gamma   90.00000000
_symmetry_Int_Tables_number   1
_chemical_formula_structural   Cu4NiC13
_chemical_formula_sum   'Cu16 Ni4 C52'
_cell_volume   979.42840998
_cell_formula_units_Z   4
loop_
 _symmetry_equiv_pos_site_id
 _symmetry_equiv_pos_as_xyz
  1  'x, y, z'
loop_
 _atom_site_type_symbol
 _atom_site_label
 _atom_site_symmetry_multiplicity
 _atom_site_fract_x
 _atom_site_fract_y
 _atom_site_fract_z
 _atom_site_occupancy
  C  C0  1  0.00224500  0.25000000  0.00000000  1
  C  C1  1  0.99775500  0.75000000  0.00000000  1
  C  C2  1  0.49775500  0.75000000  0.50000000  1
  C  C3  1  0.50224500  0.25000000  0.50000000  1
  Ni  Ni4  1  0.37103700  0.25000000  0.00000000  1
  Ni  Ni5  1  0.62896300  0.75000000  0.00000000  1
  Ni  Ni6  1  0.12896300  0.75000000  0.50000000  1
  Ni  Ni7  1  0.87103700  0.25000000  0.50000000  1
  Cu  Cu8  1  0.18096300  0.00520400  0.13811600  1
  Cu  Cu9  1  0.81903700  0.99479600  0.86188400  1
  Cu  Cu10  1  0.31903700  0.50520400  0.36188400  1
  Cu  Cu11  1  0.18096300  0.49479600  0.86188400  1
  Cu  Cu12  1  0.68096300  0.49479600  0.63811600  1
  Cu  Cu13  1  0.81903700  0.50520400  0.13811600  1
  Cu  Cu14  1  0.31903700  0.99479600  0.63811600  1
  Cu  Cu15  1  0.68096300  0.00520400  0.36188400  1
  Cu  Cu16  1  0.03562600  0.01027200  0.35007200  1
  Cu  Cu17  1  0.96437400  0.98972800  0.64992800  1
  Cu  Cu18  1  0.46437400  0.51027200  0.14992800  1
  Cu  Cu19  1  0.03562600  0.48972800  0.64992800  1
  Cu  Cu20  1  0.53562600  0.48972800  0.85007200  1
  Cu  Cu21  1  0.96437400  0.51027200  0.35007200  1
  Cu  Cu22  1  0.46437400  0.98972800  0.85007200  1
  Cu  Cu23  1  0.53562600  0.01027200  0.14992800  1
  C  C24  1  0.36895300  0.37611200  0.12498000  1
  C  C25  1  0.63104700  0.62388800  0.87502000  1
  C  C26  1  0.13104700  0.87611200  0.37502000  1
  C  C27  1  0.36895300  0.12388800  0.87502000  1
  C  C28  1  0.86895300  0.12388800  0.62498000  1
  C  C29  1  0.63104700  0.87611200  0.12498000  1
  C  C30  1  0.13104700  0.62388800  0.62498000  1
  C  C31  1  0.86895300  0.37611200  0.37502000  1
  C  C32  1  0.03520800  0.12973700  0.43112900  1
  C  C33  1  0.96479200  0.87026300  0.56887100  1
  C  C34  1  0.46479200  0.62973700  0.06887100  1
  C  C35  1  0.03520800  0.37026300  0.56887100  1
  C  C36  1  0.53520800  0.37026300  0.93112900  1
  C  C37  1  0.96479200  0.62973700  0.43112900  1
  C  C38  1  0.46479200  0.87026300  0.93112900  1
  C  C39  1  0.53520800  0.12973700  0.06887100  1
  C  C40  1  0.10274300  0.07677100  0.24285400  1
  C  C41  1  0.89725700  0.92322900  0.75714600  1
  C  C42  1  0.39725700  0.57677100  0.25714600  1
  C  C43  1  0.10274300  0.42322900  0.75714600  1
  C  C44  1  0.60274300  0.42322900  0.74285400  1
  C  C45  1  0.89725700  0.57677100  0.24285400  1
  C  C46  1  0.39725700  0.92322900  0.74285400  1
  C  C47  1  0.60274300  0.07677100  0.25714600  1
  C  C48  1  0.40508000  0.37304000  0.39478500  1
  C  C49  1  0.59492000  0.62696000  0.60521500  1
  C  C50  1  0.09492000  0.87304000  0.10521500  1
  C  C51  1  0.40508000  0.12696000  0.60521500  1
  C  C52  1  0.90508000  0.12696000  0.89478500  1
  C  C53  1  0.59492000  0.87304000  0.39478500  1
  C  C54  1  0.09492000  0.62696000  0.89478500  1
  C  C55  1  0.90508000  0.37304000  0.10521500  1
  C  C56  1  0.19290600  0.13274200  0.06211300  1
  C  C57  1  0.80709400  0.86725800  0.93788700  1
  C  C58  1  0.30709400  0.63274200  0.43788700  1
  C  C59  1  0.19290600  0.36725800  0.93788700  1
  C  C60  1  0.69290600  0.36725800  0.56211300  1
  C  C61  1  0.80709400  0.63274200  0.06211300  1
  C  C62  1  0.30709400  0.86725800  0.56211300  1
  C  C63  1  0.69290600  0.13274200  0.43788700  1
  C  C64  1  0.14282500  0.46440000  0.32020400  1
  C  C65  1  0.85717500  0.53560000  0.67979600  1
  C  C66  1  0.35717500  0.96440000  0.17979600  1
  C  C67  1  0.14282500  0.03560000  0.67979600  1
  C  C68  1  0.64282500  0.03560000  0.82020400  1
  C  C69  1  0.85717500  0.96440000  0.32020400  1
  C  C70  1  0.35717500  0.53560000  0.82020400  1
  C  C71  1  0.64282500  0.46440000  0.17979600  1
