# generated using pymatgen
data_Cu14NiC24
_symmetry_space_group_name_H-M   'P 1'
_cell_length_a   8.99080017
_cell_length_b   8.84145132
_cell_length_c   9.03490142
_cell_angle_alpha   73.87033907
_cell_angle_beta   107.11768788
_cell_angle_gamma   107.56019353
_symmetry_Int_Tables_number   1
_chemical_formula_structural   Cu14NiC24
_chemical_formula_sum   'Cu14 Ni1 C24'
_cell_volume   640.16588112
_cell_formula_units_Z   1
loop_
 _symmetry_equiv_pos_site_id
 _symmetry_equiv_pos_as_xyz
  1  'x, y, z'
loop_
 _atom_site_type_symbol
 _atom_site_label
 _atom_site_symmetry_multiplicity
 _atom_site_fract_x
 _atom_site_fract_y
 _atom_site_fract_z
 _atom_site_occupancy
  Ni  Ni0  1  0.38884738  0.61964917  0.38063883  1
  Cu  Cu1  1  0.82772125  0.17852041  0.64836936  1
  Cu  Cu2  1  0.16115662  0.32034840  0.83014604  1
  Cu  Cu3  1  0.68520370  0.85103056  0.82852847  1
  Cu  Cu4  1  0.48972703  0.98755930  0.50696219  1
  Cu  Cu5  1  0.08862663  0.91141851  0.94123087  1
  Cu  Cu6  1  0.21718204  0.77565682  0.74914669  1
  Cu  Cu7  1  0.40301311  0.60715912  0.70144921  1
  Cu  Cu8  1  0.61669711  0.39370949  0.41151979  1
  Cu  Cu9  1  0.74825968  0.23713953  0.24251523  1
  Cu  Cu10  1  0.91193838  0.07743816  0.05873548  1
  Cu  Cu11  1  0.02077061  0.51430405  0.50466004  1
  Cu  Cu12  1  0.83633117  0.66391179  0.16401597  1
  Cu  Cu13  1  0.15481775  0.84575499  0.31789861  1
  Cu  Cu14  1  0.50733001  0.44660485  0.05147816  1
  C  C15  1  0.49573114  0.17837663  0.81574579  1
  C  C16  1  0.82969638  0.50626019  0.82177302  1
  C  C17  1  0.16607916  0.17440699  0.48885806  1
  C  C18  1  0.82835347  0.83612873  0.49311560  1
  C  C19  1  0.14939497  0.47540742  0.14374281  1
  C  C20  1  0.51222717  0.86907868  0.12911276  1
  C  C21  1  0.76662174  0.23277153  0.83509647  1
  C  C22  1  0.56476115  0.44265385  0.82347379  1
  C  C23  1  0.89418888  0.11428590  0.47184573  1
  C  C24  1  0.22329190  0.13861655  0.76293033  1
  C  C25  1  0.86603325  0.78184382  0.76743346  1
  C  C26  1  0.48077192  0.90763049  0.86127539  1
  C  C27  1  0.10410659  0.51623824  0.88262685  1
  C  C28  1  0.43502950  0.19007945  0.55155882  1
  C  C29  1  0.82313422  0.56462656  0.55616316  1
  C  C30  1  0.52266281  0.13824448  0.07287142  1
  C  C31  1  0.20442697  0.44885480  0.44544335  1
  C  C32  1  0.89217888  0.48094858  0.09154368  1
  C  C33  1  0.55725722  0.79316700  0.46573402  1
  C  C34  1  0.11845128  0.21522167  0.22593964  1
  C  C35  1  0.78336763  0.85280760  0.22855857  1
  C  C36  1  0.42456565  0.52605663  0.21739930  1
  C  C37  1  0.09901569  0.90478129  0.50731739  1
  C  C38  1  0.23902492  0.74331280  0.17913369  1
