# generated using pymatgen
data_Cu2NiC9
_symmetry_space_group_name_H-M   'P 1'
_cell_length_a   6.65348576
_cell_length_b   6.65348576
_cell_length_c   7.00904900
_cell_angle_alpha   90.00000000
_cell_angle_beta   90.00000000
_cell_angle_gamma   103.18125099
_symmetry_Int_Tables_number   1
_chemical_formula_structural   Cu2NiC9
_chemical_formula_sum   'Cu4 Ni2 C18'
_cell_volume   302.10785870
_cell_formula_units_Z   2
loop_
 _symmetry_equiv_pos_site_id
 _symmetry_equiv_pos_as_xyz
  1  'x, y, z'
loop_
 _atom_site_type_symbol
 _atom_site_label
 _atom_site_symmetry_multiplicity
 _atom_site_fract_x
 _atom_site_fract_y
 _atom_site_fract_z
 _atom_site_occupancy
  Ni  Ni0  1  0.65591800  0.65591800  0.25000000  1
  Ni  Ni1  1  0.34408200  0.34408200  0.75000000  1
  C  C2  1  0.00000000  0.00000000  0.00000000  1
  C  C3  1  0.00000000  0.00000000  0.50000000  1
  Cu  Cu4  1  0.07540700  0.45014600  0.25000000  1
  Cu  Cu5  1  0.92459300  0.54985400  0.75000000  1
  Cu  Cu6  1  0.45014600  0.07540700  0.25000000  1
  Cu  Cu7  1  0.54985400  0.92459300  0.75000000  1
  C  C8  1  0.08774400  0.08774400  0.25000000  1
  C  C9  1  0.91225600  0.91225600  0.75000000  1
  C  C10  1  0.93466800  0.65759400  0.05017600  1
  C  C11  1  0.06533200  0.34240600  0.94982400  1
  C  C12  1  0.65759400  0.93466800  0.44982400  1
  C  C13  1  0.34240600  0.06533200  0.55017600  1
  C  C14  1  0.38818400  0.38818400  0.25000000  1
  C  C15  1  0.61181600  0.61181600  0.75000000  1
  C  C16  1  0.74604400  0.30453800  0.25000000  1
  C  C17  1  0.25395600  0.69546200  0.75000000  1
  C  C18  1  0.30453800  0.74604400  0.25000000  1
  C  C19  1  0.69546200  0.25395600  0.75000000  1
  C  C20  1  0.06533200  0.34240600  0.55017600  1
  C  C21  1  0.93466800  0.65759400  0.44982400  1
  C  C22  1  0.34240600  0.06533200  0.94982400  1
  C  C23  1  0.65759400  0.93466800  0.05017600  1
