# generated using pymatgen
data_Cu8Ni6C5
_symmetry_space_group_name_H-M   'P 1'
_cell_length_a   6.17706443
_cell_length_b   8.44563323
_cell_length_c   11.68037600
_cell_angle_alpha   90.00000000
_cell_angle_beta   90.00000000
_cell_angle_gamma   102.85635057
_symmetry_Int_Tables_number   1
_chemical_formula_structural   Cu8Ni6C5
_chemical_formula_sum   'Cu16 Ni12 C10'
_cell_volume   594.08015753
_cell_formula_units_Z   2
loop_
 _symmetry_equiv_pos_site_id
 _symmetry_equiv_pos_as_xyz
  1  'x, y, z'
loop_
 _atom_site_type_symbol
 _atom_site_label
 _atom_site_symmetry_multiplicity
 _atom_site_fract_x
 _atom_site_fract_y
 _atom_site_fract_z
 _atom_site_occupancy
  C  C0  1  0.83916900  0.60745400  0.14420300  1
  C  C1  1  0.16083100  0.39254600  0.85579700  1
  C  C2  1  0.16083100  0.89254600  0.64420300  1
  C  C3  1  0.83916900  0.10745400  0.35579700  1
  C  C4  1  0.74552200  0.60523300  0.84329200  1
  C  C5  1  0.25447800  0.39476700  0.15670800  1
  C  C6  1  0.25447800  0.89476700  0.34329200  1
  C  C7  1  0.74552200  0.10523300  0.65670800  1
  C  C8  1  0.50000000  0.00000000  0.00000000  1
  C  C9  1  0.50000000  0.50000000  0.50000000  1
  Ni  Ni10  1  0.34121700  0.86182800  0.89570200  1
  Ni  Ni11  1  0.65878300  0.13817200  0.10429800  1
  Ni  Ni12  1  0.65878300  0.63817200  0.39570200  1
  Ni  Ni13  1  0.34121700  0.36182800  0.60429800  1
  Ni  Ni14  1  0.41157300  0.61524700  0.61597000  1
  Ni  Ni15  1  0.58842700  0.38475300  0.38403000  1
  Ni  Ni16  1  0.58842700  0.88475300  0.11597000  1
  Ni  Ni17  1  0.41157300  0.11524700  0.88403000  1
  Ni  Ni18  1  0.83051100  0.99447200  0.92752400  1
  Ni  Ni19  1  0.16948900  0.00552800  0.07247600  1
  Ni  Ni20  1  0.16948900  0.50552800  0.42752400  1
  Ni  Ni21  1  0.83051100  0.49447200  0.57247600  1
  Cu  Cu22  1  0.52585300  0.64305100  0.79952000  1
  Cu  Cu23  1  0.47414700  0.35694900  0.20048000  1
  Cu  Cu24  1  0.47414700  0.85694900  0.29952000  1
  Cu  Cu25  1  0.52585300  0.14305100  0.70048000  1
  Cu  Cu26  1  0.72078700  0.95707900  0.57859900  1
  Cu  Cu27  1  0.27921300  0.04292100  0.42140100  1
  Cu  Cu28  1  0.27921300  0.54292100  0.07859900  1
  Cu  Cu29  1  0.72078700  0.45707900  0.92140100  1
  Cu  Cu30  1  0.87640100  0.75777500  0.91950200  1
  Cu  Cu31  1  0.12359900  0.24222500  0.08049800  1
  Cu  Cu32  1  0.12359900  0.74222500  0.41950200  1
  Cu  Cu33  1  0.87640100  0.25777500  0.58049800  1
  Cu  Cu34  1  0.90558900  0.59162200  0.73891000  1
  Cu  Cu35  1  0.09441100  0.40837800  0.26109000  1
  Cu  Cu36  1  0.09441100  0.90837800  0.23891000  1
  Cu  Cu37  1  0.90558900  0.09162200  0.76109000  1
