# generated using pymatgen
data_Cu6NiC36
_symmetry_space_group_name_H-M   'P 1'
_cell_length_a   8.16660477
_cell_length_b   10.76297727
_cell_length_c   10.49503513
_cell_angle_alpha   120.80185021
_cell_angle_beta   90.00000000
_cell_angle_gamma   90.00000000
_symmetry_Int_Tables_number   1
_chemical_formula_structural   Cu6NiC36
_chemical_formula_sum   'Cu6 Ni1 C36'
_cell_volume   792.35971180
_cell_formula_units_Z   1
loop_
 _symmetry_equiv_pos_site_id
 _symmetry_equiv_pos_as_xyz
  1  'x, y, z'
loop_
 _atom_site_type_symbol
 _atom_site_label
 _atom_site_symmetry_multiplicity
 _atom_site_fract_x
 _atom_site_fract_y
 _atom_site_fract_z
 _atom_site_occupancy
  C  C0  1  0.54587106  0.60325275  0.29141914  1
  C  C1  1  0.00521733  0.34546325  0.65892293  1
  C  C2  1  0.49478267  0.34546325  0.65892293  1
  C  C3  1  0.95412894  0.60325275  0.29141914  1
  C  C4  1  0.75000000  0.19095114  0.97214745  1
  C  C5  1  0.75000000  0.98957123  0.23440865  1
  C  C6  1  0.75000000  0.76667251  0.77323708  1
  C  C7  1  0.25000000  0.72638108  0.99511504  1
  C  C8  1  0.25000000  0.01009394  0.77184554  1
  C  C9  1  0.25000000  0.25831885  0.23722280  1
  Ni  Ni10  1  0.25000000  0.76830847  0.38416551  1
  Cu  Cu11  1  0.75000000  0.96780351  0.59367504  1
  Cu  Cu12  1  0.75000000  0.38095327  0.36973321  1
  Cu  Cu13  1  0.75000000  0.60657445  0.00768834  1
  Cu  Cu14  1  0.25000000  0.06187233  0.40143018  1
  Cu  Cu15  1  0.25000000  0.61244430  0.62859879  1
  Cu  Cu16  1  0.25000000  0.38358638  0.99377165  1
  C  C17  1  0.75000000  0.14940455  0.65307715  1
  C  C18  1  0.75000000  0.29360914  0.46576282  1
  C  C19  1  0.75000000  0.52191683  0.81854388  1
  C  C20  1  0.25000000  0.87474737  0.29073172  1
  C  C21  1  0.25000000  0.73282708  0.53923124  1
  C  C22  1  0.25000000  0.56905993  0.20005862  1
  C  C23  1  0.75000000  0.85083678  0.40164248  1
  C  C24  1  0.75000000  0.56764613  0.47551104  1
  C  C25  1  0.75000000  0.48388389  0.06976624  1
  C  C26  1  0.25000000  0.11451263  0.58588097  1
  C  C27  1  0.25000000  0.41795627  0.52330784  1
  C  C28  1  0.25000000  0.44683716  0.86872298  1
  C  C29  1  0.58410360  0.93079859  0.67040938  1
  C  C30  1  0.58276018  0.34023927  0.25515257  1
  C  C31  1  0.58139404  0.71363746  0.08544817  1
  C  C32  1  0.07933624  0.12066254  0.35542634  1
  C  C33  1  0.07755027  0.65171751  0.74491714  1
  C  C34  1  0.08531397  0.26782800  0.97074535  1
  C  C35  1  0.42066376  0.12066254  0.35542634  1
  C  C36  1  0.42244973  0.65171751  0.74491714  1
  C  C37  1  0.41468603  0.26782800  0.97074535  1
  C  C38  1  0.91589640  0.93079859  0.67040938  1
  C  C39  1  0.91723982  0.34023927  0.25515257  1
  C  C40  1  0.91860596  0.71363746  0.08544817  1
  C  C41  1  0.57270760  0.98739152  0.00867086  1
  C  C42  1  0.92729240  0.98739152  0.00867086  1
