# generated using pymatgen
data_Cu11NiC20
_symmetry_space_group_name_H-M   'P 1'
_cell_length_a   5.67286571
_cell_length_b   5.67349200
_cell_length_c   22.46383549
_cell_angle_alpha   90.00000000
_cell_angle_beta   89.97407544
_cell_angle_gamma   59.99634788
_symmetry_Int_Tables_number   1
_chemical_formula_structural   Cu11NiC20
_chemical_formula_sum   'Cu22 Ni2 C40'
_cell_volume   626.11116479
_cell_formula_units_Z   2
loop_
 _symmetry_equiv_pos_site_id
 _symmetry_equiv_pos_as_xyz
  1  'x, y, z'
loop_
 _atom_site_type_symbol
 _atom_site_label
 _atom_site_symmetry_multiplicity
 _atom_site_fract_x
 _atom_site_fract_y
 _atom_site_fract_z
 _atom_site_occupancy
  C  C0  1  0.33456600  0.33271700  0.26063300  1
  C  C1  1  0.66543400  0.66728300  0.73936700  1
  Ni  Ni2  1  0.33394800  0.33302600  0.52519100  1
  Ni  Ni3  1  0.66605200  0.66697400  0.47480900  1
  Cu  Cu4  1  0.16562700  0.66790900  0.39312000  1
  Cu  Cu5  1  0.66730700  0.16634700  0.39318900  1
  Cu  Cu6  1  0.16562700  0.16646400  0.39312000  1
  Cu  Cu7  1  0.83437300  0.33209100  0.60688000  1
  Cu  Cu8  1  0.33269300  0.83365300  0.60681100  1
  Cu  Cu9  1  0.83437300  0.83353600  0.60688000  1
  Cu  Cu10  1  0.83174500  0.33515000  0.89074600  1
  Cu  Cu11  1  0.33409900  0.83295100  0.89062200  1
  Cu  Cu12  1  0.83174500  0.83310500  0.89074600  1
  Cu  Cu13  1  0.16825500  0.66485000  0.10925400  1
  Cu  Cu14  1  0.66590100  0.16704900  0.10937800  1
  Cu  Cu15  1  0.16825500  0.16689500  0.10925400  1
  Cu  Cu16  1  0.33347200  0.33326400  0.68724300  1
  Cu  Cu17  1  0.66652800  0.66673600  0.31275700  1
  Cu  Cu18  1  0.66677600  0.66661200  0.19697700  1
  Cu  Cu19  1  0.33322400  0.33338800  0.80302300  1
  Cu  Cu20  1  0.99995800  0.00002100  0.74504800  1
  Cu  Cu21  1  0.00004200  0.99997900  0.25495200  1
  Cu  Cu22  1  0.00000000  0.00000000  0.50000000  1
  Cu  Cu23  1  0.00000000  0.00000000  0.00000000  1
  Cu  Cu24  1  0.66806000  0.66597000  0.07486100  1
  Cu  Cu25  1  0.33194000  0.33403000  0.92513900  1
  C  C26  1  0.14857600  0.70366000  0.55604000  1
  C  C27  1  0.70446800  0.14776600  0.55610800  1
  C  C28  1  0.14857600  0.14776500  0.55604000  1
  C  C29  1  0.85142400  0.29634000  0.44396000  1
  C  C30  1  0.29553200  0.85223400  0.44389200  1
  C  C31  1  0.85142400  0.85223500  0.44396000  1
  C  C32  1  0.84839500  0.30408600  0.05607000  1
  C  C33  1  0.30585200  0.84707400  0.05608800  1
  C  C34  1  0.84839500  0.84752000  0.05607000  1
  C  C35  1  0.15160500  0.69591400  0.94393000  1
  C  C36  1  0.69414800  0.15292600  0.94391200  1
  C  C37  1  0.15160500  0.15248000  0.94393000  1
  C  C38  1  0.00056300  0.99971900  0.65483700  1
  C  C39  1  0.99943700  0.00028100  0.34516300  1
  C  C40  1  0.00077700  0.99961200  0.15350300  1
  C  C41  1  0.99922300  0.00038800  0.84649700  1
  C  C42  1  0.50629900  0.98775600  0.65262800  1
  C  C43  1  0.98767800  0.50616100  0.65280800  1
  C  C44  1  0.50629900  0.50594600  0.65262800  1
  C  C45  1  0.49370100  0.01224500  0.34737200  1
  C  C46  1  0.01232200  0.49383900  0.34719200  1
  C  C47  1  0.49370100  0.49405400  0.34737200  1
  C  C48  1  0.50974300  0.98117700  0.14888400  1
  C  C49  1  0.98038000  0.50981000  0.14850200  1
  C  C50  1  0.50974300  0.50908000  0.14888400  1
  C  C51  1  0.49025700  0.01882300  0.85111600  1
  C  C52  1  0.01962000  0.49019000  0.85149800  1
  C  C53  1  0.49025700  0.49092000  0.85111600  1
  C  C54  1  0.33265800  0.33367100  0.43715300  1
  C  C55  1  0.66734200  0.66632900  0.56284700  1
  C  C56  1  0.66575100  0.66712400  0.93142600  1
  C  C57  1  0.33424900  0.33287600  0.06857400  1
  C  C58  1  0.18239600  0.63580800  0.74861500  1
  C  C59  1  0.63571500  0.18214300  0.74851300  1
  C  C60  1  0.18239600  0.18179600  0.74861500  1
  C  C61  1  0.81760400  0.36419200  0.25138500  1
  C  C62  1  0.36428500  0.81785700  0.25148700  1
  C  C63  1  0.81760400  0.81820400  0.25138500  1
