# generated using pymatgen
data_CuNi16C19
_symmetry_space_group_name_H-M   'P 1'
_cell_length_a   15.27165158
_cell_length_b   15.27165158
_cell_length_c   15.95710254
_cell_angle_alpha   90.66590733
_cell_angle_beta   90.66590733
_cell_angle_gamma   60.16317135
_symmetry_Int_Tables_number   1
_chemical_formula_structural   CuNi16C19
_chemical_formula_sum   'Cu4 Ni64 C76'
_cell_volume   3227.96812678
_cell_formula_units_Z   4
loop_
 _symmetry_equiv_pos_site_id
 _symmetry_equiv_pos_as_xyz
  1  'x, y, z'
loop_
 _atom_site_type_symbol
 _atom_site_label
 _atom_site_symmetry_multiplicity
 _atom_site_fract_x
 _atom_site_fract_y
 _atom_site_fract_z
 _atom_site_occupancy
  Ni  Ni0  1  0.48656280  0.94906313  0.58601219  1
  Ni  Ni1  1  0.05093687  0.51343720  0.41398781  1
  Ni  Ni2  1  0.68078179  0.98209863  0.58861472  1
  Ni  Ni3  1  0.01790137  0.31921821  0.41138528  1
  Ni  Ni4  1  0.20298692  0.95102525  0.58753567  1
  Ni  Ni5  1  0.04897475  0.79701308  0.41246433  1
  Ni  Ni6  1  0.09272022  0.64529160  0.78549406  1
  Ni  Ni7  1  0.35470840  0.90727978  0.21450594  1
  Ni  Ni8  1  0.58195050  0.64993585  0.80400134  1
  Ni  Ni9  1  0.35006415  0.41804950  0.19599866  1
  Ni  Ni10  1  0.61894298  0.01679078  0.00166088  1
  Ni  Ni11  1  0.98320922  0.38105702  0.99833912  1
  Ni  Ni12  1  0.37874088  0.15005834  0.80166259  1
  Ni  Ni13  1  0.84994166  0.62125912  0.19833741  1
  Ni  Ni14  1  0.80099195  0.79163932  0.40162772  1
  Ni  Ni15  1  0.20836068  0.19900805  0.59837228  1
  Ni  Ni16  1  0.07897239  0.15323400  0.80732768  1
  Ni  Ni17  1  0.84676600  0.92102761  0.19267232  1
  Ni  Ni18  1  0.11439342  0.75475459  0.99894994  1
  Ni  Ni19  1  0.24524541  0.88560658  0.00105006  1
  Ni  Ni20  1  0.00828123  0.99171877  -0.00000000  1
  Ni  Ni21  1  0.64983898  0.11734948  0.20563414  1
  Ni  Ni22  1  0.88265052  0.35016102  0.79436586  1
  Ni  Ni23  1  0.18252552  0.75668468  0.58664033  1
  Ni  Ni24  1  0.24331532  0.81747448  0.41335967  1
  Ni  Ni25  1  0.47708708  0.88470791  0.00011701  1
  Ni  Ni26  1  0.11529209  0.52291292  0.99988299  1
  Ni  Ni27  1  0.33894971  0.66105029  -0.00000000  1
  Ni  Ni28  1  0.60333131  0.24818834  0.99776356  1
  Ni  Ni29  1  0.75181166  0.39666869  0.00223644  1
  Ni  Ni30  1  0.53680307  0.02175007  0.41541984  1
  Ni  Ni31  1  0.97824993  0.46319693  0.58458016  1
  Ni  Ni32  1  0.38497098  0.64851952  0.80731861  1
  Ni  Ni33  1  0.35148048  0.61502902  0.19268139  1
  Ni  Ni34  1  0.70742210  0.79309614  0.99879859  1
  Ni  Ni35  1  0.20690386  0.29257790  0.00120141  1
  Ni  Ni36  1  0.68306823  0.26114799  0.58637332  1
  Ni  Ni37  1  0.73885201  0.31693177  0.41362668  1
  Ni  Ni38  1  0.85372768  0.11563303  0.20118137  1
  Ni  Ni39  1  0.88436697  0.14627232  0.79881863  1
  Ni  Ni40  1  0.55472443  0.29258408  0.41453580  1
  Ni  Ni41  1  0.70741592  0.44527557  0.58546420  1
  Ni  Ni42  1  0.38578330  0.34299631  0.80330612  1
  Ni  Ni43  1  0.65700369  0.61421670  0.19669388  1
  Ni  Ni44  1  0.52682611  0.82864751  0.41474334  1
  Ni  Ni45  1  0.17135249  0.47317389  0.58525666  1
  Ni  Ni46  1  0.37867439  0.85681463  0.78978802  1
  Ni  Ni47  1  0.14318537  0.62132561  0.21021198  1
  Ni  Ni48  1  0.88704601  0.84187668  0.80685265  1
  Ni  Ni49  1  0.15812332  0.11295399  0.19314735  1
  Ni  Ni50  1  0.92985265  0.97541533  0.59483934  1
  Ni  Ni51  1  0.02458467  0.07014735  0.40516066  1
  Ni  Ni52  1  0.42596389  0.47631427  0.59534970  1
  Ni  Ni53  1  0.52368573  0.57403611  0.40465030  1
  Ni  Ni54  1  0.39867633  0.10314757  0.99852477  1
  Ni  Ni55  1  0.89685243  0.60132367  0.00147523  1
  Ni  Ni56  1  0.58893765  0.14685674  0.79171502  1
  Ni  Ni57  1  0.85314326  0.41106235  0.20828498  1
  Ni  Ni58  1  0.68997154  0.71350781  0.59405185  1
  Ni  Ni59  1  0.28649219  0.31002846  0.40594815  1
  Ni  Ni60  1  0.88112094  0.65093217  0.80306062  1
  Ni  Ni61  1  0.34906783  0.11887906  0.19693938  1
  Ni  Ni62  1  0.52900382  0.47099618  -0.00000000  1
  Ni  Ni63  1  0.81523086  0.18476914  -0.00000000  1
  Cu  Cu64  1  0.86764440  0.88395815  0.00063328  1
  Cu  Cu65  1  0.11604185  0.13235560  0.99936672  1
  Cu  Cu66  1  0.35919959  0.38685901  0.00129236  1
  Cu  Cu67  1  0.61314099  0.64080041  0.99870764  1
  C  C68  1  0.44859522  0.71004071  0.57562535  1
  C  C69  1  0.28995929  0.55140478  0.42437465  1
  C  C70  1  0.44041577  0.22497718  0.57410742  1
  C  C71  1  0.77502282  0.55958423  0.42589258  1
  C  C72  1  0.78547628  0.04470753  0.42494458  1
  C  C73  1  0.95529247  0.21452372  0.57505542  1
  C  C74  1  0.60696571  0.89149546  0.78823865  1
  C  C75  1  0.10850454  0.39303429  0.21176135  1
  C  C76  1  0.10940717  0.39203440  0.78830775  1
  C  C77  1  0.60796560  0.89059283  0.21169225  1
  C  C78  1  0.11950812  0.87931995  0.78885589  1
  C  C79  1  0.12068005  0.88049188  0.21114411  1
  C  C80  1  0.62351218  0.37722625  0.21119151  1
  C  C81  1  0.62277375  0.37648782  0.78880849  1
  C  C82  1  0.27260019  0.06562647  0.42509540  1
  C  C83  1  0.93437353  0.72739981  0.57490460  1
  C  C84  1  0.63012728  0.11529148  0.36327877  1
  C  C85  1  0.88470852  0.36987272  0.63672123  1
  C  C86  1  0.08339431  0.91660569  0.50000000  1
  C  C87  1  0.59640824  0.16110456  0.63481507  1
  C  C88  1  0.83889544  0.40359176  0.36518493  1
  C  C89  1  0.54722519  0.29854222  0.14670148  1
  C  C90  1  0.70145778  0.45277481  0.85329852  1
  C  C91  1  0.86021880  0.87282175  0.65244965  1
  C  C92  1  0.12717825  0.13978120  0.34755035  1
  C  C93  1  0.18306302  0.47237455  0.85437310  1
  C  C94  1  0.52762545  0.81693698  0.14562690  1
  C  C95  1  0.69003168  0.73944633  0.85432282  1
  C  C96  1  0.26055367  0.30996832  0.14567718  1
  C  C97  1  0.20078933  0.95173757  0.85546561  1
  C  C98  1  0.04826243  0.79921067  0.14453439  1
  C  C99  1  0.38283346  0.86813785  0.63308596  1
  C  C100  1  0.13186215  0.61716654  0.36691404  1
  C  C101  1  0.95825133  0.46137166  0.85567749  1
  C  C102  1  0.53862834  0.04174867  0.14432251  1
  C  C103  1  0.35804185  0.65475927  0.64942436  1
  C  C104  1  0.34524073  0.64195815  0.35057564  1
  C  C105  1  0.69492701  0.22556694  0.85681442  1
  C  C106  1  0.77443306  0.30507299  0.14318558  1
  C  C107  1  0.94764983  0.22437308  0.93465036  1
  C  C108  1  0.77562692  0.05235017  0.06534964  1
  C  C109  1  0.44482992  0.72723252  0.93354438  1
  C  C110  1  0.27276748  0.55517008  0.06645562  1
  C  C111  1  0.19211846  0.24040357  0.85582643  1
  C  C112  1  0.75959643  0.80788154  0.14417357  1
  C  C113  1  0.45614067  0.96135322  0.85619083  1
  C  C114  1  0.03864678  0.54385933  0.14380917  1
  C  C115  1  0.64893622  0.86251002  0.49937375  1
  C  C116  1  0.13748998  0.35106378  0.50062625  1
  C  C117  1  0.38775070  0.12920267  0.64374100  1
  C  C118  1  0.87079733  0.61224930  0.35625900  1
  C  C119  1  0.35464246  0.37241417  0.64853445  1
  C  C120  1  0.62758583  0.64535754  0.35146555  1
  C  C121  1  0.59828002  0.62972831  0.64706083  1
  C  C122  1  0.37027169  0.40171998  0.35293917  1
  C  C123  1  0.84411597  0.13787092  0.35912127  1
  C  C124  1  0.86212908  0.15588403  0.64087873  1
  C  C125  1  0.57861032  0.42138968  0.50000000  1
  C  C126  1  0.09434476  0.65448547  0.62885284  1
  C  C127  1  0.34551453  0.90565524  0.37114716  1
  C  C128  1  0.36142032  0.12604677  0.35589030  1
  C  C129  1  0.87395323  0.63857968  0.64410970  1
  C  C130  1  0.47135174  0.45740454  0.85585563  1
  C  C131  1  0.54259546  0.52864826  0.14414437  1
  C  C132  1  0.68211972  0.97020072  0.85515767  1
  C  C133  1  0.02979928  0.31788028  0.14484233  1
  C  C134  1  0.95425136  0.71594501  0.93455177  1
  C  C135  1  0.28405499  0.04574864  0.06544823  1
  C  C136  1  0.18959494  0.72812307  0.85589088  1
  C  C137  1  0.27187693  0.81040506  0.14410912  1
  C  C138  1  0.86838972  0.89881595  0.34848355  1
  C  C139  1  0.10118405  0.13161028  0.65151645  1
  C  C140  1  0.45306576  0.22039062  0.93377767  1
  C  C141  1  0.77960938  0.54693424  0.06622233  1
  C  C142  1  0.96700015  0.96196911  0.85464416  1
  C  C143  1  0.03803089  0.03299985  0.14535584  1
