# generated using pymatgen
data_Cu4NiC4
_symmetry_space_group_name_H-M   'P 1'
_cell_length_a   5.40285046
_cell_length_b   5.47453231
_cell_length_c   7.79597861
_cell_angle_alpha   66.42479361
_cell_angle_beta   76.82025361
_cell_angle_gamma   60.79514298
_symmetry_Int_Tables_number   1
_chemical_formula_structural   Cu4NiC4
_chemical_formula_sum   'Cu8 Ni2 C8'
_cell_volume   184.32252740
_cell_formula_units_Z   2
loop_
 _symmetry_equiv_pos_site_id
 _symmetry_equiv_pos_as_xyz
  1  'x, y, z'
loop_
 _atom_site_type_symbol
 _atom_site_label
 _atom_site_symmetry_multiplicity
 _atom_site_fract_x
 _atom_site_fract_y
 _atom_site_fract_z
 _atom_site_occupancy
  Ni  Ni0  1  0.74956000  0.82861500  0.81405000  1
  Ni  Ni1  1  0.25044000  0.17138500  0.18595000  1
  Cu  Cu2  1  0.67933200  0.57817900  0.23505700  1
  Cu  Cu3  1  0.32066800  0.42182100  0.76494300  1
  Cu  Cu4  1  0.77207600  0.22693600  0.00196000  1
  Cu  Cu5  1  0.22792400  0.77306400  0.99804000  1
  Cu  Cu6  1  0.76769000  0.50623500  0.58735900  1
  Cu  Cu7  1  0.23231000  0.49376500  0.41264100  1
  Cu  Cu8  1  0.27634500  0.95966800  0.60056200  1
  Cu  Cu9  1  0.72365500  0.04033200  0.39943800  1
  C  C10  1  0.00557500  0.69452000  0.58230600  1
  C  C11  1  0.99442500  0.30548000  0.41769400  1
  C  C12  1  0.84959800  0.81738300  0.06839400  1
  C  C13  1  0.15040200  0.18261700  0.93160600  1
  C  C14  1  0.51627500  0.59326600  0.80733100  1
  C  C15  1  0.48372500  0.40673400  0.19266900  1
  C  C16  1  0.53383100  0.81336400  0.39602500  1
  C  C17  1  0.46616900  0.18663600  0.60397500  1
