# generated using pymatgen
data_CuNiC9
_symmetry_space_group_name_H-M   'P 1'
_cell_length_a   7.35338836
_cell_length_b   7.35338836
_cell_length_c   7.35338836
_cell_angle_alpha   120.81147670
_cell_angle_beta   118.39218125
_cell_angle_gamma   90.70366287
_symmetry_Int_Tables_number   1
_chemical_formula_structural   CuNiC9
_chemical_formula_sum   'Cu2 Ni2 C18'
_cell_volume   282.66986416
_cell_formula_units_Z   2
loop_
 _symmetry_equiv_pos_site_id
 _symmetry_equiv_pos_as_xyz
  1  'x, y, z'
loop_
 _atom_site_type_symbol
 _atom_site_label
 _atom_site_symmetry_multiplicity
 _atom_site_fract_x
 _atom_site_fract_y
 _atom_site_fract_z
 _atom_site_occupancy
  C  C0  1  0.50000000  0.00000000  0.50000000  1
  C  C1  1  0.00000000  0.00000000  0.00000000  1
  Ni  Ni2  1  0.00000000  0.50000000  0.00000000  1
  Ni  Ni3  1  0.00000000  0.00000000  0.50000000  1
  Cu  Cu4  1  0.50000000  0.00000000  0.00000000  1
  Cu  Cu5  1  0.50000000  0.50000000  0.50000000  1
  C  C6  1  0.00000000  0.50000000  0.50000000  1
  C  C7  1  0.50000000  0.50000000  0.00000000  1
  C  C8  1  0.92702500  0.17702500  0.75000000  1
  C  C9  1  0.32695400  0.57695400  0.75000000  1
  C  C10  1  0.93564200  0.57900600  0.76002400  1
  C  C11  1  0.31898100  0.17561800  0.73997600  1
  C  C12  1  0.93564200  0.17561800  0.35663700  1
  C  C13  1  0.31898100  0.57900600  0.14336300  1
  C  C14  1  0.07297500  0.82297500  0.25000000  1
  C  C15  1  0.67304600  0.42304600  0.25000000  1
  C  C16  1  0.06435800  0.42099400  0.23997600  1
  C  C17  1  0.68101900  0.82438200  0.26002400  1
  C  C18  1  0.06435800  0.82438200  0.64336300  1
  C  C19  1  0.68101900  0.42099400  0.85663700  1
  C  C20  1  0.61853400  0.86853400  0.75000000  1
  C  C21  1  0.38146600  0.13146600  0.25000000  1
