# generated using pymatgen
data_Cu2NiC2
_symmetry_space_group_name_H-M   'P 1'
_cell_length_a   6.99968526
_cell_length_b   6.99968526
_cell_length_c   5.63169000
_cell_angle_alpha   90.00000000
_cell_angle_beta   90.00000000
_cell_angle_gamma   132.53516208
_symmetry_Int_Tables_number   1
_chemical_formula_structural   Cu2NiC2
_chemical_formula_sum   'Cu4 Ni2 C4'
_cell_volume   203.32101793
_cell_formula_units_Z   2
loop_
 _symmetry_equiv_pos_site_id
 _symmetry_equiv_pos_as_xyz
  1  'x, y, z'
loop_
 _atom_site_type_symbol
 _atom_site_label
 _atom_site_symmetry_multiplicity
 _atom_site_fract_x
 _atom_site_fract_y
 _atom_site_fract_z
 _atom_site_occupancy
  C  C0  1  0.34537600  0.65462400  0.50000000  1
  C  C1  1  0.83840400  0.16159600  0.00000000  1
  C  C2  1  0.16248300  0.83751700  0.00000000  1
  C  C3  1  0.66189200  0.33810800  0.50000000  1
  Ni  Ni4  1  0.49685300  0.50314700  0.00000000  1
  Ni  Ni5  1  0.00239900  0.99760100  0.50000000  1
  Cu  Cu6  1  0.50555200  0.00925500  0.75708100  1
  Cu  Cu7  1  0.99074500  0.49444800  0.24291900  1
  Cu  Cu8  1  0.99074500  0.49444800  0.75708100  1
  Cu  Cu9  1  0.50555200  0.00925500  0.24291900  1
