# generated using pymatgen
data_Cu5(NiC)7
_symmetry_space_group_name_H-M   'P 1'
_cell_length_a   5.06156000
_cell_length_b   5.38341483
_cell_length_c   8.93655220
_cell_angle_alpha   106.74377809
_cell_angle_beta   89.06744044
_cell_angle_gamma   117.40142244
_symmetry_Int_Tables_number   1
_chemical_formula_structural   Cu5(NiC)7
_chemical_formula_sum   'Cu5 Ni7 C7'
_cell_volume   205.07456266
_cell_formula_units_Z   1
loop_
 _symmetry_equiv_pos_site_id
 _symmetry_equiv_pos_as_xyz
  1  'x, y, z'
loop_
 _atom_site_type_symbol
 _atom_site_label
 _atom_site_symmetry_multiplicity
 _atom_site_fract_x
 _atom_site_fract_y
 _atom_site_fract_z
 _atom_site_occupancy
  C  C0  1  0.79625600  0.01096900  0.60073900  1
  C  C1  1  0.55597500  0.28051400  0.85475400  1
  C  C2  1  0.43730800  0.72944400  0.13808700  1
  C  C3  1  0.80136100  0.24897900  0.26080300  1
  C  C4  1  0.52805500  0.50287100  0.48123800  1
  C  C5  1  0.19875800  0.71091300  0.76104800  1
  C  C6  1  0.01547500  0.02420500  0.99792300  1
  Ni  Ni7  1  0.81746000  0.58019300  0.68068000  1
  Ni  Ni8  1  0.79824800  0.14073400  0.07018000  1
  Ni  Ni9  1  0.72418200  0.87429500  0.37654200  1
  Ni  Ni10  1  0.68279100  0.30716700  0.43750100  1
  Ni  Ni11  1  0.24670000  0.38552700  0.87893900  1
  Ni  Ni12  1  0.18118100  0.83438900  0.93302400  1
  Ni  Ni13  1  0.18842300  0.44064500  0.30820100  1
  Cu  Cu14  1  0.74276700  0.60599200  0.12291700  1
  Cu  Cu15  1  0.67754800  0.95938800  0.80770900  1
  Cu  Cu16  1  0.32372300  0.06305700  0.18097600  1
  Cu  Cu17  1  0.34307600  0.69204000  0.58016400  1
  Cu  Cu18  1  0.25009000  0.13856800  0.63131600  1
