# generated using pymatgen
data_Cu8Ni4C17
_symmetry_space_group_name_H-M   'P 1'
_cell_length_a   7.90269100
_cell_length_b   8.94808703
_cell_length_c   11.93214242
_cell_angle_alpha   74.23312717
_cell_angle_beta   70.66132262
_cell_angle_gamma   63.79491022
_symmetry_Int_Tables_number   1
_chemical_formula_structural   Cu8Ni4C17
_chemical_formula_sum   'Cu16 Ni8 C34'
_cell_volume   706.44004673
_cell_formula_units_Z   2
loop_
 _symmetry_equiv_pos_site_id
 _symmetry_equiv_pos_as_xyz
  1  'x, y, z'
loop_
 _atom_site_type_symbol
 _atom_site_label
 _atom_site_symmetry_multiplicity
 _atom_site_fract_x
 _atom_site_fract_y
 _atom_site_fract_z
 _atom_site_occupancy
  C  C0  1  0.86326400  0.25000000  0.75000000  1
  C  C1  1  0.13673600  0.75000000  0.25000000  1
  C  C2  1  0.19983800  0.30435200  0.61892800  1
  C  C3  1  0.12311700  0.19564800  0.88107200  1
  C  C4  1  0.80016200  0.69564800  0.38107200  1
  C  C5  1  0.87688300  0.80435200  0.11892800  1
  C  C6  1  0.01742000  0.49794500  0.64132500  1
  C  C7  1  0.15669100  0.00205500  0.85867500  1
  C  C8  1  0.98258000  0.50205500  0.35867500  1
  C  C9  1  0.84330900  0.99794500  0.14132500  1
  C  C10  1  0.50049500  0.25141000  0.58807800  1
  C  C11  1  0.33998200  0.24859000  0.91192200  1
  C  C12  1  0.49950500  0.74859000  0.41192200  1
  C  C13  1  0.66001800  0.75141000  0.08807800  1
  C  C14  1  0.47334600  0.07733800  0.61231400  1
  C  C15  1  0.16299800  0.42266200  0.88768600  1
  C  C16  1  0.52665400  0.92266200  0.38768600  1
  C  C17  1  0.83700200  0.57733800  0.11231400  1
  C  C18  1  0.00728700  0.74277700  0.57501100  1
  C  C19  1  0.32507500  0.75722300  0.92498900  1
  C  C20  1  0.99271300  0.25722300  0.42498900  1
  C  C21  1  0.67492500  0.24277700  0.07501100  1
  C  C22  1  0.68885600  0.79783300  0.66027500  1
  C  C23  1  0.14696300  0.70216700  0.83972500  1
  C  C24  1  0.31114400  0.20216700  0.33972500  1
  C  C25  1  0.85303700  0.29783300  0.16027500  1
  C  C26  1  0.54439600  0.82349100  0.58605500  1
  C  C27  1  0.95394200  0.67650900  0.91394500  1
  C  C28  1  0.45560400  0.17650900  0.41394500  1
  C  C29  1  0.04605800  0.32349100  0.08605500  1
  C  C30  1  0.99090100  0.68622800  0.71731300  1
  C  C31  1  0.39444200  0.81377200  0.78268700  1
  C  C32  1  0.00909900  0.31377200  0.28268700  1
  C  C33  1  0.60555800  0.18622800  0.21731300  1
  Ni  Ni34  1  0.06253600  0.03410700  0.62152900  1
  Ni  Ni35  1  0.71817300  0.46589300  0.87847100  1
  Ni  Ni36  1  0.93746400  0.96589300  0.37847100  1
  Ni  Ni37  1  0.28182700  0.53410700  0.12152900  1
  Ni  Ni38  1  0.66436900  0.09167200  0.88252900  1
  Ni  Ni39  1  0.63857100  0.40832800  0.61747100  1
  Ni  Ni40  1  0.33563100  0.90832800  0.11747100  1
  Ni  Ni41  1  0.36142900  0.59167200  0.38252900  1
  Cu  Cu42  1  0.05349900  0.37332200  0.63908200  1
  Cu  Cu43  1  0.06590300  0.12667800  0.86091800  1
  Cu  Cu44  1  0.94650100  0.62667800  0.36091800  1
  Cu  Cu45  1  0.93409700  0.87332200  0.13908200  1
  Cu  Cu46  1  0.94481500  0.68614800  0.64787200  1
  Cu  Cu47  1  0.27883500  0.81385200  0.85212800  1
  Cu  Cu48  1  0.05518500  0.31385200  0.35212800  1
  Cu  Cu49  1  0.72116500  0.18614800  0.14787200  1
  Cu  Cu50  1  0.55011700  0.85837300  0.65627900  1
  Cu  Cu51  1  0.06476900  0.64162700  0.84372100  1
  Cu  Cu52  1  0.44988300  0.14162700  0.34372100  1
  Cu  Cu53  1  0.93523100  0.35837300  0.15627900  1
  Cu  Cu54  1  0.42516000  0.19792900  0.57406800  1
  Cu  Cu55  1  0.19715700  0.30207100  0.92593200  1
  Cu  Cu56  1  0.57484000  0.80207100  0.42593200  1
  Cu  Cu57  1  0.80284300  0.69792900  0.07406800  1
