# generated using pymatgen
data_Cu2Ni3C14
_symmetry_space_group_name_H-M   'P 1'
_cell_length_a   3.94429300
_cell_length_b   3.94429300
_cell_length_c   19.79578200
_cell_angle_alpha   90.00000000
_cell_angle_beta   90.00000000
_cell_angle_gamma   90.00000000
_symmetry_Int_Tables_number   1
_chemical_formula_structural   Cu2Ni3C14
_chemical_formula_sum   'Cu2 Ni3 C14'
_cell_volume   307.97183463
_cell_formula_units_Z   1
loop_
 _symmetry_equiv_pos_site_id
 _symmetry_equiv_pos_as_xyz
  1  'x, y, z'
loop_
 _atom_site_type_symbol
 _atom_site_label
 _atom_site_symmetry_multiplicity
 _atom_site_fract_x
 _atom_site_fract_y
 _atom_site_fract_z
 _atom_site_occupancy
  C  C0  1  0.50000000  0.50000000  0.88456800  1
  C  C1  1  0.50000000  0.50000000  0.11543200  1
  Ni  Ni2  1  0.00000000  0.00000000  0.00000000  1
  Ni  Ni3  1  0.50000000  0.50000000  0.60246900  1
  Ni  Ni4  1  0.50000000  0.50000000  0.39753100  1
  Cu  Cu5  1  0.00000000  0.00000000  0.72956700  1
  Cu  Cu6  1  0.00000000  0.00000000  0.27043300  1
  C  C7  1  0.00000000  0.00000000  0.50000000  1
  C  C8  1  0.50000000  0.50000000  0.79291000  1
  C  C9  1  0.50000000  0.50000000  0.20709000  1
  C  C10  1  0.50000000  0.00000000  0.65809300  1
  C  C11  1  0.00000000  0.50000000  0.65809300  1
  C  C12  1  0.50000000  0.00000000  0.34190700  1
  C  C13  1  0.00000000  0.50000000  0.34190700  1
  C  C14  1  0.50000000  0.00000000  0.90585600  1
  C  C15  1  0.00000000  0.50000000  0.90585600  1
  C  C16  1  0.50000000  0.00000000  0.09414400  1
  C  C17  1  0.00000000  0.50000000  0.09414400  1
  C  C18  1  0.50000000  0.50000000  0.00000000  1
