# generated using pymatgen
data_CuNiC8
_symmetry_space_group_name_H-M   'P 1'
_cell_length_a   5.53857351
_cell_length_b   5.60348532
_cell_length_c   9.68247715
_cell_angle_alpha   73.14923187
_cell_angle_beta   90.55088840
_cell_angle_gamma   59.66271017
_symmetry_Int_Tables_number   1
_chemical_formula_structural   CuNiC8
_chemical_formula_sum   'Cu2 Ni2 C16'
_cell_volume   243.74622079
_cell_formula_units_Z   2
loop_
 _symmetry_equiv_pos_site_id
 _symmetry_equiv_pos_as_xyz
  1  'x, y, z'
loop_
 _atom_site_type_symbol
 _atom_site_label
 _atom_site_symmetry_multiplicity
 _atom_site_fract_x
 _atom_site_fract_y
 _atom_site_fract_z
 _atom_site_occupancy
  Ni  Ni0  1  0.37455400  0.25012800  0.12528400  1
  Ni  Ni1  1  0.87439700  0.25021300  0.62523500  1
  Cu  Cu2  1  0.12235600  0.75177700  0.37669800  1
  Cu  Cu3  1  0.62250600  0.74982200  0.87678200  1
  C  C4  1  0.24918700  0.49998800  0.75066400  1
  C  C5  1  0.74903400  0.50042200  0.25048500  1
  C  C6  1  0.49980800  0.00031600  0.50012000  1
  C  C7  1  0.99979800  0.00015300  0.99976000  1
  C  C8  1  0.62763900  0.25023400  0.37435600  1
  C  C9  1  0.12709300  0.25033000  0.87409300  1
  C  C10  1  0.62644900  0.74841800  0.37414700  1
  C  C11  1  0.12738300  0.74780800  0.87432600  1
  C  C12  1  0.11377600  0.25680300  0.37187300  1
  C  C13  1  0.61414100  0.25715100  0.87179900  1
  C  C14  1  0.87335600  0.74865200  0.12506000  1
  C  C15  1  0.37401400  0.74900900  0.62573900  1
  C  C16  1  0.87460500  0.25079400  0.12588500  1
  C  C17  1  0.37365700  0.25239700  0.62534100  1
  C  C18  1  0.38826800  0.74237900  0.12614600  1
  C  C19  1  0.88797900  0.74320700  0.62620700  1
