# generated using pymatgen
data_Cu12NiC8
_symmetry_space_group_name_H-M   'P 1'
_cell_length_a   7.03290100
_cell_length_b   9.86961800
_cell_length_c   9.88216862
_cell_angle_alpha   60.07028635
_cell_angle_beta   90.00000000
_cell_angle_gamma   90.00000000
_symmetry_Int_Tables_number   1
_chemical_formula_structural   Cu12NiC8
_chemical_formula_sum   'Cu24 Ni2 C16'
_cell_volume   594.46308931
_cell_formula_units_Z   2
loop_
 _symmetry_equiv_pos_site_id
 _symmetry_equiv_pos_as_xyz
  1  'x, y, z'
loop_
 _atom_site_type_symbol
 _atom_site_label
 _atom_site_symmetry_multiplicity
 _atom_site_fract_x
 _atom_site_fract_y
 _atom_site_fract_z
 _atom_site_occupancy
  C  C0  1  0.50000000  0.74738000  0.25222700  1
  C  C1  1  0.50000000  0.00162000  0.74669400  1
  C  C2  1  0.00000000  0.74765300  0.99864900  1
  C  C3  1  0.00000000  0.25345200  0.74865700  1
  C  C4  1  0.00000000  0.99836100  0.25315600  1
  C  C5  1  0.74852900  0.33288200  0.33312500  1
  C  C6  1  0.24861100  0.66682700  0.66662100  1
  C  C7  1  0.75138900  0.66682700  0.66662100  1
  C  C8  1  0.25147100  0.33288200  0.33312500  1
  C  C9  1  0.50000000  0.26677000  0.98988800  1
  C  C10  1  0.50000000  0.41286000  0.62298600  1
  C  C11  1  0.50000000  0.96554100  0.41337300  1
  C  C12  1  0.50000000  0.61874700  0.96702900  1
  C  C13  1  0.00000000  0.58616500  0.37920500  1
  C  C14  1  0.00000000  0.03447300  0.58616100  1
  C  C15  1  0.00000000  0.37806300  0.03313200  1
  Ni  Ni16  1  0.25329200  0.00274300  0.00015200  1
  Ni  Ni17  1  0.74670800  0.00274300  0.00015200  1
  Cu  Cu18  1  0.50000000  0.35463300  0.50240000  1
  Cu  Cu19  1  0.50000000  0.14438000  0.35517000  1
  Cu  Cu20  1  0.50000000  0.50054500  0.14599000  1
  Cu  Cu21  1  0.00000000  0.64432500  0.49982800  1
  Cu  Cu22  1  0.00000000  0.85562300  0.64448600  1
  Cu  Cu23  1  0.00000000  0.50024400  0.85471700  1
  Cu  Cu24  1  0.67645800  0.35473900  0.73162200  1
  Cu  Cu25  1  0.67815800  0.91533600  0.35691400  1
  Cu  Cu26  1  0.67779400  0.72590700  0.91551300  1
  Cu  Cu27  1  0.17764500  0.64416600  0.27206700  1
  Cu  Cu28  1  0.17774700  0.08365500  0.64413300  1
  Cu  Cu29  1  0.18066300  0.27300000  0.07971600  1
  Cu  Cu30  1  0.82235500  0.64416600  0.27206700  1
  Cu  Cu31  1  0.82225300  0.08365500  0.64413300  1
  Cu  Cu32  1  0.81933700  0.27300000  0.07971600  1
  Cu  Cu33  1  0.32354200  0.35473900  0.73162200  1
  Cu  Cu34  1  0.32184200  0.91533600  0.35691400  1
  Cu  Cu35  1  0.32220600  0.72590700  0.91551300  1
  Cu  Cu36  1  0.50000000  0.59513100  0.53964200  1
  Cu  Cu37  1  0.50000000  0.86578500  0.59590200  1
  Cu  Cu38  1  0.50000000  0.53207900  0.87073200  1
  Cu  Cu39  1  0.00000000  0.40389800  0.46180700  1
  Cu  Cu40  1  0.00000000  0.13416600  0.40404700  1
  Cu  Cu41  1  0.00000000  0.45959500  0.13439800  1
