# generated using pymatgen
data_Cu10Ni10C33
_symmetry_space_group_name_H-M   'P 1'
_cell_length_a   7.25890263
_cell_length_b   7.25890263
_cell_length_c   13.64080940
_cell_angle_alpha   82.48957791
_cell_angle_beta   82.48957791
_cell_angle_gamma   70.51429121
_symmetry_Int_Tables_number   1
_chemical_formula_structural   Cu10Ni10C33
_chemical_formula_sum   'Cu10 Ni10 C33'
_cell_volume   668.85314969
_cell_formula_units_Z   1
loop_
 _symmetry_equiv_pos_site_id
 _symmetry_equiv_pos_as_xyz
  1  'x, y, z'
loop_
 _atom_site_type_symbol
 _atom_site_label
 _atom_site_symmetry_multiplicity
 _atom_site_fract_x
 _atom_site_fract_y
 _atom_site_fract_z
 _atom_site_occupancy
  C  C0  1  0.00000000  0.00000000  0.50000000  1
  C  C1  1  0.74855400  0.31941100  0.12794300  1
  C  C2  1  0.31941100  0.74855400  0.12794300  1
  C  C3  1  0.25144600  0.68058900  0.87205700  1
  C  C4  1  0.68058900  0.25144600  0.87205700  1
  C  C5  1  0.77183100  0.48232600  0.03498300  1
  C  C6  1  0.48232600  0.77183100  0.03498300  1
  C  C7  1  0.22816900  0.51767400  0.96501700  1
  C  C8  1  0.51767400  0.22816900  0.96501700  1
  C  C9  1  0.95039600  0.38276200  0.10879800  1
  C  C10  1  0.38276200  0.95039600  0.10879800  1
  C  C11  1  0.04960400  0.61723800  0.89120200  1
  C  C12  1  0.61723800  0.04960400  0.89120200  1
  C  C13  1  0.89156600  0.45293600  0.34676900  1
  C  C14  1  0.45293600  0.89156600  0.34676900  1
  C  C15  1  0.10843400  0.54706400  0.65323100  1
  C  C16  1  0.54706400  0.10843400  0.65323100  1
  C  C17  1  0.03798100  0.47578600  0.24542700  1
  C  C18  1  0.47578600  0.03798100  0.24542700  1
  C  C19  1  0.96201900  0.52421400  0.75457300  1
  C  C20  1  0.52421400  0.96201900  0.75457300  1
  C  C21  1  0.94294900  0.65835600  0.31733200  1
  C  C22  1  0.65835600  0.94294900  0.31733200  1
  C  C23  1  0.05705100  0.34164400  0.68266800  1
  C  C24  1  0.34164400  0.05705100  0.68266800  1
  C  C25  1  0.44802500  0.44802500  0.24002600  1
  C  C26  1  0.55197500  0.55197500  0.75997400  1
  C  C27  1  0.59361900  0.39849000  0.33189300  1
  C  C28  1  0.39849000  0.59361900  0.33189300  1
  C  C29  1  0.40638100  0.60151000  0.66810700  1
  C  C30  1  0.60151000  0.40638100  0.66810700  1
  C  C31  1  0.67457800  0.67457800  0.19798700  1
  C  C32  1  0.32542200  0.32542200  0.80201300  1
  Ni  Ni33  1  0.80017000  0.43592700  0.10768300  1
  Ni  Ni34  1  0.43592700  0.80017000  0.10768300  1
  Ni  Ni35  1  0.19983000  0.56407300  0.89231700  1
  Ni  Ni36  1  0.56407300  0.19983000  0.89231700  1
  Ni  Ni37  1  0.91283500  0.54952600  0.28781400  1
  Ni  Ni38  1  0.54952600  0.91283500  0.28781400  1
  Ni  Ni39  1  0.08716500  0.45047400  0.71218600  1
  Ni  Ni40  1  0.45047400  0.08716500  0.71218600  1
  Ni  Ni41  1  0.51036200  0.51036200  0.28585600  1
  Ni  Ni42  1  0.48963800  0.48963800  0.71414400  1
  Cu  Cu43  1  0.99647000  0.99647000  0.67553600  1
  Cu  Cu44  1  0.00353000  0.00353000  0.32446400  1
  Cu  Cu45  1  0.28415300  0.71584700  0.50000000  1
  Cu  Cu46  1  0.71584700  0.28415300  0.50000000  1
  Cu  Cu47  1  0.20136800  0.20136800  0.47917100  1
  Cu  Cu48  1  0.79863200  0.79863200  0.52082900  1
  Cu  Cu49  1  0.85427200  0.85427200  0.09946500  1
  Cu  Cu50  1  0.14572800  0.14572800  0.90053500  1
  Cu  Cu51  1  0.32833600  0.32833600  0.12867800  1
  Cu  Cu52  1  0.67166400  0.67166400  0.87132200  1
