# generated using pymatgen
data_Cu3(NiC2)2
_symmetry_space_group_name_H-M   'P 1'
_cell_length_a   8.01248770
_cell_length_b   8.90550418
_cell_length_c   5.62260742
_cell_angle_alpha   89.99999586
_cell_angle_beta   77.59934045
_cell_angle_gamma   123.76076816
_symmetry_Int_Tables_number   1
_chemical_formula_structural   Cu3(NiC2)2
_chemical_formula_sum   'Cu6 Ni4 C8'
_cell_volume   322.22631095
_cell_formula_units_Z   2
loop_
 _symmetry_equiv_pos_site_id
 _symmetry_equiv_pos_as_xyz
  1  'x, y, z'
loop_
 _atom_site_type_symbol
 _atom_site_label
 _atom_site_symmetry_multiplicity
 _atom_site_fract_x
 _atom_site_fract_y
 _atom_site_fract_z
 _atom_site_occupancy
  Ni  Ni0  1  0.46005200  0.12915500  0.58323600  1
  Ni  Ni1  1  0.53994800  0.66910200  0.91676400  1
  Ni  Ni2  1  0.53994800  0.87084500  0.41676400  1
  Ni  Ni3  1  0.46005200  0.33089800  0.08323600  1
  Cu  Cu4  1  0.25041800  0.85767900  0.13076600  1
  Cu  Cu5  1  0.74958200  0.60726100  0.36923400  1
  Cu  Cu6  1  0.74958200  0.14232100  0.86923400  1
  Cu  Cu7  1  0.25041800  0.39273900  0.63076600  1
  Cu  Cu8  1  0.00000000  0.62680100  0.75000000  1
  Cu  Cu9  1  0.00000000  0.37319900  0.25000000  1
  C  C10  1  0.28201300  0.88047700  0.50747200  1
  C  C11  1  0.71798700  0.59846400  0.99252800  1
  C  C12  1  0.71798700  0.11952300  0.49252800  1
  C  C13  1  0.28201300  0.40153600  0.00747200  1
  C  C14  1  0.46272400  0.13978300  0.93281900  1
  C  C15  1  0.53727600  0.67705900  0.56718100  1
  C  C16  1  0.53727600  0.86021700  0.06718100  1
  C  C17  1  0.46272400  0.32294100  0.43281900  1
