# generated using pymatgen
data_Cu8(NiC5)3
_symmetry_space_group_name_H-M   'P 1'
_cell_length_a   6.70670590
_cell_length_b   6.70670590
_cell_length_c   6.70670590
_cell_angle_alpha   96.78167061
_cell_angle_beta   116.16494773
_cell_angle_gamma   116.16494773
_symmetry_Int_Tables_number   1
_chemical_formula_structural   Cu8(NiC5)3
_chemical_formula_sum   'Cu8 Ni3 C15'
_cell_volume   223.97583251
_cell_formula_units_Z   1
loop_
 _symmetry_equiv_pos_site_id
 _symmetry_equiv_pos_as_xyz
  1  'x, y, z'
loop_
 _atom_site_type_symbol
 _atom_site_label
 _atom_site_symmetry_multiplicity
 _atom_site_fract_x
 _atom_site_fract_y
 _atom_site_fract_z
 _atom_site_occupancy
  C  C0  1  0.00000000  0.00000000  0.00000000  1
  C  C1  1  0.00000000  0.61256600  0.61256600  1
  C  C2  1  0.00000000  0.38743400  0.38743400  1
  C  C3  1  0.66413900  0.32202700  0.32202700  1
  C  C4  1  0.33586100  0.65788800  0.65788800  1
  C  C5  1  0.00000000  0.34211200  0.67797300  1
  C  C6  1  0.00000000  0.67797300  0.34211200  1
  C  C7  1  0.58665900  0.78231700  0.43289900  1
  C  C8  1  0.41334100  0.84624000  0.19565900  1
  C  C9  1  0.65058100  0.80434100  0.21768300  1
  C  C10  1  0.65058100  0.21768300  0.80434100  1
  C  C11  1  0.34941900  0.56710100  0.15376000  1
  C  C12  1  0.34941900  0.15376000  0.56710100  1
  C  C13  1  0.41334100  0.19565900  0.84624000  1
  C  C14  1  0.58665900  0.43289900  0.78231700  1
  Ni  Ni15  1  0.50000000  0.75000000  0.25000000  1
  Ni  Ni16  1  0.50000000  0.25000000  0.75000000  1
  Ni  Ni17  1  0.00000000  0.50000000  0.50000000  1
  Cu  Cu18  1  0.68582000  0.70797900  0.70797900  1
  Cu  Cu19  1  0.31418000  0.02215900  0.02215900  1
  Cu  Cu20  1  0.00000000  0.97784100  0.29202100  1
  Cu  Cu21  1  0.00000000  0.29202100  0.97784100  1
  Cu  Cu22  1  0.53868000  0.78032700  0.78032700  1
  Cu  Cu23  1  0.46132000  0.24164600  0.24164600  1
  Cu  Cu24  1  0.00000000  0.75835400  0.21967300  1
  Cu  Cu25  1  0.00000000  0.21967300  0.75835400  1
