# generated using pymatgen
data_Cu26Ni6C7
_symmetry_space_group_name_H-M   'P 1'
_cell_length_a   11.91057876
_cell_length_b   11.91057876
_cell_length_c   5.54996500
_cell_angle_alpha   90.00000000
_cell_angle_beta   90.00000000
_cell_angle_gamma   120.00000422
_symmetry_Int_Tables_number   1
_chemical_formula_structural   Cu26Ni6C7
_chemical_formula_sum   'Cu26 Ni6 C7'
_cell_volume   681.84645692
_cell_formula_units_Z   1
loop_
 _symmetry_equiv_pos_site_id
 _symmetry_equiv_pos_as_xyz
  1  'x, y, z'
loop_
 _atom_site_type_symbol
 _atom_site_label
 _atom_site_symmetry_multiplicity
 _atom_site_fract_x
 _atom_site_fract_y
 _atom_site_fract_z
 _atom_site_occupancy
  C  C0  1  0.00000000  0.00000000  0.00000000  1
  C  C1  1  0.43759000  0.87511400  0.96626300  1
  C  C2  1  0.12488600  0.56247600  0.96626300  1
  C  C3  1  0.43752400  0.56241000  0.96626300  1
  C  C4  1  0.56241000  0.12488600  0.03373700  1
  C  C5  1  0.87511400  0.43752400  0.03373700  1
  C  C6  1  0.56247600  0.43759000  0.03373700  1
  Ni  Ni7  1  0.56743300  0.80747000  0.45265500  1
  Ni  Ni8  1  0.19253000  0.75996300  0.45265500  1
  Ni  Ni9  1  0.24003700  0.43256700  0.45265500  1
  Ni  Ni10  1  0.43256700  0.19253000  0.54734500  1
  Ni  Ni11  1  0.80747000  0.24003700  0.54734500  1
  Ni  Ni12  1  0.75996300  0.56743300  0.54734500  1
  Cu  Cu13  1  0.33333300  0.66666700  0.93531600  1
  Cu  Cu14  1  0.66666700  0.33333300  0.06468400  1
  Cu  Cu15  1  0.86113300  0.86717900  0.21773000  1
  Cu  Cu16  1  0.13282100  0.99395500  0.21773000  1
  Cu  Cu17  1  0.00604500  0.13886700  0.21773000  1
  Cu  Cu18  1  0.13886700  0.13282100  0.78227000  1
  Cu  Cu19  1  0.86717900  0.00604500  0.78227000  1
  Cu  Cu20  1  0.99395500  0.86113300  0.78227000  1
  Cu  Cu21  1  0.61746600  0.78981500  0.63509900  1
  Cu  Cu22  1  0.21018500  0.82765100  0.63509900  1
  Cu  Cu23  1  0.17234900  0.38253400  0.63509900  1
  Cu  Cu24  1  0.38253400  0.21018500  0.36490100  1
  Cu  Cu25  1  0.78981500  0.17234900  0.36490100  1
  Cu  Cu26  1  0.82765100  0.61746600  0.36490100  1
  Cu  Cu27  1  0.60620100  0.80318300  0.24207200  1
  Cu  Cu28  1  0.19681700  0.80301800  0.24207200  1
  Cu  Cu29  1  0.19698200  0.39379900  0.24207200  1
  Cu  Cu30  1  0.39379900  0.19681700  0.75792800  1
  Cu  Cu31  1  0.80318300  0.19698200  0.75792800  1
  Cu  Cu32  1  0.80301800  0.60620100  0.75792800  1
  Cu  Cu33  1  0.47435600  0.83048600  0.47212800  1
  Cu  Cu34  1  0.16951400  0.64387000  0.47212800  1
  Cu  Cu35  1  0.35613000  0.52564400  0.47212800  1
  Cu  Cu36  1  0.52564400  0.16951400  0.52787200  1
  Cu  Cu37  1  0.83048600  0.35613000  0.52787200  1
  Cu  Cu38  1  0.64387000  0.47435600  0.52787200  1
