# generated using pymatgen
data_Cu9Ni6C
_symmetry_space_group_name_H-M   'P 1'
_cell_length_a   7.58312195
_cell_length_b   13.48786017
_cell_length_c   11.62301600
_cell_angle_alpha   90.00000000
_cell_angle_beta   90.00000000
_cell_angle_gamma   27.21030581
_symmetry_Int_Tables_number   1
_chemical_formula_structural   Cu9Ni6C
_chemical_formula_sum   'Cu18 Ni12 C2'
_cell_volume   543.58961068
_cell_formula_units_Z   2
loop_
 _symmetry_equiv_pos_site_id
 _symmetry_equiv_pos_as_xyz
  1  'x, y, z'
loop_
 _atom_site_type_symbol
 _atom_site_label
 _atom_site_symmetry_multiplicity
 _atom_site_fract_x
 _atom_site_fract_y
 _atom_site_fract_z
 _atom_site_occupancy
  C  C0  1  0.00000000  0.27752700  0.25000000  1
  C  C1  1  0.00000000  0.72247300  0.75000000  1
  Ni  Ni2  1  0.67616900  0.78517800  0.25000000  1
  Ni  Ni3  1  0.67616900  0.53865300  0.75000000  1
  Ni  Ni4  1  0.32383100  0.21482200  0.75000000  1
  Ni  Ni5  1  0.32383100  0.46134700  0.25000000  1
  Ni  Ni6  1  0.67611700  0.30794600  0.90525800  1
  Ni  Ni7  1  0.67611700  0.01593700  0.09474200  1
  Ni  Ni8  1  0.67611700  0.30794600  0.59474200  1
  Ni  Ni9  1  0.67611700  0.01593700  0.40525800  1
  Ni  Ni10  1  0.32388300  0.69205400  0.09474200  1
  Ni  Ni11  1  0.32388300  0.98406300  0.90525800  1
  Ni  Ni12  1  0.32388300  0.69205400  0.40525800  1
  Ni  Ni13  1  0.32388300  0.98406300  0.59474200  1
  Cu  Cu14  1  0.00000000  0.57578000  0.25000000  1
  Cu  Cu15  1  0.00000000  0.42422000  0.75000000  1
  Cu  Cu16  1  0.37508300  0.97589800  0.25000000  1
  Cu  Cu17  1  0.37508300  0.64901800  0.75000000  1
  Cu  Cu18  1  0.62491700  0.02410200  0.75000000  1
  Cu  Cu19  1  0.62491700  0.35098200  0.25000000  1
  Cu  Cu20  1  0.00000000  0.12284900  0.95306200  1
  Cu  Cu21  1  0.00000000  0.87715100  0.04693800  1
  Cu  Cu22  1  0.00000000  0.12284900  0.54693800  1
  Cu  Cu23  1  0.00000000  0.87715100  0.45306200  1
  Cu  Cu24  1  0.37471700  0.47840200  0.86480900  1
  Cu  Cu25  1  0.37471700  0.14688100  0.13519100  1
  Cu  Cu26  1  0.37471700  0.47840200  0.63519100  1
  Cu  Cu27  1  0.37471700  0.14688100  0.36480900  1
  Cu  Cu28  1  0.62528300  0.52159800  0.13519100  1
  Cu  Cu29  1  0.62528300  0.85311900  0.86480900  1
  Cu  Cu30  1  0.62528300  0.52159800  0.36480900  1
  Cu  Cu31  1  0.62528300  0.85311900  0.63519100  1
