# generated using pymatgen
data_Cu7Ni2C3
_symmetry_space_group_name_H-M   'P 1'
_cell_length_a   6.80758693
_cell_length_b   7.20083700
_cell_length_c   12.17670811
_cell_angle_alpha   90.00000000
_cell_angle_beta   73.76765546
_cell_angle_gamma   90.00000000
_symmetry_Int_Tables_number   1
_chemical_formula_structural   Cu7Ni2C3
_chemical_formula_sum   'Cu14 Ni4 C6'
_cell_volume   573.11112907
_cell_formula_units_Z   2
loop_
 _symmetry_equiv_pos_site_id
 _symmetry_equiv_pos_as_xyz
  1  'x, y, z'
loop_
 _atom_site_type_symbol
 _atom_site_label
 _atom_site_symmetry_multiplicity
 _atom_site_fract_x
 _atom_site_fract_y
 _atom_site_fract_z
 _atom_site_occupancy
  C  C0  1  0.71775100  0.40333300  0.00000000  1
  C  C1  1  0.28224900  0.90333300  0.00000000  1
  C  C2  1  0.44437400  0.08878600  0.62443300  1
  C  C3  1  0.06880700  0.08878600  0.37556700  1
  C  C4  1  0.55562600  0.58878600  0.37556700  1
  C  C5  1  0.93119300  0.58878600  0.62443300  1
  Ni  Ni6  1  0.85012100  0.00420200  0.79232600  1
  Ni  Ni7  1  0.64244700  0.00420200  0.20767400  1
  Ni  Ni8  1  0.14987900  0.50420200  0.20767400  1
  Ni  Ni9  1  0.35755300  0.50420200  0.79232600  1
  Cu  Cu10  1  0.11514300  0.54185900  0.00000000  1
  Cu  Cu11  1  0.88485700  0.04185900  0.00000000  1
  Cu  Cu12  1  0.57139700  0.45555500  0.59024500  1
  Cu  Cu13  1  0.16164300  0.45555500  0.40975500  1
  Cu  Cu14  1  0.42860300  0.95555500  0.40975500  1
  Cu  Cu15  1  0.83835700  0.95555500  0.59024500  1
  Cu  Cu16  1  0.50976500  0.18580300  0.85071000  1
  Cu  Cu17  1  0.36047500  0.18580300  0.14929000  1
  Cu  Cu18  1  0.49023500  0.68580300  0.14929000  1
  Cu  Cu19  1  0.63952500  0.68580300  0.85071000  1
  Cu  Cu20  1  0.07729100  0.29725800  0.73619600  1
  Cu  Cu21  1  0.81348800  0.29725800  0.26380400  1
  Cu  Cu22  1  0.92270900  0.79725800  0.26380400  1
  Cu  Cu23  1  0.18651200  0.79725800  0.73619600  1
