# generated using pymatgen
data_Cu17(NiC3)4
_symmetry_space_group_name_H-M   'P 1'
_cell_length_a   19.37275060
_cell_length_b   19.37275060
_cell_length_c   19.37275060
_cell_angle_alpha   163.36836942
_cell_angle_beta   163.36836942
_cell_angle_gamma   23.60476606
_symmetry_Int_Tables_number   1
_chemical_formula_structural   Cu17(NiC3)4
_chemical_formula_sum   'Cu17 Ni4 C12'
_cell_volume   595.47935223
_cell_formula_units_Z   1
loop_
 _symmetry_equiv_pos_site_id
 _symmetry_equiv_pos_as_xyz
  1  'x, y, z'
loop_
 _atom_site_type_symbol
 _atom_site_label
 _atom_site_symmetry_multiplicity
 _atom_site_fract_x
 _atom_site_fract_y
 _atom_site_fract_z
 _atom_site_occupancy
  C  C0  1  0.25223600  0.75223600  0.50000000  1
  C  C1  1  0.75223600  0.25223600  0.50000000  1
  C  C2  1  0.56809900  0.56809900  0.00000000  1
  C  C3  1  0.06819000  0.06819000  0.00000000  1
  C  C4  1  0.68357400  0.68357400  0.00000000  1
  C  C5  1  0.18807800  0.18807800  0.00000000  1
  C  C6  1  0.99870900  0.49870900  0.50000000  1
  C  C7  1  0.49870900  0.99870900  0.50000000  1
  C  C8  1  0.93122100  0.93122100  0.00000000  1
  C  C9  1  0.43087000  0.43087000  0.00000000  1
  C  C10  1  0.82495400  0.82495400  0.00000000  1
  C  C11  1  0.31252600  0.31252600  0.00000000  1
  Ni  Ni12  1  0.13264900  0.63264900  0.50000000  1
  Ni  Ni13  1  0.63264900  0.13264900  0.50000000  1
  Ni  Ni14  1  0.38061600  0.88061600  0.50000000  1
  Ni  Ni15  1  0.88061600  0.38061600  0.50000000  1
  Cu  Cu16  1  0.79023900  0.29019600  0.00000000  1
  Cu  Cu17  1  0.29019600  0.79023900  0.00000000  1
  Cu  Cu18  1  0.95784900  0.47319100  0.00000000  1
  Cu  Cu19  1  0.47319100  0.95784900  0.00000000  1
  Cu  Cu20  1  0.57073400  0.57073400  0.54054100  1
  Cu  Cu21  1  0.03019300  0.03019300  0.45945900  1
  Cu  Cu22  1  0.47319100  0.47319100  0.51534200  1
  Cu  Cu23  1  0.95784900  0.95784900  0.48465800  1
  Cu  Cu24  1  0.71093700  0.71093700  0.49981300  1
  Cu  Cu25  1  0.21112400  0.21112400  0.50018700  1
  Cu  Cu26  1  0.29019600  0.29019600  0.49995700  1
  Cu  Cu27  1  0.79023900  0.79023900  0.50004300  1
  Cu  Cu28  1  0.03019300  0.57073400  0.00000000  1
  Cu  Cu29  1  0.57073400  0.03019300  0.00000000  1
  Cu  Cu30  1  0.26305500  0.26305500  0.00000000  1
  Cu  Cu31  1  0.71093700  0.21112400  0.00000000  1
  Cu  Cu32  1  0.21112400  0.71093700  0.00000000  1
