# generated using pymatgen
data_Cu4NiC9
_symmetry_space_group_name_H-M   'P 1'
_cell_length_a   7.47366505
_cell_length_b   7.47366505
_cell_length_c   9.45674500
_cell_angle_alpha   90.00000000
_cell_angle_beta   90.00000000
_cell_angle_gamma   135.42782717
_symmetry_Int_Tables_number   1
_chemical_formula_structural   Cu4NiC9
_chemical_formula_sum   'Cu8 Ni2 C18'
_cell_volume   370.70353772
_cell_formula_units_Z   2
loop_
 _symmetry_equiv_pos_site_id
 _symmetry_equiv_pos_as_xyz
  1  'x, y, z'
loop_
 _atom_site_type_symbol
 _atom_site_label
 _atom_site_symmetry_multiplicity
 _atom_site_fract_x
 _atom_site_fract_y
 _atom_site_fract_z
 _atom_site_occupancy
  C  C0  1  0.97477700  0.02522300  0.98762300  1
  C  C1  1  0.02522300  0.97477700  0.48762300  1
  Ni  Ni2  1  0.47129200  0.52870800  0.75754000  1
  Ni  Ni3  1  0.52870800  0.47129200  0.25754000  1
  Cu  Cu4  1  0.29837400  0.70162600  0.98750300  1
  Cu  Cu5  1  0.70162600  0.29837400  0.48750300  1
  Cu  Cu6  1  0.42354200  0.07907200  0.76750200  1
  Cu  Cu7  1  0.92092800  0.57645800  0.76750200  1
  Cu  Cu8  1  0.57645800  0.92092800  0.26750200  1
  Cu  Cu9  1  0.07907200  0.42354200  0.26750200  1
  Cu  Cu10  1  0.28886300  0.71113700  0.54597900  1
  Cu  Cu11  1  0.71113700  0.28886300  0.04597900  1
  C  C12  1  0.40858300  0.59141700  0.92133200  1
  C  C13  1  0.59141700  0.40858300  0.42133200  1
  C  C14  1  0.20072800  0.79927200  0.86338900  1
  C  C15  1  0.79927200  0.20072800  0.36338900  1
  C  C16  1  0.70917900  0.29082100  0.86029900  1
  C  C17  1  0.29082100  0.70917900  0.36029900  1
  C  C18  1  0.47234600  0.02542800  0.59894700  1
  C  C19  1  0.97457200  0.52765400  0.59894700  1
  C  C20  1  0.52765400  0.97457200  0.09894700  1
  C  C21  1  0.02542800  0.47234600  0.09894700  1
  C  C22  1  0.30535000  0.19924300  0.74815500  1
  C  C23  1  0.80075700  0.69465000  0.74815500  1
  C  C24  1  0.69465000  0.80075700  0.24815500  1
  C  C25  1  0.19924300  0.30535000  0.24815500  1
  C  C26  1  0.39948900  0.60051100  0.60332700  1
  C  C27  1  0.60051100  0.39948900  0.10332700  1
