# generated using pymatgen
data_Cu9Ni24C185
_symmetry_space_group_name_H-M   'P 1'
_cell_length_a   15.49360569
_cell_length_b   15.49360569
_cell_length_c   15.49360569
_cell_angle_alpha   90.00000000
_cell_angle_beta   90.00000000
_cell_angle_gamma   90.00000000
_symmetry_Int_Tables_number   1
_chemical_formula_structural   Cu9Ni24C185
_chemical_formula_sum   'Cu9 Ni24 C185'
_cell_volume   3719.26820206
_cell_formula_units_Z   1
loop_
 _symmetry_equiv_pos_site_id
 _symmetry_equiv_pos_as_xyz
  1  'x, y, z'
loop_
 _atom_site_type_symbol
 _atom_site_label
 _atom_site_symmetry_multiplicity
 _atom_site_fract_x
 _atom_site_fract_y
 _atom_site_fract_z
 _atom_site_occupancy
  C  C0  1  0.50000000  0.50000000  0.50000000  1
  Ni  Ni1  1  0.09410298  0.25608970  0.74391030  1
  Ni  Ni2  1  0.25608970  0.25608970  0.90589702  1
  Ni  Ni3  1  0.25608970  0.09410298  0.74391030  1
  Ni  Ni4  1  0.09410298  0.74391030  0.25608970  1
  Ni  Ni5  1  0.25608970  0.74391030  0.09410298  1
  Ni  Ni6  1  0.25608970  0.90589702  0.25608970  1
  Ni  Ni7  1  0.90589702  0.25608970  0.25608970  1
  Ni  Ni8  1  0.74391030  0.25608970  0.09410298  1
  Ni  Ni9  1  0.74391030  0.09410298  0.25608970  1
  Ni  Ni10  1  0.90589702  0.74391030  0.74391030  1
  Ni  Ni11  1  0.74391030  0.74391030  0.90589702  1
  Ni  Ni12  1  0.74391030  0.90589702  0.74391030  1
  Ni  Ni13  1  0.90589702  0.74391030  0.25608970  1
  Ni  Ni14  1  0.74391030  0.74391030  0.09410298  1
  Ni  Ni15  1  0.74391030  0.90589702  0.25608970  1
  Ni  Ni16  1  0.90589702  0.25608970  0.74391030  1
  Ni  Ni17  1  0.74391030  0.25608970  0.90589702  1
  Ni  Ni18  1  0.74391030  0.09410298  0.74391030  1
  Ni  Ni19  1  0.09410298  0.74391030  0.74391030  1
  Ni  Ni20  1  0.25608970  0.74391030  0.90589702  1
  Ni  Ni21  1  0.25608970  0.90589702  0.74391030  1
  Ni  Ni22  1  0.09410298  0.25608970  0.25608970  1
  Ni  Ni23  1  0.25608970  0.25608970  0.09410298  1
  Ni  Ni24  1  0.25608970  0.09410298  0.25608970  1
  Cu  Cu25  1  0.00000000  0.15492020  0.00000000  1
  Cu  Cu26  1  0.15492020  0.00000000  0.00000000  1
  Cu  Cu27  1  0.00000000  0.00000000  0.84507980  1
  Cu  Cu28  1  0.00000000  0.84507980  0.00000000  1
  Cu  Cu29  1  0.00000000  0.00000000  0.15492020  1
  Cu  Cu30  1  0.84507980  0.00000000  0.00000000  1
  Cu  Cu31  1  0.00000000  0.50000000  0.00000000  1
  Cu  Cu32  1  0.50000000  0.00000000  0.00000000  1
  Cu  Cu33  1  0.00000000  0.00000000  0.50000000  1
  C  C34  1  0.14814699  0.33516953  0.00000000  1
  C  C35  1  0.33516953  0.00000000  0.85185301  1
  C  C36  1  0.00000000  0.14814699  0.66483047  1
  C  C37  1  0.14814699  0.00000000  0.66483047  1
  C  C38  1  0.33516953  0.14814699  0.00000000  1
  C  C39  1  0.00000000  0.33516953  0.85185301  1
  C  C40  1  0.14814699  0.66483047  0.00000000  1
  C  C41  1  0.33516953  0.00000000  0.14814699  1
  C  C42  1  0.00000000  0.85185301  0.33516953  1
  C  C43  1  0.14814699  0.00000000  0.33516953  1
  C  C44  1  0.33516953  0.85185301  0.00000000  1
  C  C45  1  0.00000000  0.66483047  0.14814699  1
  C  C46  1  0.85185301  0.33516953  0.00000000  1
  C  C47  1  0.66483047  0.00000000  0.14814699  1
  C  C48  1  0.00000000  0.14814699  0.33516953  1
  C  C49  1  0.85185301  0.00000000  0.33516953  1
  C  C50  1  0.66483047  0.14814699  0.00000000  1
  C  C51  1  0.00000000  0.33516953  0.14814699  1
  C  C52  1  0.85185301  0.66483047  0.00000000  1
  C  C53  1  0.66483047  0.00000000  0.85185301  1
  C  C54  1  0.00000000  0.85185301  0.66483047  1
  C  C55  1  0.85185301  0.00000000  0.66483047  1
  C  C56  1  0.66483047  0.85185301  0.00000000  1
  C  C57  1  0.00000000  0.66483047  0.85185301  1
  C  C58  1  0.36717710  0.16652277  0.83347723  1
  C  C59  1  0.16652277  0.16652277  0.63282290  1
  C  C60  1  0.16652277  0.36717710  0.83347723  1
  C  C61  1  0.36717710  0.83347723  0.16652277  1
  C  C62  1  0.16652277  0.83347723  0.36717710  1
  C  C63  1  0.16652277  0.63282290  0.16652277  1
  C  C64  1  0.63282290  0.16652277  0.16652277  1
  C  C65  1  0.83347723  0.16652277  0.36717710  1
  C  C66  1  0.83347723  0.36717710  0.16652277  1
  C  C67  1  0.63282290  0.83347723  0.83347723  1
  C  C68  1  0.83347723  0.83347723  0.63282290  1
  C  C69  1  0.83347723  0.63282290  0.83347723  1
  C  C70  1  0.63282290  0.83347723  0.16652277  1
  C  C71  1  0.83347723  0.83347723  0.36717710  1
  C  C72  1  0.83347723  0.63282290  0.16652277  1
  C  C73  1  0.63282290  0.16652277  0.83347723  1
  C  C74  1  0.83347723  0.16652277  0.63282290  1
  C  C75  1  0.83347723  0.36717710  0.83347723  1
  C  C76  1  0.36717710  0.83347723  0.83347723  1
  C  C77  1  0.16652277  0.83347723  0.63282290  1
  C  C78  1  0.16652277  0.63282290  0.83347723  1
  C  C79  1  0.36717710  0.16652277  0.16652277  1
  C  C80  1  0.16652277  0.16652277  0.36717710  1
  C  C81  1  0.16652277  0.36717710  0.16652277  1
  C  C82  1  0.50000000  0.50000000  0.77618899  1
  C  C83  1  0.50000000  0.22381101  0.50000000  1
  C  C84  1  0.22381101  0.50000000  0.50000000  1
  C  C85  1  0.50000000  0.50000000  0.22381101  1
  C  C86  1  0.50000000  0.77618899  0.50000000  1
  C  C87  1  0.77618899  0.50000000  0.50000000  1
  C  C88  1  0.30383457  0.30383457  0.69616543  1
  C  C89  1  0.30383457  0.69616543  0.30383457  1
  C  C90  1  0.69616543  0.30383457  0.30383457  1
  C  C91  1  0.69616543  0.69616543  0.69616543  1
  C  C92  1  0.69616543  0.69616543  0.30383457  1
  C  C93  1  0.69616543  0.30383457  0.69616543  1
  C  C94  1  0.30383457  0.69616543  0.69616543  1
  C  C95  1  0.30383457  0.30383457  0.30383457  1
  C  C96  1  0.00000000  0.50000000  0.72483288  1
  C  C97  1  0.50000000  0.27516712  0.00000000  1
  C  C98  1  0.27516712  0.00000000  0.50000000  1
  C  C99  1  0.00000000  0.27516712  0.50000000  1
  C  C100  1  0.50000000  0.00000000  0.72483288  1
  C  C101  1  0.27516712  0.50000000  0.00000000  1
  C  C102  1  0.00000000  0.50000000  0.27516712  1
  C  C103  1  0.50000000  0.72483288  0.00000000  1
  C  C104  1  0.00000000  0.72483288  0.50000000  1
  C  C105  1  0.50000000  0.00000000  0.27516712  1
  C  C106  1  0.72483288  0.00000000  0.50000000  1
  C  C107  1  0.72483288  0.50000000  0.00000000  1
  C  C108  1  0.12082746  0.12082746  0.87917254  1
  C  C109  1  0.12082746  0.87917254  0.12082746  1
  C  C110  1  0.87917254  0.12082746  0.12082746  1
  C  C111  1  0.87917254  0.87917254  0.87917254  1
  C  C112  1  0.87917254  0.87917254  0.12082746  1
  C  C113  1  0.87917254  0.12082746  0.87917254  1
  C  C114  1  0.12082746  0.87917254  0.87917254  1
  C  C115  1  0.12082746  0.12082746  0.12082746  1
  C  C116  1  0.12126639  0.38568877  0.61431123  1
  C  C117  1  0.38568877  0.38568877  0.87873361  1
  C  C118  1  0.38568877  0.12126639  0.61431123  1
  C  C119  1  0.12126639  0.61431123  0.38568877  1
  C  C120  1  0.38568877  0.61431123  0.12126639  1
  C  C121  1  0.38568877  0.87873361  0.38568877  1
  C  C122  1  0.87873361  0.38568877  0.38568877  1
  C  C123  1  0.61431123  0.38568877  0.12126639  1
  C  C124  1  0.61431123  0.12126639  0.38568877  1
  C  C125  1  0.87873361  0.61431123  0.61431123  1
  C  C126  1  0.61431123  0.61431123  0.87873361  1
  C  C127  1  0.61431123  0.87873361  0.61431123  1
  C  C128  1  0.87873361  0.61431123  0.38568877  1
  C  C129  1  0.61431123  0.61431123  0.12126639  1
  C  C130  1  0.61431123  0.87873361  0.38568877  1
  C  C131  1  0.87873361  0.38568877  0.61431123  1
  C  C132  1  0.61431123  0.38568877  0.87873361  1
  C  C133  1  0.61431123  0.12126639  0.61431123  1
  C  C134  1  0.12126639  0.61431123  0.61431123  1
  C  C135  1  0.38568877  0.61431123  0.87873361  1
  C  C136  1  0.38568877  0.87873361  0.61431123  1
  C  C137  1  0.12126639  0.38568877  0.38568877  1
  C  C138  1  0.38568877  0.38568877  0.12126639  1
  C  C139  1  0.38568877  0.12126639  0.38568877  1
  C  C140  1  0.00000000  0.33227094  0.00000000  1
  C  C141  1  0.33227094  0.00000000  0.00000000  1
  C  C142  1  0.00000000  0.00000000  0.66772906  1
  C  C143  1  0.00000000  0.66772906  0.00000000  1
  C  C144  1  0.00000000  0.00000000  0.33227094  1
  C  C145  1  0.66772906  0.00000000  0.00000000  1
  C  C146  1  0.13278925  0.50000000  0.86721075  1
  C  C147  1  0.50000000  0.13278925  0.86721075  1
  C  C148  1  0.13278925  0.13278925  0.50000000  1
  C  C149  1  0.13278925  0.50000000  0.13278925  1
  C  C150  1  0.50000000  0.86721075  0.13278925  1
  C  C151  1  0.13278925  0.86721075  0.50000000  1
  C  C152  1  0.86721075  0.50000000  0.13278925  1
  C  C153  1  0.50000000  0.13278925  0.13278925  1
  C  C154  1  0.86721075  0.13278925  0.50000000  1
  C  C155  1  0.86721075  0.50000000  0.86721075  1
  C  C156  1  0.50000000  0.86721075  0.86721075  1
  C  C157  1  0.86721075  0.86721075  0.50000000  1
  C  C158  1  0.33170997  0.50000000  0.66829003  1
  C  C159  1  0.50000000  0.33170997  0.66829003  1
  C  C160  1  0.33170997  0.33170997  0.50000000  1
  C  C161  1  0.33170997  0.50000000  0.33170997  1
  C  C162  1  0.50000000  0.66829003  0.33170997  1
  C  C163  1  0.33170997  0.66829003  0.50000000  1
  C  C164  1  0.66829003  0.50000000  0.33170997  1
  C  C165  1  0.50000000  0.33170997  0.33170997  1
  C  C166  1  0.66829003  0.33170997  0.50000000  1
  C  C167  1  0.66829003  0.50000000  0.66829003  1
  C  C168  1  0.50000000  0.66829003  0.66829003  1
  C  C169  1  0.66829003  0.66829003  0.50000000  1
  C  C170  1  0.21176877  0.33079710  0.00000000  1
  C  C171  1  0.33079710  0.00000000  0.78823123  1
  C  C172  1  0.00000000  0.21176877  0.66920290  1
  C  C173  1  0.21176877  0.00000000  0.66920290  1
  C  C174  1  0.33079710  0.21176877  0.00000000  1
  C  C175  1  0.00000000  0.33079710  0.78823123  1
  C  C176  1  0.21176877  0.66920290  0.00000000  1
  C  C177  1  0.33079710  0.00000000  0.21176877  1
  C  C178  1  0.00000000  0.78823123  0.33079710  1
  C  C179  1  0.21176877  0.00000000  0.33079710  1
  C  C180  1  0.33079710  0.78823123  0.00000000  1
  C  C181  1  0.00000000  0.66920290  0.21176877  1
  C  C182  1  0.78823123  0.33079710  0.00000000  1
  C  C183  1  0.66920290  0.00000000  0.21176877  1
  C  C184  1  0.00000000  0.21176877  0.33079710  1
  C  C185  1  0.78823123  0.00000000  0.33079710  1
  C  C186  1  0.66920290  0.21176877  0.00000000  1
  C  C187  1  0.00000000  0.33079710  0.21176877  1
  C  C188  1  0.78823123  0.66920290  0.00000000  1
  C  C189  1  0.66920290  0.00000000  0.78823123  1
  C  C190  1  0.00000000  0.78823123  0.66920290  1
  C  C191  1  0.78823123  0.00000000  0.66920290  1
  C  C192  1  0.66920290  0.78823123  0.00000000  1
  C  C193  1  0.00000000  0.66920290  0.78823123  1
  C  C194  1  0.30960786  0.18619638  0.81380362  1
  C  C195  1  0.18619638  0.18619638  0.69039214  1
  C  C196  1  0.18619638  0.30960786  0.81380362  1
  C  C197  1  0.30960786  0.81380362  0.18619638  1
  C  C198  1  0.18619638  0.81380362  0.30960786  1
  C  C199  1  0.18619638  0.69039214  0.18619638  1
  C  C200  1  0.69039214  0.18619638  0.18619638  1
  C  C201  1  0.81380362  0.18619638  0.30960786  1
  C  C202  1  0.81380362  0.30960786  0.18619638  1
  C  C203  1  0.69039214  0.81380362  0.81380362  1
  C  C204  1  0.81380362  0.81380362  0.69039214  1
  C  C205  1  0.81380362  0.69039214  0.81380362  1
  C  C206  1  0.69039214  0.81380362  0.18619638  1
  C  C207  1  0.81380362  0.81380362  0.30960786  1
  C  C208  1  0.81380362  0.69039214  0.18619638  1
  C  C209  1  0.69039214  0.18619638  0.81380362  1
  C  C210  1  0.81380362  0.18619638  0.69039214  1
  C  C211  1  0.81380362  0.30960786  0.81380362  1
  C  C212  1  0.30960786  0.81380362  0.81380362  1
  C  C213  1  0.18619638  0.81380362  0.69039214  1
  C  C214  1  0.18619638  0.69039214  0.81380362  1
  C  C215  1  0.30960786  0.18619638  0.18619638  1
  C  C216  1  0.18619638  0.18619638  0.30960786  1
  C  C217  1  0.18619638  0.30960786  0.18619638  1
