# generated using pymatgen
data_Cu10Ni7C15
_symmetry_space_group_name_H-M   'P 1'
_cell_length_a   8.96565300
_cell_length_b   12.33681642
_cell_length_c   12.48248578
_cell_angle_alpha   66.06334674
_cell_angle_beta   69.93581484
_cell_angle_gamma   74.39264865
_symmetry_Int_Tables_number   1
_chemical_formula_structural   Cu10Ni7C15
_chemical_formula_sum   'Cu20 Ni14 C30'
_cell_volume   1171.69081219
_cell_formula_units_Z   2
loop_
 _symmetry_equiv_pos_site_id
 _symmetry_equiv_pos_as_xyz
  1  'x, y, z'
loop_
 _atom_site_type_symbol
 _atom_site_label
 _atom_site_symmetry_multiplicity
 _atom_site_fract_x
 _atom_site_fract_y
 _atom_site_fract_z
 _atom_site_occupancy
  C  C0  1  0.95106700  0.21549400  0.87108100  1
  C  C1  1  0.04893300  0.78450600  0.12891900  1
  C  C2  1  0.45168900  0.71703900  0.86034300  1
  C  C3  1  0.54831100  0.28296100  0.13965700  1
  C  C4  1  0.35991400  0.39689700  0.82544500  1
  C  C5  1  0.64008600  0.60310300  0.17455500  1
  C  C6  1  0.89158700  0.93818000  0.74109500  1
  C  C7  1  0.10841300  0.06182000  0.25890500  1
  C  C8  1  0.59634100  0.92846300  0.16990700  1
  C  C9  1  0.40365900  0.07153700  0.83009300  1
  C  C10  1  0.73020300  0.75378100  0.50627000  1
  C  C11  1  0.26979700  0.24621900  0.49373000  1
  C  C12  1  0.90200600  0.56911400  0.82828300  1
  C  C13  1  0.09799400  0.43088600  0.17171700  1
  C  C14  1  0.33178300  0.75068200  0.32344200  1
  C  C15  1  0.66821700  0.24931800  0.67655800  1
  C  C16  1  0.18390900  0.71398900  0.65008600  1
  C  C17  1  0.81609100  0.28601100  0.34991400  1
  C  C18  1  0.51864100  0.92358200  0.64473400  1
  C  C19  1  0.48135900  0.07641800  0.35526600  1
  C  C20  1  0.84269600  0.48596600  0.51673200  1
  C  C21  1  0.15730400  0.51403400  0.48326800  1
  C  C22  1  0.39239200  0.90620000  0.59100500  1
  C  C23  1  0.60760800  0.09380000  0.40899500  1
  C  C24  1  0.04841600  0.75581700  0.58370400  1
  C  C25  1  0.95158400  0.24418300  0.41629600  1
  C  C26  1  0.86240800  0.55938500  0.37676400  1
  C  C27  1  0.13759200  0.44061500  0.62323600  1
  C  C28  1  0.45189200  0.71441400  0.40257800  1
  C  C29  1  0.54810800  0.28558600  0.59742200  1
  Ni  Ni30  1  0.12645700  0.60289800  0.92668900  1
  Ni  Ni31  1  0.87354300  0.39710200  0.07331100  1
  Ni  Ni32  1  0.63531200  0.10015400  0.92527900  1
  Ni  Ni33  1  0.36468800  0.89984600  0.07472100  1
  Ni  Ni34  1  0.84076900  0.05099400  0.13975300  1
  Ni  Ni35  1  0.15923100  0.94900600  0.86024700  1
  Ni  Ni36  1  0.66344900  0.44158900  0.86542700  1
  Ni  Ni37  1  0.33655100  0.55841100  0.13457300  1
  Ni  Ni38  1  0.80691100  0.96921500  0.48509400  1
  Ni  Ni39  1  0.19308900  0.03078500  0.51490600  1
  Ni  Ni40  1  0.44593800  0.64436400  0.59430100  1
  Ni  Ni41  1  0.55406200  0.35563600  0.40569900  1
  Ni  Ni42  1  0.07143800  0.73923300  0.39680000  1
  Ni  Ni43  1  0.92856200  0.26076700  0.60320000  1
  Cu  Cu44  1  0.75440900  0.67545500  0.89564300  1
  Cu  Cu45  1  0.24559100  0.32454500  0.10435700  1
  Cu  Cu46  1  0.74542300  0.81868700  0.10874200  1
  Cu  Cu47  1  0.25457700  0.18131300  0.89125800  1
  Cu  Cu48  1  0.05435500  0.46069000  0.76269600  1
  Cu  Cu49  1  0.94564500  0.53931000  0.23730400  1
  Cu  Cu50  1  0.44610000  0.03792700  0.23319000  1
  Cu  Cu51  1  0.55390000  0.96207300  0.76681000  1
  Cu  Cu52  1  0.78405400  0.67652600  0.65414300  1
  Cu  Cu53  1  0.21594600  0.32347400  0.34585700  1
  Cu  Cu54  1  0.44605900  0.74628900  0.31683900  1
  Cu  Cu55  1  0.55394100  0.25371100  0.68316100  1
  Cu  Cu56  1  0.06551300  0.73479900  0.66430000  1
  Cu  Cu57  1  0.93448700  0.26520100  0.33570000  1
  Cu  Cu58  1  0.68048800  0.82778700  0.35716000  1
  Cu  Cu59  1  0.31951200  0.17221300  0.64284000  1
  Cu  Cu60  1  0.49281700  0.86804800  0.61684700  1
  Cu  Cu61  1  0.50718300  0.13195200  0.38315300  1
  Cu  Cu62  1  0.81836000  0.56644500  0.45921600  1
  Cu  Cu63  1  0.18164000  0.43355500  0.54078400  1
