# generated using pymatgen
data_CuNi14C
_symmetry_space_group_name_H-M   'P 1'
_cell_length_a   6.54287238
_cell_length_b   6.66892105
_cell_length_c   10.64889952
_cell_angle_alpha   90.00000000
_cell_angle_beta   90.00000000
_cell_angle_gamma   120.63936076
_symmetry_Int_Tables_number   1
_chemical_formula_structural   CuNi14C
_chemical_formula_sum   'Cu1 Ni14 C1'
_cell_volume   399.78379045
_cell_formula_units_Z   1
loop_
 _symmetry_equiv_pos_site_id
 _symmetry_equiv_pos_as_xyz
  1  'x, y, z'
loop_
 _atom_site_type_symbol
 _atom_site_label
 _atom_site_symmetry_multiplicity
 _atom_site_fract_x
 _atom_site_fract_y
 _atom_site_fract_z
 _atom_site_occupancy
  C  C0  1  0.16876743  0.83438321  0.12500000  1
  Ni  Ni1  1  0.16476885  0.33238393  0.62500000  1
  Ni  Ni2  1  0.16840845  0.83420372  0.62500000  1
  Ni  Ni3  1  0.66529551  0.33837085  0.12500000  1
  Ni  Ni4  1  0.66917918  0.33171059  0.62500000  1
  Ni  Ni5  1  0.66529551  0.82692366  0.12500000  1
  Ni  Ni6  1  0.66917918  0.83746760  0.62500000  1
  Ni  Ni7  1  0.33513700  0.17651728  0.38815067  1
  Ni  Ni8  1  0.33513700  0.17651728  0.86184933  1
  Ni  Ni9  1  0.33513700  0.65862072  0.38815067  1
  Ni  Ni10  1  0.33513700  0.65862072  0.86184933  1
  Ni  Ni11  1  0.83222193  0.16611147  0.37137887  1
  Ni  Ni12  1  0.83222193  0.16611147  0.87862113  1
  Ni  Ni13  1  0.82087164  0.66043632  0.39127345  1
  Ni  Ni14  1  0.82087164  0.66043632  0.85872655  1
  Cu  Cu15  1  0.18237075  0.34118488  0.12500000  1
