# generated using pymatgen
data_Cu4NiC5
_symmetry_space_group_name_H-M   'P 1'
_cell_length_a   5.24145730
_cell_length_b   5.24145730
_cell_length_c   5.24145730
_cell_angle_alpha   60.00000000
_cell_angle_beta   60.00000000
_cell_angle_gamma   60.00000000
_symmetry_Int_Tables_number   1
_chemical_formula_structural   Cu4NiC5
_chemical_formula_sum   'Cu4 Ni1 C5'
_cell_volume   101.82189104
_cell_formula_units_Z   1
loop_
 _symmetry_equiv_pos_site_id
 _symmetry_equiv_pos_as_xyz
  1  'x, y, z'
loop_
 _atom_site_type_symbol
 _atom_site_label
 _atom_site_symmetry_multiplicity
 _atom_site_fract_x
 _atom_site_fract_y
 _atom_site_fract_z
 _atom_site_occupancy
  C  C0  1  0.00000000  0.00000000  0.00000000  1
  Ni  Ni1  1  0.25000000  0.25000000  0.25000000  1
  Cu  Cu2  1  0.61810400  0.61810400  0.14568700  1
  Cu  Cu3  1  0.61810400  0.14568700  0.61810400  1
  Cu  Cu4  1  0.14568700  0.61810400  0.61810400  1
  Cu  Cu5  1  0.61810400  0.61810400  0.61810400  1
  C  C6  1  0.83941700  0.83941700  0.48175000  1
  C  C7  1  0.83941700  0.48175000  0.83941700  1
  C  C8  1  0.48175000  0.83941700  0.83941700  1
  C  C9  1  0.83941700  0.83941700  0.83941700  1
