# generated using pymatgen
data_Cu2NiC8
_symmetry_space_group_name_H-M   'P 1'
_cell_length_a   8.39463358
_cell_length_b   8.39463358
_cell_length_c   10.24962772
_cell_angle_alpha   98.83471854
_cell_angle_beta   98.83471854
_cell_angle_gamma   105.79907590
_symmetry_Int_Tables_number   1
_chemical_formula_structural   Cu2NiC8
_chemical_formula_sum   'Cu8 Ni4 C32'
_cell_volume   672.09884590
_cell_formula_units_Z   4
loop_
 _symmetry_equiv_pos_site_id
 _symmetry_equiv_pos_as_xyz
  1  'x, y, z'
loop_
 _atom_site_type_symbol
 _atom_site_label
 _atom_site_symmetry_multiplicity
 _atom_site_fract_x
 _atom_site_fract_y
 _atom_site_fract_z
 _atom_site_occupancy
  Ni  Ni0  1  0.61440900  0.38559100  0.75000000  1
  Ni  Ni1  1  0.38559100  0.61440900  0.25000000  1
  Ni  Ni2  1  0.94760900  0.05239100  0.75000000  1
  Ni  Ni3  1  0.05239100  0.94760900  0.25000000  1
  Cu  Cu4  1  0.63792400  0.90687200  0.95800000  1
  Cu  Cu5  1  0.36207600  0.09312800  0.04200000  1
  Cu  Cu6  1  0.09312800  0.36207600  0.54200000  1
  Cu  Cu7  1  0.90687200  0.63792400  0.45800000  1
  Cu  Cu8  1  0.39477000  0.80505000  0.65541600  1
  Cu  Cu9  1  0.60523000  0.19495000  0.34458400  1
  Cu  Cu10  1  0.19495000  0.60523000  0.84458400  1
  Cu  Cu11  1  0.80505000  0.39477000  0.15541600  1
  C  C12  1  0.49277000  0.50723000  0.75000000  1
  C  C13  1  0.50723000  0.49277000  0.25000000  1
  C  C14  1  0.06984600  0.93015400  0.75000000  1
  C  C15  1  0.93015400  0.06984600  0.25000000  1
  C  C16  1  0.36327800  0.91451200  0.62187500  1
  C  C17  1  0.63672200  0.08548800  0.37812500  1
  C  C18  1  0.08548800  0.63672200  0.87812500  1
  C  C19  1  0.91451200  0.36327800  0.12187500  1
  C  C20  1  0.84996300  0.07016300  0.60521200  1
  C  C21  1  0.15003700  0.92983700  0.39478800  1
  C  C22  1  0.92983700  0.15003700  0.89478800  1
  C  C23  1  0.07016300  0.84996300  0.10521200  1
  C  C24  1  0.34407800  0.19386400  0.98747400  1
  C  C25  1  0.65592200  0.80613600  0.01252600  1
  C  C26  1  0.80613600  0.65592200  0.51252600  1
  C  C27  1  0.19386400  0.34407800  0.48747400  1
  C  C28  1  0.56446500  0.21190900  0.80872700  1
  C  C29  1  0.43553500  0.78809100  0.19127300  1
  C  C30  1  0.78809100  0.43553500  0.69127300  1
  C  C31  1  0.21190900  0.56446500  0.30872700  1
  C  C32  1  0.49097800  0.25915900  0.57146300  1
  C  C33  1  0.50902200  0.74084100  0.42853700  1
  C  C34  1  0.74084100  0.50902200  0.92853700  1
  C  C35  1  0.25915900  0.49097800  0.07146300  1
  C  C36  1  0.75337200  0.86228500  0.75316800  1
  C  C37  1  0.24662800  0.13771500  0.24683200  1
  C  C38  1  0.13771500  0.24662800  0.74683200  1
  C  C39  1  0.86228500  0.75337200  0.25316800  1
  C  C40  1  0.39658000  0.84603900  0.86745700  1
  C  C41  1  0.60342000  0.15396100  0.13254300  1
  C  C42  1  0.15396100  0.60342000  0.63254300  1
  C  C43  1  0.84603900  0.39658000  0.36745700  1
