# generated using pymatgen
data_Cu14Ni3C8
_symmetry_space_group_name_H-M   'P 1'
_cell_length_a   8.31481092
_cell_length_b   20.80907226
_cell_length_c   20.80903303
_cell_angle_alpha   120.00048022
_cell_angle_beta   90.00004822
_cell_angle_gamma   90.00021293
_symmetry_Int_Tables_number   1
_chemical_formula_structural   Cu14Ni3C8
_chemical_formula_sum   'Cu84 Ni18 C48'
_cell_volume   3118.06759387
_cell_formula_units_Z   6
loop_
 _symmetry_equiv_pos_site_id
 _symmetry_equiv_pos_as_xyz
  1  'x, y, z'
loop_
 _atom_site_type_symbol
 _atom_site_label
 _atom_site_symmetry_multiplicity
 _atom_site_fract_x
 _atom_site_fract_y
 _atom_site_fract_z
 _atom_site_occupancy
  C  C0  1  0.99999811  0.99999814  0.65700789  1
  C  C1  1  0.00000662  0.34299384  0.34299555  1
  C  C2  1  0.99999695  0.65700382  0.99999512  1
  C  C3  1  0.00000189  0.00000186  0.34299211  1
  C  C4  1  0.99999338  0.65700616  0.65700445  1
  C  C5  1  0.00000305  0.34299618  0.00000488  1
  C  C6  1  0.49999497  0.00000314  0.67503568  1
  C  C7  1  0.50000410  0.32496938  0.32497079  1
  C  C8  1  0.49999081  0.67502604  0.99999127  1
  C  C9  1  0.50000503  0.99999686  0.32496432  1
  C  C10  1  0.49999590  0.67503062  0.67502921  1
  C  C11  1  0.50000919  0.32497396  0.00000873  1
  C  C12  1  0.73629133  0.09216988  0.90782869  1
  C  C13  1  0.73628909  0.09217543  0.18435140  1
  C  C14  1  0.73629055  0.81564912  0.90782915  1
  C  C15  1  0.26370867  0.90783012  0.09217131  1
  C  C16  1  0.26371091  0.90782457  0.81564860  1
  C  C17  1  0.26370945  0.18435088  0.09217085  1
  C  C18  1  0.79495296  0.74192933  0.48387877  1
  C  C19  1  0.79497744  0.51612208  0.25806110  1
  C  C20  1  0.79495207  0.74193265  0.25804996  1
  C  C21  1  0.20504704  0.25807067  0.51612123  1
  C  C22  1  0.20502256  0.48387792  0.74193890  1
  C  C23  1  0.20504793  0.25806735  0.74195004  1
  C  C24  1  0.25013798  0.85217302  0.42608634  1
  C  C25  1  0.25012267  0.57391568  0.42607533  1
  C  C26  1  0.25010477  0.57392039  0.14784308  1
  C  C27  1  0.74986202  0.14782698  0.57391366  1
  C  C28  1  0.74987733  0.42608432  0.57392467  1
  C  C29  1  0.74989523  0.42607961  0.85215692  1
  C  C30  1  0.78960581  0.53676830  0.46322684  1
  C  C31  1  0.78961480  0.53676916  0.07354130  1
  C  C32  1  0.78961905  0.92645327  0.46322734  1
  C  C33  1  0.21039419  0.46323170  0.53677316  1
  C  C34  1  0.21038520  0.46323084  0.92645870  1
  C  C35  1  0.21038095  0.07354673  0.53677266  1
  C  C36  1  0.74867192  0.86163716  0.72326291  1
  C  C37  1  0.74866658  0.27673501  0.13837637  1
  C  C38  1  0.74867549  0.86162503  0.13836301  1
  C  C39  1  0.25132808  0.13836284  0.27673709  1
  C  C40  1  0.25133342  0.72326499  0.86162363  1
  C  C41  1  0.25132451  0.13837497  0.86163699  1
  C  C42  1  0.30780206  0.79572674  0.59145993  1
  C  C43  1  0.30780534  0.40853682  0.20427083  1
  C  C44  1  0.30780311  0.79572815  0.20426752  1
  C  C45  1  0.69219794  0.20427326  0.40854007  1
  C  C46  1  0.69219466  0.59146318  0.79572917  1
  C  C47  1  0.69219689  0.20427185  0.79573248  1
  Ni  Ni48  1  0.14986177  0.76492436  0.52984006  1
  Ni  Ni49  1  0.14985743  0.47015528  0.23508065  1
  Ni  Ni50  1  0.14986046  0.76492057  0.23507772  1
  Ni  Ni51  1  0.85013823  0.23507564  0.47015994  1
  Ni  Ni52  1  0.85014257  0.52984472  0.76491935  1
  Ni  Ni53  1  0.85013954  0.23507943  0.76492228  1
  Ni  Ni54  1  0.93452512  0.88245797  0.76488289  1
  Ni  Ni55  1  0.93452614  0.23510911  0.11756949  1
  Ni  Ni56  1  0.93452907  0.88242676  0.11754538  1
  Ni  Ni57  1  0.06547488  0.11754203  0.23511711  1
  Ni  Ni58  1  0.06547386  0.76489089  0.88243051  1
  Ni  Ni59  1  0.06547093  0.11757324  0.88245462  1
  Ni  Ni60  1  0.63196120  0.56740992  0.43258724  1
  Ni  Ni61  1  0.63195439  0.56741381  0.13482650  1
  Ni  Ni62  1  0.63196022  0.86517018  0.43258447  1
  Ni  Ni63  1  0.36803880  0.43259008  0.56741276  1
  Ni  Ni64  1  0.36804561  0.43258619  0.86517350  1
  Ni  Ni65  1  0.36803978  0.13482982  0.56741553  1
  Cu  Cu66  1  0.23135025  0.76374152  0.66240655  1
  Cu  Cu67  1  0.23136328  0.33758471  0.10133671  1
  Cu  Cu68  1  0.23136088  0.89866145  0.23624757  1
  Cu  Cu69  1  0.23136878  0.76374657  0.10133391  1
  Cu  Cu70  1  0.23137265  0.89866108  0.66241404  1
  Cu  Cu71  1  0.23136566  0.33758518  0.23625252  1
  Cu  Cu72  1  0.76864975  0.23625848  0.33759345  1
  Cu  Cu73  1  0.76863672  0.66241529  0.89866329  1
  Cu  Cu74  1  0.76863912  0.10133855  0.76375243  1
  Cu  Cu75  1  0.76863122  0.23625343  0.89866609  1
  Cu  Cu76  1  0.76862735  0.10133892  0.33758596  1
  Cu  Cu77  1  0.76863434  0.66241482  0.76374748  1
  Cu  Cu78  1  0.92917868  0.49572419  0.37347910  1
  Cu  Cu79  1  0.92917237  0.62652177  0.12224926  1
  Cu  Cu80  1  0.92917739  0.87774195  0.50426607  1
  Cu  Cu81  1  0.92918098  0.49573053  0.12225074  1
  Cu  Cu82  1  0.92918063  0.87774527  0.37347817  1
  Cu  Cu83  1  0.92917564  0.62651795  0.50426830  1
  Cu  Cu84  1  0.07082132  0.50427581  0.62652090  1
  Cu  Cu85  1  0.07082763  0.37347823  0.87775074  1
  Cu  Cu86  1  0.07082261  0.12225805  0.49573393  1
  Cu  Cu87  1  0.07081902  0.50426947  0.87774926  1
  Cu  Cu88  1  0.07081937  0.12225473  0.62652183  1
  Cu  Cu89  1  0.07082436  0.37348205  0.49573170  1
  Cu  Cu90  1  0.50716502  0.83528573  0.67059219  1
  Cu  Cu91  1  0.50716656  0.32940548  0.16470054  1
  Cu  Cu92  1  0.50717323  0.83530097  0.16471188  1
  Cu  Cu93  1  0.49283498  0.16471427  0.32940781  1
  Cu  Cu94  1  0.49283344  0.67059452  0.83529946  1
  Cu  Cu95  1  0.49282677  0.16469903  0.83528812  1
  Cu  Cu96  1  0.71927976  0.43410814  0.43412008  1
  Cu  Cu97  1  0.71927909  0.56587732  -0.00000895  1
  Cu  Cu98  1  0.71928186  0.00000318  0.56588814  1
  Cu  Cu99  1  0.71928314  0.43410874  -0.00000774  1
  Cu  Cu100  1  0.71928466  0.00000398  0.43411773  1
  Cu  Cu101  1  0.71927703  0.56588030  0.56588867  1
  Cu  Cu102  1  0.28072024  0.56589186  0.56587992  1
  Cu  Cu103  1  0.28072091  0.43412268  0.00000895  1
  Cu  Cu104  1  0.28071814  -0.00000318  0.43411186  1
  Cu  Cu105  1  0.28071686  0.56589126  0.00000774  1
  Cu  Cu106  1  0.28071534  -0.00000398  0.56588227  1
  Cu  Cu107  1  0.28072297  0.43411970  0.43411133  1
  Cu  Cu108  1  0.78341449  0.75601634  0.64689631  1
  Cu  Cu109  1  0.78342237  0.35310037  0.10912532  1
  Cu  Cu110  1  0.78342231  0.89087962  0.24398257  1
  Cu  Cu111  1  0.78338649  0.75600217  0.10910565  1
  Cu  Cu112  1  0.78338141  0.89089149  0.64689571  1
  Cu  Cu113  1  0.78338280  0.35309502  0.24400053  1
  Cu  Cu114  1  0.21658551  0.24398366  0.35310369  1
  Cu  Cu115  1  0.21657763  0.64689963  0.89087468  1
  Cu  Cu116  1  0.21657769  0.10912038  0.75601743  1
  Cu  Cu117  1  0.21661351  0.24399783  0.89089435  1
  Cu  Cu118  1  0.21661859  0.10910851  0.35310429  1
  Cu  Cu119  1  0.21661720  0.64690498  0.75599947  1
  Cu  Cu120  1  0.00000000  0.50000000  0.50000000  1
  Cu  Cu121  1  0.00000000  0.50000000  0.00000000  1
  Cu  Cu122  1  0.00000000  0.00000000  0.50000000  1
  Cu  Cu123  1  0.00000000  0.00000000  0.00000000  1
  Cu  Cu124  1  0.43974688  0.70389863  0.54171616  1
  Cu  Cu125  1  0.43974774  0.45828135  0.16218731  1
  Cu  Cu126  1  0.43974879  0.83781642  0.29609689  1
  Cu  Cu127  1  0.43975225  0.70390146  0.16218110  1
  Cu  Cu128  1  0.43975815  0.83781207  0.54172089  1
  Cu  Cu129  1  0.43974986  0.45827970  0.29609944  1
  Cu  Cu130  1  0.56025312  0.29610137  0.45828384  1
  Cu  Cu131  1  0.56025226  0.54171865  0.83781269  1
  Cu  Cu132  1  0.56025121  0.16218358  0.70390311  1
  Cu  Cu133  1  0.56024775  0.29609854  0.83781890  1
  Cu  Cu134  1  0.56024185  0.16218793  0.45827911  1
  Cu  Cu135  1  0.56025014  0.54172030  0.70390056  1
  Cu  Cu136  1  0.64160575  0.82659226  0.78538908  1
  Cu  Cu137  1  0.64159840  0.21461343  0.04120505  1
  Cu  Cu138  1  0.64160865  0.95879692  0.17341367  1
  Cu  Cu139  1  0.64155908  0.82658440  0.04120267  1
  Cu  Cu140  1  0.64155529  0.95879783  0.78538071  1
  Cu  Cu141  1  0.64155761  0.21461269  0.17341562  1
  Cu  Cu142  1  0.35839425  0.17340774  0.21461092  1
  Cu  Cu143  1  0.35840160  0.78538657  0.95879495  1
  Cu  Cu144  1  0.35839135  0.04120308  0.82658633  1
  Cu  Cu145  1  0.35844092  0.17341560  0.95879733  1
  Cu  Cu146  1  0.35844471  0.04120217  0.21461929  1
  Cu  Cu147  1  0.35844239  0.78538731  0.82658438  1
  Cu  Cu148  1  0.87535203  0.66662029  0.33330676  1
  Cu  Cu149  1  0.12464797  0.33337971  0.66669324  1
