# generated using pymatgen
data_CuNiC
_symmetry_space_group_name_H-M   'P 1'
_cell_length_a   3.83528300
_cell_length_b   3.85285900
_cell_length_c   17.06443800
_cell_angle_alpha   90.00000000
_cell_angle_beta   90.00000000
_cell_angle_gamma   90.00000000
_symmetry_Int_Tables_number   1
_chemical_formula_structural   CuNiC
_chemical_formula_sum   'Cu4 Ni4 C4'
_cell_volume   252.15786635
_cell_formula_units_Z   4
loop_
 _symmetry_equiv_pos_site_id
 _symmetry_equiv_pos_as_xyz
  1  'x, y, z'
loop_
 _atom_site_type_symbol
 _atom_site_label
 _atom_site_symmetry_multiplicity
 _atom_site_fract_x
 _atom_site_fract_y
 _atom_site_fract_z
 _atom_site_occupancy
  C  C0  1  0.25000000  0.78236800  0.14580900  1
  C  C1  1  0.25000000  0.71763200  0.64580900  1
  C  C2  1  0.75000000  0.21763200  0.85419100  1
  C  C3  1  0.75000000  0.28236800  0.35419100  1
  Ni  Ni4  1  0.75000000  0.78153600  0.49797600  1
  Ni  Ni5  1  0.75000000  0.71846400  0.99797600  1
  Ni  Ni6  1  0.25000000  0.21846400  0.50202400  1
  Ni  Ni7  1  0.25000000  0.28153600  0.00202400  1
  Cu  Cu8  1  0.25000000  0.78170700  0.31326200  1
  Cu  Cu9  1  0.25000000  0.71829300  0.81326200  1
  Cu  Cu10  1  0.75000000  0.21829300  0.68673800  1
  Cu  Cu11  1  0.75000000  0.28170700  0.18673800  1
