# generated using pymatgen
data_Cu(NiC5)2
_symmetry_space_group_name_H-M   'P 1'
_cell_length_a   3.93417924
_cell_length_b   13.16039363
_cell_length_c   7.98849685
_cell_angle_alpha   72.38791171
_cell_angle_beta   90.05106887
_cell_angle_gamma   90.01925331
_symmetry_Int_Tables_number   1
_chemical_formula_structural   Cu(NiC5)2
_chemical_formula_sum   'Cu2 Ni4 C20'
_cell_volume   394.21997033
_cell_formula_units_Z   2
loop_
 _symmetry_equiv_pos_site_id
 _symmetry_equiv_pos_as_xyz
  1  'x, y, z'
loop_
 _atom_site_type_symbol
 _atom_site_label
 _atom_site_symmetry_multiplicity
 _atom_site_fract_x
 _atom_site_fract_y
 _atom_site_fract_z
 _atom_site_occupancy
  Ni  Ni0  1  0.49205800  0.20860100  0.14235800  1
  Ni  Ni1  1  0.50758800  0.20863600  0.64200600  1
  Ni  Ni2  1  0.50764200  0.79142000  0.85067700  1
  Ni  Ni3  1  0.49195200  0.79137200  0.35032500  1
  Cu  Cu4  1  0.50107200  0.50002000  0.99770700  1
  Cu  Cu5  1  0.50098600  0.49992700  0.49814500  1
  C  C6  1  0.00005200  0.99987200  0.46413300  1
  C  C7  1  0.99999100  0.00016500  0.96368100  1
  C  C8  1  0.00061100  0.36701400  0.31465100  1
  C  C9  1  0.00051100  0.63246600  0.18093900  1
  C  C10  1  0.00093900  0.36691700  0.81472700  1
  C  C11  1  0.00110300  0.63334500  0.68049400  1
  C  C12  1  0.49808700  0.00001000  0.30317600  1
  C  C13  1  0.49694900  0.00014300  0.80222900  1
  C  C14  1  0.99890100  0.17086600  0.41866800  1
  C  C15  1  0.99764100  0.17091000  0.91889100  1
  C  C16  1  0.99747300  0.82961200  0.08920700  1
  C  C17  1  0.99889400  0.82887400  0.58931300  1
  C  C18  1  0.99719900  0.38505000  0.05572700  1
  C  C19  1  0.00487400  0.38484400  0.55592400  1
  C  C20  1  0.50075800  0.38649500  0.80416300  1
  C  C21  1  0.50092000  0.38646300  0.30417200  1
  C  C22  1  0.50107000  0.61337300  0.68994100  1
  C  C23  1  0.50062400  0.61334400  0.18992700  1
  C  C24  1  0.00487500  0.61524000  0.93942400  1
  C  C25  1  0.99722400  0.61502600  0.43939000  1
