# generated using pymatgen
data_Cu4Ni4C13
_symmetry_space_group_name_H-M   'P 1'
_cell_length_a   5.75672452
_cell_length_b   7.87560800
_cell_length_c   6.26473540
_cell_angle_alpha   90.00000000
_cell_angle_beta   89.20619072
_cell_angle_gamma   90.00000000
_symmetry_Int_Tables_number   1
_chemical_formula_structural   Cu4Ni4C13
_chemical_formula_sum   'Cu4 Ni4 C13'
_cell_volume   284.00147076
_cell_formula_units_Z   1
loop_
 _symmetry_equiv_pos_site_id
 _symmetry_equiv_pos_as_xyz
  1  'x, y, z'
loop_
 _atom_site_type_symbol
 _atom_site_label
 _atom_site_symmetry_multiplicity
 _atom_site_fract_x
 _atom_site_fract_y
 _atom_site_fract_z
 _atom_site_occupancy
  Ni  Ni0  1  0.00484900  0.25000000  0.10175300  1
  Ni  Ni1  1  0.44316700  0.75000000  0.44574300  1
  Ni  Ni2  1  0.46684700  0.25000000  0.37633100  1
  Ni  Ni3  1  0.95081700  0.75000000  0.06125400  1
  Cu  Cu4  1  0.97325200  0.98317800  0.55407600  1
  Cu  Cu5  1  0.97325200  0.51682200  0.55407600  1
  Cu  Cu6  1  0.46654000  0.95635700  0.96193500  1
  Cu  Cu7  1  0.46654000  0.54364300  0.96193500  1
  C  C8  1  0.62736200  0.25000000  0.76978700  1
  C  C9  1  0.12828300  0.75000000  0.70686100  1
  C  C10  1  0.18569000  0.51714900  0.23840400  1
  C  C11  1  0.18569000  0.98285100  0.23840400  1
  C  C12  1  0.36946500  0.43585200  0.64521300  1
  C  C13  1  0.36946500  0.06414800  0.64521300  1
  C  C14  1  0.41423400  0.25000000  0.02617000  1
  C  C15  1  0.64620300  0.75000000  0.77469000  1
  C  C16  1  0.69981100  0.94514200  0.28637200  1
  C  C17  1  0.69981100  0.55485800  0.28637200  1
  C  C18  1  0.83443300  0.06335500  0.87266700  1
  C  C19  1  0.83443300  0.43664500  0.87266700  1
  C  C20  1  0.85360500  0.25000000  0.47424500  1
