# generated using pymatgen
data_Cu(NiC5)2
_symmetry_space_group_name_H-M   'P 1'
_cell_length_a   5.09253330
_cell_length_b   5.09253330
_cell_length_c   15.41325300
_cell_angle_alpha   90.00000000
_cell_angle_beta   90.00000000
_cell_angle_gamma   119.99999085
_symmetry_Int_Tables_number   1
_chemical_formula_structural   Cu(NiC5)2
_chemical_formula_sum   'Cu2 Ni4 C20'
_cell_volume   346.17263447
_cell_formula_units_Z   2
loop_
 _symmetry_equiv_pos_site_id
 _symmetry_equiv_pos_as_xyz
  1  'x, y, z'
loop_
 _atom_site_type_symbol
 _atom_site_label
 _atom_site_symmetry_multiplicity
 _atom_site_fract_x
 _atom_site_fract_y
 _atom_site_fract_z
 _atom_site_occupancy
  C  C0  1  0.00000000  0.00000000  0.75000000  1
  C  C1  1  0.00000000  0.00000000  0.25000000  1
  Ni  Ni2  1  0.66666700  0.33333300  0.61625800  1
  Ni  Ni3  1  0.33333300  0.66666700  0.11625800  1
  Ni  Ni4  1  0.33333300  0.66666700  0.38374200  1
  Ni  Ni5  1  0.66666700  0.33333300  0.88374200  1
  Cu  Cu6  1  0.00000000  0.00000000  0.50000000  1
  Cu  Cu7  1  0.00000000  0.00000000  0.00000000  1
  C  C8  1  0.33333300  0.66666700  0.59514200  1
  C  C9  1  0.66666700  0.33333300  0.09514200  1
  C  C10  1  0.66666700  0.33333300  0.40485800  1
  C  C11  1  0.33333300  0.66666700  0.90485800  1
  C  C12  1  0.61315000  0.93171300  0.59554500  1
  C  C13  1  0.31856200  0.38685000  0.59554500  1
  C  C14  1  0.06828700  0.68143800  0.59554500  1
  C  C15  1  0.68143800  0.06828700  0.09554500  1
  C  C16  1  0.38685000  0.31856200  0.09554500  1
  C  C17  1  0.93171300  0.61315000  0.09554500  1
  C  C18  1  0.38685000  0.06828700  0.40445500  1
  C  C19  1  0.68143800  0.61315000  0.40445500  1
  C  C20  1  0.93171300  0.31856200  0.40445500  1
  C  C21  1  0.31856200  0.93171300  0.90445500  1
  C  C22  1  0.61315000  0.68143800  0.90445500  1
  C  C23  1  0.06828700  0.38685000  0.90445500  1
  C  C24  1  0.66666700  0.33333300  0.75000000  1
  C  C25  1  0.33333300  0.66666700  0.25000000  1
