# generated using pymatgen
data_CuNiC8
_symmetry_space_group_name_H-M   'P 1'
_cell_length_a   10.18911700
_cell_length_b   5.76187800
_cell_length_c   9.90964176
_cell_angle_alpha   86.87490262
_cell_angle_beta   90.00000000
_cell_angle_gamma   90.00000000
_symmetry_Int_Tables_number   1
_chemical_formula_structural   CuNiC8
_chemical_formula_sum   'Cu4 Ni4 C32'
_cell_volume   580.91452636
_cell_formula_units_Z   4
loop_
 _symmetry_equiv_pos_site_id
 _symmetry_equiv_pos_as_xyz
  1  'x, y, z'
loop_
 _atom_site_type_symbol
 _atom_site_label
 _atom_site_symmetry_multiplicity
 _atom_site_fract_x
 _atom_site_fract_y
 _atom_site_fract_z
 _atom_site_occupancy
  C  C0  1  0.32382300  0.72787900  0.49789700  1
  C  C1  1  0.82382300  0.27212100  0.00210300  1
  C  C2  1  0.67617700  0.27212100  0.50210300  1
  C  C3  1  0.17617700  0.72787900  0.99789700  1
  Ni  Ni4  1  0.39427800  0.30717200  0.80808800  1
  Ni  Ni5  1  0.89427800  0.69282800  0.69191200  1
  Ni  Ni6  1  0.10572200  0.30717200  0.30808800  1
  Ni  Ni7  1  0.60572200  0.69282800  0.19191200  1
  Cu  Cu8  1  0.61054500  0.80735400  0.81503800  1
  Cu  Cu9  1  0.38945500  0.19264600  0.18496200  1
  Cu  Cu10  1  0.88945500  0.80735400  0.31503800  1
  Cu  Cu11  1  0.11054500  0.19264600  0.68496200  1
  C  C12  1  0.44838300  0.86307500  0.12208200  1
  C  C13  1  0.06091600  0.62385300  0.37534700  1
  C  C14  1  0.72069000  0.51618300  0.74976300  1
  C  C15  1  0.27931000  0.48381700  0.25023700  1
  C  C16  1  0.45992400  0.10113900  0.37788300  1
  C  C17  1  0.80267100  0.73984800  0.50928600  1
  C  C18  1  0.78824500  0.97751000  0.74926700  1
  C  C19  1  0.95992400  0.89886100  0.12211700  1
  C  C20  1  0.43908400  0.62385300  0.87534700  1
  C  C21  1  0.22069000  0.48381700  0.75023700  1
  C  C22  1  0.05161700  0.86307500  0.62208200  1
  C  C23  1  0.55161700  0.13692500  0.87791800  1
  C  C24  1  0.28824500  0.02249000  0.75073300  1
  C  C25  1  0.96129300  0.60545800  0.86924700  1
  C  C26  1  0.54007600  0.89886100  0.62211700  1
  C  C27  1  0.04007600  0.10113900  0.87788300  1
  C  C28  1  0.21175500  0.02249000  0.25073300  1
  C  C29  1  0.94838300  0.13692500  0.37791800  1
  C  C30  1  0.46129300  0.39454200  0.63075300  1
  C  C31  1  0.93908400  0.37614700  0.62465300  1
  C  C32  1  0.03870700  0.39454200  0.13075300  1
  C  C33  1  0.71175500  0.97751000  0.24926700  1
  C  C34  1  0.53870700  0.60545800  0.36924700  1
  C  C35  1  0.30267100  0.26015200  0.99071400  1
  C  C36  1  0.19732900  0.26015200  0.49071400  1
  C  C37  1  0.69732900  0.73984800  0.00928600  1
  C  C38  1  0.56091600  0.37614700  0.12465300  1
  C  C39  1  0.77931000  0.51618300  0.24976300  1
