# generated using pymatgen
data_Cu5(NiC8)2
_symmetry_space_group_name_H-M   'P 1'
_cell_length_a   3.49826000
_cell_length_b   10.07261200
_cell_length_c   15.66553624
_cell_angle_alpha   74.48790901
_cell_angle_beta   90.00000000
_cell_angle_gamma   90.00000000
_symmetry_Int_Tables_number   1
_chemical_formula_structural   Cu5(NiC8)2
_chemical_formula_sum   'Cu10 Ni4 C32'
_cell_volume   531.89333060
_cell_formula_units_Z   2
loop_
 _symmetry_equiv_pos_site_id
 _symmetry_equiv_pos_as_xyz
  1  'x, y, z'
loop_
 _atom_site_type_symbol
 _atom_site_label
 _atom_site_symmetry_multiplicity
 _atom_site_fract_x
 _atom_site_fract_y
 _atom_site_fract_z
 _atom_site_occupancy
  Ni  Ni0  1  0.25000000  0.38651400  0.05316600  1
  Ni  Ni1  1  0.75000000  0.61348600  0.94683400  1
  Ni  Ni2  1  0.25000000  0.75348200  0.75208300  1
  Ni  Ni3  1  0.75000000  0.24651800  0.24791700  1
  Cu  Cu4  1  0.25000000  0.85588000  0.00072700  1
  Cu  Cu5  1  0.75000000  0.14412000  0.99927300  1
  Cu  Cu6  1  0.25000000  0.36142800  0.56327700  1
  Cu  Cu7  1  0.75000000  0.63857200  0.43672300  1
  Cu  Cu8  1  0.25000000  0.48152100  0.30242100  1
  Cu  Cu9  1  0.75000000  0.51847900  0.69757900  1
  Cu  Cu10  1  0.25000000  0.18643400  0.79426000  1
  Cu  Cu11  1  0.75000000  0.81356600  0.20574000  1
  Cu  Cu12  1  0.25000000  0.96324000  0.37248500  1
  Cu  Cu13  1  0.75000000  0.03676000  0.62751500  1
  C  C14  1  0.25000000  0.78635900  0.57619700  1
  C  C15  1  0.75000000  0.21364100  0.42380300  1
  C  C16  1  0.25000000  0.09303700  0.18273500  1
  C  C17  1  0.75000000  0.90696300  0.81726500  1
  C  C18  1  0.25000000  0.59003200  0.11126100  1
  C  C19  1  0.75000000  0.40996800  0.88873900  1
  C  C20  1  0.25000000  0.45828400  0.16425000  1
  C  C21  1  0.75000000  0.54171600  0.83575000  1
  C  C22  1  0.25000000  0.15171600  0.25252200  1
  C  C23  1  0.75000000  0.84828400  0.74747800  1
  C  C24  1  0.25000000  0.51373900  0.43212900  1
  C  C25  1  0.75000000  0.48626100  0.56787100  1
  C  C26  1  0.25000000  0.70517300  0.14811700  1
  C  C27  1  0.75000000  0.29482700  0.85188300  1
  C  C28  1  0.25000000  0.76370700  0.49235700  1
  C  C29  1  0.75000000  0.23629300  0.50764300  1
  C  C30  1  0.25000000  0.62207700  0.01964600  1
  C  C31  1  0.75000000  0.37792300  0.98035400  1
  C  C32  1  0.25000000  0.14848800  0.65436500  1
  C  C33  1  0.75000000  0.85151200  0.34563500  1
  C  C34  1  0.25000000  0.08130100  0.93803300  1
  C  C35  1  0.75000000  0.91869900  0.06196700  1
  C  C36  1  0.25000000  0.16915700  0.09553000  1
  C  C37  1  0.75000000  0.83084300  0.90447000  1
  C  C38  1  0.25000000  0.94872400  0.20673900  1
  C  C39  1  0.75000000  0.05127600  0.79326100  1
  C  C40  1  0.25000000  0.38898500  0.70427100  1
  C  C41  1  0.75000000  0.61101500  0.29572900  1
  C  C42  1  0.25000000  0.92009000  0.58410300  1
  C  C43  1  0.75000000  0.07991000  0.41589700  1
  C  C44  1  0.25000000  0.67572300  0.65244400  1
  C  C45  1  0.75000000  0.32427700  0.34755600  1
