# generated using pymatgen
data_Cu2Ni2C13
_symmetry_space_group_name_H-M   'P 1'
_cell_length_a   6.01538100
_cell_length_b   5.87214600
_cell_length_c   7.93868447
_cell_angle_alpha   85.26833134
_cell_angle_beta   90.00000000
_cell_angle_gamma   90.00000000
_symmetry_Int_Tables_number   1
_chemical_formula_structural   Cu2Ni2C13
_chemical_formula_sum   'Cu4 Ni4 C26'
_cell_volume   279.46401771
_cell_formula_units_Z   2
loop_
 _symmetry_equiv_pos_site_id
 _symmetry_equiv_pos_as_xyz
  1  'x, y, z'
loop_
 _atom_site_type_symbol
 _atom_site_label
 _atom_site_symmetry_multiplicity
 _atom_site_fract_x
 _atom_site_fract_y
 _atom_site_fract_z
 _atom_site_occupancy
  C  C0  1  0.50000000  0.50000000  0.00000000  1
  C  C1  1  0.00000000  0.00000000  0.00000000  1
  C  C2  1  0.66803700  0.97943500  0.26006800  1
  C  C3  1  0.16803700  0.52056500  0.73993200  1
  C  C4  1  0.33196300  0.02056500  0.73993200  1
  C  C5  1  0.83196300  0.47943500  0.26006800  1
  C  C6  1  0.40688500  0.95740200  0.16735800  1
  C  C7  1  0.90688500  0.54259800  0.83264200  1
  C  C8  1  0.59311500  0.04259800  0.83264200  1
  C  C9  1  0.09311500  0.45740200  0.16735800  1
  C  C10  1  0.45524300  0.13893800  0.32236300  1
  C  C11  1  0.95524300  0.36106200  0.67763700  1
  C  C12  1  0.54475700  0.86106200  0.67763700  1
  C  C13  1  0.04475700  0.63893700  0.32236300  1
  C  C14  1  0.47046800  0.66447400  0.35241500  1
  C  C15  1  0.97046800  0.83552600  0.64758500  1
  C  C16  1  0.52953200  0.33552600  0.64758500  1
  C  C17  1  0.02953200  0.16447400  0.35241500  1
  Ni  Ni18  1  0.49522800  0.98320800  0.27866500  1
  Ni  Ni19  1  0.99522800  0.51679200  0.72133500  1
  Ni  Ni20  1  0.50477200  0.01679200  0.72133500  1
  Ni  Ni21  1  0.00477200  0.48320800  0.27866500  1
  Cu  Cu22  1  0.43060100  0.81013800  0.40560600  1
  Cu  Cu23  1  0.93060100  0.68986200  0.59439400  1
  Cu  Cu24  1  0.56939900  0.18986200  0.59439400  1
  Cu  Cu25  1  0.06939900  0.31013800  0.40560600  1
  C  C26  1  0.26401300  0.81642600  0.02753200  1
  C  C27  1  0.76401300  0.68357400  0.97246800  1
  C  C28  1  0.73598700  0.18357400  0.97246800  1
  C  C29  1  0.23598700  0.31642600  0.02753200  1
  C  C30  1  0.54875400  0.46886500  0.24741300  1
  C  C31  1  0.04875400  0.03113500  0.75258700  1
  C  C32  1  0.45124600  0.53113500  0.75258700  1
  C  C33  1  0.95124600  0.96886500  0.24741300  1
