# generated using pymatgen
data_Cu4NiC9
_symmetry_space_group_name_H-M   'P 1'
_cell_length_a   5.51050700
_cell_length_b   5.51050700
_cell_length_c   10.41210000
_cell_angle_alpha   90.00000000
_cell_angle_beta   90.00000000
_cell_angle_gamma   90.00000000
_symmetry_Int_Tables_number   1
_chemical_formula_structural   Cu4NiC9
_chemical_formula_sum   'Cu4 Ni1 C9'
_cell_volume   316.17057375
_cell_formula_units_Z   1
loop_
 _symmetry_equiv_pos_site_id
 _symmetry_equiv_pos_as_xyz
  1  'x, y, z'
loop_
 _atom_site_type_symbol
 _atom_site_label
 _atom_site_symmetry_multiplicity
 _atom_site_fract_x
 _atom_site_fract_y
 _atom_site_fract_z
 _atom_site_occupancy
  Ni  Ni0  1  0.50000000  0.50000000  0.50000000  1
  C  C1  1  0.00000000  0.00000000  0.00000000  1
  Cu  Cu2  1  0.50000000  0.50000000  0.00000000  1
  Cu  Cu3  1  0.00000000  0.00000000  0.50000000  1
  Cu  Cu4  1  0.00000000  0.50000000  0.25358400  1
  Cu  Cu5  1  0.50000000  0.00000000  0.74641600  1
  C  C6  1  0.24373500  0.75509500  0.37254900  1
  C  C7  1  0.73293400  0.26882300  0.86241600  1
  C  C8  1  0.75626500  0.24490500  0.37254900  1
  C  C9  1  0.26706600  0.73117700  0.86241600  1
  C  C10  1  0.73117700  0.73293400  0.13758400  1
  C  C11  1  0.24490500  0.24373500  0.62745100  1
  C  C12  1  0.26882300  0.26706600  0.13758400  1
  C  C13  1  0.75509500  0.75626500  0.62745100  1
