# generated using pymatgen
data_Cu2NiC5
_symmetry_space_group_name_H-M   'P 1'
_cell_length_a   7.69327400
_cell_length_b   7.62047700
_cell_length_c   10.36882073
_cell_angle_alpha   78.69555644
_cell_angle_beta   90.00000000
_cell_angle_gamma   90.00000000
_symmetry_Int_Tables_number   1
_chemical_formula_structural   Cu2NiC5
_chemical_formula_sum   'Cu8 Ni4 C20'
_cell_volume   596.09348089
_cell_formula_units_Z   4
loop_
 _symmetry_equiv_pos_site_id
 _symmetry_equiv_pos_as_xyz
  1  'x, y, z'
loop_
 _atom_site_type_symbol
 _atom_site_label
 _atom_site_symmetry_multiplicity
 _atom_site_fract_x
 _atom_site_fract_y
 _atom_site_fract_z
 _atom_site_occupancy
  Ni  Ni0  1  0.54535900  0.80964000  0.60106400  1
  Ni  Ni1  1  0.04535900  0.19036000  0.89893600  1
  Ni  Ni2  1  0.45464100  0.19036000  0.39893600  1
  Ni  Ni3  1  0.95464100  0.80964000  0.10106400  1
  Cu  Cu4  1  0.67746200  0.96255400  0.85314500  1
  Cu  Cu5  1  0.17746200  0.03744600  0.64685500  1
  Cu  Cu6  1  0.32253800  0.03744600  0.14685500  1
  Cu  Cu7  1  0.82253800  0.96255400  0.35314500  1
  Cu  Cu8  1  0.87749100  0.53637100  0.68986300  1
  Cu  Cu9  1  0.37749100  0.46362900  0.81013700  1
  Cu  Cu10  1  0.12250900  0.46362900  0.31013700  1
  Cu  Cu11  1  0.62250900  0.53637100  0.18986300  1
  C  C12  1  0.85384100  0.97499300  0.92242700  1
  C  C13  1  0.35384100  0.02500700  0.57757300  1
  C  C14  1  0.14615900  0.02500700  0.07757300  1
  C  C15  1  0.64615900  0.97499300  0.42242700  1
  C  C16  1  0.70667700  0.92284700  0.71619100  1
  C  C17  1  0.20667700  0.07715300  0.78380900  1
  C  C18  1  0.29332300  0.07715300  0.28380900  1
  C  C19  1  0.79332300  0.92284700  0.21619100  1
  C  C20  1  0.71520700  0.59030200  0.60748200  1
  C  C21  1  0.21520700  0.40969800  0.89251800  1
  C  C22  1  0.28479300  0.40969800  0.39251800  1
  C  C23  1  0.78479300  0.59030200  0.10748200  1
  C  C24  1  0.89626400  0.33520300  0.73872200  1
  C  C25  1  0.39626400  0.66479700  0.76127800  1
  C  C26  1  0.10373600  0.66479700  0.26127800  1
  C  C27  1  0.60373600  0.33520300  0.23872200  1
  C  C28  1  0.35520900  0.71396800  0.49361900  1
  C  C29  1  0.85520900  0.28603200  0.00638100  1
  C  C30  1  0.64479100  0.28603200  0.50638100  1
  C  C31  1  0.14479100  0.71396800  0.99361900  1
