# generated using pymatgen
data_Cu3NiC15
_symmetry_space_group_name_H-M   'P 1'
_cell_length_a   6.33271500
_cell_length_b   6.93626406
_cell_length_c   6.93626406
_cell_angle_alpha   116.90472427
_cell_angle_beta   90.00000000
_cell_angle_gamma   90.00000000
_symmetry_Int_Tables_number   1
_chemical_formula_structural   Cu3NiC15
_chemical_formula_sum   'Cu3 Ni1 C15'
_cell_volume   271.69977320
_cell_formula_units_Z   1
loop_
 _symmetry_equiv_pos_site_id
 _symmetry_equiv_pos_as_xyz
  1  'x, y, z'
loop_
 _atom_site_type_symbol
 _atom_site_label
 _atom_site_symmetry_multiplicity
 _atom_site_fract_x
 _atom_site_fract_y
 _atom_site_fract_z
 _atom_site_occupancy
  Ni  Ni0  1  0.50000000  0.00000000  0.00000000  1
  Cu  Cu1  1  0.31700500  0.00000000  0.50000000  1
  Cu  Cu2  1  0.68299500  0.50000000  0.00000000  1
  Cu  Cu3  1  0.00000000  0.50000000  0.50000000  1
  C  C4  1  0.81904900  0.00000000  0.50000000  1
  C  C5  1  0.18095000  0.50000000  0.00000000  1
  C  C6  1  0.50000000  0.50000000  0.50000000  1
  C  C7  1  0.67014500  0.87678000  0.30400500  1
  C  C8  1  0.02890500  0.45687900  0.15162500  1
  C  C9  1  0.34851200  0.69336200  0.55610000  1
  C  C10  1  0.67014500  0.12322000  0.69599500  1
  C  C11  1  0.02890500  0.54312100  0.84837500  1
  C  C12  1  0.34851200  0.30663800  0.44390000  1
  C  C13  1  0.65148800  0.55610000  0.69336200  1
  C  C14  1  0.32985500  0.30400500  0.87678000  1
  C  C15  1  0.97109500  0.15162500  0.45687900  1
  C  C16  1  0.65148800  0.44390000  0.30663800  1
  C  C17  1  0.32985500  0.69599500  0.12322000  1
  C  C18  1  0.97109500  0.84837500  0.54312100  1
