# generated using pymatgen
data_CuNiC6
_symmetry_space_group_name_H-M   'P 1'
_cell_length_a   5.23881000
_cell_length_b   6.61754000
_cell_length_c   11.46851400
_cell_angle_alpha   90.00000000
_cell_angle_beta   90.00000000
_cell_angle_gamma   90.00000000
_symmetry_Int_Tables_number   1
_chemical_formula_structural   CuNiC6
_chemical_formula_sum   'Cu2 Ni2 C12'
_cell_volume   397.59084162
_cell_formula_units_Z   2
loop_
 _symmetry_equiv_pos_site_id
 _symmetry_equiv_pos_as_xyz
  1  'x, y, z'
loop_
 _atom_site_type_symbol
 _atom_site_label
 _atom_site_symmetry_multiplicity
 _atom_site_fract_x
 _atom_site_fract_y
 _atom_site_fract_z
 _atom_site_occupancy
  Ni  Ni0  1  0.50000000  0.50000000  0.66472900  1
  Ni  Ni1  1  0.50000000  0.00000000  0.16472900  1
  Cu  Cu2  1  0.50000000  0.00000000  0.66201800  1
  Cu  Cu3  1  0.50000000  0.50000000  0.16201800  1
  C  C4  1  0.50000000  0.74892700  0.91695800  1
  C  C5  1  0.50000000  0.25107300  0.91695800  1
  C  C6  1  0.00000000  0.23734400  0.58403700  1
  C  C7  1  0.00000000  0.76265600  0.58403700  1
  C  C8  1  0.00000000  0.50000000  0.84064900  1
  C  C9  1  0.00000000  0.00000000  0.83061200  1
  C  C10  1  0.50000000  0.24892700  0.41695800  1
  C  C11  1  0.50000000  0.75107300  0.41695800  1
  C  C12  1  0.00000000  0.73734400  0.08403700  1
  C  C13  1  0.00000000  0.26265600  0.08403700  1
  C  C14  1  0.00000000  0.00000000  0.34064900  1
  C  C15  1  0.00000000  0.50000000  0.33061200  1
