# generated using pymatgen
data_CuNiC5
_symmetry_space_group_name_H-M   'P 1'
_cell_length_a   5.73133400
_cell_length_b   10.42841500
_cell_length_c   13.36863500
_cell_angle_alpha   90.00000000
_cell_angle_beta   90.00000000
_cell_angle_gamma   90.00000000
_symmetry_Int_Tables_number   1
_chemical_formula_structural   CuNiC5
_chemical_formula_sum   'Cu8 Ni8 C40'
_cell_volume   799.02632851
_cell_formula_units_Z   8
loop_
 _symmetry_equiv_pos_site_id
 _symmetry_equiv_pos_as_xyz
  1  'x, y, z'
loop_
 _atom_site_type_symbol
 _atom_site_label
 _atom_site_symmetry_multiplicity
 _atom_site_fract_x
 _atom_site_fract_y
 _atom_site_fract_z
 _atom_site_occupancy
  Ni  Ni0  1  0.25000000  0.40817800  0.42286500  1
  Ni  Ni1  1  0.75000000  0.59182200  0.57713500  1
  Ni  Ni2  1  0.75000000  0.90817800  0.07713500  1
  Ni  Ni3  1  0.25000000  0.09182200  0.92286500  1
  Ni  Ni4  1  0.25000000  0.68545600  0.20748000  1
  Ni  Ni5  1  0.75000000  0.31454400  0.79252000  1
  Ni  Ni6  1  0.75000000  0.18545600  0.29252000  1
  Ni  Ni7  1  0.25000000  0.81454400  0.70748000  1
  Cu  Cu8  1  0.25000000  0.01342800  0.41717200  1
  Cu  Cu9  1  0.75000000  0.98657200  0.58282800  1
  Cu  Cu10  1  0.75000000  0.51342800  0.08282800  1
  Cu  Cu11  1  0.25000000  0.48657200  0.91717200  1
  Cu  Cu12  1  0.25000000  0.31196800  0.14167400  1
  Cu  Cu13  1  0.75000000  0.68803200  0.85832600  1
  Cu  Cu14  1  0.75000000  0.81196800  0.35832600  1
  Cu  Cu15  1  0.25000000  0.18803200  0.64167400  1
  C  C16  1  0.25000000  0.73320500  0.46082800  1
  C  C17  1  0.75000000  0.26679500  0.53917200  1
  C  C18  1  0.75000000  0.23320500  0.03917200  1
  C  C19  1  0.25000000  0.76679500  0.96082800  1
  C  C20  1  0.25000000  0.03198200  0.19386600  1
  C  C21  1  0.75000000  0.96801800  0.80613400  1
  C  C22  1  0.75000000  0.53198200  0.30613400  1
  C  C23  1  0.25000000  0.46801800  0.69386600  1
  C  C24  1  0.25000000  0.18565200  0.29633000  1
  C  C25  1  0.75000000  0.81434800  0.70367000  1
  C  C26  1  0.75000000  0.68565200  0.20367000  1
  C  C27  1  0.25000000  0.31434800  0.79633000  1
  C  C28  1  0.50914200  0.44322400  0.21574100  1
  C  C29  1  0.49085800  0.55677600  0.78425900  1
  C  C30  1  0.49085800  0.94322400  0.28425900  1
  C  C31  1  0.00914200  0.55677600  0.78425900  1
  C  C32  1  0.50914200  0.05677600  0.71574100  1
  C  C33  1  0.99085800  0.44322400  0.21574100  1
  C  C34  1  0.99085800  0.05677600  0.71574100  1
  C  C35  1  0.00914200  0.94322400  0.28425900  1
  C  C36  1  0.00812200  0.13878500  0.11384600  1
  C  C37  1  0.99187800  0.86121500  0.88615400  1
  C  C38  1  0.99187800  0.63878500  0.38615400  1
  C  C39  1  0.50812200  0.86121500  0.88615400  1
  C  C40  1  0.00812200  0.36121500  0.61384600  1
  C  C41  1  0.49187800  0.13878500  0.11384600  1
  C  C42  1  0.49187800  0.36121500  0.61384600  1
  C  C43  1  0.50812200  0.63878500  0.38615400  1
  C  C44  1  0.50540900  0.36433500  0.00821400  1
  C  C45  1  0.49459100  0.63566500  0.99178600  1
  C  C46  1  0.49459100  0.86433500  0.49178600  1
  C  C47  1  0.00540900  0.63566500  0.99178600  1
  C  C48  1  0.50540900  0.13566500  0.50821400  1
  C  C49  1  0.99459100  0.36433500  0.00821400  1
  C  C50  1  0.99459100  0.13566500  0.50821400  1
  C  C51  1  0.00540900  0.86433500  0.49178600  1
  C  C52  1  0.25000000  0.60970100  0.58914300  1
  C  C53  1  0.75000000  0.39029900  0.41085700  1
  C  C54  1  0.75000000  0.10970100  0.91085700  1
  C  C55  1  0.25000000  0.89029900  0.08914300  1
