# generated using pymatgen
data_Cu3(NiC7)2
_symmetry_space_group_name_H-M   'P 1'
_cell_length_a   5.23245000
_cell_length_b   10.73514800
_cell_length_c   20.97365736
_cell_angle_alpha   59.24633170
_cell_angle_beta   90.00000000
_cell_angle_gamma   90.00000000
_symmetry_Int_Tables_number   1
_chemical_formula_structural   Cu3(NiC7)2
_chemical_formula_sum   'Cu12 Ni8 C56'
_cell_volume   1012.44009952
_cell_formula_units_Z   4
loop_
 _symmetry_equiv_pos_site_id
 _symmetry_equiv_pos_as_xyz
  1  'x, y, z'
loop_
 _atom_site_type_symbol
 _atom_site_label
 _atom_site_symmetry_multiplicity
 _atom_site_fract_x
 _atom_site_fract_y
 _atom_site_fract_z
 _atom_site_occupancy
  C  C0  1  0.99491100  0.04928300  0.20062300  1
  C  C1  1  0.49689800  0.95196800  0.30083500  1
  C  C2  1  0.50310200  0.95196800  0.80083500  1
  C  C3  1  0.00508900  0.04928300  0.70062300  1
  C  C4  1  0.50261700  0.95239300  0.47131900  1
  C  C5  1  0.49738300  0.95239300  0.97131900  1
  C  C6  1  0.85569500  0.49998600  0.24916100  1
  C  C7  1  0.14430500  0.49998600  0.74916100  1
  Ni  Ni8  1  0.00139700  0.04398400  0.02647100  1
  Ni  Ni9  1  0.00151600  0.39745800  0.52791800  1
  Ni  Ni10  1  0.50117700  0.60534300  0.97243300  1
  Ni  Ni11  1  0.99860300  0.04398400  0.52647100  1
  Ni  Ni12  1  0.49882300  0.60534300  0.47243300  1
  Ni  Ni13  1  0.99848400  0.39745800  0.02791800  1
  Ni  Ni14  1  0.35223700  0.49846100  0.25038500  1
  Ni  Ni15  1  0.64776300  0.49846100  0.75038500  1
  Cu  Cu16  1  0.02742100  0.12909800  0.34355200  1
  Cu  Cu17  1  0.52779500  0.87168600  0.15613000  1
  Cu  Cu18  1  0.46876900  0.31503600  0.65676100  1
  Cu  Cu19  1  0.96971300  0.68406500  0.84321200  1
  Cu  Cu20  1  0.47220500  0.87168600  0.65613000  1
  Cu  Cu21  1  0.97257900  0.12909800  0.84355200  1
  Cu  Cu22  1  0.03028700  0.68406500  0.34321200  1
  Cu  Cu23  1  0.53123100  0.31503600  0.15676100  1
  Cu  Cu24  1  0.53126600  0.30674800  0.44194100  1
  Cu  Cu25  1  0.03114000  0.69274600  0.05833900  1
  Cu  Cu26  1  0.96886000  0.69274600  0.55833900  1
  Cu  Cu27  1  0.46873400  0.30674800  0.94194100  1
  C  C28  1  0.10958100  0.32081000  0.29485200  1
  C  C29  1  0.59834700  0.67926600  0.20505700  1
  C  C30  1  0.39823900  0.40986600  0.70458200  1
  C  C31  1  0.89320600  0.59053800  0.79532700  1
  C  C32  1  0.40165300  0.67926600  0.70505700  1
  C  C33  1  0.89041900  0.32081000  0.79485200  1
  C  C34  1  0.10679400  0.59053800  0.29532700  1
  C  C35  1  0.60176100  0.40986600  0.20458200  1
  C  C36  1  0.83258900  0.08972500  0.28610500  1
  C  C37  1  0.33448700  0.91080800  0.21328300  1
  C  C38  1  0.66594800  0.16392600  0.71206900  1
  C  C39  1  0.16562400  0.83581800  0.78712000  1
  C  C40  1  0.66551300  0.91080800  0.71328300  1
  C  C41  1  0.16741100  0.08972500  0.78610500  1
  C  C42  1  0.83437600  0.83581800  0.28712000  1
  C  C43  1  0.33405200  0.16392600  0.21206900  1
  C  C44  1  0.81300700  0.24724200  0.50320900  1
  C  C45  1  0.30749600  0.75027100  0.99779000  1
  C  C46  1  0.69250400  0.75027100  0.49779000  1
  C  C47  1  0.18699300  0.24724200  0.00320900  1
  C  C48  1  0.83834800  0.08675900  0.42552500  1
  C  C49  1  0.33188700  0.91577200  0.07647800  1
  C  C50  1  0.66302300  0.43396600  0.57452200  1
  C  C51  1  0.16392200  0.56447200  0.92546400  1
  C  C52  1  0.66811300  0.91577200  0.57647800  1
  C  C53  1  0.16165200  0.08675900  0.92552500  1
  C  C54  1  0.83607800  0.56447200  0.42546400  1
  C  C55  1  0.33697700  0.43396600  0.07452200  1
  C  C56  1  0.60490900  0.40497100  0.34527400  1
  C  C57  1  0.11212000  0.59518900  0.15474000  1
  C  C58  1  0.88788000  0.59518900  0.65474000  1
  C  C59  1  0.39509100  0.40497100  0.84527400  1
  C  C60  1  0.33486000  0.42246700  0.46214100  1
  C  C61  1  0.83355800  0.57640900  0.03808300  1
  C  C62  1  0.16198400  0.84615000  0.53856900  1
  C  C63  1  0.66708000  0.15576000  0.96240400  1
  C  C64  1  0.16644200  0.57640900  0.53808300  1
  C  C65  1  0.66514000  0.42246700  0.96214100  1
  C  C66  1  0.33292000  0.15576000  0.46240400  1
  C  C67  1  0.83801600  0.84615000  0.03856900  1
  C  C68  1  0.30219800  0.01452700  0.37281400  1
  C  C69  1  0.81126300  0.98773600  0.12554500  1
  C  C70  1  0.18716200  0.26078500  0.62574300  1
  C  C71  1  0.68873100  0.73851000  0.87422500  1
  C  C72  1  0.18873700  0.98773600  0.62554500  1
  C  C73  1  0.69780200  0.01452700  0.87281400  1
  C  C74  1  0.31126900  0.73851000  0.37422500  1
  C  C75  1  0.81283800  0.26078500  0.12574300  1
