# generated using pymatgen
data_Cu3NiC2
_symmetry_space_group_name_H-M   'P 1'
_cell_length_a   5.70024342
_cell_length_b   5.70024342
_cell_length_c   5.70024274
_cell_angle_alpha   94.52331401
_cell_angle_beta   94.52331401
_cell_angle_gamma   94.52330821
_symmetry_Int_Tables_number   1
_chemical_formula_structural   Cu3NiC2
_chemical_formula_sum   'Cu9 Ni3 C6'
_cell_volume   183.38886303
_cell_formula_units_Z   3
loop_
 _symmetry_equiv_pos_site_id
 _symmetry_equiv_pos_as_xyz
  1  'x, y, z'
loop_
 _atom_site_type_symbol
 _atom_site_label
 _atom_site_symmetry_multiplicity
 _atom_site_fract_x
 _atom_site_fract_y
 _atom_site_fract_z
 _atom_site_occupancy
  Ni  Ni0  1  0.00000000  0.00000000  0.00000000  1
  Ni  Ni1  1  0.67046700  0.67046700  0.67046700  1
  Ni  Ni2  1  0.32953300  0.32953300  0.32953300  1
  Cu  Cu3  1  0.50000000  0.00000000  0.00000000  1
  Cu  Cu4  1  0.00000000  0.50000000  0.00000000  1
  Cu  Cu5  1  0.00000000  0.00000000  0.50000000  1
  Cu  Cu6  1  0.69462300  0.19680500  0.69462300  1
  Cu  Cu7  1  0.69462300  0.69462300  0.19680500  1
  Cu  Cu8  1  0.19680500  0.69462300  0.69462300  1
  Cu  Cu9  1  0.30537700  0.80319500  0.30537700  1
  Cu  Cu10  1  0.30537700  0.30537700  0.80319500  1
  Cu  Cu11  1  0.80319500  0.30537700  0.30537700  1
  C  C12  1  0.37792900  0.00000000  0.62207100  1
  C  C13  1  0.62207100  0.37792900  0.00000000  1
  C  C14  1  0.00000000  0.62207100  0.37792900  1
  C  C15  1  0.62207100  0.00000000  0.37792900  1
  C  C16  1  0.37792900  0.62207100  0.00000000  1
  C  C17  1  0.00000000  0.37792900  0.62207100  1
