# generated using pymatgen
data_Cu2NiC8
_symmetry_space_group_name_H-M   'P 1'
_cell_length_a   8.29382000
_cell_length_b   6.99091800
_cell_length_c   9.34012987
_cell_angle_alpha   70.44881206
_cell_angle_beta   90.00000000
_cell_angle_gamma   90.00000000
_symmetry_Int_Tables_number   1
_chemical_formula_structural   Cu2NiC8
_chemical_formula_sum   'Cu8 Ni4 C32'
_cell_volume   510.32951681
_cell_formula_units_Z   4
loop_
 _symmetry_equiv_pos_site_id
 _symmetry_equiv_pos_as_xyz
  1  'x, y, z'
loop_
 _atom_site_type_symbol
 _atom_site_label
 _atom_site_symmetry_multiplicity
 _atom_site_fract_x
 _atom_site_fract_y
 _atom_site_fract_z
 _atom_site_occupancy
  C  C0  1  0.94010000  0.31107400  0.81421100  1
  C  C1  1  0.44010000  0.68892600  0.68578900  1
  C  C2  1  0.55990000  0.31107400  0.31421100  1
  C  C3  1  0.05990000  0.68892600  0.18578900  1
  Ni  Ni4  1  0.06811000  0.76562400  0.60981900  1
  Ni  Ni5  1  0.93189000  0.23437600  0.39018100  1
  Ni  Ni6  1  0.56811000  0.23437600  0.89018100  1
  Ni  Ni7  1  0.43189000  0.76562400  0.10981900  1
  Cu  Cu8  1  0.73341600  0.92954500  0.24573600  1
  Cu  Cu9  1  0.23167300  0.46275100  0.97353100  1
  Cu  Cu10  1  0.76658400  0.92954500  0.74573600  1
  Cu  Cu11  1  0.26832700  0.46275100  0.47353100  1
  Cu  Cu12  1  0.23341600  0.07045500  0.25426400  1
  Cu  Cu13  1  0.73167300  0.53724900  0.52646900  1
  Cu  Cu14  1  0.76832700  0.53724900  0.02646900  1
  Cu  Cu15  1  0.26658400  0.07045500  0.75426400  1
  C  C16  1  0.18684700  0.25307200  0.10106200  1
  C  C17  1  0.60899000  0.88470300  0.68494700  1
  C  C18  1  0.89101000  0.88470300  0.18494700  1
  C  C19  1  0.39392700  0.44690300  0.89635200  1
  C  C20  1  0.81315300  0.74692800  0.89893800  1
  C  C21  1  0.09079600  0.04664800  0.36426700  1
  C  C22  1  0.60607300  0.55309700  0.10364800  1
  C  C23  1  0.09188700  0.50412600  0.86276100  1
  C  C24  1  0.25524400  0.62542300  0.55301200  1
  C  C25  1  0.90920400  0.95335200  0.63573300  1
  C  C26  1  0.40920400  0.04664800  0.86426700  1
  C  C27  1  0.75830200  0.11927900  0.79631600  1
  C  C28  1  0.25830200  0.88072100  0.70368400  1
  C  C29  1  0.31315300  0.25307200  0.60106200  1
  C  C30  1  0.59079600  0.95335200  0.13573300  1
  C  C31  1  0.10899000  0.11529700  0.81505300  1
  C  C32  1  0.24169800  0.88072100  0.20368400  1
  C  C33  1  0.90811300  0.49587400  0.13723900  1
  C  C34  1  0.24475600  0.62542300  0.05301200  1
  C  C35  1  0.75524400  0.37457700  0.94698800  1
  C  C36  1  0.89392700  0.55309700  0.60364800  1
  C  C37  1  0.40811300  0.50412600  0.36276100  1
  C  C38  1  0.59188700  0.49587400  0.63723900  1
  C  C39  1  0.39101000  0.11529700  0.31505300  1
  C  C40  1  0.74169800  0.11927900  0.29631600  1
  C  C41  1  0.10607300  0.44690300  0.39635200  1
  C  C42  1  0.74475600  0.37457700  0.44698800  1
  C  C43  1  0.68684700  0.74692800  0.39893800  1
