# generated using pymatgen
data_CuNiC8
_symmetry_space_group_name_H-M   'P 1'
_cell_length_a   8.47539079
_cell_length_b   8.43173505
_cell_length_c   8.42021395
_cell_angle_alpha   90.00000000
_cell_angle_beta   90.00000000
_cell_angle_gamma   90.00000000
_symmetry_Int_Tables_number   1
_chemical_formula_structural   CuNiC8
_chemical_formula_sum   'Cu4 Ni4 C32'
_cell_volume   601.72743087
_cell_formula_units_Z   4
loop_
 _symmetry_equiv_pos_site_id
 _symmetry_equiv_pos_as_xyz
  1  'x, y, z'
loop_
 _atom_site_type_symbol
 _atom_site_label
 _atom_site_symmetry_multiplicity
 _atom_site_fract_x
 _atom_site_fract_y
 _atom_site_fract_z
 _atom_site_occupancy
  Ni  Ni0  1  -0.00000000  0.50000000  0.50000000  1
  Ni  Ni1  1  0.50000000  0.00000000  0.50000000  1
  Ni  Ni2  1  0.50000000  0.00000000  -0.00000000  1
  Ni  Ni3  1  -0.00000000  0.50000000  0.00000000  1
  Cu  Cu4  1  0.50000000  0.50000000  0.00000000  1
  Cu  Cu5  1  -0.00000000  0.00000000  0.50000000  1
  Cu  Cu6  1  -0.00000000  0.00000000  0.00000000  1
  Cu  Cu7  1  0.50000000  0.50000000  0.50000000  1
  C  C8  1  0.75000000  0.75000000  0.75000000  1
  C  C9  1  0.25000000  0.25000000  0.75000000  1
  C  C10  1  0.25000000  0.75000000  0.25000000  1
  C  C11  1  0.75000000  0.25000000  0.25000000  1
  C  C12  1  0.25000000  0.25000000  0.25000000  1
  C  C13  1  0.75000000  0.75000000  0.25000000  1
  C  C14  1  0.75000000  0.25000000  0.75000000  1
  C  C15  1  0.25000000  0.75000000  0.75000000  1
  C  C16  1  0.02213747  0.20290027  0.28186384  1
  C  C17  1  0.97786253  0.79709973  0.28186384  1
  C  C18  1  0.97786253  0.20290027  0.71813616  1
  C  C19  1  0.02213747  0.79709973  0.71813616  1
  C  C20  1  0.27152415  0.02337510  0.21695511  1
  C  C21  1  0.27152415  0.97662490  0.78304489  1
  C  C22  1  0.72847585  0.97662490  0.21695511  1
  C  C23  1  0.72847585  0.02337510  0.78304489  1
  C  C24  1  0.21686238  0.27442893  0.02301216  1
  C  C25  1  0.78313762  0.27442893  0.97698784  1
  C  C26  1  0.21686238  0.72557107  0.97698784  1
  C  C27  1  0.78313762  0.72557107  0.02301216  1
  C  C28  1  0.47786253  0.29709973  0.21813616  1
  C  C29  1  0.52213747  0.70290027  0.21813616  1
  C  C30  1  0.52213747  0.29709973  0.78186384  1
  C  C31  1  0.47786253  0.70290027  0.78186384  1
  C  C32  1  0.22847585  0.47662490  0.28304489  1
  C  C33  1  0.22847585  0.52337510  0.71695511  1
  C  C34  1  0.77152415  0.52337510  0.28304489  1
  C  C35  1  0.77152415  0.47662490  0.71695511  1
  C  C36  1  0.28313762  0.22557107  0.47698784  1
  C  C37  1  0.71686238  0.22557107  0.52301216  1
  C  C38  1  0.28313762  0.77442893  0.52301216  1
  C  C39  1  0.71686238  0.77442893  0.47698784  1
