# generated using pymatgen
data_Cu2Ni
_symmetry_space_group_name_H-M   'P 1'
_cell_length_a   6.17584300
_cell_length_b   7.32772702
_cell_length_c   9.83549776
_cell_angle_alpha   89.07344179
_cell_angle_beta   85.79578928
_cell_angle_gamma   79.76488005
_symmetry_Int_Tables_number   1
_chemical_formula_structural   Cu2Ni
_chemical_formula_sum   'Cu16 Ni8'
_cell_volume   436.84046729
_cell_formula_units_Z   8
loop_
 _symmetry_equiv_pos_site_id
 _symmetry_equiv_pos_as_xyz
  1  'x, y, z'
loop_
 _atom_site_type_symbol
 _atom_site_label
 _atom_site_symmetry_multiplicity
 _atom_site_fract_x
 _atom_site_fract_y
 _atom_site_fract_z
 _atom_site_occupancy
  Ni  Ni0  1  0.66769100  0.04452700  0.71943100  1
  Ni  Ni1  1  0.33230900  0.95547300  0.28056900  1
  Ni  Ni2  1  0.22275500  0.59089100  0.02495500  1
  Ni  Ni3  1  0.44627500  0.35537800  0.26137900  1
  Ni  Ni4  1  0.14554500  0.02784800  0.85583500  1
  Ni  Ni5  1  0.85445500  0.97215200  0.14416500  1
  Ni  Ni6  1  0.55372500  0.64462200  0.73862100  1
  Ni  Ni7  1  0.77724500  0.40910900  0.97504500  1
  Cu  Cu8  1  0.48753900  0.34778800  0.55018500  1
  Cu  Cu9  1  0.11724500  0.22791700  0.10526400  1
  Cu  Cu10  1  0.52307500  0.83074700  0.00368500  1
  Cu  Cu11  1  0.73331500  0.11270200  0.41369900  1
  Cu  Cu12  1  0.30818100  0.36370500  0.78696800  1
  Cu  Cu13  1  0.82949900  0.78779000  0.48870300  1
  Cu  Cu14  1  0.26668500  0.88729800  0.58630100  1
  Cu  Cu15  1  0.97200600  0.34360900  0.32347500  1
  Cu  Cu16  1  0.88275500  0.77208300  0.89473600  1
  Cu  Cu17  1  0.17050100  0.21221000  0.51129700  1
  Cu  Cu18  1  0.02799400  0.65639100  0.67652500  1
  Cu  Cu19  1  0.69181900  0.63629500  0.21303200  1
  Cu  Cu20  1  0.93910200  0.32958300  0.70608200  1
  Cu  Cu21  1  0.47692500  0.16925300  0.99631500  1
  Cu  Cu22  1  0.06089800  0.67041700  0.29391800  1
  Cu  Cu23  1  0.51246100  0.65221200  0.44981500  1
