# generated using pymatgen
data_CuNiC12
_symmetry_space_group_name_H-M   'P 1'
_cell_length_a   6.61341600
_cell_length_b   7.63707900
_cell_length_c   14.45964900
_cell_angle_alpha   90.00000000
_cell_angle_beta   90.00000000
_cell_angle_gamma   90.00000000
_symmetry_Int_Tables_number   1
_chemical_formula_structural   CuNiC12
_chemical_formula_sum   'Cu4 Ni4 C48'
_cell_volume   730.31610131
_cell_formula_units_Z   4
loop_
 _symmetry_equiv_pos_site_id
 _symmetry_equiv_pos_as_xyz
  1  'x, y, z'
loop_
 _atom_site_type_symbol
 _atom_site_label
 _atom_site_symmetry_multiplicity
 _atom_site_fract_x
 _atom_site_fract_y
 _atom_site_fract_z
 _atom_site_occupancy
  C  C0  1  0.25000000  0.38767400  0.28144400  1
  C  C1  1  0.25000000  0.11232600  0.78144400  1
  C  C2  1  0.75000000  0.61232600  0.71855600  1
  C  C3  1  0.75000000  0.88767400  0.21855600  1
  Ni  Ni4  1  0.00000000  0.50000000  0.50000000  1
  Ni  Ni5  1  0.00000000  0.00000000  0.00000000  1
  Ni  Ni6  1  0.50000000  0.00000000  0.00000000  1
  Ni  Ni7  1  0.50000000  0.50000000  0.50000000  1
  Cu  Cu8  1  0.25000000  0.84952200  0.38294300  1
  Cu  Cu9  1  0.75000000  0.15047800  0.61705700  1
  Cu  Cu10  1  0.75000000  0.34952200  0.11705700  1
  Cu  Cu11  1  0.25000000  0.65047800  0.88294300  1
  C  C12  1  0.75000000  0.84514000  0.43531500  1
  C  C13  1  0.25000000  0.15486000  0.56468500  1
  C  C14  1  0.25000000  0.34514000  0.06468500  1
  C  C15  1  0.75000000  0.65486000  0.93531500  1
  C  C16  1  0.25000000  0.88717900  0.18958500  1
  C  C17  1  0.75000000  0.11282100  0.81041500  1
  C  C18  1  0.75000000  0.38717900  0.31041500  1
  C  C19  1  0.25000000  0.61282100  0.68958500  1
  C  C20  1  0.55399000  0.10714000  0.86766400  1
  C  C21  1  0.05399000  0.89286000  0.13233600  1
  C  C22  1  0.44601000  0.60714000  0.63233600  1
  C  C23  1  0.94601000  0.39286000  0.36766400  1
  C  C24  1  0.44601000  0.89286000  0.13233600  1
  C  C25  1  0.94601000  0.10714000  0.86766400  1
  C  C26  1  0.55399000  0.39286000  0.36766400  1
  C  C27  1  0.05399000  0.60714000  0.63233600  1
  C  C28  1  0.75000000  0.83402300  0.98315000  1
  C  C29  1  0.25000000  0.16597700  0.01685000  1
  C  C30  1  0.25000000  0.33402300  0.51685000  1
  C  C31  1  0.75000000  0.66597700  0.48315000  1
  C  C32  1  0.25000000  0.63020000  0.44290900  1
  C  C33  1  0.75000000  0.36980000  0.55709100  1
  C  C34  1  0.75000000  0.13020000  0.05709100  1
  C  C35  1  0.25000000  0.86980000  0.94290900  1
  C  C36  1  0.25000000  0.71697600  0.25253600  1
  C  C37  1  0.75000000  0.28302400  0.74746400  1
  C  C38  1  0.75000000  0.21697600  0.24746400  1
  C  C39  1  0.25000000  0.78302400  0.75253600  1
  C  C40  1  0.93179800  0.63371900  0.86843800  1
  C  C41  1  0.43179800  0.36628100  0.13156200  1
  C  C42  1  0.06820200  0.13371900  0.63156200  1
  C  C43  1  0.56820200  0.86628100  0.36843800  1
  C  C44  1  0.06820200  0.36628100  0.13156200  1
  C  C45  1  0.56820200  0.63371900  0.86843800  1
  C  C46  1  0.93179800  0.86628100  0.36843800  1
  C  C47  1  0.43179800  0.13371900  0.63156200  1
  C  C48  1  0.25000000  0.46555000  0.76645100  1
  C  C49  1  0.75000000  0.53445000  0.23354900  1
  C  C50  1  0.75000000  0.96555000  0.73354900  1
  C  C51  1  0.25000000  0.03445000  0.26645100  1
  C  C52  1  0.25000000  0.48639400  0.98946300  1
  C  C53  1  0.75000000  0.51360600  0.01053700  1
  C  C54  1  0.75000000  0.98639400  0.51053700  1
  C  C55  1  0.25000000  0.01360600  0.48946300  1
