# generated using pymatgen
data_CuNi2C15
_symmetry_space_group_name_H-M   'P 1'
_cell_length_a   7.07858527
_cell_length_b   11.43990612
_cell_length_c   12.03744422
_cell_angle_alpha   90.00000000
_cell_angle_beta   90.00000000
_cell_angle_gamma   90.00000000
_symmetry_Int_Tables_number   1
_chemical_formula_structural   CuNi2C15
_chemical_formula_sum   'Cu4 Ni8 C60'
_cell_volume   974.77238260
_cell_formula_units_Z   4
loop_
 _symmetry_equiv_pos_site_id
 _symmetry_equiv_pos_as_xyz
  1  'x, y, z'
loop_
 _atom_site_type_symbol
 _atom_site_label
 _atom_site_symmetry_multiplicity
 _atom_site_fract_x
 _atom_site_fract_y
 _atom_site_fract_z
 _atom_site_occupancy
  Ni  Ni0  1  0.75000000  0.55931675  0.39512640  1
  Ni  Ni1  1  0.75000000  0.05931675  0.10487360  1
  Ni  Ni2  1  0.25000000  0.44068325  0.60487360  1
  Ni  Ni3  1  0.25000000  0.94068325  0.89512640  1
  Ni  Ni4  1  0.75000000  0.45569111  0.07373309  1
  Ni  Ni5  1  0.75000000  0.95569111  0.42626691  1
  Ni  Ni6  1  0.25000000  0.54430889  0.92626691  1
  Ni  Ni7  1  0.25000000  0.04430889  0.57373309  1
  Cu  Cu8  1  0.25000000  0.98640005  0.27113126  1
  Cu  Cu9  1  0.25000000  0.48640005  0.22886874  1
  Cu  Cu10  1  0.75000000  0.01359995  0.72886874  1
  Cu  Cu11  1  0.75000000  0.51359995  0.77113126  1
  C  C12  1  0.50031548  0.25266877  0.33058151  1
  C  C13  1  0.99968452  0.75266877  0.16941849  1
  C  C14  1  0.00031548  0.74733123  0.66941849  1
  C  C15  1  0.49968452  0.24733123  0.83058151  1
  C  C16  1  0.49968452  0.74733123  0.66941849  1
  C  C17  1  0.00031548  0.24733123  0.83058151  1
  C  C18  1  0.99968452  0.25266877  0.33058151  1
  C  C19  1  0.50031548  0.75266877  0.16941849  1
  C  C20  1  0.25000000  0.20666145  0.07967046  1
  C  C21  1  0.25000000  0.70666145  0.42032954  1
  C  C22  1  0.75000000  0.79333855  0.92032954  1
  C  C23  1  0.75000000  0.29333855  0.57967046  1
  C  C24  1  0.56212269  0.30064909  0.47239082  1
  C  C25  1  0.93787731  0.80064909  0.02760918  1
  C  C26  1  0.06212269  0.69935091  0.52760918  1
  C  C27  1  0.43787731  0.19935091  0.97239082  1
  C  C28  1  0.43787731  0.69935091  0.52760918  1
  C  C29  1  0.06212269  0.19935091  0.97239082  1
  C  C30  1  0.93787731  0.30064909  0.47239082  1
  C  C31  1  0.56212269  0.80064909  0.02760918  1
  C  C32  1  0.75000000  0.21098086  0.30116994  1
  C  C33  1  0.75000000  0.71098086  0.19883006  1
  C  C34  1  0.25000000  0.78901914  0.69883006  1
  C  C35  1  0.25000000  0.28901914  0.80116994  1
  C  C36  1  0.53943078  0.39611167  0.27859335  1
  C  C37  1  0.96056922  0.89611167  0.22140665  1
  C  C38  1  0.03943078  0.60388833  0.72140665  1
  C  C39  1  0.46056922  0.10388833  0.77859335  1
  C  C40  1  0.46056922  0.60388833  0.72140665  1
  C  C41  1  0.03943078  0.10388833  0.77859335  1
  C  C42  1  0.96056922  0.39611167  0.27859335  1
  C  C43  1  0.53943078  0.89611167  0.22140665  1
  C  C44  1  0.25000000  0.29177445  0.35734029  1
  C  C45  1  0.25000000  0.79177445  0.14265971  1
  C  C46  1  0.75000000  0.70822555  0.64265971  1
  C  C47  1  0.75000000  0.20822555  0.85734029  1
  C  C48  1  0.45760969  0.10823459  0.37905321  1
  C  C49  1  0.04239031  0.60823459  0.12094679  1
  C  C50  1  0.95760969  0.89176541  0.62094679  1
  C  C51  1  0.54239031  0.39176541  0.87905321  1
  C  C52  1  0.54239031  0.89176541  0.62094679  1
  C  C53  1  0.95760969  0.39176541  0.87905321  1
  C  C54  1  0.04239031  0.10823459  0.37905321  1
  C  C55  1  0.45760969  0.60823459  0.12094679  1
  C  C56  1  0.44006303  0.20460916  0.18716650  1
  C  C57  1  0.05993697  0.70460916  0.31283350  1
  C  C58  1  0.94006303  0.79539084  0.81283350  1
  C  C59  1  0.55993697  0.29539084  0.68716650  1
  C  C60  1  0.55993697  0.79539084  0.81283350  1
  C  C61  1  0.94006303  0.29539084  0.68716650  1
  C  C62  1  0.05993697  0.20460916  0.18716650  1
  C  C63  1  0.44006303  0.70460916  0.31283350  1
  C  C64  1  0.25000000  0.36046773  0.07797928  1
  C  C65  1  0.25000000  0.86046773  0.42202072  1
  C  C66  1  0.75000000  0.63953227  0.92202072  1
  C  C67  1  0.75000000  0.13953227  0.57797928  1
  C  C68  1  0.25000000  0.05183469  0.08591585  1
  C  C69  1  0.25000000  0.55183469  0.41408415  1
  C  C70  1  0.75000000  0.94816531  0.91408415  1
  C  C71  1  0.75000000  0.44816531  0.58591585  1
