# generated using pymatgen
data_Cu14NiC
_symmetry_space_group_name_H-M   'P 1'
_cell_length_a   6.35926522
_cell_length_b   6.08233261
_cell_length_c   10.14495813
_cell_angle_alpha   90.00000000
_cell_angle_beta   90.00000000
_cell_angle_gamma   118.56961187
_symmetry_Int_Tables_number   1
_chemical_formula_structural   Cu14NiC
_chemical_formula_sum   'Cu14 Ni1 C1'
_cell_volume   344.61879769
_cell_formula_units_Z   1
loop_
 _symmetry_equiv_pos_site_id
 _symmetry_equiv_pos_as_xyz
  1  'x, y, z'
loop_
 _atom_site_type_symbol
 _atom_site_label
 _atom_site_symmetry_multiplicity
 _atom_site_fract_x
 _atom_site_fract_y
 _atom_site_fract_z
 _atom_site_occupancy
  Ni  Ni0  1  0.15435300  0.82717600  0.12500000  1
  Cu  Cu1  1  0.16217395  0.33108647  0.62500000  1
  Cu  Cu2  1  0.16705292  0.83352596  0.62500000  1
  Cu  Cu3  1  0.65573955  0.33135864  0.12500000  1
  Cu  Cu4  1  0.66262168  0.32931240  0.62500000  1
  Cu  Cu5  1  0.65573955  0.82437991  0.12500000  1
  Cu  Cu6  1  0.66262168  0.83330828  0.62500000  1
  Cu  Cu7  1  0.33269589  0.17128770  0.36663144  1
  Cu  Cu8  1  0.33269589  0.17128770  0.88336856  1
  Cu  Cu9  1  0.33269589  0.66140920  0.36663144  1
  Cu  Cu10  1  0.33269589  0.66140920  0.88336856  1
  Cu  Cu11  1  0.85151432  0.17575766  0.36221996  1
  Cu  Cu12  1  0.85151432  0.17575766  0.88778004  1
  Cu  Cu13  1  0.84415871  0.67207985  0.37729575  1
  Cu  Cu14  1  0.84415871  0.67207985  0.87270425  1
  C  C15  1  0.15756803  0.32878352  0.12500000  1
