# generated using pymatgen
data_CuNi5C22
_symmetry_space_group_name_H-M   'P 1'
_cell_length_a   6.81914183
_cell_length_b   8.39417680
_cell_length_c   10.28655111
_cell_angle_alpha   101.11418024
_cell_angle_beta   92.60631376
_cell_angle_gamma   99.02107306
_symmetry_Int_Tables_number   1
_chemical_formula_structural   CuNi5C22
_chemical_formula_sum   'Cu2 Ni10 C44'
_cell_volume   568.88007297
_cell_formula_units_Z   2
loop_
 _symmetry_equiv_pos_site_id
 _symmetry_equiv_pos_as_xyz
  1  'x, y, z'
loop_
 _atom_site_type_symbol
 _atom_site_label
 _atom_site_symmetry_multiplicity
 _atom_site_fract_x
 _atom_site_fract_y
 _atom_site_fract_z
 _atom_site_occupancy
  C  C0  1  0.46062400  0.87305600  0.26985200  1
  C  C1  1  0.59141400  0.87095100  0.70620500  1
  C  C2  1  0.38653300  0.82624700  0.47286500  1
  C  C3  1  0.68772400  0.46837700  0.96810000  1
  C  C4  1  0.61505000  0.25284500  0.93780700  1
  C  C5  1  0.19928000  0.46007300  0.99575300  1
  C  C6  1  0.00954700  0.58963900  0.00204300  1
  C  C7  1  0.84661700  0.09307500  0.91865000  1
  C  C8  1  0.31726900  0.97087400  0.92908400  1
  C  C9  1  0.06092700  0.90949500  0.94672700  1
  C  C10  1  0.99588900  0.56141600  0.32766000  1
  C  C11  1  0.79918400  0.68062200  0.31428300  1
  C  C12  1  0.46961100  0.54887100  0.32762800  1
  C  C13  1  0.42022900  0.33637700  0.30451400  1
  C  C14  1  0.65769600  0.18899000  0.30471800  1
  C  C15  1  0.13453900  0.07715100  0.29490700  1
  C  C16  1  0.87263800  0.00551600  0.27832800  1
  C  C17  1  0.05206900  0.18101800  0.62782200  1
  C  C18  1  0.24978700  0.05932700  0.62418700  1
  C  C19  1  0.57143300  0.18964700  0.62842200  1
  C  C20  1  0.63123200  0.40184700  0.64949900  1
  C  C21  1  0.39594700  0.55593900  0.66445200  1
  C  C22  1  0.17833000  0.73538800  0.65579000  1
  C  C23  1  0.91991300  0.67053800  0.66598700  1
  C  C24  1  0.74214700  0.77151100  0.06998100  1
  C  C25  1  0.72358600  0.74784100  0.91252600  1
  C  C26  1  0.91640500  0.34317100  0.96867500  1
  C  C27  1  0.16198300  0.15826300  0.95251900  1
  C  C28  1  0.71747700  0.43744900  0.31622700  1
  C  C29  1  0.97182100  0.25953800  0.30804500  1
  C  C30  1  0.33072100  0.30546600  0.63792400  1
  C  C31  1  0.08029900  0.48660500  0.65299700  1
  C  C32  1  0.72432000  0.35403900  0.96133800  1
  C  C33  1  0.05458100  0.47794700  0.99391100  1
  C  C34  1  0.96603000  0.18945900  0.95241200  1
  C  C35  1  0.17721100  0.99803200  0.93744100  1
  C  C36  1  0.84902200  0.57470200  0.32632500  1
  C  C37  1  0.52272400  0.44041000  0.31309500  1
  C  C38  1  0.77436900  0.28735600  0.30863400  1
  C  C39  1  0.99200800  0.10061400  0.29245000  1
  C  C40  1  0.19840500  0.16832300  0.62575500  1
  C  C41  1  0.52445700  0.29968300  0.63810600  1
  C  C42  1  0.27649300  0.45694700  0.65049500  1
  C  C43  1  0.06216300  0.64622200  0.66668400  1
  Ni  Ni44  1  0.36192000  0.77158500  0.37169100  1
  Ni  Ni45  1  0.43837300  0.05170300  0.29990800  1
  Ni  Ni46  1  0.66548500  0.83332100  0.24016500  1
  Ni  Ni47  1  0.40681200  0.89013400  0.62108500  1
  Ni  Ni48  1  0.61667900  0.69244600  0.69957100  1
  Ni  Ni49  1  0.61610300  0.97674200  0.84555300  1
  Ni  Ni50  1  0.30951300  0.27029000  0.96355600  1
  Ni  Ni51  1  0.11589900  0.37498800  0.32108700  1
  Ni  Ni52  1  0.93489800  0.37329500  0.64567200  1
  Ni  Ni53  1  0.79910800  0.72278600  0.98759300  1
  Cu  Cu54  1  0.31750000  0.78387900  0.13973100  1
  Cu  Cu55  1  0.77682000  0.94762500  0.62969500  1
