# generated using pymatgen
data_Cu13(NiC)2
_symmetry_space_group_name_H-M   'P 1'
_cell_length_a   10.87839479
_cell_length_b   10.87839479
_cell_length_c   10.59665919
_cell_angle_alpha   86.80326472
_cell_angle_beta   86.80326472
_cell_angle_gamma   61.96086908
_symmetry_Int_Tables_number   1
_chemical_formula_structural   Cu13(NiC)2
_chemical_formula_sum   'Cu52 Ni8 C8'
_cell_volume   1104.47289224
_cell_formula_units_Z   4
loop_
 _symmetry_equiv_pos_site_id
 _symmetry_equiv_pos_as_xyz
  1  'x, y, z'
loop_
 _atom_site_type_symbol
 _atom_site_label
 _atom_site_symmetry_multiplicity
 _atom_site_fract_x
 _atom_site_fract_y
 _atom_site_fract_z
 _atom_site_occupancy
  C  C0  1  0.26944500  0.02948300  0.04967900  1
  C  C1  1  0.97051700  0.73055500  0.45032100  1
  C  C2  1  0.73055500  0.97051700  0.95032100  1
  C  C3  1  0.02948300  0.26944500  0.54967900  1
  C  C4  1  0.71927200  0.45462100  0.88807500  1
  C  C5  1  0.54537900  0.28072800  0.61192500  1
  C  C6  1  0.28072800  0.54537900  0.11192500  1
  C  C7  1  0.45462100  0.71927200  0.38807500  1
  Ni  Ni8  1  0.06544000  0.28521000  0.85660400  1
  Ni  Ni9  1  0.71479000  0.93456000  0.64339600  1
  Ni  Ni10  1  0.93456000  0.71479000  0.14339600  1
  Ni  Ni11  1  0.28521000  0.06544000  0.35660400  1
  Ni  Ni12  1  0.52830100  0.29873000  0.92943500  1
  Ni  Ni13  1  0.70127000  0.47169900  0.57056500  1
  Ni  Ni14  1  0.47169900  0.70127000  0.07056500  1
  Ni  Ni15  1  0.29873000  0.52830100  0.42943500  1
  Cu  Cu16  1  0.15581000  0.14753600  0.92176600  1
  Cu  Cu17  1  0.85246400  0.84419000  0.57823400  1
  Cu  Cu18  1  0.84419000  0.85246400  0.07823400  1
  Cu  Cu19  1  0.14753600  0.15581000  0.42176600  1
  Cu  Cu20  1  0.06688700  0.25069800  0.72157600  1
  Cu  Cu21  1  0.74930200  0.93311300  0.77842400  1
  Cu  Cu22  1  0.93311300  0.74930200  0.27842400  1
  Cu  Cu23  1  0.25069800  0.06688700  0.22157600  1
  Cu  Cu24  1  0.11767400  0.38348300  0.86903100  1
  Cu  Cu25  1  0.61651700  0.88232600  0.63096900  1
  Cu  Cu26  1  0.88232600  0.61651700  0.13096900  1
  Cu  Cu27  1  0.38348300  0.11767400  0.36903100  1
  Cu  Cu28  1  0.92021700  0.33317100  0.90920200  1
  Cu  Cu29  1  0.66682900  0.07978300  0.59079800  1
  Cu  Cu30  1  0.07978300  0.66682900  0.09079800  1
  Cu  Cu31  1  0.33317100  0.92021700  0.40920200  1
  Cu  Cu32  1  0.56858400  0.14945600  0.96250800  1
  Cu  Cu33  1  0.85054400  0.43141600  0.53749200  1
  Cu  Cu34  1  0.43141600  0.85054400  0.03749200  1
  Cu  Cu35  1  0.14945600  0.56858400  0.46250800  1
  Cu  Cu36  1  0.64682400  0.32441000  0.95667200  1
  Cu  Cu37  1  0.67559000  0.35317500  0.54332800  1
  Cu  Cu38  1  0.35317500  0.67559000  0.04332800  1
  Cu  Cu39  1  0.32441000  0.64682400  0.45667200  1
  Cu  Cu40  1  0.40315800  0.38341700  0.00784300  1
  Cu  Cu41  1  0.61658300  0.59684200  0.49215700  1
  Cu  Cu42  1  0.59684200  0.61658300  0.99215700  1
  Cu  Cu43  1  0.38341700  0.40315800  0.50784300  1
  Cu  Cu44  1  0.49831800  0.32897500  0.79318400  1
  Cu  Cu45  1  0.67102500  0.50168200  0.70681600  1
  Cu  Cu46  1  0.50168200  0.67102500  0.20681600  1
  Cu  Cu47  1  0.32897500  0.49831800  0.29318400  1
  Cu  Cu48  1  0.96028500  0.01321800  0.95638400  1
  Cu  Cu49  1  0.98678200  0.03971500  0.54361600  1
  Cu  Cu50  1  0.03971500  0.98678200  0.04361600  1
  Cu  Cu51  1  0.01321800  0.96028500  0.45638400  1
  Cu  Cu52  1  0.35001700  0.87239900  0.77622100  1
  Cu  Cu53  1  0.12760100  0.64998300  0.72377900  1
  Cu  Cu54  1  0.64998300  0.12760100  0.22377900  1
  Cu  Cu55  1  0.87239900  0.35001700  0.27622100  1
  Cu  Cu56  1  0.33727700  0.11064600  0.63858400  1
  Cu  Cu57  1  0.88935400  0.66272300  0.86141600  1
  Cu  Cu58  1  0.66272300  0.88935400  0.36141600  1
  Cu  Cu59  1  0.11064600  0.33727700  0.13858400  1
  Cu  Cu60  1  0.84038000  0.61279200  0.79007700  1
  Cu  Cu61  1  0.38720800  0.15962000  0.70992300  1
  Cu  Cu62  1  0.15962000  0.38720800  0.20992300  1
  Cu  Cu63  1  0.61279200  0.84038000  0.29007700  1
  Cu  Cu64  1  0.81001400  0.34678800  0.18432500  1
  Cu  Cu65  1  0.65321200  0.18998600  0.31567500  1
  Cu  Cu66  1  0.18998600  0.65321200  0.81567500  1
  Cu  Cu67  1  0.34678800  0.81001400  0.68432500  1
