# generated using pymatgen
data_Cu15Ni3C4
_symmetry_space_group_name_H-M   'P 1'
_cell_length_a   8.81180214
_cell_length_b   15.46749042
_cell_length_c   15.47658215
_cell_angle_alpha   120.00575648
_cell_angle_beta   89.98187199
_cell_angle_gamma   90.01036878
_symmetry_Int_Tables_number   1
_chemical_formula_structural   Cu15Ni3C4
_chemical_formula_sum   'Cu90 Ni18 C24'
_cell_volume   1826.69089987
_cell_formula_units_Z   6
loop_
 _symmetry_equiv_pos_site_id
 _symmetry_equiv_pos_as_xyz
  1  'x, y, z'
loop_
 _atom_site_type_symbol
 _atom_site_label
 _atom_site_symmetry_multiplicity
 _atom_site_fract_x
 _atom_site_fract_y
 _atom_site_fract_z
 _atom_site_occupancy
  C  C0  1  0.09702182  0.96456917  0.20586270  1
  C  C1  1  0.09756187  0.79441156  0.75887841  1
  C  C2  1  0.09784204  0.24132204  0.03559736  1
  C  C3  1  0.90297818  0.03543083  0.79413730  1
  C  C4  1  0.90243813  0.20558844  0.24112159  1
  C  C5  1  0.90215796  0.75867796  0.96440264  1
  C  C6  1  0.19964391  0.69068899  0.11139296  1
  C  C7  1  0.19939384  0.88880162  0.57986601  1
  C  C8  1  0.19949411  0.42052525  0.30925166  1
  C  C9  1  0.80035609  0.30931101  0.88860704  1
  C  C10  1  0.80060616  0.11119838  0.42013399  1
  C  C11  1  0.80050589  0.57947475  0.69074834  1
  C  C12  1  0.42595607  0.91026075  0.35914178  1
  C  C13  1  0.42653924  0.64013383  0.55059243  1
  C  C14  1  0.42589889  0.44903981  0.08955666  1
  C  C15  1  0.57404393  0.08973925  0.64085822  1
  C  C16  1  0.57346076  0.35986617  0.44940757  1
  C  C17  1  0.57410111  0.55096019  0.91044334  1
  C  C18  1  0.00000000  0.00000000  0.00000000  1
  C  C19  1  0.50000000  0.00000000  0.00000000  1
  C  C20  1  0.31133136  0.66679304  0.33340580  1
  C  C21  1  0.68866864  0.33320696  0.66659420  1
  C  C22  1  0.81021969  0.66674098  0.33341889  1
  C  C23  1  0.18978031  0.33325902  0.66658111  1
  Ni  Ni24  1  0.24702688  0.14692714  0.16923829  1
  Ni  Ni25  1  0.24700758  0.83077056  0.97782198  1
  Ni  Ni26  1  0.24720724  0.02249674  0.85330926  1
  Ni  Ni27  1  0.75297312  0.85307286  0.83076171  1
  Ni  Ni28  1  0.75299242  0.16922944  0.02217802  1
  Ni  Ni29  1  0.75279276  0.97750326  0.14669074  1
  Ni  Ni30  1  0.55207510  0.82113418  0.49266823  1
  Ni  Ni31  1  0.55221096  0.50735050  0.32834789  1
  Ni  Ni32  1  0.55198507  0.67178138  0.17903515  1
  Ni  Ni33  1  0.44792490  0.17886582  0.50733177  1
  Ni  Ni34  1  0.44778904  0.49264950  0.67165211  1
  Ni  Ni35  1  0.44801493  0.32821862  0.82096485  1
  Ni  Ni36  1  0.92936963  0.49030158  0.82590307  1
  Ni  Ni37  1  0.92956881  0.17395411  0.66436516  1
  Ni  Ni38  1  0.92943349  0.33553962  0.50967646  1
  Ni  Ni39  1  0.07063037  0.50969842  0.17409693  1
  Ni  Ni40  1  0.07043119  0.82604589  0.33563484  1
  Ni  Ni41  1  0.07056651  0.66446038  0.49032354  1
  Cu  Cu42  1  0.12552619  0.06432060  0.12741443  1
  Cu  Cu43  1  0.12577586  0.87269618  0.93698807  1
  Cu  Cu44  1  0.12561259  0.06303958  0.93581780  1
  Cu  Cu45  1  0.87447381  0.93567940  0.87258557  1
  Cu  Cu46  1  0.87422414  0.12730382  0.06301193  1
  Cu  Cu47  1  0.87438741  0.93696042  0.06418220  1
  Cu  Cu48  1  0.36824250  0.11887443  0.09186036  1
  Cu  Cu49  1  0.36837630  0.90811001  0.02698267  1
  Cu  Cu50  1  0.36831874  0.97292788  0.88112208  1
  Cu  Cu51  1  0.63175750  0.88112557  0.90813964  1
  Cu  Cu52  1  0.63162370  0.09188999  0.97301733  1
  Cu  Cu53  1  0.63168126  0.02707212  0.11887792  1
  Cu  Cu54  1  0.17119890  0.23931790  0.18497752  1
  Cu  Cu55  1  0.17106206  0.81530508  0.05456675  1
  Cu  Cu56  1  0.17141990  0.94601764  0.76085032  1
  Cu  Cu57  1  0.82880110  0.76068210  0.81502248  1
  Cu  Cu58  1  0.82893794  0.18469492  0.94543325  1
  Cu  Cu59  1  0.82858010  0.05398236  0.23914968  1
  Cu  Cu60  1  0.30465384  0.15604950  0.26198821  1
  Cu  Cu61  1  0.30441381  0.73784627  0.89423136  1
  Cu  Cu62  1  0.30474805  0.10638011  0.84451985  1
  Cu  Cu63  1  0.69534616  0.84395050  0.73801179  1
  Cu  Cu64  1  0.69558619  0.26215373  0.10576864  1
  Cu  Cu65  1  0.69525195  0.89361989  0.15548015  1
  Cu  Cu66  1  0.44213916  0.78900063  0.40515323  1
  Cu  Cu67  1  0.44217158  0.59491992  0.38376593  1
  Cu  Cu68  1  0.44211719  0.61613346  0.21105350  1
  Cu  Cu69  1  0.55786084  0.21099937  0.59484677  1
  Cu  Cu70  1  0.55782842  0.40508008  0.61623407  1
  Cu  Cu71  1  0.55788281  0.38386654  0.78894650  1
  Cu  Cu72  1  0.68402680  0.75063713  0.45770332  1
  Cu  Cu73  1  0.68421479  0.54225920  0.29279240  1
  Cu  Cu74  1  0.68401320  0.70729302  0.24947784  1
  Cu  Cu75  1  0.31597320  0.24936287  0.54229668  1
  Cu  Cu76  1  0.31578521  0.45774080  0.70720760  1
  Cu  Cu77  1  0.31598680  0.29270698  0.75052216  1
  Cu  Cu78  1  0.60172354  0.92259526  0.51962019  1
  Cu  Cu79  1  0.60176653  0.48047972  0.40286549  1
  Cu  Cu80  1  0.60133550  0.59741303  0.07755136  1
  Cu  Cu81  1  0.39827646  0.07740474  0.48037981  1
  Cu  Cu82  1  0.39823347  0.51952028  0.59713451  1
  Cu  Cu83  1  0.39866450  0.40258697  0.92244864  1
  Cu  Cu84  1  0.47094675  0.81740237  0.57330260  1
  Cu  Cu85  1  0.47120989  0.42665374  0.24396466  1
  Cu  Cu86  1  0.47088606  0.75637825  0.18322500  1
  Cu  Cu87  1  0.52905325  0.18259763  0.42669740  1
  Cu  Cu88  1  0.52879011  0.57334626  0.75603534  1
  Cu  Cu89  1  0.52911394  0.24362175  0.81677500  1
  Cu  Cu90  1  0.81815110  0.45729678  0.73899309  1
  Cu  Cu91  1  0.81840296  0.26094064  0.71816957  1
  Cu  Cu92  1  0.81831419  0.28156830  0.54266141  1
  Cu  Cu93  1  0.18184890  0.54270322  0.26100691  1
  Cu  Cu94  1  0.18159704  0.73905936  0.28183043  1
  Cu  Cu95  1  0.18168581  0.71843170  0.45733859  1
  Cu  Cu96  1  0.06141113  0.42036266  0.79059796  1
  Cu  Cu97  1  0.06152212  0.20924509  0.62966870  1
  Cu  Cu98  1  0.06150146  0.37012382  0.57951944  1
  Cu  Cu99  1  0.93858887  0.57963734  0.20940204  1
  Cu  Cu100  1  0.93847788  0.79075491  0.37033130  1
  Cu  Cu101  1  0.93849854  0.62987618  0.42048056  1
  Cu  Cu102  1  0.97566148  0.59279854  0.85390261  1
  Cu  Cu103  1  0.97587284  0.14621817  0.73898404  1
  Cu  Cu104  1  0.97552053  0.26096492  0.40717431  1
  Cu  Cu105  1  0.02433852  0.40720146  0.14609739  1
  Cu  Cu106  1  0.02412716  0.85378183  0.26101596  1
  Cu  Cu107  1  0.02447947  0.73903508  0.59282569  1
  Cu  Cu108  1  0.85066705  0.48656373  0.90773648  1
  Cu  Cu109  1  0.85089072  0.09200576  0.57885193  1
  Cu  Cu110  1  0.85077170  0.42120450  0.51350971  1
  Cu  Cu111  1  0.14933295  0.51343627  0.09226352  1
  Cu  Cu112  1  0.14910928  0.90799424  0.42114807  1
  Cu  Cu113  1  0.14922830  0.57879550  0.48649029  1
  Cu  Cu114  1  0.07385081  0.06949932  0.38697051  1
  Cu  Cu115  1  0.07310384  0.61356322  0.68268959  1
  Cu  Cu116  1  0.07250230  0.31685273  0.93044176  1
  Cu  Cu117  1  0.92614919  0.93050068  0.61302949  1
  Cu  Cu118  1  0.92689616  0.38643678  0.31731041  1
  Cu  Cu119  1  0.92749770  0.68314727  0.06955824  1
  Cu  Cu120  1  0.68608137  0.94877494  0.35354458  1
  Cu  Cu121  1  0.68639515  0.64691494  0.59564638  1
  Cu  Cu122  1  0.68536849  0.40301406  0.05080510  1
  Cu  Cu123  1  0.31391863  0.05122506  0.64645542  1
  Cu  Cu124  1  0.31360485  0.35308506  0.40435362  1
  Cu  Cu125  1  0.31463151  0.59698594  0.94919490  1
  Cu  Cu126  1  0.35692526  0.98349651  0.25520885  1
  Cu  Cu127  1  0.35761996  0.74509541  0.72727705  1
  Cu  Cu128  1  0.35818067  0.27126418  0.01641471  1
  Cu  Cu129  1  0.64307474  0.01650349  0.74479115  1
  Cu  Cu130  1  0.64238004  0.25490459  0.27272295  1
  Cu  Cu131  1  0.64181933  0.72873582  0.98358529  1
