# generated using pymatgen
data_CuNi5C12
_symmetry_space_group_name_H-M   'P 1'
_cell_length_a   3.21866600
_cell_length_b   6.45439695
_cell_length_c   11.18142330
_cell_angle_alpha   90.00000104
_cell_angle_beta   90.00000000
_cell_angle_gamma   90.00000000
_symmetry_Int_Tables_number   1
_chemical_formula_structural   CuNi5C12
_chemical_formula_sum   'Cu1 Ni5 C12'
_cell_volume   232.28901517
_cell_formula_units_Z   1
loop_
 _symmetry_equiv_pos_site_id
 _symmetry_equiv_pos_as_xyz
  1  'x, y, z'
loop_
 _atom_site_type_symbol
 _atom_site_label
 _atom_site_symmetry_multiplicity
 _atom_site_fract_x
 _atom_site_fract_y
 _atom_site_fract_z
 _atom_site_occupancy
  C  C0  1  0.00000000  0.72756100  0.50000000  1
  C  C1  1  0.00000000  0.26465500  0.00000000  1
  C  C2  1  0.00000000  0.38636000  0.38945000  1
  C  C3  1  0.00000000  0.86922600  0.86344900  1
  C  C4  1  0.00000000  0.86922600  0.13655100  1
  C  C5  1  0.00000000  0.38636000  0.61055000  1
  C  C6  1  0.50000000  0.12979300  0.50000000  1
  C  C7  1  0.50000000  0.59950400  0.00000000  1
  C  C8  1  0.50000000  0.20412200  0.20570400  1
  C  C9  1  0.50000000  0.67882000  0.67840600  1
  C  C10  1  0.50000000  0.67882000  0.32159400  1
  C  C11  1  0.50000000  0.20412200  0.79429600  1
  Ni  Ni12  1  0.00000000  0.99847500  0.33995600  1
  Ni  Ni13  1  0.00000000  0.50184100  0.82676500  1
  Ni  Ni14  1  0.00000000  0.50184100  0.17323500  1
  Ni  Ni15  1  0.00000000  0.99847500  0.66004400  1
  Ni  Ni16  1  0.50000000  0.99733700  0.00000000  1
  Cu  Cu17  1  0.50000000  0.50326200  0.50000000  1
