# generated using pymatgen
data_Cu33NiC4
_symmetry_space_group_name_H-M   'P 1'
_cell_length_a   6.44177334
_cell_length_b   6.44177334
_cell_length_c   12.86416767
_cell_angle_alpha   82.85627065
_cell_angle_beta   82.85627065
_cell_angle_gamma   82.98641111
_symmetry_Int_Tables_number   1
_chemical_formula_structural   Cu33NiC4
_chemical_formula_sum   'Cu33 Ni1 C4'
_cell_volume   522.46960385
_cell_formula_units_Z   1
loop_
 _symmetry_equiv_pos_site_id
 _symmetry_equiv_pos_as_xyz
  1  'x, y, z'
loop_
 _atom_site_type_symbol
 _atom_site_label
 _atom_site_symmetry_multiplicity
 _atom_site_fract_x
 _atom_site_fract_y
 _atom_site_fract_z
 _atom_site_occupancy
  C  C0  1  0.65522400  0.65522400  0.32752800  1
  C  C1  1  0.65994400  0.65994400  0.83003200  1
  C  C2  1  0.34087600  0.34087600  0.17074800  1
  C  C3  1  0.34042400  0.34042400  0.66985500  1
  Ni  Ni4  1  0.90844400  0.90844400  0.45414400  1
  Cu  Cu5  1  0.29208000  0.70799100  0.00016300  1
  Cu  Cu6  1  0.29506500  0.70605700  0.50011000  1
  Cu  Cu7  1  0.70804800  0.99957300  0.14616100  1
  Cu  Cu8  1  0.70704600  0.00060500  0.64717100  1
  Cu  Cu9  1  0.00085000  0.29421600  0.35360800  1
  Cu  Cu10  1  0.99973600  0.29224800  0.85361400  1
  Cu  Cu11  1  0.29421600  0.00085000  0.35360800  1
  Cu  Cu12  1  0.29224800  0.99973600  0.85361400  1
  Cu  Cu13  1  0.99957300  0.70804800  0.14616100  1
  Cu  Cu14  1  0.00060500  0.70704600  0.64717100  1
  Cu  Cu15  1  0.70799100  0.29208000  0.00016300  1
  Cu  Cu16  1  0.70605700  0.29506500  0.50011000  1
  Cu  Cu17  1  0.99849400  0.99849400  0.25088400  1
  Cu  Cu18  1  0.00007600  0.00007600  0.74986300  1
  Cu  Cu19  1  0.99857700  0.50151800  0.49919800  1
  Cu  Cu20  1  0.00000600  0.49998300  0.00018900  1
  Cu  Cu21  1  0.49998300  0.00000600  0.00018900  1
  Cu  Cu22  1  0.50151800  0.99857700  0.49919800  1
  Cu  Cu23  1  0.84386200  0.34060400  0.17174800  1
  Cu  Cu24  1  0.84426600  0.34308100  0.67001300  1
  Cu  Cu25  1  0.34142600  0.34142600  0.42189000  1
  Cu  Cu26  1  0.34209600  0.34209600  0.92206000  1
  Cu  Cu27  1  0.34060400  0.84386200  0.17174800  1
  Cu  Cu28  1  0.34308100  0.84426600  0.67001300  1
  Cu  Cu29  1  0.15547900  0.65831400  0.32933600  1
  Cu  Cu30  1  0.15625400  0.65824100  0.82874000  1
  Cu  Cu31  1  0.65780200  0.65780200  0.07814600  1
  Cu  Cu32  1  0.65864500  0.65864500  0.57811300  1
  Cu  Cu33  1  0.65831400  0.15547900  0.32933600  1
  Cu  Cu34  1  0.65824100  0.15625400  0.82874000  1
  Cu  Cu35  1  0.90399700  0.90399700  0.95205000  1
  Cu  Cu36  1  0.09605300  0.09605300  0.04785900  1
  Cu  Cu37  1  0.09280100  0.09280100  0.54672900  1
