# generated using pymatgen
data_Cu2NiC
_symmetry_space_group_name_H-M   'P 1'
_cell_length_a   3.95369600
_cell_length_b   3.95951200
_cell_length_c   8.33661851
_cell_angle_alpha   76.26231545
_cell_angle_beta   90.00000000
_cell_angle_gamma   90.00000000
_symmetry_Int_Tables_number   1
_chemical_formula_structural   Cu2NiC
_chemical_formula_sum   'Cu4 Ni2 C2'
_cell_volume   126.77391304
_cell_formula_units_Z   2
loop_
 _symmetry_equiv_pos_site_id
 _symmetry_equiv_pos_as_xyz
  1  'x, y, z'
loop_
 _atom_site_type_symbol
 _atom_site_label
 _atom_site_symmetry_multiplicity
 _atom_site_fract_x
 _atom_site_fract_y
 _atom_site_fract_z
 _atom_site_occupancy
  C  C0  1  0.25000000  0.60691300  0.78617400  1
  C  C1  1  0.75000000  0.39308700  0.21382600  1
  Ni  Ni2  1  0.25000000  0.82198500  0.35603000  1
  Ni  Ni3  1  0.75000000  0.17801500  0.64397000  1
  Cu  Cu4  1  0.25000000  0.95823000  0.08354000  1
  Cu  Cu5  1  0.75000000  0.04177000  0.91646000  1
  Cu  Cu6  1  0.25000000  0.24968000  0.50064000  1
  Cu  Cu7  1  0.75000000  0.75032000  0.49936000  1
