# generated using pymatgen
data_CuNiC11
_symmetry_space_group_name_H-M   'P 1'
_cell_length_a   11.73479031
_cell_length_b   11.73479031
_cell_length_c   5.58243318
_cell_angle_alpha   76.53000868
_cell_angle_beta   76.53000868
_cell_angle_gamma   140.01379653
_symmetry_Int_Tables_number   1
_chemical_formula_structural   CuNiC11
_chemical_formula_sum   'Cu2 Ni2 C22'
_cell_volume   361.60885465
_cell_formula_units_Z   2
loop_
 _symmetry_equiv_pos_site_id
 _symmetry_equiv_pos_as_xyz
  1  'x, y, z'
loop_
 _atom_site_type_symbol
 _atom_site_label
 _atom_site_symmetry_multiplicity
 _atom_site_fract_x
 _atom_site_fract_y
 _atom_site_fract_z
 _atom_site_occupancy
  C  C0  1  0.89423200  0.69118200  0.96526500  1
  C  C1  1  0.12154400  0.31200000  0.03504900  1
  C  C2  1  0.31200000  0.12154400  0.03504900  1
  C  C3  1  0.69118200  0.89423200  0.96526500  1
  Ni  Ni4  1  0.39840200  0.93540500  0.01216800  1
  Ni  Ni5  1  0.93540500  0.39840200  0.01216800  1
  C  C6  1  0.07779100  0.44686200  0.48297200  1
  C  C7  1  0.44686200  0.07779100  0.48297200  1
  C  C8  1  0.55696500  0.91646600  0.52179300  1
  C  C9  1  0.91646600  0.55696500  0.52179300  1
  Cu  Cu10  1  0.33744400  0.33744400  0.44078900  1
  Cu  Cu11  1  0.67772200  0.67772200  0.61143300  1
  C  C12  1  0.16908600  0.79480500  0.98582400  1
  C  C13  1  0.39348500  0.39348500  0.72662500  1
  C  C14  1  0.26535100  0.88386100  0.36517400  1
  C  C15  1  0.71998500  0.87386500  0.43097400  1
  C  C16  1  0.38763500  0.77155700  0.02814900  1
  C  C17  1  0.22208400  0.59798900  0.67856600  1
  C  C18  1  0.62634000  0.62634000  0.00127300  1
  C  C19  1  0.79480500  0.16908600  0.98582400  1
  C  C20  1  0.88386100  0.26535100  0.36517400  1
  C  C21  1  0.13382500  0.28554200  0.50705900  1
  C  C22  1  0.28554200  0.13382500  0.50705900  1
  C  C23  1  0.87386500  0.71998500  0.43097400  1
  C  C24  1  0.59798900  0.22208400  0.67856600  1
  C  C25  1  0.77155700  0.38763500  0.02814900  1
