# generated using pymatgen
data_Cu3(NiC6)2
_symmetry_space_group_name_H-M   'P 1'
_cell_length_a   9.46047634
_cell_length_b   16.17207456
_cell_length_c   16.12207602
_cell_angle_alpha   109.33525185
_cell_angle_beta   90.00000000
_cell_angle_gamma   90.00000000
_symmetry_Int_Tables_number   1
_chemical_formula_structural   Cu3(NiC6)2
_chemical_formula_sum   'Cu24 Ni16 C96'
_cell_volume   2327.48262994
_cell_formula_units_Z   8
loop_
 _symmetry_equiv_pos_site_id
 _symmetry_equiv_pos_as_xyz
  1  'x, y, z'
loop_
 _atom_site_type_symbol
 _atom_site_label
 _atom_site_symmetry_multiplicity
 _atom_site_fract_x
 _atom_site_fract_y
 _atom_site_fract_z
 _atom_site_occupancy
  Ni  Ni0  1  0.97399651  0.31468952  0.93304835  1
  Ni  Ni1  1  0.02600349  0.68531048  0.06695165  1
  Ni  Ni2  1  0.47399651  0.68531048  0.56695165  1
  Ni  Ni3  1  0.52600349  0.31468952  0.43304835  1
  Ni  Ni4  1  0.98281918  0.91672126  0.81057308  1
  Ni  Ni5  1  0.01718082  0.08327874  0.18942692  1
  Ni  Ni6  1  0.48281918  0.08327874  0.68942692  1
  Ni  Ni7  1  0.51718082  0.91672126  0.31057308  1
  Ni  Ni8  1  0.53421396  0.81920978  0.93788368  1
  Ni  Ni9  1  0.46578604  0.18079022  0.06211632  1
  Ni  Ni10  1  0.03421396  0.18079022  0.56211632  1
  Ni  Ni11  1  0.96578604  0.81920978  0.43788368  1
  Ni  Ni12  1  0.53956301  0.45359458  0.82474775  1
  Ni  Ni13  1  0.46043699  0.54640542  0.17525225  1
  Ni  Ni14  1  0.03956301  0.54640542  0.67525225  1
  Ni  Ni15  1  0.96043699  0.45359458  0.32474775  1
  Cu  Cu16  1  0.61157617  0.25028220  0.88997272  1
  Cu  Cu17  1  0.38842383  0.74971780  0.11002728  1
  Cu  Cu18  1  0.11157617  0.74971780  0.61002728  1
  Cu  Cu19  1  0.88842383  0.25028220  0.38997272  1
  Cu  Cu20  1  0.24686894  0.98769758  0.99436232  1
  Cu  Cu21  1  0.75313106  0.01230242  0.00563768  1
  Cu  Cu22  1  0.74686894  0.01230242  0.50563768  1
  Cu  Cu23  1  0.25313106  0.98769758  0.49436232  1
  Cu  Cu24  1  0.87325630  0.36302959  0.72392657  1
  Cu  Cu25  1  0.12674370  0.63697041  0.27607343  1
  Cu  Cu26  1  0.37325630  0.63697041  0.77607343  1
  Cu  Cu27  1  0.62674370  0.36302959  0.22392657  1
  Cu  Cu28  1  0.74486539  0.51912582  0.51676445  1
  Cu  Cu29  1  0.25513461  0.48087418  0.48323555  1
  Cu  Cu30  1  0.24486539  0.48087418  0.98323555  1
  Cu  Cu31  1  0.75513461  0.51912582  0.01676445  1
  Cu  Cu32  1  0.87025942  0.71319089  0.86197231  1
  Cu  Cu33  1  0.12974058  0.28680911  0.13802769  1
  Cu  Cu34  1  0.37025942  0.28680911  0.63802769  1
  Cu  Cu35  1  0.62974058  0.71319089  0.36197231  1
  Cu  Cu36  1  0.61595147  0.88512880  0.73432003  1
  Cu  Cu37  1  0.38404853  0.11487120  0.26567997  1
  Cu  Cu38  1  0.11595147  0.11487120  0.76567997  1
  Cu  Cu39  1  0.88404853  0.88512880  0.23432003  1
  C  C40  1  0.38989311  0.91244304  0.99284066  1
  C  C41  1  0.61010689  0.08755696  0.00715934  1
  C  C42  1  0.88989311  0.08755696  0.50715934  1
  C  C43  1  0.11010689  0.91244304  0.49284066  1
  C  C44  1  0.60356877  0.16554775  0.78332544  1
  C  C45  1  0.39643123  0.83445225  0.21667456  1
  C  C46  1  0.10356877  0.83445225  0.71667456  1
  C  C47  1  0.89643123  0.16554775  0.28332544  1
  C  C48  1  0.86234592  0.99870973  0.90944049  1
  C  C49  1  0.13765408  0.00129027  0.09055951  1
  C  C50  1  0.36234592  0.00129027  0.59055951  1
  C  C51  1  0.63765408  0.99870973  0.40944049  1
  C  C52  1  0.88768756  0.50105815  0.58379930  1
  C  C53  1  0.11231244  0.49894185  0.41620070  1
  C  C54  1  0.38768756  0.49894185  0.91620070  1
  C  C55  1  0.61231244  0.50105815  0.08379930  1
  C  C56  1  0.81437622  0.90560677  0.50036133  1
  C  C57  1  0.18562378  0.09439323  0.49963867  1
  C  C58  1  0.31437622  0.09439323  0.99963867  1
  C  C59  1  0.68562378  0.90560677  0.00036133  1
  C  C60  1  0.78802735  0.25308555  0.93512409  1
  C  C61  1  0.21197265  0.74691445  0.06487591  1
  C  C62  1  0.28802735  0.74691445  0.56487591  1
  C  C63  1  0.71197265  0.25308555  0.43512409  1
  C  C64  1  0.55610957  0.86379928  0.83210619  1
  C  C65  1  0.44389043  0.13620072  0.16789381  1
  C  C66  1  0.05610957  0.13620072  0.66789381  1
  C  C67  1  0.94389043  0.86379928  0.33210619  1
  C  C68  1  0.65589861  0.62138189  0.57400648  1
  C  C69  1  0.34410139  0.37861811  0.42599352  1
  C  C70  1  0.15589861  0.37861811  0.92599352  1
  C  C71  1  0.84410139  0.62138189  0.07400648  1
  C  C72  1  0.68159676  0.72747433  0.88160970  1
  C  C73  1  0.31840324  0.27252567  0.11839030  1
  C  C74  1  0.18159676  0.27252567  0.61839030  1
  C  C75  1  0.81840324  0.72747433  0.38160970  1
  C  C76  1  0.89896378  0.62350106  0.75996966  1
  C  C77  1  0.10103622  0.37649894  0.24003034  1
  C  C78  1  0.39896378  0.37649894  0.74003034  1
  C  C79  1  0.60103622  0.62350106  0.25996966  1
  C  C80  1  0.69283318  0.40358281  0.73415748  1
  C  C81  1  0.30716682  0.59641719  0.26584252  1
  C  C82  1  0.19283318  0.59641719  0.76584252  1
  C  C83  1  0.80716682  0.40358281  0.23415748  1
  C  C84  1  0.38450116  0.73302931  0.87411911  1
  C  C85  1  0.61549884  0.26697069  0.12588089  1
  C  C86  1  0.88450116  0.26697069  0.62588089  1
  C  C87  1  0.11549884  0.73302931  0.37411911  1
  C  C88  1  0.53847111  0.98756942  0.73445795  1
  C  C89  1  0.46152889  0.01243058  0.26554205  1
  C  C90  1  0.03847111  0.01243058  0.76554205  1
  C  C91  1  0.96152889  0.98756942  0.23445795  1
  C  C92  1  0.91126810  0.32898017  0.81751806  1
  C  C93  1  0.08873190  0.67101983  0.18248194  1
  C  C94  1  0.41126810  0.67101983  0.68248194  1
  C  C95  1  0.58873190  0.32898017  0.31751806  1
  C  C96  1  0.80765025  0.89163136  0.73541674  1
  C  C97  1  0.19234975  0.10836864  0.26458326  1
  C  C98  1  0.30765025  0.10836864  0.76458326  1
  C  C99  1  0.69234975  0.89163136  0.23541674  1
  C  C100  1  0.57239569  0.35560706  0.87805552  1
  C  C101  1  0.42760431  0.64439294  0.12194448  1
  C  C102  1  0.07239569  0.64439294  0.62194448  1
  C  C103  1  0.92760431  0.35560706  0.37805552  1
  C  C104  1  0.93571253  0.81388432  0.85087283  1
  C  C105  1  0.06428747  0.18611568  0.14912717  1
  C  C106  1  0.43571253  0.18611568  0.64912717  1
  C  C107  1  0.56428747  0.81388432  0.35087283  1
  C  C108  1  0.98189092  0.77370028  0.53841133  1
  C  C109  1  0.01810908  0.22629972  0.46158867  1
  C  C110  1  0.48189092  0.22629972  0.96158867  1
  C  C111  1  0.51810908  0.77370028  0.03841133  1
  C  C112  1  0.88096412  0.43031844  0.99653771  1
  C  C113  1  0.11903588  0.56968156  0.00346229  1
  C  C114  1  0.38096412  0.56968156  0.50346229  1
  C  C115  1  0.61903588  0.43031844  0.49653771  1
  C  C116  1  0.14469580  0.94528368  0.89455845  1
  C  C117  1  0.85530420  0.05471632  0.10544155  1
  C  C118  1  0.64469580  0.05471632  0.60544155  1
  C  C119  1  0.35530420  0.94528368  0.39455845  1
  C  C120  1  0.96065065  0.69472349  0.95337455  1
  C  C121  1  0.03934935  0.30527651  0.04662545  1
  C  C122  1  0.46065065  0.30527651  0.54662545  1
  C  C123  1  0.53934935  0.69472349  0.45337455  1
  C  C124  1  0.56289746  0.79868646  0.63531873  1
  C  C125  1  0.43710254  0.20131354  0.36468127  1
  C  C126  1  0.06289746  0.20131354  0.86468127  1
  C  C127  1  0.93710254  0.79868646  0.13531873  1
  C  C128  1  0.68869042  0.52292338  0.91206454  1
  C  C129  1  0.31130958  0.47707662  0.08793546  1
  C  C130  1  0.18869042  0.47707662  0.58793546  1
  C  C131  1  0.81130958  0.52292338  0.41206454  1
  C  C132  1  0.99742430  0.44735913  0.71974183  1
  C  C133  1  0.00257570  0.55264087  0.28025817  1
  C  C134  1  0.49742430  0.55264087  0.78025817  1
  C  C135  1  0.50257570  0.44735913  0.21974183  1
