# generated using pymatgen
data_Cu(NiC3)3
_symmetry_space_group_name_H-M   'P 1'
_cell_length_a   10.07876209
_cell_length_b   10.07875259
_cell_length_c   14.64007326
_cell_angle_alpha   90.00000000
_cell_angle_beta   90.00000000
_cell_angle_gamma   120.00002435
_symmetry_Int_Tables_number   1
_chemical_formula_structural   Cu(NiC3)3
_chemical_formula_sum   'Cu6 Ni18 C54'
_cell_volume   1287.91663661
_cell_formula_units_Z   6
loop_
 _symmetry_equiv_pos_site_id
 _symmetry_equiv_pos_as_xyz
  1  'x, y, z'
loop_
 _atom_site_type_symbol
 _atom_site_label
 _atom_site_symmetry_multiplicity
 _atom_site_fract_x
 _atom_site_fract_y
 _atom_site_fract_z
 _atom_site_occupancy
  Ni  Ni0  1  0.33087477  1.00000000  0.59061714  1
  Ni  Ni1  1  0.66912118  0.66912285  0.59061586  1
  Ni  Ni2  1  0.99999833  0.33087715  0.59061586  1
  Ni  Ni3  1  0.66912480  0.00000000  0.40938456  1
  Ni  Ni4  1  0.33087557  0.33088029  0.40938326  1
  Ni  Ni5  1  0.99999528  0.66911971  0.40938326  1
  Ni  Ni6  1  0.66912523  0.00000000  0.09061714  1
  Ni  Ni7  1  0.33087882  0.33087715  0.09061586  1
  Ni  Ni8  1  0.00000167  0.66912285  0.09061586  1
  Ni  Ni9  1  0.33087520  1.00000000  0.90938456  1
  Ni  Ni10  1  0.66912443  0.66911971  0.90938326  1
  Ni  Ni11  1  0.00000472  0.33088029  0.90938326  1
  Ni  Ni12  1  0.33329932  0.66669790  0.74999993  1
  Ni  Ni13  1  0.66660143  0.33330210  0.74999993  1
  Ni  Ni14  1  0.66670068  0.33330210  0.24999993  1
  Ni  Ni15  1  0.33339857  0.66669790  0.24999993  1
  Ni  Ni16  1  0.99999937  -0.00000000  0.50000007  1
  Ni  Ni17  1  0.00000063  0.00000000  0.00000007  1
  Cu  Cu18  1  0.00000076  -0.00000000  0.75000000  1
  Cu  Cu19  1  0.99999924  0.00000000  0.25000000  1
  Cu  Cu20  1  0.33331834  0.66667851  0.49999998  1
  Cu  Cu21  1  0.66663983  0.33332149  0.49999998  1
  Cu  Cu22  1  0.66668166  0.33332149  -0.00000002  1
  Cu  Cu23  1  0.33336017  0.66667851  -0.00000002  1
  C  C24  1  0.65950267  0.00000000  0.64326538  1
  C  C25  1  0.34049295  0.34050155  0.64326661  1
  C  C26  1  0.99999140  0.65949845  0.64326661  1
  C  C27  1  0.34049408  1.00000000  0.35673103  1
  C  C28  1  0.65950032  0.65950206  0.35673521  1
  C  C29  1  0.99999826  0.34049794  0.35673521  1
  C  C30  1  0.34049733  1.00000000  0.14326538  1
  C  C31  1  0.65950705  0.65949845  0.14326661  1
  C  C32  1  0.00000860  0.34050155  0.14326661  1
  C  C33  1  0.65950592  0.00000000  0.85673103  1
  C  C34  1  0.34049968  0.34049794  0.85673521  1
  C  C35  1  0.00000174  0.65950206  0.85673521  1
  C  C36  1  0.67825985  0.52427620  0.40645608  1
  C  C37  1  0.84601264  0.32173743  0.40645682  1
  C  C38  1  0.47571823  0.15397978  0.40645478  1
  C  C39  1  0.15398365  0.47572380  0.40645608  1
  C  C40  1  0.52427521  0.67826257  0.40645682  1
  C  C41  1  0.32173845  0.84602022  0.40645478  1
  C  C42  1  0.32173814  0.47572617  0.59354210  1
  C  C43  1  0.15397989  0.67826389  0.59354610  1
  C  C44  1  0.52427583  0.84601737  0.59354413  1
  C  C45  1  0.84601198  0.52427383  0.59354210  1
  C  C46  1  0.47571600  0.32173611  0.59354610  1
  C  C47  1  0.67825846  0.15398263  0.59354413  1
  C  C48  1  0.32174015  0.47572380  0.90645608  1
  C  C49  1  0.15398736  0.67826257  0.90645682  1
  C  C50  1  0.52428177  0.84602022  0.90645478  1
  C  C51  1  0.84601635  0.52427620  0.90645608  1
  C  C52  1  0.47572479  0.32173743  0.90645682  1
  C  C53  1  0.67826155  0.15397978  0.90645478  1
  C  C54  1  0.67826186  0.52427383  0.09354210  1
  C  C55  1  0.84602011  0.32173611  0.09354610  1
  C  C56  1  0.47572417  0.15398263  0.09354413  1
  C  C57  1  0.15398802  0.47572617  0.09354210  1
  C  C58  1  0.52428400  0.67826389  0.09354610  1
  C  C59  1  0.32174154  0.84601737  0.09354413  1
  C  C60  1  0.82199562  0.00000000  0.64555078  1
  C  C61  1  0.17800454  0.17800312  0.64555050  1
  C  C62  1  0.00000141  0.82199688  0.64555050  1
  C  C63  1  0.17800300  1.00000000  0.35444985  1
  C  C64  1  0.82199535  0.82199501  0.35444925  1
  C  C65  1  0.00000034  0.17800499  0.35444925  1
  C  C66  1  0.17800438  1.00000000  0.14555078  1
  C  C67  1  0.82199546  0.82199688  0.14555050  1
  C  C68  1  0.99999859  0.17800312  0.14555050  1
  C  C69  1  0.82199700  0.00000000  0.85444985  1
  C  C70  1  0.17800465  0.17800499  0.85444925  1
  C  C71  1  0.99999966  0.82199501  0.85444925  1
  C  C72  1  0.59665637  1.00000000  0.74999952  1
  C  C73  1  0.40334324  0.40334157  0.75000023  1
  C  C74  1  0.00000167  0.59665843  0.75000023  1
  C  C75  1  0.40334363  0.00000000  0.24999952  1
  C  C76  1  0.59665676  0.59665843  0.25000023  1
  C  C77  1  0.99999833  0.40334157  0.25000023  1
