# generated using pymatgen
data_Cu2Ni2C3
_symmetry_space_group_name_H-M   'P 1'
_cell_length_a   8.59487673
_cell_length_b   6.39906675
_cell_length_c   6.44475409
_cell_angle_alpha   89.85706348
_cell_angle_beta   90.06311336
_cell_angle_gamma   89.91336348
_symmetry_Int_Tables_number   1
_chemical_formula_structural   Cu2Ni2C3
_chemical_formula_sum   'Cu8 Ni8 C12'
_cell_volume   354.45452891
_cell_formula_units_Z   4
loop_
 _symmetry_equiv_pos_site_id
 _symmetry_equiv_pos_as_xyz
  1  'x, y, z'
loop_
 _atom_site_type_symbol
 _atom_site_label
 _atom_site_symmetry_multiplicity
 _atom_site_fract_x
 _atom_site_fract_y
 _atom_site_fract_z
 _atom_site_occupancy
  C  C0  1  0.18093900  0.25007300  0.49938900  1
  C  C1  1  0.18085300  0.24997100  0.00042500  1
  C  C2  1  0.22057200  0.75022600  0.74988600  1
  C  C3  1  0.23040600  0.75012200  0.24993400  1
  C  C4  1  0.50008300  0.99994300  0.49980900  1
  C  C5  1  0.50030200  0.50015900  0.49972300  1
  C  C6  1  0.50055800  0.99986400  0.00042500  1
  C  C7  1  0.49969000  0.50015000  0.00019200  1
  C  C8  1  0.77898900  0.24991300  0.25004300  1
  C  C9  1  0.77889800  0.24992400  0.75010400  1
  C  C10  1  0.81927500  0.74870300  0.00164600  1
  C  C11  1  0.81937100  0.75104000  0.49826000  1
  Ni  Ni12  1  0.26979400  0.53200400  0.99844100  1
  Ni  Ni13  1  0.27010700  0.96625000  0.00305800  1
  Ni  Ni14  1  0.27057100  0.96824900  0.50249900  1
  Ni  Ni15  1  0.26969700  0.53408800  0.49604100  1
  Ni  Ni16  1  0.72883800  0.03374300  0.50151500  1
  Ni  Ni17  1  0.72921100  0.03232500  0.00109600  1
  Ni  Ni18  1  0.72922400  0.46768100  0.49947300  1
  Ni  Ni19  1  0.72859000  0.46618600  0.99798800  1
  Cu  Cu20  1  0.01826500  0.25575100  0.24994600  1
  Cu  Cu21  1  0.01898300  0.24436700  0.74985200  1
  Cu  Cu22  1  0.48714800  0.25016400  0.75001200  1
  Cu  Cu23  1  0.48823500  0.24997000  0.25002400  1
  Cu  Cu24  1  0.51374100  0.74986800  0.25002400  1
  Cu  Cu25  1  0.50791700  0.75006800  0.74999300  1
  Cu  Cu26  1  0.97811400  0.75593300  0.24994100  1
  Cu  Cu27  1  0.98162800  0.74326500  0.75026600  1
