# generated using pymatgen
data_Cu8Ni2C5
_symmetry_space_group_name_H-M   'P 1'
_cell_length_a   7.72014300
_cell_length_b   9.99772800
_cell_length_c   11.96251600
_cell_angle_alpha   90.00000000
_cell_angle_beta   90.00000000
_cell_angle_gamma   90.00000000
_symmetry_Int_Tables_number   1
_chemical_formula_structural   Cu8Ni2C5
_chemical_formula_sum   'Cu32 Ni8 C20'
_cell_volume   923.31351709
_cell_formula_units_Z   4
loop_
 _symmetry_equiv_pos_site_id
 _symmetry_equiv_pos_as_xyz
  1  'x, y, z'
loop_
 _atom_site_type_symbol
 _atom_site_label
 _atom_site_symmetry_multiplicity
 _atom_site_fract_x
 _atom_site_fract_y
 _atom_site_fract_z
 _atom_site_occupancy
  C  C0  1  0.00000000  0.23130000  0.34948800  1
  C  C1  1  0.00000000  0.76870000  0.65051200  1
  C  C2  1  0.50000000  0.26870000  0.84948800  1
  C  C3  1  0.50000000  0.73130000  0.15051200  1
  C  C4  1  0.00000000  0.70750800  0.15991800  1
  C  C5  1  0.00000000  0.29249200  0.84008200  1
  C  C6  1  0.50000000  0.79249200  0.65991800  1
  C  C7  1  0.50000000  0.20750800  0.34008200  1
  C  C8  1  0.25015700  0.36484400  0.08514500  1
  C  C9  1  0.74984300  0.63515600  0.91485500  1
  C  C10  1  0.25015700  0.63515600  0.91485500  1
  C  C11  1  0.24984300  0.13515600  0.58514500  1
  C  C12  1  0.74984300  0.36484400  0.08514500  1
  C  C13  1  0.75015700  0.86484400  0.41485500  1
  C  C14  1  0.24984300  0.86484400  0.41485500  1
  C  C15  1  0.75015700  0.13515600  0.58514500  1
  C  C16  1  0.21279000  0.00000000  0.00000000  1
  C  C17  1  0.78721000  0.00000000  0.00000000  1
  C  C18  1  0.28721000  0.50000000  0.50000000  1
  C  C19  1  0.71279000  0.50000000  0.50000000  1
  Ni  Ni20  1  0.00000000  0.01696200  0.15362900  1
  Ni  Ni21  1  0.00000000  0.98303800  0.84637100  1
  Ni  Ni22  1  0.50000000  0.48303800  0.65362900  1
  Ni  Ni23  1  0.50000000  0.51696200  0.34637100  1
  Ni  Ni24  1  0.00000000  0.51954600  0.36554900  1
  Ni  Ni25  1  0.00000000  0.48045400  0.63445100  1
  Ni  Ni26  1  0.50000000  0.98045400  0.86554900  1
  Ni  Ni27  1  0.50000000  0.01954600  0.13445100  1
  Cu  Cu28  1  0.00000000  0.36679800  0.05133200  1
  Cu  Cu29  1  0.00000000  0.63320200  0.94866800  1
  Cu  Cu30  1  0.50000000  0.13320200  0.55133200  1
  Cu  Cu31  1  0.50000000  0.86679800  0.44866800  1
  Cu  Cu32  1  0.24850800  0.28629500  0.22590000  1
  Cu  Cu33  1  0.75149200  0.71370500  0.77410000  1
  Cu  Cu34  1  0.24850800  0.71370500  0.77410000  1
  Cu  Cu35  1  0.25149200  0.21370500  0.72590000  1
  Cu  Cu36  1  0.75149200  0.28629500  0.22590000  1
  Cu  Cu37  1  0.74850800  0.78629500  0.27410000  1
  Cu  Cu38  1  0.25149200  0.78629500  0.27410000  1
  Cu  Cu39  1  0.74850800  0.21370500  0.72590000  1
  Cu  Cu40  1  0.00000000  0.14864600  0.55012500  1
  Cu  Cu41  1  0.00000000  0.85135400  0.44987500  1
  Cu  Cu42  1  0.50000000  0.35135400  0.05012500  1
  Cu  Cu43  1  0.50000000  0.64864600  0.94987500  1
  Cu  Cu44  1  0.26337600  0.30218900  0.47495600  1
  Cu  Cu45  1  0.73662400  0.69781100  0.52504400  1
  Cu  Cu46  1  0.26337600  0.69781100  0.52504400  1
  Cu  Cu47  1  0.23662400  0.19781100  0.97495600  1
  Cu  Cu48  1  0.73662400  0.30218900  0.47495600  1
  Cu  Cu49  1  0.76337600  0.80218900  0.02504400  1
  Cu  Cu50  1  0.23662400  0.80218900  0.02504400  1
  Cu  Cu51  1  0.76337600  0.19781100  0.97495600  1
  Cu  Cu52  1  0.24435500  0.05628500  0.39478700  1
  Cu  Cu53  1  0.75564500  0.94371500  0.60521300  1
  Cu  Cu54  1  0.24435500  0.94371500  0.60521300  1
  Cu  Cu55  1  0.25564500  0.44371500  0.89478700  1
  Cu  Cu56  1  0.75564500  0.05628500  0.39478700  1
  Cu  Cu57  1  0.74435500  0.55628500  0.10521300  1
  Cu  Cu58  1  0.25564500  0.55628500  0.10521300  1
  Cu  Cu59  1  0.74435500  0.44371500  0.89478700  1
