# generated using pymatgen
data_CuNi2C5
_symmetry_space_group_name_H-M   'P 1'
_cell_length_a   6.68799800
_cell_length_b   8.15296900
_cell_length_c   13.95563100
_cell_angle_alpha   90.00000000
_cell_angle_beta   90.00000000
_cell_angle_gamma   90.00000000
_symmetry_Int_Tables_number   1
_chemical_formula_structural   CuNi2C5
_chemical_formula_sum   'Cu4 Ni8 C20'
_cell_volume   760.95925487
_cell_formula_units_Z   4
loop_
 _symmetry_equiv_pos_site_id
 _symmetry_equiv_pos_as_xyz
  1  'x, y, z'
loop_
 _atom_site_type_symbol
 _atom_site_label
 _atom_site_symmetry_multiplicity
 _atom_site_fract_x
 _atom_site_fract_y
 _atom_site_fract_z
 _atom_site_occupancy
  C  C0  1  0.79511600  0.01330400  0.15778600  1
  C  C1  1  0.29511600  0.98669600  0.84221400  1
  C  C2  1  0.29511600  0.51330400  0.34221400  1
  C  C3  1  0.79511600  0.48669600  0.65778600  1
  Ni  Ni4  1  0.28356300  0.26165000  0.07544900  1
  Ni  Ni5  1  0.78356300  0.73835000  0.92455100  1
  Ni  Ni6  1  0.78356300  0.76165000  0.42455100  1
  Ni  Ni7  1  0.28356300  0.23835000  0.57544900  1
  Ni  Ni8  1  0.80216600  0.50079100  0.15895200  1
  Ni  Ni9  1  0.30216600  0.49920900  0.84104800  1
  Ni  Ni10  1  0.30216600  0.00079100  0.34104800  1
  Ni  Ni11  1  0.80216600  0.99920900  0.65895200  1
  Cu  Cu12  1  0.78854100  0.24095800  0.90925100  1
  Cu  Cu13  1  0.28854100  0.75904200  0.09074900  1
  Cu  Cu14  1  0.28854100  0.74095800  0.59074900  1
  Cu  Cu15  1  0.78854100  0.25904200  0.40925100  1
  C  C16  1  0.67074500  0.25821700  0.06021100  1
  C  C17  1  0.17074500  0.74178300  0.93978900  1
  C  C18  1  0.17074500  0.75821700  0.43978900  1
  C  C19  1  0.67074500  0.24178300  0.56021100  1
  C  C20  1  0.67897500  0.01172500  0.83567200  1
  C  C21  1  0.17897500  0.98827500  0.16432800  1
  C  C22  1  0.17897500  0.51172500  0.66432800  1
  C  C23  1  0.67897500  0.48827500  0.33567200  1
  C  C24  1  0.12544800  0.24432700  0.90743200  1
  C  C25  1  0.62544800  0.75567300  0.09256800  1
  C  C26  1  0.62544800  0.74432700  0.59256800  1
  C  C27  1  0.12544800  0.25567300  0.40743200  1
  C  C28  1  0.68133600  0.47141300  0.83475300  1
  C  C29  1  0.18133600  0.52858700  0.16524700  1
  C  C30  1  0.18133600  0.97141300  0.66524700  1
  C  C31  1  0.68133600  0.02858700  0.33475300  1
