# generated using pymatgen
data_CuNi3C20
_symmetry_space_group_name_H-M   'P 1'
_cell_length_a   5.58104957
_cell_length_b   5.58109554
_cell_length_c   20.37150500
_cell_angle_alpha   90.00003644
_cell_angle_beta   89.99999602
_cell_angle_gamma   90.00050089
_symmetry_Int_Tables_number   1
_chemical_formula_structural   CuNi3C20
_chemical_formula_sum   'Cu2 Ni6 C40'
_cell_volume   634.53919280
_cell_formula_units_Z   2
loop_
 _symmetry_equiv_pos_site_id
 _symmetry_equiv_pos_as_xyz
  1  'x, y, z'
loop_
 _atom_site_type_symbol
 _atom_site_label
 _atom_site_symmetry_multiplicity
 _atom_site_fract_x
 _atom_site_fract_y
 _atom_site_fract_z
 _atom_site_occupancy
  C  C0  1  0.49999800  0.99999700  0.18630200  1
  C  C1  1  0.00000300  0.50000000  0.18628700  1
  C  C2  1  0.00000100  0.00000100  0.68237000  1
  C  C3  1  0.50000000  0.50000300  0.68236700  1
  C  C4  1  0.00000400  0.00000500  0.31938900  1
  C  C5  1  0.50000000  0.50000100  0.31938900  1
  C  C6  1  0.49999900  0.99999600  0.81512800  1
  C  C7  1  0.99999700  0.49999900  0.81512800  1
  C  C8  1  0.49999600  0.99999800  0.00076200  1
  C  C9  1  0.99999700  0.49999300  0.00076900  1
  C  C10  1  0.00000000  0.00000000  0.49626400  1
  C  C11  1  0.50000300  0.49999800  0.49626500  1
  Ni  Ni12  1  0.99999700  0.99999100  0.90219900  1
  Ni  Ni13  1  0.49999400  0.49999500  0.90219900  1
  Ni  Ni14  1  0.99999800  0.99999600  0.09944900  1
  Ni  Ni15  1  0.49999400  0.49999800  0.09944900  1
  Ni  Ni16  1  0.49999900  0.00000000  0.59595200  1
  Ni  Ni17  1  0.00000100  0.50000200  0.59591600  1
  Cu  Cu18  1  0.99999600  0.49999400  0.40246300  1
  Cu  Cu19  1  0.50001600  0.99997800  0.40249400  1
  C  C20  1  0.50000000  0.00000600  0.30770900  1
  C  C21  1  0.00000700  0.49999300  0.30766300  1
  C  C22  1  0.99999800  0.00000200  0.80530300  1
  C  C23  1  0.50000200  0.50000100  0.80530200  1
  C  C24  1  0.99999600  0.00000400  0.19563100  1
  C  C25  1  0.50000100  0.50000500  0.19563100  1
  C  C26  1  0.50000200  0.00000100  0.69209000  1
  C  C27  1  0.99999600  0.50000300  0.69208600  1
  C  C28  1  0.00000600  0.99999600  0.00057500  1
  C  C29  1  0.49999700  0.50000700  0.00057600  1
  C  C30  1  0.50000100  0.00000500  0.49785400  1
  C  C31  1  0.00000100  0.50000300  0.49787100  1
  C  C32  1  0.23717800  0.26284300  0.40423600  1
  C  C33  1  0.76282300  0.73715900  0.40423600  1
  C  C34  1  0.26278100  0.76280400  0.40423300  1
  C  C35  1  0.73721700  0.23720200  0.40423300  1
  C  C36  1  0.25001400  0.75001500  0.90340500  1
  C  C37  1  0.74998800  0.24998900  0.90340600  1
  C  C38  1  0.24999600  0.25000600  0.90340600  1
  C  C39  1  0.75000400  0.74999800  0.90340600  1
  C  C40  1  0.24999100  0.74999500  0.09787600  1
  C  C41  1  0.75001100  0.25001100  0.09787500  1
  C  C42  1  0.25001500  0.24998800  0.09787600  1
  C  C43  1  0.74998600  0.75001700  0.09787600  1
  C  C44  1  0.25032200  0.24967700  0.59477500  1
  C  C45  1  0.74967600  0.75032200  0.59477500  1
  C  C46  1  0.24970200  0.74970900  0.59477800  1
  C  C47  1  0.75029700  0.25029600  0.59477900  1
