# generated using pymatgen
data_Cu2Ni2C11
_symmetry_space_group_name_H-M   'P 1'
_cell_length_a   5.88354600
_cell_length_b   7.99738200
_cell_length_c   8.43769700
_cell_angle_alpha   90.00000000
_cell_angle_beta   90.00000000
_cell_angle_gamma   90.00000000
_symmetry_Int_Tables_number   1
_chemical_formula_structural   Cu2Ni2C11
_chemical_formula_sum   'Cu4 Ni4 C22'
_cell_volume   397.01866058
_cell_formula_units_Z   2
loop_
 _symmetry_equiv_pos_site_id
 _symmetry_equiv_pos_as_xyz
  1  'x, y, z'
loop_
 _atom_site_type_symbol
 _atom_site_label
 _atom_site_symmetry_multiplicity
 _atom_site_fract_x
 _atom_site_fract_y
 _atom_site_fract_z
 _atom_site_occupancy
  Ni  Ni0  1  0.25685900  0.00000000  0.50000000  1
  Ni  Ni1  1  0.74314100  0.50000000  0.00000000  1
  Ni  Ni2  1  0.74314100  0.00000000  0.50000000  1
  Ni  Ni3  1  0.25685900  0.50000000  0.00000000  1
  Cu  Cu4  1  0.50000000  0.84802400  0.16636700  1
  Cu  Cu5  1  0.50000000  0.15197600  0.83363300  1
  Cu  Cu6  1  0.50000000  0.34802400  0.33363300  1
  Cu  Cu7  1  0.50000000  0.65197600  0.66636700  1
  C  C8  1  0.00000000  0.67459000  0.33121300  1
  C  C9  1  0.00000000  0.32541000  0.66878700  1
  C  C10  1  0.00000000  0.17459000  0.16878700  1
  C  C11  1  0.00000000  0.82541000  0.83121300  1
  C  C12  1  0.24263400  0.87391000  0.30345600  1
  C  C13  1  0.24263400  0.12609000  0.69654400  1
  C  C14  1  0.75736600  0.37391000  0.19654400  1
  C  C15  1  0.75736600  0.62609000  0.80345600  1
  C  C16  1  0.75736600  0.12609000  0.69654400  1
  C  C17  1  0.75736600  0.87391000  0.30345600  1
  C  C18  1  0.24263400  0.62609000  0.80345600  1
  C  C19  1  0.24263400  0.37391000  0.19654400  1
  C  C20  1  0.00000000  0.64219200  0.07025700  1
  C  C21  1  0.00000000  0.35780800  0.92974300  1
  C  C22  1  0.00000000  0.14219200  0.42974300  1
  C  C23  1  0.00000000  0.85780800  0.57025700  1
  C  C24  1  0.50000000  0.62773000  0.08689400  1
  C  C25  1  0.50000000  0.37227000  0.91310600  1
  C  C26  1  0.50000000  0.12773000  0.41310600  1
  C  C27  1  0.50000000  0.87227000  0.58689400  1
  C  C28  1  0.50000000  0.50000000  0.50000000  1
  C  C29  1  0.50000000  0.00000000  0.00000000  1
