# generated using pymatgen
data_Cu8Ni7C24
_symmetry_space_group_name_H-M   'P 1'
_cell_length_a   10.43648705
_cell_length_b   10.43648705
_cell_length_c   5.36921110
_cell_angle_alpha   84.11872288
_cell_angle_beta   84.11872288
_cell_angle_gamma   124.37147576
_symmetry_Int_Tables_number   1
_chemical_formula_structural   Cu8Ni7C24
_chemical_formula_sum   'Cu8 Ni7 C24'
_cell_volume   470.92095299
_cell_formula_units_Z   1
loop_
 _symmetry_equiv_pos_site_id
 _symmetry_equiv_pos_as_xyz
  1  'x, y, z'
loop_
 _atom_site_type_symbol
 _atom_site_label
 _atom_site_symmetry_multiplicity
 _atom_site_fract_x
 _atom_site_fract_y
 _atom_site_fract_z
 _atom_site_occupancy
  Ni  Ni0  1  0.74202300  0.25797700  0.50000000  1
  Ni  Ni1  1  0.25797700  0.74202300  0.50000000  1
  Ni  Ni2  1  0.82131500  0.17868500  0.00000000  1
  Ni  Ni3  1  0.17868500  0.82131500  0.00000000  1
  Ni  Ni4  1  0.00000000  0.00000000  0.00000000  1
  Ni  Ni5  1  0.91976500  0.08023500  0.50000000  1
  Ni  Ni6  1  0.08023500  0.91976500  0.50000000  1
  Cu  Cu7  1  0.62695700  0.79283300  0.27314200  1
  Cu  Cu8  1  0.37304300  0.20716700  0.72685800  1
  Cu  Cu9  1  0.20716700  0.37304300  0.72685800  1
  Cu  Cu10  1  0.79283300  0.62695700  0.27314200  1
  Cu  Cu11  1  0.46388100  0.13016500  0.22223900  1
  Cu  Cu12  1  0.53611900  0.86983500  0.77776100  1
  Cu  Cu13  1  0.86983500  0.53611900  0.77776100  1
  Cu  Cu14  1  0.13016500  0.46388100  0.22223900  1
  C  C15  1  0.46851400  0.23192600  0.44428200  1
  C  C16  1  0.53148600  0.76807400  0.55571800  1
  C  C17  1  0.76807400  0.53148600  0.55571800  1
  C  C18  1  0.23192600  0.46851400  0.44428200  1
  C  C19  1  0.65410900  0.65410900  0.27342500  1
  C  C20  1  0.34589100  0.34589100  0.72657500  1
  C  C21  1  0.90073300  0.90073300  0.72163000  1
  C  C22  1  0.09926700  0.09926700  0.27837000  1
  C  C23  1  0.51843900  0.78165800  0.06459900  1
  C  C24  1  0.48156100  0.21834200  0.93540100  1
  C  C25  1  0.21834200  0.48156100  0.93540100  1
  C  C26  1  0.78165800  0.51843900  0.06459900  1
  C  C27  1  0.62355200  0.13752300  0.23387700  1
  C  C28  1  0.37644800  0.86247700  0.76612300  1
  C  C29  1  0.86247700  0.37644800  0.76612300  1
  C  C30  1  0.13752300  0.62355200  0.23387700  1
  C  C31  1  0.79755000  0.96866100  0.20554500  1
  C  C32  1  0.20245000  0.03133900  0.79445500  1
  C  C33  1  0.03133900  0.20245000  0.79445500  1
  C  C34  1  0.96866100  0.79755000  0.20554500  1
  C  C35  1  0.29495600  0.95280700  0.29078000  1
  C  C36  1  0.70504400  0.04719300  0.70922000  1
  C  C37  1  0.04719300  0.70504400  0.70922000  1
  C  C38  1  0.95280700  0.29495600  0.29078000  1
