# generated using pymatgen
data_Cu5Ni3C
_symmetry_space_group_name_H-M   'P 1'
_cell_length_a   3.93561840
_cell_length_b   22.75742827
_cell_length_c   22.75742827
_cell_angle_alpha   119.99999804
_cell_angle_beta   90.00000000
_cell_angle_gamma   90.00000000
_symmetry_Int_Tables_number   1
_chemical_formula_structural   Cu5Ni3C
_chemical_formula_sum   'Cu60 Ni36 C12'
_cell_volume   1765.18402156
_cell_formula_units_Z   12
loop_
 _symmetry_equiv_pos_site_id
 _symmetry_equiv_pos_as_xyz
  1  'x, y, z'
loop_
 _atom_site_type_symbol
 _atom_site_label
 _atom_site_symmetry_multiplicity
 _atom_site_fract_x
 _atom_site_fract_y
 _atom_site_fract_z
 _atom_site_occupancy
  C  C0  1  0.75000000  0.73457056  0.77018908  1
  C  C1  1  0.25000000  0.26542944  0.22981092  1
  C  C2  1  0.75000000  0.03561852  0.26542944  1
  C  C3  1  0.25000000  0.96438148  0.73457056  1
  C  C4  1  0.75000000  0.22981092  0.96438148  1
  C  C5  1  0.25000000  0.77018908  0.03561852  1
  C  C6  1  0.75000000  0.38415618  0.52462177  1
  C  C7  1  0.25000000  0.61584382  0.47537823  1
  C  C8  1  0.75000000  0.14046559  0.61584382  1
  C  C9  1  0.25000000  0.85953441  0.38415618  1
  C  C10  1  0.75000000  0.47537823  0.85953441  1
  C  C11  1  0.25000000  0.52462177  0.14046559  1
  Ni  Ni12  1  0.75000000  0.88894869  0.06286583  1
  Ni  Ni13  1  0.25000000  0.11105131  0.93713417  1
  Ni  Ni14  1  0.75000000  0.17391715  0.11105131  1
  Ni  Ni15  1  0.25000000  0.82608285  0.88894869  1
  Ni  Ni16  1  0.75000000  0.93713417  0.82608285  1
  Ni  Ni17  1  0.25000000  0.06286583  0.17391715  1
  Ni  Ni18  1  0.75000000  0.63839358  0.16502238  1
  Ni  Ni19  1  0.25000000  0.36160642  0.83497762  1
  Ni  Ni20  1  0.75000000  0.52662880  0.36160642  1
  Ni  Ni21  1  0.25000000  0.47337120  0.63839358  1
  Ni  Ni22  1  0.75000000  0.83497762  0.47337120  1
  Ni  Ni23  1  0.25000000  0.16502238  0.52662880  1
  Ni  Ni24  1  0.75000000  0.77907108  0.26692295  1
  Ni  Ni25  1  0.25000000  0.22092892  0.73307705  1
  Ni  Ni26  1  0.75000000  0.48785187  0.22092892  1
  Ni  Ni27  1  0.25000000  0.51214813  0.77907108  1
  Ni  Ni28  1  0.75000000  0.73307705  0.51214813  1
  Ni  Ni29  1  0.25000000  0.26692295  0.48785187  1
  Ni  Ni30  1  0.75000000  0.73940470  0.12402300  1
  Ni  Ni31  1  0.25000000  0.26059530  0.87597700  1
  Ni  Ni32  1  0.75000000  0.38461831  0.26059530  1
  Ni  Ni33  1  0.25000000  0.61538169  0.73940470  1
  Ni  Ni34  1  0.75000000  0.87597700  0.61538169  1
  Ni  Ni35  1  0.25000000  0.12402300  0.38461831  1
  Ni  Ni36  1  0.75000000  0.98437597  0.41488825  1
  Ni  Ni37  1  0.25000000  0.01562403  0.58511175  1
  Ni  Ni38  1  0.75000000  0.43051228  0.01562403  1
  Ni  Ni39  1  0.25000000  0.56948772  0.98437597  1
  Ni  Ni40  1  0.75000000  0.58511175  0.56948772  1
  Ni  Ni41  1  0.25000000  0.41488825  0.43051228  1
  Ni  Ni42  1  0.75000000  0.68317377  0.91773658  1
  Ni  Ni43  1  0.25000000  0.31682623  0.08226342  1
  Ni  Ni44  1  0.75000000  0.23456281  0.31682623  1
  Ni  Ni45  1  0.25000000  0.76543719  0.68317377  1
  Ni  Ni46  1  0.75000000  0.08226342  0.76543719  1
  Ni  Ni47  1  0.25000000  0.91773658  0.23456281  1
  Cu  Cu48  1  0.75000000  0.74460122  0.35361919  1
  Cu  Cu49  1  0.25000000  0.25539878  0.64638081  1
  Cu  Cu50  1  0.75000000  0.60901797  0.25539878  1
  Cu  Cu51  1  0.25000000  0.39098203  0.74460122  1
  Cu  Cu52  1  0.75000000  0.64638081  0.39098203  1
  Cu  Cu53  1  0.25000000  0.35361919  0.60901797  1
  Cu  Cu54  1  0.75000000  0.44680804  0.69652908  1
  Cu  Cu55  1  0.25000000  0.55319196  0.30347092  1
  Cu  Cu56  1  0.75000000  0.24972104  0.55319197  1
  Cu  Cu57  1  0.25000000  0.75027896  0.44680803  1
  Cu  Cu58  1  0.75000000  0.30347092  0.75027896  1
  Cu  Cu59  1  0.25000000  0.69652908  0.24972104  1
  Cu  Cu60  1  0.75000000  0.85983877  0.15447307  1
  Cu  Cu61  1  0.25000000  0.14016123  0.84552693  1
  Cu  Cu62  1  0.75000000  0.29463430  0.14016123  1
  Cu  Cu63  1  0.25000000  0.70536570  0.85983877  1
  Cu  Cu64  1  0.75000000  0.84552693  0.70536570  1
  Cu  Cu65  1  0.25000000  0.15447307  0.29463430  1
  Cu  Cu66  1  0.75000000  0.95777785  0.50622584  1
  Cu  Cu67  1  0.25000000  0.04222215  0.49377416  1
  Cu  Cu68  1  0.75000000  0.54844798  0.04222215  1
  Cu  Cu69  1  0.25000000  0.45155202  0.95777785  1
  Cu  Cu70  1  0.75000000  0.49377416  0.45155202  1
  Cu  Cu71  1  0.25000000  0.50622584  0.54844798  1
  Cu  Cu72  1  0.75000000  0.59157402  0.79839452  1
  Cu  Cu73  1  0.25000000  0.40842598  0.20160548  1
  Cu  Cu74  1  0.75000000  0.20682050  0.40842598  1
  Cu  Cu75  1  0.25000000  0.79317950  0.59157402  1
  Cu  Cu76  1  0.75000000  0.20160548  0.79317950  1
  Cu  Cu77  1  0.25000000  0.79839452  0.20682050  1
  Cu  Cu78  1  0.75000000  0.80218454  0.94343792  1
  Cu  Cu79  1  0.25000000  0.19781546  0.05656208  1
  Cu  Cu80  1  0.75000000  0.14125338  0.19781546  1
  Cu  Cu81  1  0.25000000  0.85874662  0.80218454  1
  Cu  Cu82  1  0.75000000  0.05656208  0.85874662  1
  Cu  Cu83  1  0.25000000  0.94343792  0.14125338  1
  Cu  Cu84  1  0.75000000  0.89955265  0.29434090  1
  Cu  Cu85  1  0.25000000  0.10044735  0.70565910  1
  Cu  Cu86  1  0.75000000  0.39478824  0.10044735  1
  Cu  Cu87  1  0.25000000  0.60521176  0.89955265  1
  Cu  Cu88  1  0.75000000  0.70565910  0.60521176  1
  Cu  Cu89  1  0.25000000  0.29434090  0.39478824  1
  Cu  Cu90  1  0.75000000  0.91092438  0.91766800  1
  Cu  Cu91  1  0.25000000  0.08907562  0.08233200  1
  Cu  Cu92  1  0.75000000  0.00674362  0.08907562  1
  Cu  Cu93  1  0.25000000  0.99325638  0.91092438  1
  Cu  Cu94  1  0.75000000  0.08233200  0.99325638  1
  Cu  Cu95  1  0.25000000  0.91766800  0.00674362  1
  Cu  Cu96  1  0.75000000  0.55168807  0.65743491  1
  Cu  Cu97  1  0.25000000  0.44831193  0.34256509  1
  Cu  Cu98  1  0.75000000  0.10574684  0.44831193  1
  Cu  Cu99  1  0.25000000  0.89425316  0.55168807  1
  Cu  Cu100  1  0.75000000  0.34256509  0.89425316  1
  Cu  Cu101  1  0.25000000  0.65743491  0.10574684  1
  Cu  Cu102  1  0.75000000  0.64832365  0.00438643  1
  Cu  Cu103  1  0.25000000  0.35167635  0.99561357  1
  Cu  Cu104  1  0.75000000  0.35606278  0.35167635  1
  Cu  Cu105  1  0.25000000  0.64393722  0.64832365  1
  Cu  Cu106  1  0.75000000  0.99561357  0.64393722  1
  Cu  Cu107  1  0.25000000  0.00438643  0.35606278  1
