# generated using pymatgen
data_Cu7NiC5
_symmetry_space_group_name_H-M   'P 1'
_cell_length_a   7.29195042
_cell_length_b   7.29195042
_cell_length_c   7.29195118
_cell_angle_alpha   61.12404566
_cell_angle_beta   61.12404566
_cell_angle_gamma   61.12405060
_symmetry_Int_Tables_number   1
_chemical_formula_structural   Cu7NiC5
_chemical_formula_sum   'Cu14 Ni2 C10'
_cell_volume   281.10343040
_cell_formula_units_Z   2
loop_
 _symmetry_equiv_pos_site_id
 _symmetry_equiv_pos_as_xyz
  1  'x, y, z'
loop_
 _atom_site_type_symbol
 _atom_site_label
 _atom_site_symmetry_multiplicity
 _atom_site_fract_x
 _atom_site_fract_y
 _atom_site_fract_z
 _atom_site_occupancy
  C  C0  1  0.00000000  0.00000000  0.00000000  1
  C  C1  1  0.00000000  0.00000000  0.50000000  1
  C  C2  1  0.50000000  0.00000000  0.00000000  1
  C  C3  1  0.00000000  0.50000000  0.00000000  1
  C  C4  1  0.69344300  0.28239800  0.69344300  1
  C  C5  1  0.69344300  0.69344300  0.28239800  1
  C  C6  1  0.28239800  0.69344300  0.69344300  1
  C  C7  1  0.30655700  0.71760200  0.30655700  1
  C  C8  1  0.30655700  0.30655700  0.71760200  1
  C  C9  1  0.71760200  0.30655700  0.30655700  1
  Ni  Ni10  1  0.69453200  0.69453200  0.69453200  1
  Ni  Ni11  1  0.30546800  0.30546800  0.30546800  1
  Cu  Cu12  1  0.38858300  0.38858300  0.38858300  1
  Cu  Cu13  1  0.61141700  0.61141700  0.61141700  1
  Cu  Cu14  1  0.83323800  0.50254100  0.83323800  1
  Cu  Cu15  1  0.83323800  0.83323800  0.50254100  1
  Cu  Cu16  1  0.50254100  0.83323800  0.83323800  1
  Cu  Cu17  1  0.16676200  0.49745900  0.16676200  1
  Cu  Cu18  1  0.16676200  0.16676200  0.49745900  1
  Cu  Cu19  1  0.49745900  0.16676200  0.16676200  1
  Cu  Cu20  1  0.73650100  0.12048100  0.73650100  1
  Cu  Cu21  1  0.73650100  0.73650100  0.12048100  1
  Cu  Cu22  1  0.12048100  0.73650100  0.73650100  1
  Cu  Cu23  1  0.26349900  0.87951900  0.26349900  1
  Cu  Cu24  1  0.26349900  0.26349900  0.87951900  1
  Cu  Cu25  1  0.87951900  0.26349900  0.26349900  1
