# generated using pymatgen
data_Cu23(Ni4C3)2
_symmetry_space_group_name_H-M   'P 1'
_cell_length_a   11.61749745
_cell_length_b   14.06383269
_cell_length_c   14.50613404
_cell_angle_alpha   90.00000000
_cell_angle_beta   90.00000000
_cell_angle_gamma   102.78133852
_symmetry_Int_Tables_number   1
_chemical_formula_structural   Cu23(Ni4C3)2
_chemical_formula_sum   'Cu92 Ni32 C24'
_cell_volume   2311.37926709
_cell_formula_units_Z   4
loop_
 _symmetry_equiv_pos_site_id
 _symmetry_equiv_pos_as_xyz
  1  'x, y, z'
loop_
 _atom_site_type_symbol
 _atom_site_label
 _atom_site_symmetry_multiplicity
 _atom_site_fract_x
 _atom_site_fract_y
 _atom_site_fract_z
 _atom_site_occupancy
  C  C0  1  0.71569996  0.12695388  0.89567446  1
  C  C1  1  0.28430004  0.37304612  0.39567446  1
  C  C2  1  0.28430004  0.87304612  0.10432554  1
  C  C3  1  0.71569996  0.62695388  0.60432554  1
  C  C4  1  0.50614055  0.04862925  0.63963955  1
  C  C5  1  0.49385945  0.45137075  0.13963955  1
  C  C6  1  0.49385945  0.95137075  0.36036045  1
  C  C7  1  0.50614055  0.54862925  0.86036045  1
  C  C8  1  0.96809746  0.78817799  0.79450348  1
  C  C9  1  0.03190254  0.71182201  0.29450348  1
  C  C10  1  0.03190254  0.21182201  0.20549652  1
  C  C11  1  0.96809746  0.28817799  0.70549652  1
  C  C12  1  0.84850120  0.08159724  0.45251795  1
  C  C13  1  0.15149880  0.41840276  0.95251795  1
  C  C14  1  0.15149880  0.91840276  0.54748205  1
  C  C15  1  0.84850120  0.58159724  0.04748205  1
  C  C16  1  0.39244556  0.11015993  0.90219055  1
  C  C17  1  0.60755444  0.38984007  0.40219055  1
  C  C18  1  0.60755444  0.88984007  0.09780945  1
  C  C19  1  0.39244556  0.61015993  0.59780945  1
  C  C20  1  0.50573796  0.90391920  0.86627739  1
  C  C21  1  0.49426204  0.59608080  0.36627739  1
  C  C22  1  0.49426204  0.09608080  0.13372261  1
  C  C23  1  0.50573796  0.40391920  0.63372261  1
  Ni  Ni24  1  0.38801465  0.30944246  0.95127802  1
  Ni  Ni25  1  0.61198535  0.19055754  0.45127802  1
  Ni  Ni26  1  0.61198535  0.69055754  0.04872198  1
  Ni  Ni27  1  0.38801465  0.80944246  0.54872198  1
  Ni  Ni28  1  0.25629054  0.31406969  0.62652602  1
  Ni  Ni29  1  0.74370946  0.18593031  0.12652602  1
  Ni  Ni30  1  0.74370946  0.68593031  0.37347398  1
  Ni  Ni31  1  0.25629054  0.81406969  0.87347398  1
  Ni  Ni32  1  0.71614648  0.38394612  0.73234786  1
  Ni  Ni33  1  0.28385352  0.11605388  0.23234786  1
  Ni  Ni34  1  0.28385352  0.61605388  0.26765214  1
  Ni  Ni35  1  0.71614648  0.88394612  0.76765214  1
  Ni  Ni36  1  0.65817510  0.27768990  0.70014240  1
  Ni  Ni37  1  0.34182490  0.22231010  0.20014240  1
  Ni  Ni38  1  0.34182490  0.72231010  0.29985760  1
  Ni  Ni39  1  0.65817510  0.77768990  0.79985760  1
  Ni  Ni40  1  0.27912209  0.33708165  0.73102083  1
  Ni  Ni41  1  0.72087791  0.16291835  0.23102083  1
  Ni  Ni42  1  0.72087791  0.66291835  0.26897917  1
  Ni  Ni43  1  0.27912209  0.83708165  0.76897917  1
  Ni  Ni44  1  0.16074063  0.02420164  0.82762811  1
  Ni  Ni45  1  0.83925937  0.47579836  0.32762811  1
  Ni  Ni46  1  0.83925937  0.97579836  0.17237189  1
  Ni  Ni47  1  0.16074063  0.52420164  0.67237189  1
  Ni  Ni48  1  0.51761007  0.81101608  0.57561924  1
  Ni  Ni49  1  0.48238993  0.68898392  0.07561924  1
  Ni  Ni50  1  0.48238993  0.18898392  0.42438076  1
  Ni  Ni51  1  0.51761007  0.31101608  0.92438076  1
  Ni  Ni52  1  0.23154852  0.07603450  0.74296007  1
  Ni  Ni53  1  0.76845148  0.42396550  0.24296007  1
  Ni  Ni54  1  0.76845148  0.92396550  0.25703993  1
  Ni  Ni55  1  0.23154852  0.57603450  0.75703993  1
  Cu  Cu56  1  0.38971090  0.86912004  0.75056885  1
  Cu  Cu57  1  0.61028910  0.63087996  0.25056885  1
  Cu  Cu58  1  0.61028910  0.13087996  0.24943115  1
  Cu  Cu59  1  0.38971090  0.36912004  0.74943115  1
  Cu  Cu60  1  0.48467233  0.02978922  0.85407150  1
  Cu  Cu61  1  0.51532767  0.47021078  0.35407150  1
  Cu  Cu62  1  0.51532767  0.97021078  0.14592850  1
  Cu  Cu63  1  0.48467233  0.52978922  0.64592850  1
  Cu  Cu64  1  0.35292005  0.83518687  0.92335147  1
  Cu  Cu65  1  0.64707995  0.66481313  0.42335147  1
  Cu  Cu66  1  0.64707995  0.16481313  0.07664853  1
  Cu  Cu67  1  0.35292005  0.33518687  0.57664853  1
  Cu  Cu68  1  0.55928055  0.77252386  0.84152562  1
  Cu  Cu69  1  0.44071945  0.72747614  0.34152562  1
  Cu  Cu70  1  0.44071945  0.22747614  0.15847438  1
  Cu  Cu71  1  0.55928055  0.27252386  0.65847438  1
  Cu  Cu72  1  0.64960302  0.94544496  0.78279036  1
  Cu  Cu73  1  0.35039698  0.55455504  0.28279036  1
  Cu  Cu74  1  0.35039698  0.05455504  0.21720964  1
  Cu  Cu75  1  0.64960302  0.44544496  0.71720964  1
  Cu  Cu76  1  0.53052601  0.22656555  0.89325802  1
  Cu  Cu77  1  0.46947399  0.27343445  0.39325802  1
  Cu  Cu78  1  0.46947399  0.77343445  0.10674198  1
  Cu  Cu79  1  0.53052601  0.72656555  0.60674198  1
  Cu  Cu80  1  0.22750625  0.02755161  0.90070556  1
  Cu  Cu81  1  0.77249375  0.47244839  0.40070556  1
  Cu  Cu82  1  0.77249375  0.97244839  0.09929444  1
  Cu  Cu83  1  0.22750625  0.52755161  0.59929444  1
  Cu  Cu84  1  0.33560628  0.12419347  0.76571611  1
  Cu  Cu85  1  0.66439372  0.37580653  0.26571611  1
  Cu  Cu86  1  0.66439372  0.87580653  0.23428389  1
  Cu  Cu87  1  0.33560628  0.62419347  0.73428389  1
  Cu  Cu88  1  0.31806550  0.22577717  0.94050691  1
  Cu  Cu89  1  0.68193450  0.27422283  0.44050691  1
  Cu  Cu90  1  0.68193450  0.77422283  0.05949309  1
  Cu  Cu91  1  0.31806550  0.72577717  0.55949309  1
  Cu  Cu92  1  0.41342758  0.07966506  0.02467126  1
  Cu  Cu93  1  0.58657242  0.42033494  0.52467126  1
  Cu  Cu94  1  0.58657242  0.92033494  0.97532874  1
  Cu  Cu95  1  0.41342758  0.57966506  0.47532874  1
  Cu  Cu96  1  0.19441457  0.32859453  0.78537764  1
  Cu  Cu97  1  0.80558543  0.17140547  0.28537764  1
  Cu  Cu98  1  0.80558543  0.67140547  0.21462236  1
  Cu  Cu99  1  0.19441457  0.82859453  0.71462236  1
  Cu  Cu100  1  0.81627123  0.40307936  0.76586734  1
  Cu  Cu101  1  0.18372877  0.09692064  0.26586734  1
  Cu  Cu102  1  0.18372877  0.59692064  0.23413266  1
  Cu  Cu103  1  0.81627123  0.90307936  0.73413266  1
  Cu  Cu104  1  0.70830934  0.20928762  0.71459395  1
  Cu  Cu105  1  0.29169066  0.29071238  0.21459395  1
  Cu  Cu106  1  0.29169066  0.79071238  0.28540605  1
  Cu  Cu107  1  0.70830934  0.70928762  0.78540605  1
  Cu  Cu108  1  0.05594584  0.48309764  0.67798642  1
  Cu  Cu109  1  0.94405416  0.01690236  0.17798642  1
  Cu  Cu110  1  0.94405416  0.51690236  0.32201358  1
  Cu  Cu111  1  0.05594584  0.98309764  0.82201358  1
  Cu  Cu112  1  0.15640563  0.28416828  0.59494574  1
  Cu  Cu113  1  0.84359437  0.21583172  0.09494574  1
  Cu  Cu114  1  0.84359437  0.71583172  0.40505426  1
  Cu  Cu115  1  0.15640563  0.78416828  0.90505426  1
  Cu  Cu116  1  0.36175787  0.38527372  0.98105083  1
  Cu  Cu117  1  0.63824213  0.11472628  0.48105083  1
  Cu  Cu118  1  0.63824213  0.61472628  0.01894917  1
  Cu  Cu119  1  0.36175787  0.88527372  0.51894917  1
  Cu  Cu120  1  0.59604770  0.38534729  0.93314715  1
  Cu  Cu121  1  0.40395230  0.11465271  0.43314715  1
  Cu  Cu122  1  0.40395230  0.61465271  0.06685285  1
  Cu  Cu123  1  0.59604770  0.88534729  0.56685285  1
  Cu  Cu124  1  0.19002357  0.06559478  0.66379181  1
  Cu  Cu125  1  0.80997643  0.43440522  0.16379181  1
  Cu  Cu126  1  0.80997643  0.93440522  0.33620819  1
  Cu  Cu127  1  0.19002357  0.56559478  0.83620819  1
  Cu  Cu128  1  0.97063166  0.09927006  0.96453858  1
  Cu  Cu129  1  0.02936834  0.40072994  0.46453858  1
  Cu  Cu130  1  0.02936834  0.90072994  0.03546142  1
  Cu  Cu131  1  0.97063166  0.59927006  0.53546142  1
  Cu  Cu132  1  0.05248383  0.16213270  0.99536980  1
  Cu  Cu133  1  0.94751617  0.33786730  0.49536980  1
  Cu  Cu134  1  0.94751617  0.83786730  0.00463020  1
  Cu  Cu135  1  0.05248383  0.66213270  0.50463020  1
  Cu  Cu136  1  0.93569356  0.07015617  0.65926664  1
  Cu  Cu137  1  0.06430644  0.42984383  0.15926664  1
  Cu  Cu138  1  0.06430644  0.92984383  0.34073336  1
  Cu  Cu139  1  0.93569356  0.57015617  0.84073336  1
  Cu  Cu140  1  0.89674710  0.32330959  0.92550383  1
  Cu  Cu141  1  0.10325290  0.17669041  0.42550383  1
  Cu  Cu142  1  0.10325290  0.67669041  0.07449617  1
  Cu  Cu143  1  0.89674710  0.82330959  0.57449617  1
  Cu  Cu144  1  0.15049993  0.11472617  0.45989347  1
  Cu  Cu145  1  0.84950007  0.38527383  0.95989347  1
  Cu  Cu146  1  0.84950007  0.88527383  0.54010653  1
  Cu  Cu147  1  0.15049993  0.61472617  0.04010653  1
