# generated using pymatgen
data_Cu3Ni17C12
_symmetry_space_group_name_H-M   'P 1'
_cell_length_a   7.93211568
_cell_length_b   7.93211568
_cell_length_c   6.60122868
_cell_angle_alpha   85.48870970
_cell_angle_beta   85.48870970
_cell_angle_gamma   67.61451388
_symmetry_Int_Tables_number   1
_chemical_formula_structural   Cu3Ni17C12
_chemical_formula_sum   'Cu3 Ni17 C12'
_cell_volume   382.31570828
_cell_formula_units_Z   1
loop_
 _symmetry_equiv_pos_site_id
 _symmetry_equiv_pos_as_xyz
  1  'x, y, z'
loop_
 _atom_site_type_symbol
 _atom_site_label
 _atom_site_symmetry_multiplicity
 _atom_site_fract_x
 _atom_site_fract_y
 _atom_site_fract_z
 _atom_site_occupancy
  C  C0  1  0.21331900  0.78668100  0.50000000  1
  C  C1  1  0.71120500  0.28879500  0.00000000  1
  C  C2  1  0.78729900  0.71172200  0.25097100  1
  C  C3  1  0.28827800  0.21270100  0.74902900  1
  C  C4  1  0.25046500  0.49928700  0.12519100  1
  C  C5  1  0.74741300  0.99948500  0.62434300  1
  C  C6  1  0.00051500  0.25258700  0.37565700  1
  C  C7  1  0.50071300  0.74953500  0.87480900  1
  C  C8  1  0.55432600  0.44567400  0.50000000  1
  C  C9  1  0.05467000  0.94533000  0.00000000  1
  C  C10  1  0.44582400  0.05445000  0.24966100  1
  C  C11  1  0.94555000  0.55417600  0.75033900  1
  Ni  Ni12  1  0.86932100  0.97535500  0.90760800  1
  Ni  Ni13  1  0.36894800  0.47450600  0.40849600  1
  Ni  Ni14  1  0.02464500  0.13067900  0.09239200  1
  Ni  Ni15  1  0.52549400  0.63105200  0.59150400  1
  Ni  Ni16  1  0.13115200  0.52506500  0.84160600  1
  Ni  Ni17  1  0.63185100  0.02441800  0.34036500  1
  Ni  Ni18  1  0.97558200  0.36814900  0.65963500  1
  Ni  Ni19  1  0.47493500  0.86884800  0.15839400  1
  Ni  Ni20  1  0.71317200  0.40433600  0.33281700  1
  Ni  Ni21  1  0.21404900  0.90359900  0.83360100  1
  Ni  Ni22  1  0.59566400  0.28682800  0.66718300  1
  Ni  Ni23  1  0.09640100  0.78595100  0.16639900  1
  Ni  Ni24  1  0.28754300  0.09767200  0.41643400  1
  Ni  Ni25  1  0.78590800  0.59682600  0.91694400  1
  Ni  Ni26  1  0.40317400  0.21409200  0.08305600  1
  Ni  Ni27  1  0.90232800  0.71245600  0.58356600  1
  Ni  Ni28  1  0.95955000  0.04045000  0.50000000  1
  Cu  Cu29  1  0.45795000  0.54205000  0.00000000  1
  Cu  Cu30  1  0.04179000  0.45903500  0.24947000  1
  Cu  Cu31  1  0.54096500  0.95821000  0.75053000  1
