# generated using pymatgen
data_Cu3NiC
_symmetry_space_group_name_H-M   'P 1'
_cell_length_a   6.33370221
_cell_length_b   6.33370221
_cell_length_c   6.33370278
_cell_angle_alpha   46.89651270
_cell_angle_beta   46.89651270
_cell_angle_gamma   46.89650692
_symmetry_Int_Tables_number   1
_chemical_formula_structural   Cu3NiC
_chemical_formula_sum   'Cu6 Ni2 C2'
_cell_volume   123.78322379
_cell_formula_units_Z   2
loop_
 _symmetry_equiv_pos_site_id
 _symmetry_equiv_pos_as_xyz
  1  'x, y, z'
loop_
 _atom_site_type_symbol
 _atom_site_label
 _atom_site_symmetry_multiplicity
 _atom_site_fract_x
 _atom_site_fract_y
 _atom_site_fract_z
 _atom_site_occupancy
  C  C0  1  0.00000000  0.00000000  0.00000000  1
  C  C1  1  0.50000000  0.50000000  0.50000000  1
  Ni  Ni2  1  0.24885700  0.24885700  0.24885700  1
  Ni  Ni3  1  0.75114300  0.75114300  0.75114300  1
  Cu  Cu4  1  0.99068600  0.25050400  0.50716500  1
  Cu  Cu5  1  0.50716500  0.99068600  0.25050400  1
  Cu  Cu6  1  0.25050400  0.50716500  0.99068600  1
  Cu  Cu7  1  0.00931400  0.74949600  0.49283500  1
  Cu  Cu8  1  0.49283500  0.00931400  0.74949600  1
  Cu  Cu9  1  0.74949600  0.49283500  0.00931400  1
