# generated using pymatgen
data_Cu5Ni2C7
_symmetry_space_group_name_H-M   'P 1'
_cell_length_a   5.40839700
_cell_length_b   10.26174000
_cell_length_c   22.35047000
_cell_angle_alpha   90.00000000
_cell_angle_beta   90.00000000
_cell_angle_gamma   90.00000000
_symmetry_Int_Tables_number   1
_chemical_formula_structural   Cu5Ni2C7
_chemical_formula_sum   'Cu20 Ni8 C28'
_cell_volume   1240.44133641
_cell_formula_units_Z   4
loop_
 _symmetry_equiv_pos_site_id
 _symmetry_equiv_pos_as_xyz
  1  'x, y, z'
loop_
 _atom_site_type_symbol
 _atom_site_label
 _atom_site_symmetry_multiplicity
 _atom_site_fract_x
 _atom_site_fract_y
 _atom_site_fract_z
 _atom_site_occupancy
  C  C0  1  0.20674500  0.25000000  0.54938100  1
  C  C1  1  0.79325500  0.75000000  0.45061900  1
  C  C2  1  0.29325500  0.75000000  0.04938100  1
  C  C3  1  0.70674500  0.25000000  0.95061900  1
  Ni  Ni4  1  0.20400900  0.25000000  0.00950200  1
  Ni  Ni5  1  0.79599100  0.75000000  0.99049800  1
  Ni  Ni6  1  0.29599100  0.75000000  0.50950200  1
  Ni  Ni7  1  0.70400900  0.25000000  0.49049800  1
  Ni  Ni8  1  0.35875100  0.25000000  0.67771700  1
  Ni  Ni9  1  0.64124900  0.75000000  0.32228300  1
  Ni  Ni10  1  0.14124900  0.75000000  0.17771700  1
  Ni  Ni11  1  0.85875100  0.25000000  0.82228300  1
  Cu  Cu12  1  0.29375200  0.08692500  0.31902700  1
  Cu  Cu13  1  0.70624800  0.91307500  0.68097300  1
  Cu  Cu14  1  0.20624800  0.91307500  0.81902700  1
  Cu  Cu15  1  0.70624800  0.58692500  0.68097300  1
  Cu  Cu16  1  0.79375200  0.08692500  0.18097300  1
  Cu  Cu17  1  0.29375200  0.41307500  0.31902700  1
  Cu  Cu18  1  0.79375200  0.41307500  0.18097300  1
  Cu  Cu19  1  0.20624800  0.58692500  0.81902700  1
  Cu  Cu20  1  0.01164400  0.25000000  0.18137500  1
  Cu  Cu21  1  0.98835600  0.75000000  0.81862500  1
  Cu  Cu22  1  0.48835600  0.75000000  0.68137500  1
  Cu  Cu23  1  0.51164400  0.25000000  0.31862500  1
  Cu  Cu24  1  0.30687100  0.01129500  0.40851800  1
  Cu  Cu25  1  0.69312900  0.98870500  0.59148200  1
  Cu  Cu26  1  0.19312900  0.98870500  0.90851800  1
  Cu  Cu27  1  0.69312900  0.51129500  0.59148200  1
  Cu  Cu28  1  0.80687100  0.01129500  0.09148200  1
  Cu  Cu29  1  0.30687100  0.48870500  0.40851800  1
  Cu  Cu30  1  0.80687100  0.48870500  0.09148200  1
  Cu  Cu31  1  0.19312900  0.51129500  0.90851800  1
  C  C32  1  0.18426600  0.10374700  0.44875500  1
  C  C33  1  0.81573400  0.89625300  0.55124500  1
  C  C34  1  0.31573400  0.89625300  0.94875500  1
  C  C35  1  0.81573400  0.60374700  0.55124500  1
  C  C36  1  0.68426600  0.10374700  0.05124500  1
  C  C37  1  0.18426600  0.39625300  0.44875500  1
  C  C38  1  0.68426600  0.39625300  0.05124500  1
  C  C39  1  0.31573400  0.60374700  0.94875500  1
  C  C40  1  0.16869500  0.61108200  0.39946800  1
  C  C41  1  0.83130500  0.38891800  0.60053200  1
  C  C42  1  0.33130500  0.38891800  0.89946800  1
  C  C43  1  0.83130500  0.11108200  0.60053200  1
  C  C44  1  0.66869500  0.61108200  0.10053200  1
  C  C45  1  0.16869500  0.88891800  0.39946800  1
  C  C46  1  0.66869500  0.88891800  0.10053200  1
  C  C47  1  0.33130500  0.11108200  0.89946800  1
  C  C48  1  0.06880300  0.98837500  0.07675300  1
  C  C49  1  0.93119700  0.01162500  0.92324700  1
  C  C50  1  0.43119700  0.01162500  0.57675300  1
  C  C51  1  0.93119700  0.48837500  0.92324700  1
  C  C52  1  0.56880300  0.98837500  0.42324700  1
  C  C53  1  0.06880300  0.51162500  0.07675300  1
  C  C54  1  0.56880300  0.51162500  0.42324700  1
  C  C55  1  0.43119700  0.48837500  0.57675300  1
