# generated using pymatgen
data_Cu11NiC6
_symmetry_space_group_name_H-M   'P 1'
_cell_length_a   14.85531900
_cell_length_b   6.57093900
_cell_length_c   12.52230815
_cell_angle_alpha   59.13031386
_cell_angle_beta   90.00000000
_cell_angle_gamma   90.00000000
_symmetry_Int_Tables_number   1
_chemical_formula_structural   Cu11NiC6
_chemical_formula_sum   'Cu44 Ni4 C24'
_cell_volume   1049.18332433
_cell_formula_units_Z   4
loop_
 _symmetry_equiv_pos_site_id
 _symmetry_equiv_pos_as_xyz
  1  'x, y, z'
loop_
 _atom_site_type_symbol
 _atom_site_label
 _atom_site_symmetry_multiplicity
 _atom_site_fract_x
 _atom_site_fract_y
 _atom_site_fract_z
 _atom_site_occupancy
  C  C0  1  0.80689100  0.99189800  0.68527100  1
  C  C1  1  0.69310900  0.99189800  0.18527100  1
  C  C2  1  0.19310900  0.00810200  0.31472900  1
  C  C3  1  0.30689100  0.00810200  0.81472900  1
  C  C4  1  0.75393600  0.40615400  0.71926900  1
  C  C5  1  0.74606400  0.40615400  0.21926900  1
  C  C6  1  0.24606400  0.59384600  0.28073100  1
  C  C7  1  0.25393600  0.59384600  0.78073100  1
  C  C8  1  0.70894200  0.50818600  0.87090600  1
  C  C9  1  0.79105800  0.50818600  0.37090600  1
  C  C10  1  0.29105800  0.49181400  0.12909400  1
  C  C11  1  0.20894200  0.49181400  0.62909400  1
  C  C12  1  0.83353700  0.10680200  0.40726200  1
  C  C13  1  0.66646300  0.10680200  0.90726200  1
  C  C14  1  0.16646300  0.89319800  0.59273800  1
  C  C15  1  0.33353700  0.89319800  0.09273800  1
  C  C16  1  0.03382000  0.11415900  0.59041800  1
  C  C17  1  0.46618000  0.11415900  0.09041800  1
  C  C18  1  0.96618000  0.88584100  0.40958200  1
  C  C19  1  0.53382000  0.88584100  0.90958200  1
  C  C20  1  0.82957700  0.67145200  0.50722100  1
  C  C21  1  0.67042300  0.67145200  0.00722100  1
  C  C22  1  0.17042300  0.32854800  0.49277900  1
  C  C23  1  0.32957700  0.32854800  0.99277900  1
  Ni  Ni24  1  0.61455500  0.10389300  0.56870100  1
  Ni  Ni25  1  0.88544500  0.10389300  0.06870100  1
  Ni  Ni26  1  0.38544500  0.89610700  0.43129900  1
  Ni  Ni27  1  0.11455500  0.89610700  0.93129900  1
  Cu  Cu28  1  0.80340100  0.88080000  0.51471500  1
  Cu  Cu29  1  0.69659900  0.88080000  0.01471500  1
  Cu  Cu30  1  0.19659900  0.11920000  0.48528500  1
  Cu  Cu31  1  0.30340100  0.11920000  0.98528500  1
  Cu  Cu32  1  0.80144000  0.44645700  0.61797300  1
  Cu  Cu33  1  0.69856000  0.44645700  0.11797300  1
  Cu  Cu34  1  0.19856000  0.55354300  0.38202700  1
  Cu  Cu35  1  0.30144000  0.55354300  0.88202700  1
  Cu  Cu36  1  0.94742500  0.11177100  0.63575200  1
  Cu  Cu37  1  0.55257500  0.11177100  0.13575200  1
  Cu  Cu38  1  0.05257500  0.88822900  0.36424800  1
  Cu  Cu39  1  0.44742500  0.88822900  0.86424800  1
  Cu  Cu40  1  0.71846500  0.68356700  0.89688000  1
  Cu  Cu41  1  0.78153500  0.68356700  0.39688000  1
  Cu  Cu42  1  0.28153500  0.31643300  0.10312000  1
  Cu  Cu43  1  0.21846500  0.31643300  0.60312000  1
  Cu  Cu44  1  0.07461800  0.32762700  0.51500800  1
  Cu  Cu45  1  0.42538200  0.32762700  0.01500800  1
  Cu  Cu46  1  0.92538200  0.67237300  0.48499200  1
  Cu  Cu47  1  0.57461800  0.67237300  0.98499200  1
  Cu  Cu48  1  0.72463900  0.17849900  0.79480500  1
  Cu  Cu49  1  0.77536100  0.17849900  0.29480500  1
  Cu  Cu50  1  0.27536100  0.82150100  0.20519500  1
  Cu  Cu51  1  0.22463900  0.82150100  0.70519500  1
  Cu  Cu52  1  0.07401200  0.90205300  0.62433400  1
  Cu  Cu53  1  0.42598800  0.90205300  0.12433400  1
  Cu  Cu54  1  0.92598800  0.09794700  0.37566600  1
  Cu  Cu55  1  0.57401200  0.09794700  0.87566600  1
  Cu  Cu56  1  0.82058000  0.28277100  0.44798300  1
  Cu  Cu57  1  0.67942000  0.28277100  0.94798300  1
  Cu  Cu58  1  0.17942000  0.71722900  0.55201700  1
  Cu  Cu59  1  0.32058000  0.71722900  0.05201700  1
  Cu  Cu60  1  0.91089300  0.72459100  0.76475400  1
  Cu  Cu61  1  0.58910700  0.72459100  0.26475400  1
  Cu  Cu62  1  0.08910700  0.27540900  0.23524600  1
  Cu  Cu63  1  0.41089300  0.27540900  0.73524600  1
  Cu  Cu64  1  0.73813900  0.57798400  0.75004400  1
  Cu  Cu65  1  0.76186100  0.57798400  0.25004400  1
  Cu  Cu66  1  0.26186100  0.42201600  0.24995600  1
  Cu  Cu67  1  0.23813900  0.42201600  0.74995600  1
  Cu  Cu68  1  0.89915300  0.93656900  0.84646700  1
  Cu  Cu69  1  0.60084700  0.93656900  0.34646700  1
  Cu  Cu70  1  0.10084700  0.06343100  0.15353300  1
  Cu  Cu71  1  0.39915300  0.06343100  0.65353300  1
