# generated using pymatgen
data_Cu(NiC2)2
_symmetry_space_group_name_H-M   'P 1'
_cell_length_a   5.89510003
_cell_length_b   5.95727186
_cell_length_c   6.02076725
_cell_angle_alpha   119.54369785
_cell_angle_beta   119.38734905
_cell_angle_gamma   90.45869324
_symmetry_Int_Tables_number   1
_chemical_formula_structural   Cu(NiC2)2
_chemical_formula_sum   'Cu2 Ni4 C8'
_cell_volume   151.31436911
_cell_formula_units_Z   2
loop_
 _symmetry_equiv_pos_site_id
 _symmetry_equiv_pos_as_xyz
  1  'x, y, z'
loop_
 _atom_site_type_symbol
 _atom_site_label
 _atom_site_symmetry_multiplicity
 _atom_site_fract_x
 _atom_site_fract_y
 _atom_site_fract_z
 _atom_site_occupancy
  Ni  Ni0  1  0.00067800  0.50156900  0.00190600  1
  Ni  Ni1  1  0.00034000  0.99928100  0.49993900  1
  Ni  Ni2  1  0.50040200  0.99988700  0.50090900  1
  Ni  Ni3  1  0.99868100  0.00008500  0.99897600  1
  Cu  Cu4  1  0.62582400  0.36982500  0.24999700  1
  Cu  Cu5  1  0.36927100  0.62045200  0.74903100  1
  C  C6  1  0.23535600  0.75389800  0.47278600  1
  C  C7  1  0.78142600  0.76436000  0.02773000  1
  C  C8  1  0.24757300  0.77262700  0.03432800  1
  C  C9  1  0.77135600  0.24852200  0.53562700  1
  C  C10  1  0.76320700  0.78004800  0.52595800  1
  C  C11  1  0.21663600  0.23783300  0.96763800  1
  C  C12  1  0.23635700  0.21467400  0.46532800  1
  C  C13  1  0.75289400  0.23693800  0.96984600  1
