# generated using pymatgen
data_CuNiC12
_symmetry_space_group_name_H-M   'P 1'
_cell_length_a   6.23124500
_cell_length_b   7.38674500
_cell_length_c   14.20968600
_cell_angle_alpha   90.00000000
_cell_angle_beta   90.00000000
_cell_angle_gamma   90.00000000
_symmetry_Int_Tables_number   1
_chemical_formula_structural   CuNiC12
_chemical_formula_sum   'Cu4 Ni4 C48'
_cell_volume   654.05220663
_cell_formula_units_Z   4
loop_
 _symmetry_equiv_pos_site_id
 _symmetry_equiv_pos_as_xyz
  1  'x, y, z'
loop_
 _atom_site_type_symbol
 _atom_site_label
 _atom_site_symmetry_multiplicity
 _atom_site_fract_x
 _atom_site_fract_y
 _atom_site_fract_z
 _atom_site_occupancy
  Ni  Ni0  1  0.25000000  0.92916700  0.77924200  1
  Ni  Ni1  1  0.25000000  0.57083300  0.27924200  1
  Ni  Ni2  1  0.75000000  0.07083300  0.22075800  1
  Ni  Ni3  1  0.75000000  0.42916700  0.72075800  1
  C  C4  1  0.25000000  0.35314900  0.88175500  1
  C  C5  1  0.75000000  0.64685100  0.11824500  1
  C  C6  1  0.75000000  0.85314900  0.61824500  1
  C  C7  1  0.25000000  0.14685100  0.38175500  1
  Cu  Cu8  1  0.00000000  0.00000000  0.00000000  1
  Cu  Cu9  1  0.00000000  0.50000000  0.50000000  1
  Cu  Cu10  1  0.50000000  0.50000000  0.50000000  1
  Cu  Cu11  1  0.50000000  0.00000000  0.00000000  1
  C  C12  1  0.75000000  0.35705200  0.92920800  1
  C  C13  1  0.25000000  0.64294800  0.07079200  1
  C  C14  1  0.25000000  0.85705200  0.57079200  1
  C  C15  1  0.75000000  0.14294800  0.42920800  1
  C  C16  1  0.25000000  0.37926700  0.69522800  1
  C  C17  1  0.75000000  0.62073300  0.30477200  1
  C  C18  1  0.75000000  0.87926700  0.80477200  1
  C  C19  1  0.25000000  0.12073300  0.19522800  1
  C  C20  1  0.53686300  0.60902700  0.36077300  1
  C  C21  1  0.03686300  0.39097300  0.63922700  1
  C  C22  1  0.46313700  0.10902700  0.13922700  1
  C  C23  1  0.96313700  0.89097300  0.86077300  1
  C  C24  1  0.46313700  0.39097300  0.63922700  1
  C  C25  1  0.96313700  0.60902700  0.36077300  1
  C  C26  1  0.53686300  0.89097300  0.86077300  1
  C  C27  1  0.03686300  0.10902700  0.13922700  1
  C  C28  1  0.75000000  0.33423900  0.47659000  1
  C  C29  1  0.25000000  0.66576100  0.52341000  1
  C  C30  1  0.25000000  0.83423900  0.02341000  1
  C  C31  1  0.75000000  0.16576100  0.97659000  1
  C  C32  1  0.25000000  0.13105300  0.94763300  1
  C  C33  1  0.75000000  0.86894700  0.05236700  1
  C  C34  1  0.75000000  0.63105300  0.55236700  1
  C  C35  1  0.25000000  0.36894700  0.44763300  1
  C  C36  1  0.25000000  0.20017200  0.75471100  1
  C  C37  1  0.75000000  0.79982800  0.24528900  1
  C  C38  1  0.75000000  0.70017200  0.74528900  1
  C  C39  1  0.25000000  0.29982800  0.25471100  1
  C  C40  1  0.93916900  0.12893300  0.35974600  1
  C  C41  1  0.43916900  0.87106700  0.64025400  1
  C  C42  1  0.06083100  0.62893300  0.14025400  1
  C  C43  1  0.56083100  0.37106700  0.85974600  1
  C  C44  1  0.06083100  0.87106700  0.64025400  1
  C  C45  1  0.56083100  0.12893300  0.35974600  1
  C  C46  1  0.93916900  0.37106700  0.85974600  1
  C  C47  1  0.43916900  0.62893300  0.14025400  1
  C  C48  1  0.25000000  0.96951000  0.27198000  1
  C  C49  1  0.75000000  0.03049000  0.72802000  1
  C  C50  1  0.75000000  0.46951000  0.22802000  1
  C  C51  1  0.25000000  0.53049000  0.77198000  1
  C  C52  1  0.25000000  0.00221400  0.49497100  1
  C  C53  1  0.75000000  0.99778600  0.50502900  1
  C  C54  1  0.75000000  0.50221400  0.00502900  1
  C  C55  1  0.25000000  0.49778600  0.99497100  1
