# generated using pymatgen
data_CuNi6C
_symmetry_space_group_name_H-M   'P 1'
_cell_length_a   5.03523600
_cell_length_b   6.96073300
_cell_length_c   12.43328500
_cell_angle_alpha   90.00000000
_cell_angle_beta   90.00000000
_cell_angle_gamma   90.00000000
_symmetry_Int_Tables_number   1
_chemical_formula_structural   CuNi6C
_chemical_formula_sum   'Cu2 Ni12 C2'
_cell_volume   435.77337776
_cell_formula_units_Z   2
loop_
 _symmetry_equiv_pos_site_id
 _symmetry_equiv_pos_as_xyz
  1  'x, y, z'
loop_
 _atom_site_type_symbol
 _atom_site_label
 _atom_site_symmetry_multiplicity
 _atom_site_fract_x
 _atom_site_fract_y
 _atom_site_fract_z
 _atom_site_occupancy
  C  C0  1  0.00000000  0.00000000  0.17262900  1
  C  C1  1  0.00000000  0.50000000  0.67262900  1
  Ni  Ni2  1  0.50000000  0.71051700  0.05724900  1
  Ni  Ni3  1  0.50000000  0.28948300  0.05724900  1
  Ni  Ni4  1  0.50000000  0.50000000  0.33532100  1
  Ni  Ni5  1  0.00000000  0.22097800  0.41477500  1
  Ni  Ni6  1  0.00000000  0.77902200  0.41477500  1
  Ni  Ni7  1  0.00000000  0.50000000  0.17008800  1
  Ni  Ni8  1  0.50000000  0.21051700  0.55724900  1
  Ni  Ni9  1  0.50000000  0.78948300  0.55724900  1
  Ni  Ni10  1  0.50000000  0.00000000  0.83532100  1
  Ni  Ni11  1  0.00000000  0.72097800  0.91477500  1
  Ni  Ni12  1  0.00000000  0.27902200  0.91477500  1
  Ni  Ni13  1  0.00000000  0.00000000  0.67008800  1
  Cu  Cu14  1  0.50000000  0.00000000  0.37791500  1
  Cu  Cu15  1  0.50000000  0.50000000  0.87791500  1
