# generated using pymatgen
data_Cu5(NiC3)4
_symmetry_space_group_name_H-M   'P 1'
_cell_length_a   8.43263664
_cell_length_b   10.69344797
_cell_length_c   12.54576950
_cell_angle_alpha   65.29989659
_cell_angle_beta   122.11198675
_cell_angle_gamma   120.58923248
_symmetry_Int_Tables_number   1
_chemical_formula_structural   Cu5(NiC3)4
_chemical_formula_sum   'Cu10 Ni8 C24'
_cell_volume   807.85413282
_cell_formula_units_Z   2
loop_
 _symmetry_equiv_pos_site_id
 _symmetry_equiv_pos_as_xyz
  1  'x, y, z'
loop_
 _atom_site_type_symbol
 _atom_site_label
 _atom_site_symmetry_multiplicity
 _atom_site_fract_x
 _atom_site_fract_y
 _atom_site_fract_z
 _atom_site_occupancy
  C  C0  1  0.06299200  0.87834300  0.75519200  1
  C  C1  1  0.93700800  0.12165700  0.24480800  1
  C  C2  1  0.85237800  0.96954700  0.82134200  1
  C  C3  1  0.14762200  0.03045300  0.17865800  1
  C  C4  1  0.66739500  0.70516700  0.78885100  1
  C  C5  1  0.33260500  0.29483300  0.21114900  1
  C  C6  1  0.72365600  0.42249800  0.00801900  1
  C  C7  1  0.27634400  0.57750200  0.99198100  1
  C  C8  1  0.80249700  0.65806700  0.56296100  1
  C  C9  1  0.19750300  0.34193300  0.43703900  1
  C  C10  1  0.96545700  0.80002400  0.51974900  1
  C  C11  1  0.03454300  0.19997600  0.48025100  1
  C  C12  1  0.50621700  0.00664500  0.77375700  1
  C  C13  1  0.49378300  0.99335500  0.22624300  1
  C  C14  1  0.32744000  0.99095400  0.62884300  1
  C  C15  1  0.67256000  0.00904600  0.37115700  1
  C  C16  1  0.21228400  0.60059400  0.71090000  1
  C  C17  1  0.78771600  0.39940600  0.28910000  1
  C  C18  1  0.34421000  0.65788500  0.33971800  1
  C  C19  1  0.65579000  0.34211500  0.66028200  1
  C  C20  1  0.23126600  0.12140400  0.88064400  1
  C  C21  1  0.76873400  0.87859600  0.11935600  1
  C  C22  1  0.23995400  0.97238500  0.06120300  1
  C  C23  1  0.76004600  0.02761500  0.93879700  1
  Ni  Ni24  1  0.71445900  0.31203000  0.96496600  1
  Ni  Ni25  1  0.28554100  0.68797000  0.03503400  1
  Ni  Ni26  1  0.83297100  0.08080600  0.58142400  1
  Ni  Ni27  1  0.16702900  0.91919400  0.41857600  1
  Ni  Ni28  1  0.67976500  0.40320900  0.54170500  1
  Ni  Ni29  1  0.32023500  0.59679100  0.45829500  1
  Ni  Ni30  1  0.28961300  0.49475100  0.81726400  1
  Ni  Ni31  1  0.71038700  0.50524900  0.18273600  1
  Cu  Cu32  1  0.80821900  0.77023800  0.82098200  1
  Cu  Cu33  1  0.19178100  0.22976200  0.17901800  1
  Cu  Cu34  1  0.90606000  0.75437700  0.58397600  1
  Cu  Cu35  1  0.09394000  0.24562300  0.41602400  1
  Cu  Cu36  1  0.34663400  0.98039700  0.71606400  1
  Cu  Cu37  1  0.65336600  0.01960300  0.28393600  1
  Cu  Cu38  1  0.28117400  0.95358600  0.15540900  1
  Cu  Cu39  1  0.71882600  0.04641400  0.84459200  1
  Cu  Cu40  1  0.15064800  0.01562700  0.89312600  1
  Cu  Cu41  1  0.84935200  0.98437300  0.10687400  1
