# generated using pymatgen
data_Cu2Ni6C5
_symmetry_space_group_name_H-M   'P 1'
_cell_length_a   3.85002882
_cell_length_b   3.85002882
_cell_length_c   25.06266800
_cell_angle_alpha   90.00000000
_cell_angle_beta   90.00000000
_cell_angle_gamma   120.00001409
_symmetry_Int_Tables_number   1
_chemical_formula_structural   Cu2Ni6C5
_chemical_formula_sum   'Cu2 Ni6 C5'
_cell_volume   321.72575754
_cell_formula_units_Z   1
loop_
 _symmetry_equiv_pos_site_id
 _symmetry_equiv_pos_as_xyz
  1  'x, y, z'
loop_
 _atom_site_type_symbol
 _atom_site_label
 _atom_site_symmetry_multiplicity
 _atom_site_fract_x
 _atom_site_fract_y
 _atom_site_fract_z
 _atom_site_occupancy
  C  C0  1  0.00000000  0.00000000  0.01105300  1
  C  C1  1  0.00000000  0.00000000  0.74358400  1
  C  C2  1  0.00000000  0.00000000  0.49958100  1
  C  C3  1  0.00000000  0.00000000  0.25618500  1
  C  C4  1  0.00000000  0.00000000  0.87680100  1
  Ni  Ni5  1  0.33333300  0.66666700  0.94199900  1
  Ni  Ni6  1  0.33333300  0.66666700  0.68468700  1
  Ni  Ni7  1  0.33333300  0.66666700  0.43689200  1
  Ni  Ni8  1  0.33333300  0.66666700  0.19071800  1
  Ni  Ni9  1  0.66666700  0.33333300  0.81090600  1
  Ni  Ni10  1  0.66666700  0.33333300  0.56114500  1
  Cu  Cu11  1  0.66666700  0.33333300  0.30372700  1
  Cu  Cu12  1  0.66666700  0.33333300  0.05772300  1
