# generated using pymatgen
data_Cu2Ni2C53
_symmetry_space_group_name_H-M   'P 1'
_cell_length_a   11.44045700
_cell_length_b   19.14880300
_cell_length_c   13.90705700
_cell_angle_alpha   90.00000000
_cell_angle_beta   90.00000000
_cell_angle_gamma   90.00000000
_symmetry_Int_Tables_number   1
_chemical_formula_structural   Cu2Ni2C53
_chemical_formula_sum   'Cu8 Ni8 C212'
_cell_volume   3046.63368124
_cell_formula_units_Z   4
loop_
 _symmetry_equiv_pos_site_id
 _symmetry_equiv_pos_as_xyz
  1  'x, y, z'
loop_
 _atom_site_type_symbol
 _atom_site_label
 _atom_site_symmetry_multiplicity
 _atom_site_fract_x
 _atom_site_fract_y
 _atom_site_fract_z
 _atom_site_occupancy
  C  C0  1  0.29907100  0.09551300  0.05094200  1
  C  C1  1  0.79907100  0.40448700  0.44905800  1
  C  C2  1  0.70092900  0.59551300  0.94905800  1
  C  C3  1  0.20092900  0.90448700  0.55094200  1
  C  C4  1  0.70092900  0.90448700  0.94905800  1
  C  C5  1  0.20092900  0.59551300  0.55094200  1
  C  C6  1  0.29907100  0.40448700  0.05094200  1
  C  C7  1  0.79907100  0.09551300  0.44905800  1
  C  C8  1  0.90016600  0.25000000  0.10287500  1
  C  C9  1  0.40016600  0.25000000  0.39712500  1
  C  C10  1  0.09983400  0.75000000  0.89712500  1
  C  C11  1  0.59983400  0.75000000  0.60287500  1
  C  C12  1  0.92869700  0.25000000  0.87876200  1
  C  C13  1  0.42869700  0.25000000  0.62123800  1
  C  C14  1  0.07130300  0.75000000  0.12123800  1
  C  C15  1  0.57130300  0.75000000  0.37876200  1
  C  C16  1  0.16053600  0.25000000  0.01809800  1
  C  C17  1  0.66053600  0.25000000  0.48190200  1
  C  C18  1  0.83946400  0.75000000  0.98190200  1
  C  C19  1  0.33946400  0.75000000  0.51809800  1
  C  C20  1  0.50198000  0.07458300  0.00092700  1
  C  C21  1  0.00198000  0.42541700  0.49907300  1
  C  C22  1  0.49802000  0.57458300  0.99907300  1
  C  C23  1  0.99802000  0.92541700  0.50092700  1
  C  C24  1  0.49802000  0.92541700  0.99907300  1
  C  C25  1  0.99802000  0.57458300  0.50092700  1
  C  C26  1  0.50198000  0.42541700  0.00092700  1
  C  C27  1  0.00198000  0.07458300  0.49907300  1
  C  C28  1  0.49923400  0.14673400  0.08134500  1
  C  C29  1  0.99923400  0.35326600  0.41865500  1
  C  C30  1  0.50076600  0.64673400  0.91865500  1
  C  C31  1  0.00076600  0.85326600  0.58134500  1
  C  C32  1  0.50076600  0.85326600  0.91865500  1
  C  C33  1  0.00076600  0.64673400  0.58134500  1
  C  C34  1  0.49923400  0.35326600  0.08134500  1
  C  C35  1  0.99923400  0.14673400  0.41865500  1
  C  C36  1  0.45272700  0.15693200  0.95928700  1
  C  C37  1  0.95272700  0.34306800  0.54071300  1
  C  C38  1  0.54727300  0.65693200  0.04071300  1
  C  C39  1  0.04727300  0.84306800  0.45928700  1
  C  C40  1  0.54727300  0.84306800  0.04071300  1
  C  C41  1  0.04727300  0.65693200  0.45928700  1
  C  C42  1  0.45272700  0.34306800  0.95928700  1
  C  C43  1  0.95272700  0.15693200  0.54071300  1
  C  C44  1  0.29614000  0.00707200  0.92070900  1
  C  C45  1  0.79614000  0.49292800  0.57929100  1
  C  C46  1  0.70386000  0.50707200  0.07929100  1
  C  C47  1  0.20386000  0.99292800  0.42070900  1
  C  C48  1  0.70386000  0.99292800  0.07929100  1
  C  C49  1  0.20386000  0.50707200  0.42070900  1
  C  C50  1  0.29614000  0.49292800  0.92070900  1
  C  C51  1  0.79614000  0.00707200  0.57929100  1
  C  C52  1  0.26623800  0.09246800  0.87852100  1
  C  C53  1  0.76623800  0.40753200  0.62147900  1
  C  C54  1  0.73376200  0.59246800  0.12147900  1
  C  C55  1  0.23376200  0.90753200  0.37852100  1
  C  C56  1  0.73376200  0.90753200  0.12147900  1
  C  C57  1  0.23376200  0.59246800  0.37852100  1
  C  C58  1  0.26623800  0.40753200  0.87852100  1
  C  C59  1  0.76623800  0.09246800  0.62147900  1
  C  C60  1  0.15279800  0.04241600  0.93218300  1
  C  C61  1  0.65279800  0.45758400  0.56781700  1
  C  C62  1  0.84720200  0.54241600  0.06781700  1
  C  C63  1  0.34720200  0.95758400  0.43218300  1
  C  C64  1  0.84720200  0.95758400  0.06781700  1
  C  C65  1  0.34720200  0.54241600  0.43218300  1
  C  C66  1  0.15279800  0.45758400  0.93218300  1
  C  C67  1  0.65279800  0.04241600  0.56781700  1
  C  C68  1  0.35219500  0.98771000  0.13752500  1
  C  C69  1  0.85219500  0.51229000  0.36247500  1
  C  C70  1  0.64780500  0.48771000  0.86247500  1
  C  C71  1  0.14780500  0.01229000  0.63752500  1
  C  C72  1  0.64780500  0.01229000  0.86247500  1
  C  C73  1  0.14780500  0.48771000  0.63752500  1
  C  C74  1  0.35219500  0.51229000  0.13752500  1
  C  C75  1  0.85219500  0.98771000  0.36247500  1
  C  C76  1  0.22023700  0.02067200  0.18802100  1
  C  C77  1  0.72023700  0.47932800  0.31197900  1
  C  C78  1  0.77976300  0.52067200  0.81197900  1
  C  C79  1  0.27976300  0.97932800  0.68802100  1
  C  C80  1  0.77976300  0.97932800  0.81197900  1
  C  C81  1  0.27976300  0.52067200  0.68802100  1
  C  C82  1  0.22023700  0.47932800  0.18802100  1
  C  C83  1  0.72023700  0.02067200  0.31197900  1
  C  C84  1  0.35611800  0.06110300  0.21513600  1
  C  C85  1  0.85611800  0.43889700  0.28486400  1
  C  C86  1  0.64388200  0.56110300  0.78486400  1
  C  C87  1  0.14388200  0.93889700  0.71513600  1
  C  C88  1  0.64388200  0.93889700  0.78486400  1
  C  C89  1  0.14388200  0.56110300  0.71513600  1
  C  C90  1  0.35611800  0.43889700  0.21513600  1
  C  C91  1  0.85611800  0.06110300  0.28486400  1
  C  C92  1  0.94118000  0.25000000  0.27543000  1
  C  C93  1  0.44118000  0.25000000  0.22457000  1
  C  C94  1  0.05882000  0.75000000  0.72457000  1
  C  C95  1  0.55882000  0.75000000  0.77543000  1
  C  C96  1  0.05364800  0.20331000  0.21498200  1
  C  C97  1  0.55364800  0.29669000  0.28501800  1
  C  C98  1  0.94635200  0.70331000  0.78501800  1
  C  C99  1  0.44635200  0.79669000  0.71498200  1
  C  C100  1  0.94635200  0.79669000  0.78501800  1
  C  C101  1  0.44635200  0.70331000  0.71498200  1
  C  C102  1  0.05364800  0.29669000  0.21498200  1
  C  C103  1  0.55364800  0.20331000  0.28501800  1
  C  C104  1  0.75443900  0.17337700  0.17797500  1
  C  C105  1  0.25443900  0.32662300  0.32202500  1
  C  C106  1  0.24556100  0.67337700  0.82202500  1
  C  C107  1  0.74556100  0.82662300  0.67797500  1
  C  C108  1  0.24556100  0.82662300  0.82202500  1
  C  C109  1  0.74556100  0.67337700  0.67797500  1
  C  C110  1  0.75443900  0.32662300  0.17797500  1
  C  C111  1  0.25443900  0.17337700  0.32202500  1
  C  C112  1  0.85744400  0.12230500  0.11251700  1
  C  C113  1  0.35744400  0.37769500  0.38748300  1
  C  C114  1  0.14255600  0.62230500  0.88748300  1
  C  C115  1  0.64255600  0.87769500  0.61251700  1
  C  C116  1  0.14255600  0.87769500  0.88748300  1
  C  C117  1  0.64255600  0.62230500  0.61251700  1
  C  C118  1  0.85744400  0.37769500  0.11251700  1
  C  C119  1  0.35744400  0.12230500  0.38748300  1
  C  C120  1  0.74263300  0.16645400  0.05105400  1
  C  C121  1  0.24263300  0.33354600  0.44894600  1
  C  C122  1  0.25736700  0.66645400  0.94894600  1
  C  C123  1  0.75736700  0.83354600  0.55105400  1
  C  C124  1  0.25736700  0.83354600  0.94894600  1
  C  C125  1  0.75736700  0.66645400  0.55105400  1
  C  C126  1  0.74263300  0.33354600  0.05105400  1
  C  C127  1  0.24263300  0.16645400  0.44894600  1
  C  C128  1  0.73783500  0.25000000  0.80258000  1
  C  C129  1  0.23783500  0.25000000  0.69742000  1
  C  C130  1  0.26216500  0.75000000  0.19742000  1
  C  C131  1  0.76216500  0.75000000  0.30258000  1
  C  C132  1  0.72580400  0.20350700  0.91242600  1
  C  C133  1  0.22580400  0.29649300  0.58757400  1
  C  C134  1  0.27419600  0.70350700  0.08757400  1
  C  C135  1  0.77419600  0.79649300  0.41242600  1
  C  C136  1  0.27419600  0.79649300  0.08757400  1
  C  C137  1  0.77419600  0.70350700  0.41242600  1
  C  C138  1  0.72580400  0.29649300  0.91242600  1
  C  C139  1  0.22580400  0.20350700  0.58757400  1
  C  C140  1  0.93745200  0.17394500  0.73808600  1
  C  C141  1  0.43745200  0.32605500  0.76191400  1
  C  C142  1  0.06254800  0.67394500  0.26191400  1
  C  C143  1  0.56254800  0.82605500  0.23808600  1
  C  C144  1  0.06254800  0.82605500  0.26191400  1
  C  C145  1  0.56254800  0.67394500  0.23808600  1
  C  C146  1  0.93745200  0.32605500  0.73808600  1
  C  C147  1  0.43745200  0.17394500  0.76191400  1
  C  C148  1  0.94672600  0.12211400  0.84441600  1
  C  C149  1  0.44672600  0.37788600  0.65558400  1
  C  C150  1  0.05327400  0.62211400  0.15558400  1
  C  C151  1  0.55327400  0.87788600  0.34441600  1
  C  C152  1  0.05327400  0.87788600  0.15558400  1
  C  C153  1  0.55327400  0.62211400  0.34441600  1
  C  C154  1  0.94672600  0.37788600  0.84441600  1
  C  C155  1  0.44672600  0.12211400  0.65558400  1
  C  C156  1  0.07177700  0.16924400  0.80275400  1
  C  C157  1  0.57177700  0.33075600  0.69724600  1
  C  C158  1  0.92822300  0.66924400  0.19724600  1
  C  C159  1  0.42822300  0.83075600  0.30275400  1
  C  C160  1  0.92822300  0.83075600  0.19724600  1
  C  C161  1  0.42822300  0.66924400  0.30275400  1
  C  C162  1  0.07177700  0.33075600  0.80275400  1
  C  C163  1  0.57177700  0.16924400  0.69724600  1
  C  C164  1  0.45271000  0.12170600  0.02164600  1
  C  C165  1  0.95271000  0.37829400  0.47835400  1
  C  C166  1  0.54729000  0.62170600  0.97835400  1
  C  C167  1  0.04729000  0.87829400  0.52164600  1
  C  C168  1  0.54729000  0.87829400  0.97835400  1
  C  C169  1  0.04729000  0.62170600  0.52164600  1
  C  C170  1  0.45271000  0.37829400  0.02164600  1
  C  C171  1  0.95271000  0.12170600  0.47835400  1
  C  C172  1  0.24617200  0.05493500  0.93618200  1
  C  C173  1  0.74617200  0.44506500  0.56381800  1
  C  C174  1  0.75382800  0.55493500  0.06381800  1
  C  C175  1  0.25382800  0.94506500  0.43618200  1
  C  C176  1  0.75382800  0.94506500  0.06381800  1
  C  C177  1  0.25382800  0.55493500  0.43618200  1
  C  C178  1  0.24617200  0.44506500  0.93618200  1
  C  C179  1  0.74617200  0.05493500  0.56381800  1
  C  C180  1  0.30521400  0.03574200  0.15777700  1
  C  C181  1  0.80521400  0.46425800  0.34222300  1
  C  C182  1  0.69478600  0.53574200  0.84222300  1
  C  C183  1  0.19478600  0.96425800  0.65777700  1
  C  C184  1  0.69478600  0.96425800  0.84222300  1
  C  C185  1  0.19478600  0.53574200  0.65777700  1
  C  C186  1  0.30521400  0.46425800  0.15777700  1
  C  C187  1  0.80521400  0.03574200  0.34222300  1
  C  C188  1  0.99792000  0.25000000  0.21147000  1
  C  C189  1  0.49792000  0.25000000  0.28853000  1
  C  C190  1  0.00208000  0.75000000  0.78853000  1
  C  C191  1  0.50208000  0.75000000  0.71147000  1
  C  C192  1  0.80498200  0.17033400  0.11068800  1
  C  C193  1  0.30498200  0.32966600  0.38931200  1
  C  C194  1  0.19501800  0.67033400  0.88931200  1
  C  C195  1  0.69501800  0.82966600  0.61068800  1
  C  C196  1  0.19501800  0.82966600  0.88931200  1
  C  C197  1  0.69501800  0.67033400  0.61068800  1
  C  C198  1  0.80498200  0.32966600  0.11068800  1
  C  C199  1  0.30498200  0.17033400  0.38931200  1
  C  C200  1  0.76415900  0.25000000  0.87879300  1
  C  C201  1  0.26415900  0.25000000  0.62120700  1
  C  C202  1  0.23584100  0.75000000  0.12120700  1
  C  C203  1  0.73584100  0.75000000  0.37879300  1
  C  C204  1  0.97636800  0.17075700  0.81035900  1
  C  C205  1  0.47636800  0.32924300  0.68964100  1
  C  C206  1  0.02363200  0.67075700  0.18964100  1
  C  C207  1  0.52363200  0.82924300  0.31035900  1
  C  C208  1  0.02363200  0.82924300  0.18964100  1
  C  C209  1  0.52363200  0.67075700  0.31035900  1
  C  C210  1  0.97636800  0.32924300  0.81035900  1
  C  C211  1  0.47636800  0.17075700  0.68964100  1
  Ni  Ni212  1  0.21282800  0.25000000  0.90600100  1
  Ni  Ni213  1  0.71282800  0.25000000  0.59399900  1
  Ni  Ni214  1  0.78717200  0.75000000  0.09399900  1
  Ni  Ni215  1  0.28717200  0.75000000  0.40600100  1
  Ni  Ni216  1  0.98861500  0.25000000  0.99767800  1
  Ni  Ni217  1  0.48861500  0.25000000  0.50232200  1
  Ni  Ni218  1  0.01138500  0.75000000  0.00232200  1
  Ni  Ni219  1  0.51138500  0.75000000  0.49767800  1
  Cu  Cu220  1  0.21676500  0.16564800  0.07959800  1
  Cu  Cu221  1  0.71676500  0.33435200  0.42040200  1
  Cu  Cu222  1  0.78323500  0.66564800  0.92040200  1
  Cu  Cu223  1  0.28323500  0.83435200  0.57959800  1
  Cu  Cu224  1  0.78323500  0.83435200  0.92040200  1
  Cu  Cu225  1  0.28323500  0.66564800  0.57959800  1
  Cu  Cu226  1  0.21676500  0.33435200  0.07959800  1
  Cu  Cu227  1  0.71676500  0.16564800  0.42040200  1
