# generated using pymatgen
data_CuNiC5
_symmetry_space_group_name_H-M   'P 1'
_cell_length_a   4.54657300
_cell_length_b   6.16234700
_cell_length_c   12.01820000
_cell_angle_alpha   90.00000000
_cell_angle_beta   90.00000000
_cell_angle_gamma   90.00000000
_symmetry_Int_Tables_number   1
_chemical_formula_structural   CuNiC5
_chemical_formula_sum   'Cu4 Ni4 C20'
_cell_volume   336.72064544
_cell_formula_units_Z   4
loop_
 _symmetry_equiv_pos_site_id
 _symmetry_equiv_pos_as_xyz
  1  'x, y, z'
loop_
 _atom_site_type_symbol
 _atom_site_label
 _atom_site_symmetry_multiplicity
 _atom_site_fract_x
 _atom_site_fract_y
 _atom_site_fract_z
 _atom_site_occupancy
  C  C0  1  0.00000000  0.50000000  0.00000000  1
  C  C1  1  0.50000000  0.00000000  0.50000000  1
  C  C2  1  0.00000000  0.00000000  0.00000000  1
  C  C3  1  0.50000000  0.50000000  0.50000000  1
  Ni  Ni4  1  0.38955700  0.75000000  0.08484200  1
  Ni  Ni5  1  0.11044300  0.75000000  0.58484200  1
  Ni  Ni6  1  0.61044300  0.25000000  0.91515800  1
  Ni  Ni7  1  0.88955700  0.25000000  0.41515800  1
  Cu  Cu8  1  0.47909600  0.75000000  0.83102600  1
  Cu  Cu9  1  0.02090400  0.75000000  0.33102600  1
  Cu  Cu10  1  0.52090400  0.25000000  0.16897400  1
  Cu  Cu11  1  0.97909600  0.25000000  0.66897400  1
  C  C12  1  0.74360800  0.75000000  0.94414500  1
  C  C13  1  0.75639200  0.75000000  0.44414500  1
  C  C14  1  0.25639200  0.25000000  0.05585500  1
  C  C15  1  0.24360800  0.25000000  0.55585500  1
  C  C16  1  0.17415100  0.75000000  0.08021300  1
  C  C17  1  0.32584900  0.75000000  0.58021300  1
  C  C18  1  0.82584900  0.25000000  0.91978700  1
  C  C19  1  0.67415100  0.25000000  0.41978700  1
  C  C20  1  0.27505300  0.52813100  0.86859400  1
  C  C21  1  0.22494700  0.97186900  0.36859400  1
  C  C22  1  0.72494700  0.02813100  0.13140600  1
  C  C23  1  0.77505300  0.47186900  0.63140600  1
  C  C24  1  0.72494700  0.47186900  0.13140600  1
  C  C25  1  0.77505300  0.02813100  0.63140600  1
  C  C26  1  0.27505300  0.97186900  0.86859400  1
  C  C27  1  0.22494700  0.52813100  0.36859400  1
