# generated using pymatgen
data_Cu10Ni2C15
_symmetry_space_group_name_H-M   'P 1'
_cell_length_a   13.55205500
_cell_length_b   13.65940200
_cell_length_c   14.06753000
_cell_angle_alpha   90.00000000
_cell_angle_beta   90.00000000
_cell_angle_gamma   90.00000000
_symmetry_Int_Tables_number   1
_chemical_formula_structural   Cu10Ni2C15
_chemical_formula_sum   'Cu40 Ni8 C60'
_cell_volume   2604.08221907
_cell_formula_units_Z   4
loop_
 _symmetry_equiv_pos_site_id
 _symmetry_equiv_pos_as_xyz
  1  'x, y, z'
loop_
 _atom_site_type_symbol
 _atom_site_label
 _atom_site_symmetry_multiplicity
 _atom_site_fract_x
 _atom_site_fract_y
 _atom_site_fract_z
 _atom_site_occupancy
  C  C0  1  0.89035000  0.03030600  0.83032100  1
  C  C1  1  0.39035000  0.46969400  0.66967900  1
  C  C2  1  0.10965000  0.53030600  0.66967900  1
  C  C3  1  0.60965000  0.96969400  0.83032100  1
  C  C4  1  0.10965000  0.96969400  0.16967900  1
  C  C5  1  0.60965000  0.53030600  0.33032100  1
  C  C6  1  0.89035000  0.46969400  0.33032100  1
  C  C7  1  0.39035000  0.03030600  0.16967900  1
  C  C8  1  0.83652500  0.01849600  0.66820600  1
  C  C9  1  0.33652500  0.48150300  0.83179400  1
  C  C10  1  0.16347500  0.51849700  0.83179400  1
  C  C11  1  0.66347500  0.98150300  0.66820600  1
  C  C12  1  0.16347500  0.98150300  0.33179400  1
  C  C13  1  0.66347500  0.51849700  0.16820600  1
  C  C14  1  0.83652500  0.48150300  0.16820600  1
  C  C15  1  0.33652500  0.01849600  0.33179400  1
  C  C16  1  0.75000000  0.00000000  0.93109200  1
  C  C17  1  0.25000000  0.50000000  0.56890800  1
  C  C18  1  0.25000000  0.00000000  0.06890800  1
  C  C19  1  0.75000000  0.50000000  0.43109200  1
  C  C20  1  0.72059100  0.61798400  0.83596600  1
  C  C21  1  0.22059100  0.88201600  0.66403400  1
  C  C22  1  0.27940900  0.11798400  0.66403400  1
  C  C23  1  0.77940900  0.38201600  0.83596600  1
  C  C24  1  0.27940900  0.38201600  0.16403400  1
  C  C25  1  0.77940900  0.11798400  0.33596600  1
  C  C26  1  0.72059100  0.88201600  0.33596600  1
  C  C27  1  0.22059100  0.61798400  0.16403400  1
  C  C28  1  0.81904000  0.60172100  0.75268200  1
  C  C29  1  0.31904000  0.89827900  0.74731800  1
  C  C30  1  0.18096000  0.10172100  0.74731800  1
  C  C31  1  0.68096000  0.39827900  0.75268200  1
  C  C32  1  0.18096000  0.39827900  0.24731800  1
  C  C33  1  0.68096000  0.10172100  0.25268200  1
  C  C34  1  0.81904000  0.89827900  0.25268200  1
  C  C35  1  0.31904000  0.60172100  0.24731800  1
  C  C36  1  0.84579800  0.62577800  0.87495100  1
  C  C37  1  0.34579800  0.87422200  0.62504900  1
  C  C38  1  0.15420200  0.12577800  0.62504900  1
  C  C39  1  0.65420200  0.37422200  0.87495100  1
  C  C40  1  0.15420200  0.37422200  0.12504900  1
  C  C41  1  0.65420200  0.12577800  0.37495100  1
  C  C42  1  0.84579800  0.87422200  0.37495100  1
  C  C43  1  0.34579800  0.62577800  0.12504900  1
  C  C44  1  0.79406700  0.74659800  0.79760500  1
  C  C45  1  0.29406700  0.75340200  0.70239500  1
  C  C46  1  0.20593300  0.24659800  0.70239500  1
  C  C47  1  0.70593300  0.25340200  0.79760500  1
  C  C48  1  0.20593300  0.25340200  0.20239500  1
  C  C49  1  0.70593300  0.24659800  0.29760500  1
  C  C50  1  0.79406700  0.75340200  0.29760500  1
  C  C51  1  0.29406700  0.74659800  0.20239500  1
  C  C52  1  0.79517300  0.64242200  0.81612300  1
  C  C53  1  0.29517300  0.85757800  0.68387700  1
  C  C54  1  0.20482700  0.14242200  0.68387700  1
  C  C55  1  0.70482700  0.35757800  0.81612300  1
  C  C56  1  0.20482700  0.35757800  0.18387700  1
  C  C57  1  0.70482700  0.14242200  0.31612300  1
  C  C58  1  0.79517300  0.85757800  0.31612300  1
  C  C59  1  0.29517300  0.64242200  0.18387700  1
  Ni  Ni60  1  0.79170100  0.83055500  0.78377800  1
  Ni  Ni61  1  0.29170100  0.66944500  0.71622200  1
  Ni  Ni62  1  0.20829900  0.33055500  0.71622200  1
  Ni  Ni63  1  0.70829900  0.16944500  0.78377800  1
  Ni  Ni64  1  0.20829900  0.16944500  0.21622200  1
  Ni  Ni65  1  0.70829900  0.33055500  0.28377800  1
  Ni  Ni66  1  0.79170100  0.66944500  0.28377800  1
  Ni  Ni67  1  0.29170100  0.83055500  0.21622200  1
  Cu  Cu68  1  0.77561300  0.88384600  0.02242700  1
  Cu  Cu69  1  0.27561300  0.61615400  0.47757300  1
  Cu  Cu70  1  0.22438700  0.38384600  0.47757300  1
  Cu  Cu71  1  0.72438700  0.11615400  0.02242700  1
  Cu  Cu72  1  0.22438700  0.11615400  0.97757300  1
  Cu  Cu73  1  0.72438700  0.38384600  0.52242700  1
  Cu  Cu74  1  0.77561300  0.61615400  0.52242700  1
  Cu  Cu75  1  0.27561300  0.88384600  0.97757300  1
  Cu  Cu76  1  0.95227400  0.16647000  0.85695300  1
  Cu  Cu77  1  0.45227400  0.33353000  0.64304700  1
  Cu  Cu78  1  0.04772600  0.66647000  0.64304700  1
  Cu  Cu79  1  0.54772600  0.83353000  0.85695300  1
  Cu  Cu80  1  0.04772600  0.83353000  0.14304700  1
  Cu  Cu81  1  0.54772600  0.66647000  0.35695300  1
  Cu  Cu82  1  0.95227400  0.33353000  0.35695300  1
  Cu  Cu83  1  0.45227400  0.16647000  0.14304700  1
  Cu  Cu84  1  0.00582500  0.93532500  0.85775600  1
  Cu  Cu85  1  0.50582500  0.56467500  0.64224400  1
  Cu  Cu86  1  0.99417500  0.43532500  0.64224400  1
  Cu  Cu87  1  0.49417500  0.06467500  0.85775600  1
  Cu  Cu88  1  0.99417500  0.06467500  0.14224400  1
  Cu  Cu89  1  0.49417500  0.43532500  0.35775600  1
  Cu  Cu90  1  0.00582500  0.56467500  0.35775600  1
  Cu  Cu91  1  0.50582500  0.93532500  0.14224400  1
  Cu  Cu92  1  0.91702500  0.91514600  0.59312500  1
  Cu  Cu93  1  0.41702500  0.58485400  0.90687500  1
  Cu  Cu94  1  0.08297500  0.41514600  0.90687500  1
  Cu  Cu95  1  0.58297500  0.08485400  0.59312500  1
  Cu  Cu96  1  0.08297500  0.08485400  0.40687500  1
  Cu  Cu97  1  0.58297500  0.41514600  0.09312500  1
  Cu  Cu98  1  0.91702500  0.58485400  0.09312500  1
  Cu  Cu99  1  0.41702500  0.91514600  0.40687500  1
  Cu  Cu100  1  0.86645200  0.14649600  0.59421600  1
  Cu  Cu101  1  0.36645200  0.35350400  0.90578400  1
  Cu  Cu102  1  0.13354800  0.64649600  0.90578400  1
  Cu  Cu103  1  0.63354800  0.85350400  0.59421600  1
  Cu  Cu104  1  0.13354800  0.85350400  0.40578400  1
  Cu  Cu105  1  0.63354800  0.64649600  0.09421600  1
  Cu  Cu106  1  0.86645200  0.35350400  0.09421600  1
  Cu  Cu107  1  0.36645200  0.14649600  0.40578400  1
