# generated using pymatgen
data_Cu2NiC16
_symmetry_space_group_name_H-M   'P 1'
_cell_length_a   8.60526700
_cell_length_b   9.45097528
_cell_length_c   9.69727495
_cell_angle_alpha   104.06233899
_cell_angle_beta   90.00000000
_cell_angle_gamma   90.00000000
_symmetry_Int_Tables_number   1
_chemical_formula_structural   Cu2NiC16
_chemical_formula_sum   'Cu8 Ni4 C64'
_cell_volume   765.02692328
_cell_formula_units_Z   4
loop_
 _symmetry_equiv_pos_site_id
 _symmetry_equiv_pos_as_xyz
  1  'x, y, z'
loop_
 _atom_site_type_symbol
 _atom_site_label
 _atom_site_symmetry_multiplicity
 _atom_site_fract_x
 _atom_site_fract_y
 _atom_site_fract_z
 _atom_site_occupancy
  C  C0  1  0.65862300  0.20090200  0.93423400  1
  C  C1  1  0.15862300  0.79909800  0.56576600  1
  C  C2  1  0.34137700  0.79909800  0.06576600  1
  C  C3  1  0.84137700  0.20090200  0.43423400  1
  Ni  Ni4  1  0.45295100  0.33660200  0.19472800  1
  Ni  Ni5  1  0.95295100  0.66339800  0.30527200  1
  Ni  Ni6  1  0.54704900  0.66339800  0.80527200  1
  Ni  Ni7  1  0.04704900  0.33660200  0.69472800  1
  Cu  Cu8  1  0.56469900  0.07183200  0.20725000  1
  Cu  Cu9  1  0.06469900  0.92816800  0.29275000  1
  Cu  Cu10  1  0.43530100  0.92816800  0.79275000  1
  Cu  Cu11  1  0.93530100  0.07183200  0.70725000  1
  Cu  Cu12  1  0.73483100  0.41662000  0.72339200  1
  Cu  Cu13  1  0.23483100  0.58338000  0.77660800  1
  Cu  Cu14  1  0.26516900  0.58338000  0.27660800  1
  Cu  Cu15  1  0.76516900  0.41662000  0.22339200  1
  C  C16  1  0.44401400  0.38903000  0.99673700  1
  C  C17  1  0.94401400  0.61097000  0.50326300  1
  C  C18  1  0.55598600  0.61097000  0.00326300  1
  C  C19  1  0.05598600  0.38903000  0.49673700  1
  C  C20  1  0.53411000  0.79031500  0.51106900  1
  C  C21  1  0.03411000  0.20968500  0.98893100  1
  C  C22  1  0.46589000  0.20968500  0.48893100  1
  C  C23  1  0.96589000  0.79031500  0.01106900  1
  C  C24  1  0.67031700  0.72175200  0.38586700  1
  C  C25  1  0.17031700  0.27824800  0.11413300  1
  C  C26  1  0.32968300  0.27824800  0.61413300  1
  C  C27  1  0.82968300  0.72175200  0.88586700  1
  C  C28  1  0.68355200  0.89625800  0.48121300  1
  C  C29  1  0.18355200  0.10374200  0.01878700  1
  C  C30  1  0.31644800  0.10374200  0.51878700  1
  C  C31  1  0.81644800  0.89625800  0.98121300  1
  C  C32  1  0.54310000  0.84536000  0.35735600  1
  C  C33  1  0.04310000  0.15464000  0.14264400  1
  C  C34  1  0.45690000  0.15464000  0.64264400  1
  C  C35  1  0.95690000  0.84536000  0.85735600  1
  C  C36  1  0.60743000  0.81328700  0.43545400  1
  C  C37  1  0.10743000  0.18671300  0.06454600  1
  C  C38  1  0.39257000  0.18671300  0.56454600  1
  C  C39  1  0.89257000  0.81328700  0.93545400  1
  C  C40  1  0.66251600  0.07373900  0.07447000  1
  C  C41  1  0.16251600  0.92626100  0.42553000  1
  C  C42  1  0.33748400  0.92626100  0.92553000  1
  C  C43  1  0.83748400  0.07373900  0.57447000  1
  C  C44  1  0.84178600  0.10216600  0.84683900  1
  C  C45  1  0.34178600  0.89783400  0.65316100  1
  C  C46  1  0.15821400  0.89783400  0.15316100  1
  C  C47  1  0.65821400  0.10216600  0.34683900  1
  C  C48  1  0.51701400  0.07440500  0.80105000  1
  C  C49  1  0.01701400  0.92559500  0.69895000  1
  C  C50  1  0.48298600  0.92559500  0.19895000  1
  C  C51  1  0.98298600  0.07440500  0.30105000  1
  C  C52  1  0.63371900  0.34456800  0.81600100  1
  C  C53  1  0.13371900  0.65543200  0.68399900  1
  C  C54  1  0.36628100  0.65543200  0.18399900  1
  C  C55  1  0.86628100  0.34456800  0.31600100  1
  C  C56  1  0.46381400  0.30566600  0.03632200  1
  C  C57  1  0.96381400  0.69433400  0.46367800  1
  C  C58  1  0.53618600  0.69433400  0.96367800  1
  C  C59  1  0.03618600  0.30566600  0.53632200  1
  C  C60  1  0.78756100  0.35046100  0.06458700  1
  C  C61  1  0.28756100  0.64953900  0.43541300  1
  C  C62  1  0.21243900  0.64953900  0.93541300  1
  C  C63  1  0.71243900  0.35046100  0.56458700  1
  C  C64  1  0.91123500  0.41941800  0.76530900  1
  C  C65  1  0.41123500  0.58058200  0.73469100  1
  C  C66  1  0.08876500  0.58058200  0.23469100  1
  C  C67  1  0.58876500  0.41941800  0.26530900  1
  C  C68  1  0.43520200  0.19431000  0.22788200  1
  C  C69  1  0.93520200  0.80569000  0.27211800  1
  C  C70  1  0.56479800  0.80569000  0.77211800  1
  C  C71  1  0.06479800  0.19431000  0.72788200  1
  C  C72  1  0.69339100  0.58437300  0.75842000  1
  C  C73  1  0.19339100  0.41562700  0.74158000  1
  C  C74  1  0.30660900  0.41562700  0.24158000  1
  C  C75  1  0.80660900  0.58437300  0.25842000  1
