# generated using pymatgen
data_Cu(NiC2)2
_symmetry_space_group_name_H-M   'P 1'
_cell_length_a   5.80813500
_cell_length_b   5.79349988
_cell_length_c   6.23128708
_cell_angle_alpha   62.45887446
_cell_angle_beta   62.22212228
_cell_angle_gamma   90.00003946
_symmetry_Int_Tables_number   1
_chemical_formula_structural   Cu(NiC2)2
_chemical_formula_sum   'Cu2 Ni4 C8'
_cell_volume   158.16567173
_cell_formula_units_Z   2
loop_
 _symmetry_equiv_pos_site_id
 _symmetry_equiv_pos_as_xyz
  1  'x, y, z'
loop_
 _atom_site_type_symbol
 _atom_site_label
 _atom_site_symmetry_multiplicity
 _atom_site_fract_x
 _atom_site_fract_y
 _atom_site_fract_z
 _atom_site_occupancy
  Ni  Ni0  1  0.62487300  0.37487000  0.75024000  1
  Ni  Ni1  1  0.62502700  0.37503300  0.24999100  1
  Ni  Ni2  1  0.12498400  0.37502400  0.25000200  1
  Ni  Ni3  1  0.62501000  0.87500700  0.74998800  1
  Cu  Cu4  1  0.25012500  0.74977700  0.49974700  1
  Cu  Cu5  1  0.99989300  0.00023900  0.00020700  1
  C  C6  1  0.40312600  0.13075100  0.73766300  1
  C  C7  1  0.85921600  0.13075500  0.73766000  1
  C  C8  1  0.39079800  0.61924800  0.76230500  1
  C  C9  1  0.84689700  0.61924200  0.76230600  1
  C  C10  1  0.86814500  0.13906700  0.26370600  1
  C  C11  1  0.86968400  0.59579500  0.26063100  1
  C  C12  1  0.38035400  0.15421700  0.23929000  1
  C  C13  1  0.38186800  0.61097600  0.23626400  1
