# generated using pymatgen
data_Cu2NiC9
_symmetry_space_group_name_H-M   'P 1'
_cell_length_a   6.06150600
_cell_length_b   5.09206100
_cell_length_c   11.08833093
_cell_angle_alpha   65.40551346
_cell_angle_beta   90.00000000
_cell_angle_gamma   90.00000000
_symmetry_Int_Tables_number   1
_chemical_formula_structural   Cu2NiC9
_chemical_formula_sum   'Cu4 Ni2 C18'
_cell_volume   311.19751609
_cell_formula_units_Z   2
loop_
 _symmetry_equiv_pos_site_id
 _symmetry_equiv_pos_as_xyz
  1  'x, y, z'
loop_
 _atom_site_type_symbol
 _atom_site_label
 _atom_site_symmetry_multiplicity
 _atom_site_fract_x
 _atom_site_fract_y
 _atom_site_fract_z
 _atom_site_occupancy
  C  C0  1  0.66306800  0.50000000  0.25000000  1
  C  C1  1  0.33693200  0.50000000  0.75000000  1
  Ni  Ni2  1  0.27728000  0.00000000  0.25000000  1
  Ni  Ni3  1  0.72272000  0.00000000  0.75000000  1
  Cu  Cu4  1  0.16659900  0.73693900  0.01215400  1
  Cu  Cu5  1  0.16659900  0.26306100  0.48784600  1
  Cu  Cu6  1  0.83340100  0.26306100  0.98784600  1
  Cu  Cu7  1  0.83340100  0.73693900  0.51215400  1
  C  C8  1  0.35617200  0.23296600  0.36371800  1
  C  C9  1  0.35617200  0.76703400  0.13628200  1
  C  C10  1  0.64382800  0.76703400  0.63628200  1
  C  C11  1  0.64382800  0.23296600  0.86371800  1
  C  C12  1  0.91147700  0.66065800  0.89093000  1
  C  C13  1  0.91147700  0.33934200  0.60907000  1
  C  C14  1  0.08852300  0.33934200  0.10907000  1
  C  C15  1  0.08852300  0.66065800  0.39093000  1
  C  C16  1  0.63943200  0.71457900  0.39060900  1
  C  C17  1  0.63943200  0.28542100  0.10939100  1
  C  C18  1  0.36056800  0.28542100  0.60939100  1
  C  C19  1  0.36056800  0.71457900  0.89060900  1
  C  C20  1  0.88588800  0.15918700  0.40396800  1
  C  C21  1  0.11411200  0.84081300  0.59603200  1
  C  C22  1  0.88588800  0.84081300  0.09603200  1
  C  C23  1  0.11411200  0.15918700  0.90396800  1
