# generated using pymatgen
data_Cu2Ni8C27
_symmetry_space_group_name_H-M   'P 1'
_cell_length_a   7.28979029
_cell_length_b   9.10327518
_cell_length_c   11.85780000
_cell_angle_alpha   90.00000000
_cell_angle_beta   90.00000000
_cell_angle_gamma   107.20138499
_symmetry_Int_Tables_number   1
_chemical_formula_structural   Cu2Ni8C27
_chemical_formula_sum   'Cu4 Ni16 C54'
_cell_volume   751.69821355
_cell_formula_units_Z   2
loop_
 _symmetry_equiv_pos_site_id
 _symmetry_equiv_pos_as_xyz
  1  'x, y, z'
loop_
 _atom_site_type_symbol
 _atom_site_label
 _atom_site_symmetry_multiplicity
 _atom_site_fract_x
 _atom_site_fract_y
 _atom_site_fract_z
 _atom_site_occupancy
  C  C0  1  0.60949400  0.93728000  0.75000000  1
  C  C1  1  0.39050600  0.06272000  0.25000000  1
  C  C2  1  0.15126100  0.95187000  0.75000000  1
  C  C3  1  0.84873900  0.04813000  0.25000000  1
  C  C4  1  0.74048000  0.99724700  0.96547400  1
  C  C5  1  0.25952000  0.00275300  0.03452600  1
  C  C6  1  0.25952000  0.00275300  0.46547400  1
  C  C7  1  0.74048000  0.99724700  0.53452600  1
  C  C8  1  0.98647800  0.15554500  0.81630600  1
  C  C9  1  0.01352200  0.84445500  0.18369400  1
  C  C10  1  0.01352200  0.84445500  0.31630600  1
  C  C11  1  0.98647800  0.15554500  0.68369400  1
  C  C12  1  0.37362400  0.65839200  0.81651700  1
  C  C13  1  0.62637600  0.34160800  0.18348300  1
  C  C14  1  0.62637600  0.34160800  0.31651700  1
  C  C15  1  0.37362400  0.65839200  0.68348300  1
  C  C16  1  0.52423900  0.84515700  0.31491200  1
  C  C17  1  0.47576100  0.15484300  0.68508800  1
  C  C18  1  0.47576100  0.15484300  0.81491200  1
  C  C19  1  0.52423900  0.84515700  0.18508800  1
  C  C20  1  0.83156500  0.59316700  0.44890800  1
  C  C21  1  0.16843500  0.40683300  0.55109200  1
  C  C22  1  0.16843500  0.40683300  0.94890800  1
  C  C23  1  0.83156500  0.59316700  0.05109200  1
  C  C24  1  0.56778300  0.84795600  0.96161500  1
  C  C25  1  0.43221700  0.15204400  0.03838500  1
  C  C26  1  0.43221700  0.15204400  0.46161500  1
  C  C27  1  0.56778300  0.84795600  0.53838500  1
  Ni  Ni28  1  0.76110400  0.50871900  0.84845100  1
  Ni  Ni29  1  0.23889600  0.49128100  0.15154900  1
  Ni  Ni30  1  0.23889600  0.49128100  0.34845100  1
  Ni  Ni31  1  0.76110400  0.50871900  0.65154900  1
  Ni  Ni32  1  0.89548800  0.65812200  0.84865700  1
  Ni  Ni33  1  0.10451200  0.34187800  0.15134300  1
  Ni  Ni34  1  0.10451200  0.34187800  0.34865700  1
  Ni  Ni35  1  0.89548800  0.65812200  0.65134300  1
  Ni  Ni36  1  0.67305000  0.40852300  0.94995900  1
  Ni  Ni37  1  0.32695000  0.59147700  0.05004100  1
  Ni  Ni38  1  0.32695000  0.59147700  0.44995900  1
  Ni  Ni39  1  0.67305000  0.40852300  0.55004100  1
  Ni  Ni40  1  0.99477200  0.76131900  0.94683300  1
  Ni  Ni41  1  0.00522800  0.23868100  0.05316700  1
  Ni  Ni42  1  0.00522800  0.23868100  0.44683300  1
  Ni  Ni43  1  0.99477200  0.76131900  0.55316700  1
  Cu  Cu44  1  0.70021800  0.44083000  0.75000000  1
  Cu  Cu45  1  0.29978200  0.55917000  0.25000000  1
  Cu  Cu46  1  0.95590900  0.72482500  0.75000000  1
  Cu  Cu47  1  0.04409100  0.27517500  0.25000000  1
  C  C48  1  0.42375000  0.72147500  0.75000000  1
  C  C49  1  0.57625000  0.27852500  0.25000000  1
  C  C50  1  0.43591700  0.08425100  0.75000000  1
  C  C51  1  0.56408300  0.91574900  0.25000000  1
  C  C52  1  0.94793000  0.71534400  0.45052400  1
  C  C53  1  0.05207000  0.28465600  0.54947600  1
  C  C54  1  0.05207000  0.28465600  0.95052400  1
  C  C55  1  0.94793000  0.71534400  0.04947600  1
  C  C56  1  0.71996000  0.46338400  0.44950600  1
  C  C57  1  0.28004000  0.53661600  0.55049400  1
  C  C58  1  0.28004000  0.53661600  0.94950600  1
  C  C59  1  0.71996000  0.46338400  0.05049400  1
  C  C60  1  0.11902100  0.88340900  0.92276100  1
  C  C61  1  0.88097900  0.11659100  0.07723900  1
  C  C62  1  0.88097900  0.11659100  0.42276100  1
  C  C63  1  0.11902100  0.88340900  0.57723900  1
  C  C64  1  0.66093900  0.92106200  0.91270100  1
  C  C65  1  0.33906100  0.07893800  0.08729900  1
  C  C66  1  0.33906100  0.07893800  0.41270100  1
  C  C67  1  0.66093900  0.92106200  0.58729900  1
  C  C68  1  0.96821400  0.08800200  0.75000000  1
  C  C69  1  0.03178600  0.91199800  0.25000000  1
  C  C70  1  0.55992400  0.27842700  0.93273300  1
  C  C71  1  0.44007600  0.72157300  0.06726700  1
  C  C72  1  0.44007600  0.72157300  0.43273300  1
  C  C73  1  0.55992400  0.27842700  0.56726700  1
