# generated using pymatgen
data_Cu7Ni4C15
_symmetry_space_group_name_H-M   'P 1'
_cell_length_a   18.41458300
_cell_length_b   8.40568500
_cell_length_c   6.98260200
_cell_angle_alpha   90.00000000
_cell_angle_beta   90.00000000
_cell_angle_gamma   90.00000000
_symmetry_Int_Tables_number   1
_chemical_formula_structural   Cu7Ni4C15
_chemical_formula_sum   'Cu28 Ni16 C60'
_cell_volume   1080.81730130
_cell_formula_units_Z   4
loop_
 _symmetry_equiv_pos_site_id
 _symmetry_equiv_pos_as_xyz
  1  'x, y, z'
loop_
 _atom_site_type_symbol
 _atom_site_label
 _atom_site_symmetry_multiplicity
 _atom_site_fract_x
 _atom_site_fract_y
 _atom_site_fract_z
 _atom_site_occupancy
  C  C0  1  0.07654900  0.75000000  0.10916000  1
  C  C1  1  0.57654900  0.75000000  0.39084000  1
  C  C2  1  0.92345100  0.25000000  0.89084000  1
  C  C3  1  0.42345100  0.25000000  0.60916000  1
  C  C4  1  0.15111700  0.55653500  0.31335900  1
  C  C5  1  0.65111700  0.94346500  0.18664100  1
  C  C6  1  0.84888300  0.05653500  0.68664100  1
  C  C7  1  0.34888300  0.44346500  0.81335900  1
  C  C8  1  0.84888300  0.44346500  0.68664100  1
  C  C9  1  0.34888300  0.05653500  0.81335900  1
  C  C10  1  0.15111700  0.94346500  0.31335900  1
  C  C11  1  0.65111700  0.55653500  0.18664100  1
  C  C12  1  0.07635600  0.61205700  0.42909600  1
  C  C13  1  0.57635600  0.88794300  0.07090400  1
  C  C14  1  0.92364400  0.11205700  0.57090400  1
  C  C15  1  0.42364400  0.38794300  0.92909600  1
  C  C16  1  0.92364400  0.38794300  0.57090400  1
  C  C17  1  0.42364400  0.11205700  0.92909600  1
  C  C18  1  0.07635600  0.88794300  0.42909600  1
  C  C19  1  0.57635600  0.61205700  0.07090400  1
  C  C20  1  0.07168000  0.47951600  0.25184400  1
  C  C21  1  0.57168000  0.02048400  0.24815600  1
  C  C22  1  0.92832000  0.97951600  0.74815600  1
  C  C23  1  0.42832000  0.52048400  0.75184400  1
  C  C24  1  0.92832000  0.52048400  0.74815600  1
  C  C25  1  0.42832000  0.97951600  0.75184400  1
  C  C26  1  0.07168000  0.02048400  0.25184400  1
  C  C27  1  0.57168000  0.47951600  0.24815600  1
  C  C28  1  0.18692900  0.65163300  0.93883300  1
  C  C29  1  0.68692900  0.84836700  0.56116700  1
  C  C30  1  0.81307100  0.15163300  0.06116700  1
  C  C31  1  0.31307100  0.34836700  0.43883300  1
  C  C32  1  0.81307100  0.34836700  0.06116700  1
  C  C33  1  0.31307100  0.15163300  0.43883300  1
  C  C34  1  0.18692900  0.84836700  0.93883300  1
  C  C35  1  0.68692900  0.65163300  0.56116700  1
  C  C36  1  0.21596600  0.75000000  0.13007300  1
  C  C37  1  0.71596600  0.75000000  0.36992700  1
  C  C38  1  0.78403400  0.25000000  0.86992700  1
  C  C39  1  0.28403400  0.25000000  0.63007300  1
  C  C40  1  0.94898100  0.64987500  0.14445200  1
  C  C41  1  0.44898100  0.85012500  0.35554800  1
  C  C42  1  0.05101900  0.14987500  0.85554800  1
  C  C43  1  0.55101900  0.35012500  0.64445200  1
  C  C44  1  0.05101900  0.35012500  0.85554800  1
  C  C45  1  0.55101900  0.14987500  0.64445200  1
  C  C46  1  0.94898100  0.85012500  0.14445200  1
  C  C47  1  0.44898100  0.64987500  0.35554800  1
  C  C48  1  0.97094100  0.75000000  0.34188800  1
  C  C49  1  0.47094100  0.75000000  0.15811200  1
  C  C50  1  0.02905900  0.25000000  0.65811200  1
  C  C51  1  0.52905900  0.25000000  0.84188800  1
  C  C52  1  0.04011500  0.75000000  0.78585500  1
  C  C53  1  0.54011500  0.75000000  0.71414500  1
  C  C54  1  0.95988500  0.25000000  0.21414500  1
  C  C55  1  0.45988500  0.25000000  0.28585500  1
  Ni  Ni56  1  0.09700400  0.58126800  0.29684400  1
  Ni  Ni57  1  0.59700400  0.91873200  0.20315600  1
  Ni  Ni58  1  0.90299600  0.08126800  0.70315600  1
  Ni  Ni59  1  0.40299600  0.41873200  0.79684400  1
  Ni  Ni60  1  0.90299600  0.41873200  0.70315600  1
  Ni  Ni61  1  0.40299600  0.08126800  0.79684400  1
  Ni  Ni62  1  0.09700400  0.91873200  0.29684400  1
  Ni  Ni63  1  0.59700400  0.58126800  0.20315600  1
  Ni  Ni64  1  0.97440400  0.75000000  0.19512200  1
  Ni  Ni65  1  0.47440400  0.75000000  0.30487800  1
  Ni  Ni66  1  0.02559600  0.25000000  0.80487800  1
  Ni  Ni67  1  0.52559600  0.25000000  0.69512200  1
  Ni  Ni68  1  0.17809900  0.75000000  0.02260100  1
  Ni  Ni69  1  0.67809900  0.75000000  0.47739900  1
  Ni  Ni70  1  0.82190100  0.25000000  0.97739900  1
  Ni  Ni71  1  0.32190100  0.25000000  0.52260100  1
  C  C72  1  0.27295500  0.75000000  0.50516700  1
  C  C73  1  0.77295500  0.75000000  0.99483300  1
  C  C74  1  0.72704500  0.25000000  0.49483300  1
  C  C75  1  0.22704500  0.25000000  0.00516700  1
  Cu  Cu76  1  0.05062500  0.62023800  0.88880700  1
  Cu  Cu77  1  0.55062500  0.87976200  0.61119300  1
  Cu  Cu78  1  0.94937500  0.12023800  0.11119300  1
  Cu  Cu79  1  0.44937500  0.37976200  0.38880700  1
  Cu  Cu80  1  0.94937500  0.37976200  0.11119300  1
  Cu  Cu81  1  0.44937500  0.12023800  0.38880700  1
  Cu  Cu82  1  0.05062500  0.87976200  0.88880700  1
  Cu  Cu83  1  0.55062500  0.62023800  0.61119300  1
  Cu  Cu84  1  0.02162200  0.75000000  0.61239800  1
  Cu  Cu85  1  0.52162200  0.75000000  0.88760200  1
  Cu  Cu86  1  0.97837800  0.25000000  0.38760200  1
  Cu  Cu87  1  0.47837800  0.25000000  0.11239800  1
  Cu  Cu88  1  0.33366500  0.75000000  0.63981400  1
  Cu  Cu89  1  0.83366500  0.75000000  0.86018600  1
  Cu  Cu90  1  0.66633500  0.25000000  0.36018600  1
  Cu  Cu91  1  0.16633500  0.25000000  0.13981400  1
  Cu  Cu92  1  0.20415600  0.75000000  0.60868100  1
  Cu  Cu93  1  0.70415600  0.75000000  0.89131900  1
  Cu  Cu94  1  0.79584400  0.25000000  0.39131900  1
  Cu  Cu95  1  0.29584400  0.25000000  0.10868100  1
  Cu  Cu96  1  0.27662800  0.60803800  0.38236600  1
  Cu  Cu97  1  0.77662800  0.89196200  0.11763400  1
  Cu  Cu98  1  0.72337200  0.10803800  0.61763400  1
  Cu  Cu99  1  0.22337200  0.39196200  0.88236600  1
  Cu  Cu100  1  0.72337200  0.39196200  0.61763400  1
  Cu  Cu101  1  0.22337200  0.10803800  0.88236600  1
  Cu  Cu102  1  0.27662800  0.89196200  0.38236600  1
  Cu  Cu103  1  0.77662800  0.60803800  0.11763400  1
