# generated using pymatgen
data_CuNiC16
_symmetry_space_group_name_H-M   'P 1'
_cell_length_a   13.16185200
_cell_length_b   7.24072000
_cell_length_c   12.16380191
_cell_angle_alpha   53.66582500
_cell_angle_beta   90.00000000
_cell_angle_gamma   90.00000000
_symmetry_Int_Tables_number   1
_chemical_formula_structural   CuNiC16
_chemical_formula_sum   'Cu4 Ni4 C64'
_cell_volume   933.84347316
_cell_formula_units_Z   4
loop_
 _symmetry_equiv_pos_site_id
 _symmetry_equiv_pos_as_xyz
  1  'x, y, z'
loop_
 _atom_site_type_symbol
 _atom_site_label
 _atom_site_symmetry_multiplicity
 _atom_site_fract_x
 _atom_site_fract_y
 _atom_site_fract_z
 _atom_site_occupancy
  Ni  Ni0  1  0.72237500  0.56348100  0.93694000  1
  Ni  Ni1  1  0.77762500  0.56348100  0.43694000  1
  Ni  Ni2  1  0.27762500  0.43651900  0.06306000  1
  Ni  Ni3  1  0.22237500  0.43651900  0.56306000  1
  Cu  Cu4  1  0.71944400  0.96436400  0.02295600  1
  Cu  Cu5  1  0.78055600  0.96436400  0.52295600  1
  Cu  Cu6  1  0.28055600  0.03563600  0.97704400  1
  Cu  Cu7  1  0.21944400  0.03563600  0.47704400  1
  C  C8  1  0.87159100  0.15466000  0.19755500  1
  C  C9  1  0.62840900  0.15466000  0.69755500  1
  C  C10  1  0.12840900  0.84534000  0.80244500  1
  C  C11  1  0.37159100  0.84534000  0.30244500  1
  C  C12  1  0.89736200  0.49394600  0.25525900  1
  C  C13  1  0.60263800  0.49394600  0.75525900  1
  C  C14  1  0.10263800  0.50605400  0.74474100  1
  C  C15  1  0.39736200  0.50605400  0.24474100  1
  C  C16  1  0.11539200  0.61180300  0.26284000  1
  C  C17  1  0.38460800  0.61180300  0.76284000  1
  C  C18  1  0.88460800  0.38819700  0.73716000  1
  C  C19  1  0.61539200  0.38819700  0.23716000  1
  C  C20  1  0.09189700  0.06609600  0.20138500  1
  C  C21  1  0.40810300  0.06609600  0.70138500  1
  C  C22  1  0.90810300  0.93390400  0.79861500  1
  C  C23  1  0.59189700  0.93390400  0.29861500  1
  C  C24  1  0.64850900  0.60218100  0.10331000  1
  C  C25  1  0.85149100  0.60218100  0.60331000  1
  C  C26  1  0.35149100  0.39781900  0.89669000  1
  C  C27  1  0.14850900  0.39781900  0.39669000  1
  C  C28  1  0.61065400  0.30493300  0.90575900  1
  C  C29  1  0.88934600  0.30493300  0.40575900  1
  C  C30  1  0.38934600  0.69506700  0.09424100  1
  C  C31  1  0.11065400  0.69506700  0.59424100  1
  C  C32  1  0.78990000  0.16944500  0.10626100  1
  C  C33  1  0.71010000  0.16944500  0.60626100  1
  C  C34  1  0.21010000  0.83055500  0.89373900  1
  C  C35  1  0.28990000  0.83055500  0.39373900  1
  C  C36  1  0.86580700  0.97599500  0.34879300  1
  C  C37  1  0.63419300  0.97599500  0.84879300  1
  C  C38  1  0.13419300  0.02400500  0.65120700  1
  C  C39  1  0.36580700  0.02400500  0.15120700  1
  C  C40  1  0.97895100  0.14553400  0.13723000  1
  C  C41  1  0.52104900  0.14553400  0.63723000  1
  C  C42  1  0.02104900  0.85446600  0.86277000  1
  C  C43  1  0.47895100  0.85446600  0.36277000  1
  C  C44  1  0.87441200  0.40634500  0.16360200  1
  C  C45  1  0.62558800  0.40634500  0.66360200  1
  C  C46  1  0.12558800  0.59365500  0.83639800  1
  C  C47  1  0.37441200  0.59365500  0.33639800  1
  C  C48  1  0.83323200  0.70490300  0.20058500  1
  C  C49  1  0.66676800  0.70490300  0.70058500  1
  C  C50  1  0.16676800  0.29509700  0.79941500  1
  C  C51  1  0.33323200  0.29509700  0.29941500  1
  C  C52  1  0.01278000  0.57396800  0.20862500  1
  C  C53  1  0.48722000  0.57396800  0.70862500  1
  C  C54  1  0.98722000  0.42603200  0.79137500  1
  C  C55  1  0.51278000  0.42603200  0.29137500  1
  C  C56  1  0.08104200  0.79006700  0.29419600  1
  C  C57  1  0.41895800  0.79006700  0.79419600  1
  C  C58  1  0.91895800  0.20993300  0.70580400  1
  C  C59  1  0.58104200  0.20993300  0.20580400  1
  C  C60  1  0.18857800  0.72300400  0.14601900  1
  C  C61  1  0.31142200  0.72300400  0.64601900  1
  C  C62  1  0.81142200  0.27699600  0.85398100  1
  C  C63  1  0.68857800  0.27699600  0.35398100  1
  C  C64  1  0.11295100  0.13093000  0.29592200  1
  C  C65  1  0.38704900  0.13093000  0.79592200  1
  C  C66  1  0.88704900  0.86907000  0.70407800  1
  C  C67  1  0.61295100  0.86907000  0.20407800  1
  C  C68  1  0.16264300  0.15350800  0.08331000  1
  C  C69  1  0.33735700  0.15350800  0.58331000  1
  C  C70  1  0.83735700  0.84649200  0.91669000  1
  C  C71  1  0.66264300  0.84649200  0.41669000  1
