# generated using pymatgen
data_CuNiC
_symmetry_space_group_name_H-M   'P 1'
_cell_length_a   5.37047200
_cell_length_b   5.43542000
_cell_length_c   16.83373300
_cell_angle_alpha   90.00000000
_cell_angle_beta   90.00000000
_cell_angle_gamma   90.00000000
_symmetry_Int_Tables_number   1
_chemical_formula_structural   CuNiC
_chemical_formula_sum   'Cu8 Ni8 C8'
_cell_volume   491.38964370
_cell_formula_units_Z   8
loop_
 _symmetry_equiv_pos_site_id
 _symmetry_equiv_pos_as_xyz
  1  'x, y, z'
loop_
 _atom_site_type_symbol
 _atom_site_label
 _atom_site_symmetry_multiplicity
 _atom_site_fract_x
 _atom_site_fract_y
 _atom_site_fract_z
 _atom_site_occupancy
  C  C0  1  0.25000000  0.01567600  0.86211000  1
  C  C1  1  0.25000000  0.51567600  0.63789000  1
  C  C2  1  0.75000000  0.98432400  0.13789000  1
  C  C3  1  0.75000000  0.48432400  0.36211000  1
  C  C4  1  0.25000000  0.98499700  0.35325400  1
  C  C5  1  0.25000000  0.48499700  0.14674600  1
  C  C6  1  0.75000000  0.01500300  0.64674600  1
  C  C7  1  0.75000000  0.51500300  0.85325400  1
  Ni  Ni8  1  0.46176900  0.70193000  0.00268100  1
  Ni  Ni9  1  0.03823100  0.20193000  0.49731900  1
  Ni  Ni10  1  0.96176900  0.29807000  0.99731900  1
  Ni  Ni11  1  0.53823100  0.79807000  0.50268100  1
  Ni  Ni12  1  0.53823100  0.29807000  0.99731900  1
  Ni  Ni13  1  0.96176900  0.79807000  0.50268100  1
  Ni  Ni14  1  0.03823100  0.70193000  0.00268100  1
  Ni  Ni15  1  0.46176900  0.20193000  0.49731900  1
  Cu  Cu16  1  0.25000000  0.51500100  0.81127800  1
  Cu  Cu17  1  0.25000000  0.01500100  0.68872200  1
  Cu  Cu18  1  0.75000000  0.48499900  0.18872200  1
  Cu  Cu19  1  0.75000000  0.98499900  0.31127800  1
  Cu  Cu20  1  0.25000000  0.48823800  0.31707100  1
  Cu  Cu21  1  0.25000000  0.98823800  0.18292900  1
  Cu  Cu22  1  0.75000000  0.51176200  0.68292900  1
  Cu  Cu23  1  0.75000000  0.01176200  0.81707100  1
