# generated using pymatgen
data_Cu4Ni5C21
_symmetry_space_group_name_H-M   'P 1'
_cell_length_a   8.66707487
_cell_length_b   8.66707487
_cell_length_c   8.66707487
_cell_angle_alpha   95.62667275
_cell_angle_beta   95.62667275
_cell_angle_gamma   143.50488871
_symmetry_Int_Tables_number   1
_chemical_formula_structural   Cu4Ni5C21
_chemical_formula_sum   'Cu4 Ni5 C21'
_cell_volume   367.74544969
_cell_formula_units_Z   1
loop_
 _symmetry_equiv_pos_site_id
 _symmetry_equiv_pos_as_xyz
  1  'x, y, z'
loop_
 _atom_site_type_symbol
 _atom_site_label
 _atom_site_symmetry_multiplicity
 _atom_site_fract_x
 _atom_site_fract_y
 _atom_site_fract_z
 _atom_site_occupancy
  Ni  Ni0  1  0.40358600  0.88784600  0.30577500  1
  Ni  Ni1  1  0.58207100  0.09781100  0.69422500  1
  Ni  Ni2  1  0.90218900  0.59641400  0.48426000  1
  Ni  Ni3  1  0.11215400  0.41792900  0.51574000  1
  Ni  Ni4  1  0.00000000  0.00000000  0.00000000  1
  Cu  Cu5  1  0.36155000  0.29459300  0.70204900  1
  Cu  Cu6  1  0.59254400  0.65950100  0.29795100  1
  Cu  Cu7  1  0.34049900  0.63845000  0.93304200  1
  Cu  Cu8  1  0.70540700  0.40745600  0.06695800  1
  C  C9  1  0.25748600  0.11465700  0.35014100  1
  C  C10  1  0.76451500  0.90734500  0.64985900  1
  C  C11  1  0.09265500  0.74251400  0.85717100  1
  C  C12  1  0.88534300  0.23548400  0.14282900  1
  C  C13  1  0.37461000  0.09719400  0.49716800  1
  C  C14  1  0.60002600  0.87744100  0.50283200  1
  C  C15  1  0.12255900  0.62539000  0.72258400  1
  C  C16  1  0.90280600  0.39997400  0.27741600  1
  C  C17  1  0.95137200  0.81303200  0.23577600  1
  C  C18  1  0.57725600  0.71559600  0.76422400  1
  C  C19  1  0.28440400  0.04862800  0.86166000  1
  C  C20  1  0.18696800  0.42274400  0.13834000  1
  C  C21  1  0.46309200  0.29196100  0.23838800  1
  C  C22  1  0.05357300  0.22470400  0.76161200  1
  C  C23  1  0.77529600  0.53690800  0.82886900  1
  C  C24  1  0.70803900  0.94642700  0.17113100  1
  C  C25  1  0.26880000  0.30212600  0.43962300  1
  C  C26  1  0.86250300  0.82917700  0.56037700  1
  C  C27  1  0.17082300  0.73120000  0.03332700  1
  C  C28  1  0.69787400  0.13749700  0.96667300  1
  C  C29  1  0.50000000  0.50000000  0.00000000  1
