# generated using pymatgen
data_Cu3Ni2C9
_symmetry_space_group_name_H-M   'P 1'
_cell_length_a   7.64259264
_cell_length_b   7.56912500
_cell_length_c   7.64365295
_cell_angle_alpha   59.61870034
_cell_angle_beta   60.03442357
_cell_angle_gamma   59.63190720
_symmetry_Int_Tables_number   1
_chemical_formula_structural   Cu3Ni2C9
_chemical_formula_sum   'Cu3 Ni2 C9'
_cell_volume   310.95740086
_cell_formula_units_Z   1
loop_
 _symmetry_equiv_pos_site_id
 _symmetry_equiv_pos_as_xyz
  1  'x, y, z'
loop_
 _atom_site_type_symbol
 _atom_site_label
 _atom_site_symmetry_multiplicity
 _atom_site_fract_x
 _atom_site_fract_y
 _atom_site_fract_z
 _atom_site_occupancy
  Ni  Ni0  1  0.87583400  0.87177200  0.87624400  1
  Ni  Ni1  1  0.12403200  0.12824100  0.12384800  1
  C  C2  1  0.49988700  0.00005400  0.50010600  1
  Cu  Cu3  1  0.50002100  0.50006400  0.50006300  1
  Cu  Cu4  1  0.50012200  0.49996700  0.99976300  1
  Cu  Cu5  1  0.00003700  0.49988100  0.50006600  1
  C  C6  1  0.73234900  0.75883700  0.73238000  1
  C  C7  1  0.26751700  0.24153600  0.72373200  1
  C  C8  1  0.25733600  0.72809900  0.25714300  1
  C  C9  1  0.72429300  0.24211500  0.26690500  1
  C  C10  1  0.74274000  0.27180900  0.74276100  1
  C  C11  1  0.27564800  0.75790400  0.73308400  1
  C  C12  1  0.26772400  0.24121300  0.26757600  1
  C  C13  1  0.73246300  0.75850400  0.27633000  1
