# generated using pymatgen
data_Cu4Ni4C9
_symmetry_space_group_name_H-M   'P 1'
_cell_length_a   5.72531845
_cell_length_b   11.45016243
_cell_length_c   9.07627777
_cell_angle_alpha   89.99996427
_cell_angle_beta   108.38635082
_cell_angle_gamma   89.99998939
_symmetry_Int_Tables_number   1
_chemical_formula_structural   Cu4Ni4C9
_chemical_formula_sum   'Cu8 Ni8 C18'
_cell_volume   564.62869271
_cell_formula_units_Z   2
loop_
 _symmetry_equiv_pos_site_id
 _symmetry_equiv_pos_as_xyz
  1  'x, y, z'
loop_
 _atom_site_type_symbol
 _atom_site_label
 _atom_site_symmetry_multiplicity
 _atom_site_fract_x
 _atom_site_fract_y
 _atom_site_fract_z
 _atom_site_occupancy
  C  C0  1  0.59864100  0.49888000  0.20078600  1
  C  C1  1  0.59864100  0.99887500  0.20078800  1
  C  C2  1  0.10215100  0.25112400  0.20078600  1
  C  C3  1  0.10215000  0.75112000  0.20078800  1
  C  C4  1  0.89785000  0.25112500  0.79921300  1
  C  C5  1  0.89785100  0.75111900  0.79921300  1
  C  C6  1  0.40135900  0.49888100  0.79921300  1
  C  C7  1  0.40136100  0.99887400  0.79921400  1
  C  C8  1  0.50000000  0.24909400  0.99999400  1
  C  C9  1  0.49999500  0.74909500  0.99999900  1
  C  C10  1  0.99999400  0.00090800  0.00000300  1
  C  C11  1  0.99999800  0.50091400  0.00000200  1
  C  C12  1  0.00000100  0.12500000  0.50000000  1
  C  C13  1  0.00000000  0.62500000  0.50000000  1
  C  C14  1  0.50000100  0.62499800  0.50000000  1
  C  C15  1  0.00000100  0.37499500  0.50000100  1
  C  C16  1  0.00000000  0.87500700  0.50000000  1
  C  C17  1  0.50000000  0.12499800  0.50000100  1
  Ni  Ni18  1  0.83186300  0.00195400  0.65559500  1
  Ni  Ni19  1  0.83186900  0.50195300  0.65560100  1
  Ni  Ni20  1  0.32373000  0.24804600  0.65560100  1
  Ni  Ni21  1  0.32372800  0.74804700  0.65560500  1
  Ni  Ni22  1  0.67627000  0.24804600  0.34439900  1
  Ni  Ni23  1  0.67627300  0.74804700  0.34439400  1
  Ni  Ni24  1  0.16813800  0.00195400  0.34440500  1
  Ni  Ni25  1  0.16813100  0.50195400  0.34439900  1
  Cu  Cu26  1  0.25156400  0.12498700  0.00319800  1
  Cu  Cu27  1  0.25156200  0.62498600  0.00319800  1
  Cu  Cu28  1  0.74843700  0.12498700  0.99680100  1
  Cu  Cu29  1  0.74843800  0.62498600  0.99680300  1
  Cu  Cu30  1  0.74996700  0.37501500  0.99987000  1
  Cu  Cu31  1  0.74996800  0.87500900  0.99986900  1
  Cu  Cu32  1  0.25003400  0.37501500  0.00013100  1
  Cu  Cu33  1  0.25003300  0.87501000  0.00013100  1
