# generated using pymatgen
data_Cu3NiC19
_symmetry_space_group_name_H-M   'P 1'
_cell_length_a   8.66028628
_cell_length_b   8.66028628
_cell_length_c   5.31484900
_cell_angle_alpha   90.00000000
_cell_angle_beta   90.00000000
_cell_angle_gamma   120.00000212
_symmetry_Int_Tables_number   1
_chemical_formula_structural   Cu3NiC19
_chemical_formula_sum   'Cu3 Ni1 C19'
_cell_volume   345.21213169
_cell_formula_units_Z   1
loop_
 _symmetry_equiv_pos_site_id
 _symmetry_equiv_pos_as_xyz
  1  'x, y, z'
loop_
 _atom_site_type_symbol
 _atom_site_label
 _atom_site_symmetry_multiplicity
 _atom_site_fract_x
 _atom_site_fract_y
 _atom_site_fract_z
 _atom_site_occupancy
  C  C0  1  0.43340800  0.00000000  0.00000000  1
  C  C1  1  0.56659200  0.56659200  0.00000000  1
  C  C2  1  0.00000000  0.43340800  0.00000000  1
  Ni  Ni3  1  0.00000000  0.00000000  0.00000000  1
  Cu  Cu4  1  0.74911700  0.00000000  0.50000000  1
  Cu  Cu5  1  0.25088300  0.25088300  0.50000000  1
  Cu  Cu6  1  0.00000000  0.74911700  0.50000000  1
  C  C7  1  0.66666700  0.33333300  0.47800000  1
  C  C8  1  0.33333300  0.66666700  0.52200000  1
  C  C9  1  0.66666700  0.33333300  0.78241700  1
  C  C10  1  0.33333300  0.66666700  0.21758300  1
  C  C11  1  0.17753700  0.70270500  0.64563600  1
  C  C12  1  0.52516800  0.82246300  0.64563600  1
  C  C13  1  0.29729500  0.47483200  0.64563600  1
  C  C14  1  0.82246300  0.52516800  0.35436400  1
  C  C15  1  0.70270500  0.17753700  0.35436400  1
  C  C16  1  0.47483200  0.29729500  0.35436400  1
  C  C17  1  0.11507600  0.89996400  0.22335800  1
  C  C18  1  0.78488800  0.88492400  0.22335800  1
  C  C19  1  0.10003600  0.21511200  0.22335800  1
  C  C20  1  0.88492400  0.78488800  0.77664200  1
  C  C21  1  0.89996400  0.11507600  0.77664200  1
  C  C22  1  0.21511200  0.10003600  0.77664200  1
