# generated using pymatgen
data_Cu3NiC
_symmetry_space_group_name_H-M   'P 1'
_cell_length_a   6.43984144
_cell_length_b   6.43984144
_cell_length_c   6.98458897
_cell_angle_alpha   76.12839177
_cell_angle_beta   76.12839177
_cell_angle_gamma   96.26345140
_symmetry_Int_Tables_number   1
_chemical_formula_structural   Cu3NiC
_chemical_formula_sum   'Cu12 Ni4 C4'
_cell_volume   268.71466988
_cell_formula_units_Z   4
loop_
 _symmetry_equiv_pos_site_id
 _symmetry_equiv_pos_as_xyz
  1  'x, y, z'
loop_
 _atom_site_type_symbol
 _atom_site_label
 _atom_site_symmetry_multiplicity
 _atom_site_fract_x
 _atom_site_fract_y
 _atom_site_fract_z
 _atom_site_occupancy
  C  C0  1  0.62022000  0.37978000  0.75000000  1
  C  C1  1  0.37978000  0.62022000  0.25000000  1
  C  C2  1  0.09613500  0.90386500  0.75000000  1
  C  C3  1  0.90386500  0.09613500  0.25000000  1
  Ni  Ni4  1  0.64553600  0.88981400  0.75777500  1
  Ni  Ni5  1  0.35446400  0.11018600  0.24222500  1
  Ni  Ni6  1  0.11018600  0.35446400  0.74222500  1
  Ni  Ni7  1  0.88981400  0.64553600  0.25777500  1
  Cu  Cu8  1  0.44339200  0.89541900  0.78003800  1
  Cu  Cu9  1  0.55660800  0.10458100  0.21996200  1
  Cu  Cu10  1  0.10458100  0.55660800  0.71996200  1
  Cu  Cu11  1  0.89541900  0.44339200  0.28003800  1
  Cu  Cu12  1  0.71474700  0.74930700  0.88299300  1
  Cu  Cu13  1  0.28525300  0.25069300  0.11700700  1
  Cu  Cu14  1  0.25069300  0.28525300  0.61700700  1
  Cu  Cu15  1  0.74930700  0.71474700  0.38299300  1
  Cu  Cu16  1  0.79651300  0.03298900  0.60868000  1
  Cu  Cu17  1  0.20348700  0.96701100  0.39132000  1
  Cu  Cu18  1  0.96701100  0.20348700  0.89132000  1
  Cu  Cu19  1  0.03298900  0.79651300  0.10868000  1
