# generated using pymatgen
data_Cu12NiC16
_symmetry_space_group_name_H-M   'P 1'
_cell_length_a   11.14202045
_cell_length_b   11.14202045
_cell_length_c   10.55022427
_cell_angle_alpha   61.75245867
_cell_angle_beta   61.75245867
_cell_angle_gamma   37.79426578
_symmetry_Int_Tables_number   1
_chemical_formula_structural   Cu12NiC16
_chemical_formula_sum   'Cu12 Ni1 C16'
_cell_volume   695.00520893
_cell_formula_units_Z   1
loop_
 _symmetry_equiv_pos_site_id
 _symmetry_equiv_pos_as_xyz
  1  'x, y, z'
loop_
 _atom_site_type_symbol
 _atom_site_label
 _atom_site_symmetry_multiplicity
 _atom_site_fract_x
 _atom_site_fract_y
 _atom_site_fract_z
 _atom_site_occupancy
  C  C0  1  0.62395400  0.62395400  0.12758100  1
  C  C1  1  0.12257700  0.12257700  0.12668800  1
  C  C2  1  0.43880000  0.43880000  0.37566300  1
  C  C3  1  0.93834300  0.93834300  0.37717700  1
  C  C4  1  0.56398800  0.56398800  0.49496900  1
  C  C5  1  0.06243400  0.06243400  0.49755800  1
  C  C6  1  0.37675300  0.87824300  0.87306800  1
  C  C7  1  0.87824300  0.37675300  0.87306800  1
  C  C8  1  0.56138100  0.06164700  0.62187600  1
  C  C9  1  0.06164700  0.56138100  0.62187600  1
  C  C10  1  0.43641100  0.93549500  0.50517200  1
  C  C11  1  0.93549500  0.43641100  0.50517200  1
  Ni  Ni12  1  0.37500900  0.37500900  0.99995900  1
  Cu  Cu13  1  0.01417100  0.01417100  0.05172400  1
  Cu  Cu14  1  0.51598500  0.51598500  0.05314200  1
  Cu  Cu15  1  0.90105100  0.90105100  0.66898400  1
  Cu  Cu16  1  0.40140300  0.40140300  0.66588800  1
  Cu  Cu17  1  0.20772000  0.20772000  0.28179700  1
  Cu  Cu18  1  0.70990900  0.70990900  0.27861100  1
  Cu  Cu19  1  0.98641000  0.48566300  0.94803800  1
  Cu  Cu20  1  0.48566300  0.98641000  0.94803800  1
  Cu  Cu21  1  0.09866800  0.59926600  0.32993700  1
  Cu  Cu22  1  0.59926600  0.09866800  0.32993700  1
  Cu  Cu23  1  0.78939100  0.29034800  0.72203200  1
  Cu  Cu24  1  0.29034800  0.78939100  0.72203200  1
  C  C25  1  0.20824900  0.20824900  0.66662900  1
  C  C26  1  0.70818900  0.70818900  0.66713200  1
  C  C27  1  0.79196000  0.29158200  0.33312600  1
  C  C28  1  0.29158200  0.79196000  0.33312600  1
