# generated using pymatgen
data_CuNiC2
_symmetry_space_group_name_H-M   'P 1'
_cell_length_a   7.30380067
_cell_length_b   7.30380067
_cell_length_c   7.30380067
_cell_angle_alpha   130.96138904
_cell_angle_beta   130.71503560
_cell_angle_gamma   72.07043405
_symmetry_Int_Tables_number   1
_chemical_formula_structural   CuNiC2
_chemical_formula_sum   'Cu2 Ni2 C4'
_cell_volume   218.07567773
_cell_formula_units_Z   2
loop_
 _symmetry_equiv_pos_site_id
 _symmetry_equiv_pos_as_xyz
  1  'x, y, z'
loop_
 _atom_site_type_symbol
 _atom_site_label
 _atom_site_symmetry_multiplicity
 _atom_site_fract_x
 _atom_site_fract_y
 _atom_site_fract_z
 _atom_site_occupancy
  Ni  Ni0  1  0.13030100  0.88030100  0.25000000  1
  Ni  Ni1  1  0.36969900  0.61969900  0.75000000  1
  Cu  Cu2  1  0.63321500  0.38321500  0.25000000  1
  Cu  Cu3  1  0.86678500  0.11678500  0.75000000  1
  C  C4  1  0.25000000  0.50346400  0.25346400  1
  C  C5  1  0.75000000  0.99653600  0.24653600  1
  C  C6  1  0.48723700  0.25000000  0.73723700  1
  C  C7  1  0.01276300  0.75000000  0.76276300  1
