# generated using pymatgen
data_Cu4Ni5C21
_symmetry_space_group_name_H-M   'P 1'
_cell_length_a   8.94942007
_cell_length_b   8.94942007
_cell_length_c   8.94942007
_cell_angle_alpha   95.44352638
_cell_angle_beta   95.44352638
_cell_angle_gamma   144.12239906
_symmetry_Int_Tables_number   1
_chemical_formula_structural   Cu4Ni5C21
_chemical_formula_sum   'Cu4 Ni5 C21'
_cell_volume   399.65044807
_cell_formula_units_Z   1
loop_
 _symmetry_equiv_pos_site_id
 _symmetry_equiv_pos_as_xyz
  1  'x, y, z'
loop_
 _atom_site_type_symbol
 _atom_site_label
 _atom_site_symmetry_multiplicity
 _atom_site_fract_x
 _atom_site_fract_y
 _atom_site_fract_z
 _atom_site_occupancy
  Ni  Ni0  1  0.09756100  0.40318700  0.48428500  1
  Ni  Ni1  1  0.91890300  0.61327600  0.51571500  1
  Ni  Ni2  1  0.38672400  0.90243900  0.30562700  1
  Ni  Ni3  1  0.59681300  0.08109700  0.69437300  1
  Ni  Ni4  1  0.50000000  0.50000000  0.00000000  1
  Cu  Cu5  1  0.13526400  0.83345100  0.93279100  1
  Cu  Cu6  1  0.90066000  0.20247300  0.06720900  1
  Cu  Cu7  1  0.79752700  0.86473600  0.69818700  1
  Cu  Cu8  1  0.16654900  0.09934000  0.30181300  1
  C  C9  1  0.24452400  0.59360100  0.85447800  1
  C  C10  1  0.73912300  0.39004600  0.14552200  1
  C  C11  1  0.60995400  0.75547600  0.34907700  1
  C  C12  1  0.40639900  0.26087700  0.65092300  1
  C  C13  1  0.13175900  0.62197500  0.72227500  1
  C  C14  1  0.89970000  0.40948400  0.27772500  1
  C  C15  1  0.59051600  0.86824100  0.49021600  1
  C  C16  1  0.37802500  0.10030000  0.50978400  1
  C  C17  1  0.54252100  0.77885400  0.85635100  1
  C  C18  1  0.92250300  0.68617000  0.14364900  1
  C  C19  1  0.31383000  0.45747900  0.23633300  1
  C  C20  1  0.22114600  0.07749700  0.76366700  1
  C  C21  1  0.03670000  0.28144200  0.82747900  1
  C  C22  1  0.45396300  0.20922100  0.17252100  1
  C  C23  1  0.79077900  0.96330000  0.24474200  1
  C  C24  1  0.71855800  0.54603700  0.75525800  1
  C  C25  1  0.25238900  0.68425900  0.02925900  1
  C  C26  1  0.65500000  0.22313000  0.97074100  1
  C  C27  1  0.77687000  0.74761100  0.43187100  1
  C  C28  1  0.31574100  0.34500000  0.56812900  1
  C  C29  1  0.00000000  0.00000000  0.00000000  1
