# generated using pymatgen
data_Cu10Ni2C11
_symmetry_space_group_name_H-M   'P 1'
_cell_length_a   12.78078500
_cell_length_b   12.78078500
_cell_length_c   2.84123900
_cell_angle_alpha   90.00000000
_cell_angle_beta   90.00000000
_cell_angle_gamma   90.00000000
_symmetry_Int_Tables_number   1
_chemical_formula_structural   Cu10Ni2C11
_chemical_formula_sum   'Cu20 Ni4 C22'
_cell_volume   464.11202996
_cell_formula_units_Z   2
loop_
 _symmetry_equiv_pos_site_id
 _symmetry_equiv_pos_as_xyz
  1  'x, y, z'
loop_
 _atom_site_type_symbol
 _atom_site_label
 _atom_site_symmetry_multiplicity
 _atom_site_fract_x
 _atom_site_fract_y
 _atom_site_fract_z
 _atom_site_occupancy
  C  C0  1  0.50000000  0.50000000  0.50000000  1
  C  C1  1  0.00000000  0.00000000  0.00000000  1
  C  C2  1  0.99450600  0.78043900  0.50000000  1
  C  C3  1  0.00549400  0.21956100  0.50000000  1
  C  C4  1  0.50549400  0.28043900  0.00000000  1
  C  C5  1  0.49450600  0.71956100  0.00000000  1
  C  C6  1  0.78043900  0.99450600  0.50000000  1
  C  C7  1  0.21956100  0.00549400  0.50000000  1
  C  C8  1  0.28043900  0.50549400  0.00000000  1
  C  C9  1  0.71956100  0.49450600  0.00000000  1
  C  C10  1  0.65533700  0.65533700  0.50000000  1
  C  C11  1  0.34466300  0.34466300  0.50000000  1
  C  C12  1  0.84466300  0.15533700  0.00000000  1
  C  C13  1  0.15533700  0.84466300  0.00000000  1
  C  C14  1  0.40845300  0.92628100  0.50000000  1
  C  C15  1  0.59154700  0.07371900  0.50000000  1
  C  C16  1  0.09154700  0.42628100  0.00000000  1
  C  C17  1  0.90845300  0.57371900  0.00000000  1
  C  C18  1  0.92628100  0.40845300  0.50000000  1
  C  C19  1  0.07371900  0.59154700  0.50000000  1
  C  C20  1  0.42628100  0.09154700  0.00000000  1
  C  C21  1  0.57371900  0.90845300  0.00000000  1
  Ni  Ni22  1  0.30288900  0.69711100  0.50000000  1
  Ni  Ni23  1  0.69711100  0.30288900  0.50000000  1
  Ni  Ni24  1  0.19711100  0.19711100  0.00000000  1
  Ni  Ni25  1  0.80288900  0.80288900  0.00000000  1
  Cu  Cu26  1  0.08316400  0.91683600  0.50000000  1
  Cu  Cu27  1  0.91683600  0.08316400  0.50000000  1
  Cu  Cu28  1  0.41683600  0.41683600  0.00000000  1
  Cu  Cu29  1  0.58316400  0.58316400  0.00000000  1
  Cu  Cu30  1  0.48388200  0.17655600  0.50000000  1
  Cu  Cu31  1  0.51611800  0.82344400  0.50000000  1
  Cu  Cu32  1  0.01611800  0.67655600  0.00000000  1
  Cu  Cu33  1  0.98388200  0.32344400  0.00000000  1
  Cu  Cu34  1  0.17655600  0.48388200  0.50000000  1
  Cu  Cu35  1  0.82344400  0.51611800  0.50000000  1
  Cu  Cu36  1  0.67655600  0.01611800  0.00000000  1
  Cu  Cu37  1  0.32344400  0.98388200  0.00000000  1
  Cu  Cu38  1  0.23519000  0.76481000  0.50000000  1
  Cu  Cu39  1  0.76481000  0.23519000  0.50000000  1
  Cu  Cu40  1  0.26481000  0.26481000  0.00000000  1
  Cu  Cu41  1  0.73519000  0.73519000  0.00000000  1
  Cu  Cu42  1  0.37224800  0.62775200  0.50000000  1
  Cu  Cu43  1  0.62775200  0.37224800  0.50000000  1
  Cu  Cu44  1  0.12775200  0.12775200  0.00000000  1
  Cu  Cu45  1  0.87224800  0.87224800  0.00000000  1
