# generated using pymatgen
data_CuNiC5
_symmetry_space_group_name_H-M   'P 1'
_cell_length_a   8.53843900
_cell_length_b   10.80734664
_cell_length_c   10.90635261
_cell_angle_alpha   85.62959829
_cell_angle_beta   84.46474147
_cell_angle_gamma   88.55798293
_symmetry_Int_Tables_number   1
_chemical_formula_structural   CuNiC5
_chemical_formula_sum   'Cu8 Ni8 C40'
_cell_volume   998.64841849
_cell_formula_units_Z   8
loop_
 _symmetry_equiv_pos_site_id
 _symmetry_equiv_pos_as_xyz
  1  'x, y, z'
loop_
 _atom_site_type_symbol
 _atom_site_label
 _atom_site_symmetry_multiplicity
 _atom_site_fract_x
 _atom_site_fract_y
 _atom_site_fract_z
 _atom_site_occupancy
  C  C0  1  0.83295900  0.22545100  0.58166200  1
  C  C1  1  0.16704100  0.77454900  0.41833800  1
  C  C2  1  0.34714300  0.73118400  0.93512600  1
  C  C3  1  0.65285700  0.26881600  0.06487400  1
  C  C4  1  0.30409500  0.13172400  0.69865000  1
  C  C5  1  0.69590500  0.86827600  0.30135000  1
  C  C6  1  0.17226400  0.35865100  0.19443500  1
  C  C7  1  0.82773600  0.64134900  0.80556500  1
  Ni  Ni8  1  0.26608900  0.42548900  0.50446600  1
  Ni  Ni9  1  0.73391100  0.57451100  0.49553400  1
  Ni  Ni10  1  0.22673100  0.06074700  0.04149400  1
  Ni  Ni11  1  0.77326900  0.93925300  0.95850600  1
  Ni  Ni12  1  0.10140500  0.37058200  0.87265300  1
  Ni  Ni13  1  0.89859500  0.62941800  0.12734700  1
  Ni  Ni14  1  0.39959900  0.12307000  0.36870700  1
  Ni  Ni15  1  0.60040100  0.87693000  0.63129300  1
  Cu  Cu16  1  0.42926500  0.40546500  0.48141400  1
  Cu  Cu17  1  0.57073500  0.59453500  0.51858600  1
  Cu  Cu18  1  0.06185500  0.06283300  0.06525500  1
  Cu  Cu19  1  0.93814500  0.93716700  0.93474500  1
  Cu  Cu20  1  0.25767500  0.41165400  0.86298000  1
  Cu  Cu21  1  0.74232500  0.58834600  0.13702000  1
  Cu  Cu22  1  0.25368100  0.06251600  0.38127500  1
  Cu  Cu23  1  0.74631900  0.93748400  0.61872500  1
  C  C24  1  0.10213300  0.24875500  0.80804900  1
  C  C25  1  0.89786700  0.75124500  0.19195100  1
  C  C26  1  0.19638900  0.30466700  0.57141800  1
  C  C27  1  0.80361100  0.69533300  0.42858200  1
  C  C28  1  0.47564000  0.95938800  0.69729400  1
  C  C29  1  0.52436000  0.04061200  0.30270600  1
  C  C30  1  0.26356600  0.04063900  0.90327600  1
  C  C31  1  0.73643400  0.95936100  0.09672400  1
  C  C32  1  0.04501500  0.34627900  0.01137600  1
  C  C33  1  0.95498500  0.65372100  0.98862400  1
  C  C34  1  0.00009000  0.52829000  0.18839800  1
  C  C35  1  0.99991000  0.47171000  0.81160200  1
  C  C36  1  0.02720000  0.25485100  0.27516000  1
  C  C37  1  0.97280000  0.74514900  0.72484000  1
  C  C38  1  0.32269800  0.45605700  0.10780000  1
  C  C39  1  0.67730200  0.54394300  0.89220000  1
  C  C40  1  0.20061000  0.45222900  0.37819200  1
  C  C41  1  0.79939000  0.54777100  0.62180800  1
  C  C42  1  0.37593900  0.24695100  0.29243700  1
  C  C43  1  0.62406100  0.75304900  0.70756300  1
  C  C44  1  0.28505300  0.18777200  0.07403600  1
  C  C45  1  0.71494700  0.81222800  0.92596400  1
  C  C46  1  0.29701900  0.95551600  0.12143300  1
  C  C47  1  0.70298100  0.04448400  0.87856700  1
  C  C48  1  0.15449900  0.03849200  0.64403700  1
  C  C49  1  0.84550100  0.96150800  0.35596300  1
  C  C50  1  0.23228300  0.53421000  0.58497800  1
  C  C51  1  0.76771700  0.46579000  0.41502200  1
  C  C52  1  0.44140300  0.14527300  0.49968600  1
  C  C53  1  0.55859700  0.85472700  0.50031400  1
  C  C54  1  0.45030500  0.23406900  0.74405000  1
  C  C55  1  0.54969500  0.76593100  0.25595000  1
