# generated using pymatgen
data_CuNiC8
_symmetry_space_group_name_H-M   'P 1'
_cell_length_a   5.75081700
_cell_length_b   5.55368400
_cell_length_c   9.65100660
_cell_angle_alpha   55.18462370
_cell_angle_beta   90.00000000
_cell_angle_gamma   90.00000000
_symmetry_Int_Tables_number   1
_chemical_formula_structural   CuNiC8
_chemical_formula_sum   'Cu2 Ni2 C16'
_cell_volume   253.06050885
_cell_formula_units_Z   2
loop_
 _symmetry_equiv_pos_site_id
 _symmetry_equiv_pos_as_xyz
  1  'x, y, z'
loop_
 _atom_site_type_symbol
 _atom_site_label
 _atom_site_symmetry_multiplicity
 _atom_site_fract_x
 _atom_site_fract_y
 _atom_site_fract_z
 _atom_site_occupancy
  C  C0  1  0.94449000  0.23688400  0.74986300  1
  C  C1  1  0.44449000  0.76311600  0.75013700  1
  C  C2  1  0.05551000  0.76311600  0.25013700  1
  C  C3  1  0.55551000  0.23688400  0.24986300  1
  Ni  Ni4  1  0.50000000  0.50000000  0.50000000  1
  Ni  Ni5  1  0.00000000  0.50000000  0.00000000  1
  Cu  Cu6  1  0.50000000  0.00000000  0.00000000  1
  Cu  Cu7  1  0.00000000  0.00000000  0.50000000  1
  C  C8  1  0.52277800  0.33564700  0.75324300  1
  C  C9  1  0.02277800  0.66435300  0.74675700  1
  C  C10  1  0.47722200  0.66435300  0.24675700  1
  C  C11  1  0.97722200  0.33564700  0.25324300  1
  C  C12  1  0.20836500  0.85083900  0.95073500  1
  C  C13  1  0.70836500  0.14916100  0.54926500  1
  C  C14  1  0.79163500  0.14916100  0.04926500  1
  C  C15  1  0.29163500  0.85083900  0.45073500  1
  C  C16  1  0.80003900  0.75045600  0.45568000  1
  C  C17  1  0.30003900  0.24954400  0.04432000  1
  C  C18  1  0.19996100  0.24954400  0.54432000  1
  C  C19  1  0.69996100  0.75045600  0.95568000  1
