# generated using pymatgen
data_Cu4Ni2C3
_symmetry_space_group_name_H-M   'P 1'
_cell_length_a   12.11968740
_cell_length_b   12.11968740
_cell_length_c   3.66965500
_cell_angle_alpha   90.00000000
_cell_angle_beta   90.00000000
_cell_angle_gamma   119.99999672
_symmetry_Int_Tables_number   1
_chemical_formula_structural   Cu4Ni2C3
_chemical_formula_sum   'Cu16 Ni8 C12'
_cell_volume   466.80846079
_cell_formula_units_Z   4
loop_
 _symmetry_equiv_pos_site_id
 _symmetry_equiv_pos_as_xyz
  1  'x, y, z'
loop_
 _atom_site_type_symbol
 _atom_site_label
 _atom_site_symmetry_multiplicity
 _atom_site_fract_x
 _atom_site_fract_y
 _atom_site_fract_z
 _atom_site_occupancy
  Ni  Ni0  1  0.44354200  0.44354200  0.00000000  1
  Ni  Ni1  1  0.55645800  0.00000000  0.00000000  1
  Ni  Ni2  1  0.00000000  0.55645800  0.00000000  1
  Ni  Ni3  1  0.66666700  0.33333300  0.00000000  1
  Ni  Ni4  1  0.33333300  0.66666700  0.00000000  1
  Ni  Ni5  1  0.82315500  0.82315500  0.50000000  1
  Ni  Ni6  1  0.17684500  0.00000000  0.50000000  1
  Ni  Ni7  1  0.00000000  0.17684500  0.50000000  1
  Cu  Cu8  1  0.19291400  0.37213400  0.00000000  1
  Cu  Cu9  1  0.17922000  0.80708600  0.00000000  1
  Cu  Cu10  1  0.82078000  0.62786600  0.00000000  1
  Cu  Cu11  1  0.80708600  0.17922000  0.00000000  1
  Cu  Cu12  1  0.37213400  0.19291400  0.00000000  1
  Cu  Cu13  1  0.12582700  0.48061900  0.50000000  1
  Cu  Cu14  1  0.35479200  0.87417300  0.50000000  1
  Cu  Cu15  1  0.51938100  0.64520800  0.50000000  1
  Cu  Cu16  1  0.64520800  0.51938100  0.50000000  1
  Cu  Cu17  1  0.87417300  0.35479200  0.50000000  1
  Cu  Cu18  1  0.48061900  0.12582700  0.50000000  1
  Cu  Cu19  1  0.00000000  0.00000000  0.00000000  1
  Cu  Cu20  1  0.72285900  0.00000000  0.50000000  1
  Cu  Cu21  1  0.00000000  0.72285900  0.50000000  1
  Cu  Cu22  1  0.62786600  0.82078000  0.00000000  1
  Cu  Cu23  1  0.27714100  0.27714100  0.50000000  1
  C  C24  1  0.65422000  0.65422000  0.00000000  1
  C  C25  1  0.34578000  0.00000000  0.00000000  1
  C  C26  1  0.00000000  0.34578000  0.00000000  1
  C  C27  1  0.48133400  0.30759200  0.50000000  1
  C  C28  1  0.69240800  0.17374200  0.50000000  1
  C  C29  1  0.82625800  0.51866600  0.50000000  1
  C  C30  1  0.51866600  0.82625800  0.50000000  1
  C  C31  1  0.17374200  0.69240800  0.50000000  1
  C  C32  1  0.82435400  0.00000000  0.00000000  1
  C  C33  1  0.00000000  0.82435400  0.00000000  1
  C  C34  1  0.30759200  0.48133400  0.50000000  1
  C  C35  1  0.17564600  0.17564600  0.00000000  1
