# generated using pymatgen
data_Cu9NiC22
_symmetry_space_group_name_H-M   'P 1'
_cell_length_a   4.20997000
_cell_length_b   4.20997000
_cell_length_c   24.80320500
_cell_angle_alpha   90.00000000
_cell_angle_beta   90.00000000
_cell_angle_gamma   90.00000000
_symmetry_Int_Tables_number   1
_chemical_formula_structural   Cu9NiC22
_chemical_formula_sum   'Cu9 Ni1 C22'
_cell_volume   439.60822047
_cell_formula_units_Z   1
loop_
 _symmetry_equiv_pos_site_id
 _symmetry_equiv_pos_as_xyz
  1  'x, y, z'
loop_
 _atom_site_type_symbol
 _atom_site_label
 _atom_site_symmetry_multiplicity
 _atom_site_fract_x
 _atom_site_fract_y
 _atom_site_fract_z
 _atom_site_occupancy
  C  C0  1  0.00000000  0.00000000  0.41615900  1
  C  C1  1  0.00000000  0.00000000  0.92266200  1
  C  C2  1  0.00000000  0.00000000  0.07733800  1
  C  C3  1  0.00000000  0.00000000  0.58384100  1
  Ni  Ni4  1  0.50000000  0.50000000  0.00000000  1
  Cu  Cu5  1  0.00000000  0.50000000  0.24929000  1
  Cu  Cu6  1  0.00000000  0.50000000  0.75071000  1
  Cu  Cu7  1  0.50000000  0.00000000  0.24929000  1
  Cu  Cu8  1  0.50000000  0.00000000  0.75071000  1
  Cu  Cu9  1  0.50000000  0.50000000  0.50000000  1
  Cu  Cu10  1  0.50000000  0.50000000  0.33164700  1
  Cu  Cu11  1  0.50000000  0.50000000  0.83417900  1
  Cu  Cu12  1  0.50000000  0.50000000  0.16582100  1
  Cu  Cu13  1  0.50000000  0.50000000  0.66835300  1
  C  C14  1  0.50000000  0.00000000  0.33634200  1
  C  C15  1  0.50000000  0.00000000  0.83622500  1
  C  C16  1  0.00000000  0.50000000  0.33634200  1
  C  C17  1  0.00000000  0.50000000  0.83622500  1
  C  C18  1  0.50000000  0.00000000  0.16377500  1
  C  C19  1  0.50000000  0.00000000  0.66365800  1
  C  C20  1  0.00000000  0.50000000  0.16377500  1
  C  C21  1  0.00000000  0.50000000  0.66365800  1
  C  C22  1  0.00000000  0.50000000  0.00000000  1
  C  C23  1  0.00000000  0.50000000  0.50000000  1
  C  C24  1  0.50000000  0.00000000  0.00000000  1
  C  C25  1  0.50000000  0.00000000  0.50000000  1
  C  C26  1  0.50000000  0.50000000  0.41913600  1
  C  C27  1  0.50000000  0.50000000  0.92045300  1
  C  C28  1  0.50000000  0.50000000  0.07954700  1
  C  C29  1  0.50000000  0.50000000  0.58086400  1
  C  C30  1  0.00000000  0.00000000  0.25025600  1
  C  C31  1  0.00000000  0.00000000  0.74974400  1
