# generated using pymatgen
data_Cu14Ni4C5
_symmetry_space_group_name_H-M   'P 1'
_cell_length_a   7.81020400
_cell_length_b   7.72546600
_cell_length_c   12.35463917
_cell_angle_alpha   81.21714162
_cell_angle_beta   90.00000000
_cell_angle_gamma   90.00000000
_symmetry_Int_Tables_number   1
_chemical_formula_structural   Cu14Ni4C5
_chemical_formula_sum   'Cu28 Ni8 C10'
_cell_volume   736.70657559
_cell_formula_units_Z   2
loop_
 _symmetry_equiv_pos_site_id
 _symmetry_equiv_pos_as_xyz
  1  'x, y, z'
loop_
 _atom_site_type_symbol
 _atom_site_label
 _atom_site_symmetry_multiplicity
 _atom_site_fract_x
 _atom_site_fract_y
 _atom_site_fract_z
 _atom_site_occupancy
  C  C0  1  0.00000000  0.00000000  0.50000000  1
  C  C1  1  0.50000000  0.50000000  0.50000000  1
  C  C2  1  0.25178600  0.15775000  0.86409900  1
  C  C3  1  0.75178600  0.34225000  0.13590100  1
  C  C4  1  0.74821400  0.84225000  0.13590100  1
  C  C5  1  0.24821400  0.65775000  0.86409900  1
  C  C6  1  0.24889600  0.83937000  0.13563000  1
  C  C7  1  0.74889600  0.66063000  0.86437000  1
  C  C8  1  0.75110400  0.16063000  0.86437000  1
  C  C9  1  0.25110400  0.33937000  0.13563000  1
  Ni  Ni10  1  0.37272800  0.87174900  0.49956200  1
  Ni  Ni11  1  0.87272800  0.62825100  0.50043800  1
  Ni  Ni12  1  0.62727200  0.12825100  0.50043800  1
  Ni  Ni13  1  0.12727200  0.37174900  0.49956200  1
  Ni  Ni14  1  0.99987200  0.93945100  0.74842600  1
  Ni  Ni15  1  0.49987200  0.56054900  0.25157400  1
  Ni  Ni16  1  0.00012800  0.06054900  0.25157400  1
  Ni  Ni17  1  0.50012800  0.43945100  0.74842600  1
  Cu  Cu18  1  0.66555800  0.83466300  0.49991500  1
  Cu  Cu19  1  0.16555800  0.66533700  0.50008500  1
  Cu  Cu20  1  0.33444200  0.16533700  0.50008500  1
  Cu  Cu21  1  0.83444200  0.33466300  0.49991500  1
  Cu  Cu22  1  0.49961500  0.88781500  0.94184600  1
  Cu  Cu23  1  0.99961500  0.61218500  0.05815400  1
  Cu  Cu24  1  0.50038500  0.11218500  0.05815400  1
  Cu  Cu25  1  0.00038500  0.38781500  0.94184600  1
  Cu  Cu26  1  0.00572300  0.23185800  0.67670100  1
  Cu  Cu27  1  0.50572300  0.26814200  0.32329900  1
  Cu  Cu28  1  0.99427700  0.76814200  0.32329900  1
  Cu  Cu29  1  0.49427700  0.73185800  0.67670100  1
  Cu  Cu30  1  0.99407100  0.68166000  0.67708300  1
  Cu  Cu31  1  0.49407100  0.81834000  0.32291700  1
  Cu  Cu32  1  0.00592900  0.31834000  0.32291700  1
  Cu  Cu33  1  0.50592900  0.18166000  0.67708300  1
  Cu  Cu34  1  0.27396100  0.95001600  0.67644300  1
  Cu  Cu35  1  0.77396100  0.54998400  0.32355700  1
  Cu  Cu36  1  0.72603900  0.04998400  0.32355700  1
  Cu  Cu37  1  0.22603900  0.45001600  0.67644300  1
  Cu  Cu38  1  0.72608600  0.96251100  0.67649200  1
  Cu  Cu39  1  0.22608600  0.53748900  0.32350800  1
  Cu  Cu40  1  0.27391400  0.03748900  0.32350800  1
  Cu  Cu41  1  0.77391400  0.46251100  0.67649200  1
  Cu  Cu42  1  0.00021900  0.89084600  0.93944800  1
  Cu  Cu43  1  0.50021900  0.60915400  0.06055200  1
  Cu  Cu44  1  0.99978100  0.10915400  0.06055200  1
  Cu  Cu45  1  0.49978100  0.39084600  0.93944800  1
