# generated using pymatgen
data_Cu3Ni2C19
_symmetry_space_group_name_H-M   'P 1'
_cell_length_a   8.76603500
_cell_length_b   5.06111600
_cell_length_c   5.14526096
_cell_angle_alpha   69.91328982
_cell_angle_beta   90.00000000
_cell_angle_gamma   90.00000000
_symmetry_Int_Tables_number   1
_chemical_formula_structural   Cu3Ni2C19
_chemical_formula_sum   'Cu3 Ni2 C19'
_cell_volume   214.38921336
_cell_formula_units_Z   1
loop_
 _symmetry_equiv_pos_site_id
 _symmetry_equiv_pos_as_xyz
  1  'x, y, z'
loop_
 _atom_site_type_symbol
 _atom_site_label
 _atom_site_symmetry_multiplicity
 _atom_site_fract_x
 _atom_site_fract_y
 _atom_site_fract_z
 _atom_site_occupancy
  C  C0  1  0.15550500  0.00000000  0.50000000  1
  C  C1  1  0.00000000  0.50000000  0.50000000  1
  C  C2  1  0.84449500  0.00000000  0.50000000  1
  C  C3  1  0.67065000  0.50000000  0.50000000  1
  C  C4  1  0.50000000  0.00000000  0.50000000  1
  C  C5  1  0.32935000  0.50000000  0.50000000  1
  C  C6  1  0.00000000  0.00000000  0.00000000  1
  Ni  Ni7  1  0.33156300  0.00000000  0.00000000  1
  Ni  Ni8  1  0.66843700  0.00000000  0.00000000  1
  Cu  Cu9  1  0.15974000  0.50000000  0.00000000  1
  Cu  Cu10  1  0.84026000  0.50000000  0.00000000  1
  Cu  Cu11  1  0.50000000  0.50000000  0.00000000  1
  C  C12  1  0.18400700  0.75965800  0.23035500  1
  C  C13  1  0.00000000  0.27754800  0.23932400  1
  C  C14  1  0.81599300  0.75965800  0.23035500  1
  C  C15  1  0.66009100  0.25414500  0.21344200  1
  C  C16  1  0.50000000  0.77299500  0.23035400  1
  C  C17  1  0.33990900  0.25414500  0.21344200  1
  C  C18  1  0.18400700  0.24034200  0.76964500  1
  C  C19  1  0.00000000  0.72245200  0.76067600  1
  C  C20  1  0.81599300  0.24034200  0.76964500  1
  C  C21  1  0.66009100  0.74585500  0.78655800  1
  C  C22  1  0.50000000  0.22700500  0.76964600  1
  C  C23  1  0.33990900  0.74585500  0.78655800  1
