# generated using pymatgen
data_Cu10Ni3C2
_symmetry_space_group_name_H-M   'P 1'
_cell_length_a   19.80489700
_cell_length_b   5.48278200
_cell_length_c   9.90343293
_cell_angle_alpha   64.79343742
_cell_angle_beta   90.00000000
_cell_angle_gamma   90.00000000
_symmetry_Int_Tables_number   1
_chemical_formula_structural   Cu10Ni3C2
_chemical_formula_sum   'Cu40 Ni12 C8'
_cell_volume   972.97458656
_cell_formula_units_Z   4
loop_
 _symmetry_equiv_pos_site_id
 _symmetry_equiv_pos_as_xyz
  1  'x, y, z'
loop_
 _atom_site_type_symbol
 _atom_site_label
 _atom_site_symmetry_multiplicity
 _atom_site_fract_x
 _atom_site_fract_y
 _atom_site_fract_z
 _atom_site_occupancy
  C  C0  1  0.87931800  0.99100700  0.60689700  1
  C  C1  1  0.62068200  0.99100700  0.10689700  1
  C  C2  1  0.12068200  0.00899300  0.39310300  1
  C  C3  1  0.37931800  0.00899300  0.89310300  1
  C  C4  1  0.83704600  0.95280100  0.01014700  1
  C  C5  1  0.66295400  0.95280100  0.51014700  1
  C  C6  1  0.16295400  0.04719900  0.98985300  1
  C  C7  1  0.33704600  0.04719900  0.48985300  1
  Ni  Ni8  1  0.71692500  0.41278100  0.80982000  1
  Ni  Ni9  1  0.78307500  0.41278100  0.30982000  1
  Ni  Ni10  1  0.28307500  0.58721900  0.19018000  1
  Ni  Ni11  1  0.21692500  0.58721900  0.69018000  1
  Ni  Ni12  1  0.77624800  0.47961300  0.70183800  1
  Ni  Ni13  1  0.72375200  0.47961300  0.20183800  1
  Ni  Ni14  1  0.22375200  0.52038700  0.29816200  1
  Ni  Ni15  1  0.27624800  0.52038700  0.79816200  1
  Ni  Ni16  1  0.99791600  0.14459400  0.93957600  1
  Ni  Ni17  1  0.50208400  0.14459400  0.43957600  1
  Ni  Ni18  1  0.00208400  0.85540600  0.06042400  1
  Ni  Ni19  1  0.49791600  0.85540600  0.56042400  1
  Cu  Cu20  1  0.83557800  0.12828600  0.12786600  1
  Cu  Cu21  1  0.66442200  0.12828600  0.62786600  1
  Cu  Cu22  1  0.16442200  0.87171400  0.87213400  1
  Cu  Cu23  1  0.33557800  0.87171400  0.37213400  1
  Cu  Cu24  1  0.84316300  0.77600500  0.89168400  1
  Cu  Cu25  1  0.65683700  0.77600500  0.39168400  1
  Cu  Cu26  1  0.15683700  0.22399500  0.10831600  1
  Cu  Cu27  1  0.34316300  0.22399500  0.60831600  1
  Cu  Cu28  1  0.72501700  0.21324000  0.93517200  1
  Cu  Cu29  1  0.77498300  0.21324000  0.43517200  1
  Cu  Cu30  1  0.27498300  0.78676000  0.06482800  1
  Cu  Cu31  1  0.22501700  0.78676000  0.56482800  1
  Cu  Cu32  1  0.66555900  0.56240100  0.76529300  1
  Cu  Cu33  1  0.83444100  0.56240100  0.26529300  1
  Cu  Cu34  1  0.33444100  0.43759900  0.23470700  1
  Cu  Cu35  1  0.16555900  0.43759900  0.73470700  1
  Cu  Cu36  1  0.77001600  0.69000800  0.58026900  1
  Cu  Cu37  1  0.72998400  0.69000800  0.08026900  1
  Cu  Cu38  1  0.22998400  0.30999200  0.41973100  1
  Cu  Cu39  1  0.27001600  0.30999200  0.91973100  1
  Cu  Cu40  1  0.82749800  0.32802900  0.74211600  1
  Cu  Cu41  1  0.67250200  0.32802900  0.24211600  1
  Cu  Cu42  1  0.17250200  0.67197100  0.25788400  1
  Cu  Cu43  1  0.32749800  0.67197100  0.75788400  1
  Cu  Cu44  1  0.93925300  0.23405500  0.89427600  1
  Cu  Cu45  1  0.56074700  0.23405500  0.39427600  1
  Cu  Cu46  1  0.06074700  0.76594500  0.10572400  1
  Cu  Cu47  1  0.43925300  0.76594500  0.60572400  1
  Cu  Cu48  1  0.94654000  0.73360500  0.10526700  1
  Cu  Cu49  1  0.55346000  0.73360500  0.60526700  1
  Cu  Cu50  1  0.05346000  0.26639500  0.89473300  1
  Cu  Cu51  1  0.44654000  0.26639500  0.39473300  1
  Cu  Cu52  1  0.53664200  0.95028100  0.85715200  1
  Cu  Cu53  1  0.96335800  0.95028100  0.35715200  1
  Cu  Cu54  1  0.46335800  0.04971900  0.14284800  1
  Cu  Cu55  1  0.03664200  0.04971900  0.64284800  1
  Cu  Cu56  1  0.54538100  0.70463600  0.92496400  1
  Cu  Cu57  1  0.95461900  0.70463600  0.42496400  1
  Cu  Cu58  1  0.45461900  0.29536400  0.07503600  1
  Cu  Cu59  1  0.04538100  0.29536400  0.57503600  1
