# generated using pymatgen
data_CuNi2C3
_symmetry_space_group_name_H-M   'P 1'
_cell_length_a   5.38579298
_cell_length_b   5.38579298
_cell_length_c   5.38579298
_cell_angle_alpha   146.31412142
_cell_angle_beta   131.60605545
_cell_angle_gamma   60.25794634
_symmetry_Int_Tables_number   1
_chemical_formula_structural   CuNi2C3
_chemical_formula_sum   'Cu1 Ni2 C3'
_cell_volume   64.18701004
_cell_formula_units_Z   1
loop_
 _symmetry_equiv_pos_site_id
 _symmetry_equiv_pos_as_xyz
  1  'x, y, z'
loop_
 _atom_site_type_symbol
 _atom_site_label
 _atom_site_symmetry_multiplicity
 _atom_site_fract_x
 _atom_site_fract_y
 _atom_site_fract_z
 _atom_site_occupancy
  Ni  Ni0  1  0.66534000  0.66534000  0.00000000  1
  Ni  Ni1  1  0.33466000  0.33466000  0.00000000  1
  Cu  Cu2  1  0.00000000  0.00000000  0.00000000  1
  C  C3  1  0.50000000  0.00000000  0.50000000  1
  C  C4  1  0.15829400  0.65829400  0.50000000  1
  C  C5  1  0.84170600  0.34170600  0.50000000  1
