# generated using pymatgen
data_CuNi4C15
_symmetry_space_group_name_H-M   'P 1'
_cell_length_a   7.90506800
_cell_length_b   5.54405100
_cell_length_c   5.56155762
_cell_angle_alpha   89.79208236
_cell_angle_beta   90.00000000
_cell_angle_gamma   90.00000000
_symmetry_Int_Tables_number   1
_chemical_formula_structural   CuNi4C15
_chemical_formula_sum   'Cu1 Ni4 C15'
_cell_volume   243.73977633
_cell_formula_units_Z   1
loop_
 _symmetry_equiv_pos_site_id
 _symmetry_equiv_pos_as_xyz
  1  'x, y, z'
loop_
 _atom_site_type_symbol
 _atom_site_label
 _atom_site_symmetry_multiplicity
 _atom_site_fract_x
 _atom_site_fract_y
 _atom_site_fract_z
 _atom_site_occupancy
  C  C0  1  0.00000000  0.00839900  0.96856900  1
  C  C1  1  0.50000000  0.50763900  0.53263700  1
  C  C2  1  0.50000000  0.99714200  0.03013900  1
  Ni  Ni3  1  0.24443900  0.50154700  0.00501300  1
  Ni  Ni4  1  0.75494300  0.00030500  0.49822900  1
  Ni  Ni5  1  0.75556100  0.50154700  0.00501300  1
  Ni  Ni6  1  0.24505700  0.00030500  0.49822900  1
  Cu  Cu7  1  0.00000000  0.49770200  0.48111400  1
  C  C8  1  0.00000000  0.57209500  0.02273300  1
  C  C9  1  0.00000000  0.92470000  0.51240100  1
  C  C10  1  0.50000000  0.43621900  0.98429600  1
  C  C11  1  0.50000000  0.07207000  0.49411400  1
  C  C12  1  0.22522700  0.20361800  0.20435300  1
  C  C13  1  0.78485200  0.27796600  0.72100600  1
  C  C14  1  0.71173600  0.78315600  0.78265900  1
  C  C15  1  0.30007300  0.72542500  0.27573800  1
  C  C16  1  0.28826400  0.78315600  0.78265900  1
  C  C17  1  0.69992700  0.72542500  0.27573800  1
  C  C18  1  0.77477300  0.20361800  0.20435300  1
  C  C19  1  0.21514800  0.27796600  0.72100600  1
