# generated using pymatgen
data_Cu(Ni4C5)2
_symmetry_space_group_name_H-M   'P 1'
_cell_length_a   7.14151300
_cell_length_b   13.17685401
_cell_length_c   12.07577585
_cell_angle_alpha   107.83850563
_cell_angle_beta   90.00000000
_cell_angle_gamma   90.00000000
_symmetry_Int_Tables_number   1
_chemical_formula_structural   Cu(Ni4C5)2
_chemical_formula_sum   'Cu4 Ni32 C40'
_cell_volume   1081.73072170
_cell_formula_units_Z   4
loop_
 _symmetry_equiv_pos_site_id
 _symmetry_equiv_pos_as_xyz
  1  'x, y, z'
loop_
 _atom_site_type_symbol
 _atom_site_label
 _atom_site_symmetry_multiplicity
 _atom_site_fract_x
 _atom_site_fract_y
 _atom_site_fract_z
 _atom_site_occupancy
  C  C0  1  0.47371800  0.99402600  0.87803400  1
  C  C1  1  0.52628200  0.00597400  0.12196600  1
  C  C2  1  0.97371800  0.00597400  0.62196600  1
  C  C3  1  0.02628200  0.99402600  0.37803400  1
  C  C4  1  0.85369900  0.94394300  0.71073700  1
  C  C5  1  0.14630100  0.05605700  0.28926300  1
  C  C6  1  0.35369900  0.05605700  0.78926300  1
  C  C7  1  0.64630100  0.94394300  0.21073700  1
  Ni  Ni8  1  0.72391100  0.38605500  0.84423800  1
  Ni  Ni9  1  0.27608900  0.61394500  0.15576200  1
  Ni  Ni10  1  0.22391100  0.61394500  0.65576200  1
  Ni  Ni11  1  0.77608900  0.38605500  0.34423800  1
  Ni  Ni12  1  0.29120900  0.73155600  0.88504600  1
  Ni  Ni13  1  0.70879100  0.26844400  0.11495400  1
  Ni  Ni14  1  0.79120900  0.26844400  0.61495400  1
  Ni  Ni15  1  0.20879100  0.73155600  0.38504600  1
  Ni  Ni16  1  0.89545200  0.39609600  0.79322200  1
  Ni  Ni17  1  0.10454800  0.60390400  0.20677800  1
  Ni  Ni18  1  0.39545200  0.60390400  0.70677800  1
  Ni  Ni19  1  0.60454800  0.39609600  0.29322200  1
  Ni  Ni20  1  0.58766800  0.31723000  0.77939200  1
  Ni  Ni21  1  0.41233200  0.68277000  0.22060800  1
  Ni  Ni22  1  0.08766800  0.68277000  0.72060800  1
  Ni  Ni23  1  0.91233200  0.31723000  0.27939200  1
  Ni  Ni24  1  0.42886500  0.66309100  0.82216600  1
  Ni  Ni25  1  0.57113500  0.33690900  0.17783400  1
  Ni  Ni26  1  0.92886500  0.33690900  0.67783400  1
  Ni  Ni27  1  0.07113500  0.66309100  0.32216600  1
  Ni  Ni28  1  0.75295700  0.91485000  0.54473000  1
  Ni  Ni29  1  0.24704300  0.08515000  0.45527000  1
  Ni  Ni30  1  0.25295700  0.08515000  0.95527000  1
  Ni  Ni31  1  0.74704300  0.91485000  0.04473000  1
  Ni  Ni32  1  0.61697500  0.25577700  0.66309100  1
  Ni  Ni33  1  0.38302500  0.74422300  0.33690900  1
  Ni  Ni34  1  0.11697500  0.74422300  0.83690900  1
  Ni  Ni35  1  0.88302500  0.25577700  0.16309100  1
  Ni  Ni36  1  0.97192600  0.81496400  0.90449200  1
  Ni  Ni37  1  0.02807400  0.18503600  0.09550800  1
  Ni  Ni38  1  0.47192600  0.18503600  0.59550800  1
  Ni  Ni39  1  0.52807400  0.81496400  0.40449200  1
  Cu  Cu40  1  0.56723900  0.83171100  0.55226000  1
  Cu  Cu41  1  0.43276100  0.16828900  0.44774000  1
  Cu  Cu42  1  0.06723900  0.16828900  0.94774000  1
  Cu  Cu43  1  0.93276100  0.83171100  0.05226000  1
  C  C44  1  0.85602700  0.96801400  0.63819500  1
  C  C45  1  0.14397300  0.03198600  0.36180500  1
  C  C46  1  0.35602700  0.03198600  0.86180500  1
  C  C47  1  0.64397300  0.96801400  0.13819500  1
  C  C48  1  0.72374800  0.92454900  0.93872800  1
  C  C49  1  0.27625200  0.07545100  0.06127200  1
  C  C50  1  0.22374800  0.07545100  0.56127200  1
  C  C51  1  0.77625200  0.92454900  0.43872800  1
  C  C52  1  0.85189000  0.86854300  0.86104800  1
  C  C53  1  0.14811000  0.13145700  0.13895200  1
  C  C54  1  0.35189000  0.13145700  0.63895200  1
  C  C55  1  0.64811000  0.86854300  0.36104800  1
  C  C56  1  0.69055800  0.44400800  0.95535200  1
  C  C57  1  0.30944200  0.55599200  0.04464800  1
  C  C58  1  0.19055800  0.55599200  0.54464800  1
  C  C59  1  0.80944200  0.44400800  0.45535200  1
  C  C60  1  0.32913100  0.78777000  0.99702000  1
  C  C61  1  0.67086900  0.21223000  0.00298000  1
  C  C62  1  0.82913100  0.21223000  0.50298000  1
  C  C63  1  0.17086900  0.78777000  0.49702000  1
  C  C64  1  0.59424000  0.65350200  0.87192500  1
  C  C65  1  0.40576000  0.34649800  0.12807500  1
  C  C66  1  0.09424000  0.34649800  0.62807500  1
  C  C67  1  0.90576000  0.65350200  0.37192500  1
  C  C68  1  0.52682500  0.53694800  0.64505700  1
  C  C69  1  0.47317500  0.46305200  0.35494300  1
  C  C70  1  0.02682500  0.46305200  0.85494300  1
  C  C71  1  0.97317500  0.53694800  0.14505700  1
  C  C72  1  0.92180600  0.68635300  0.66869700  1
  C  C73  1  0.07819400  0.31364700  0.33130300  1
  C  C74  1  0.42180600  0.31364700  0.83130300  1
  C  C75  1  0.57819400  0.68635300  0.16869700  1
