# generated using pymatgen
data_Cu3NiC10
_symmetry_space_group_name_H-M   'P 1'
_cell_length_a   8.26247000
_cell_length_b   8.76878400
_cell_length_c   8.91923500
_cell_angle_alpha   90.00000000
_cell_angle_beta   90.00000000
_cell_angle_gamma   90.00000000
_symmetry_Int_Tables_number   1
_chemical_formula_structural   Cu3NiC10
_chemical_formula_sum   'Cu12 Ni4 C40'
_cell_volume   646.21476181
_cell_formula_units_Z   4
loop_
 _symmetry_equiv_pos_site_id
 _symmetry_equiv_pos_as_xyz
  1  'x, y, z'
loop_
 _atom_site_type_symbol
 _atom_site_label
 _atom_site_symmetry_multiplicity
 _atom_site_fract_x
 _atom_site_fract_y
 _atom_site_fract_z
 _atom_site_occupancy
  C  C0  1  0.37927000  0.08380400  0.88684700  1
  C  C1  1  0.87927000  0.41619600  0.11315300  1
  C  C2  1  0.62073000  0.58380400  0.61315300  1
  C  C3  1  0.12073000  0.91619600  0.38684700  1
  Ni  Ni4  1  0.40326800  0.86181500  0.61504400  1
  Ni  Ni5  1  0.90326800  0.63818500  0.38495600  1
  Ni  Ni6  1  0.59673200  0.36181500  0.88495600  1
  Ni  Ni7  1  0.09673200  0.13818500  0.11504400  1
  Cu  Cu8  1  0.06834000  0.94035000  0.76551600  1
  Cu  Cu9  1  0.56834000  0.55965000  0.23448400  1
  Cu  Cu10  1  0.93166000  0.44035000  0.73448400  1
  Cu  Cu11  1  0.43166000  0.05965000  0.26551600  1
  Cu  Cu12  1  0.22238100  0.42514200  0.93616000  1
  Cu  Cu13  1  0.72238100  0.07485800  0.06384000  1
  Cu  Cu14  1  0.77761900  0.92514200  0.56384000  1
  Cu  Cu15  1  0.27761900  0.57485800  0.43616000  1
  Cu  Cu16  1  0.45432300  0.68195000  0.95118600  1
  Cu  Cu17  1  0.95432300  0.81805000  0.04881400  1
  Cu  Cu18  1  0.54567700  0.18195000  0.54881400  1
  Cu  Cu19  1  0.04567700  0.31805000  0.45118600  1
  C  C20  1  0.97064500  0.30320600  0.61776000  1
  C  C21  1  0.47064500  0.19679400  0.38224000  1
  C  C22  1  0.02935500  0.80320600  0.88224000  1
  C  C23  1  0.52935500  0.69679400  0.11776000  1
  C  C24  1  0.11062100  0.47605600  0.79817500  1
  C  C25  1  0.61062100  0.02394400  0.20182500  1
  C  C26  1  0.88937900  0.97605600  0.70182500  1
  C  C27  1  0.38937900  0.52394400  0.29817500  1
  C  C28  1  0.28896600  0.58770500  0.98875300  1
  C  C29  1  0.78896600  0.91229500  0.01124700  1
  C  C30  1  0.71103400  0.08770500  0.51124700  1
  C  C31  1  0.21103400  0.41229500  0.48875300  1
  C  C32  1  0.33370300  0.12246700  0.13605100  1
  C  C33  1  0.83370300  0.37753300  0.86394900  1
  C  C34  1  0.66629700  0.62246700  0.36394900  1
  C  C35  1  0.16629700  0.87753300  0.63605100  1
  C  C36  1  0.86027600  0.17296500  0.11925600  1
  C  C37  1  0.36027600  0.32703500  0.88074400  1
  C  C38  1  0.13972400  0.67296500  0.38074400  1
  C  C39  1  0.63972400  0.82703500  0.61925600  1
  C  C40  1  0.06088100  0.91709700  0.14868000  1
  C  C41  1  0.56088100  0.58290300  0.85132000  1
  C  C42  1  0.93911900  0.41709700  0.35132000  1
  C  C43  1  0.43911900  0.08290300  0.64868000  1
  C  C44  1  0.08575700  0.16241900  0.39639700  1
  C  C45  1  0.58575700  0.33758100  0.60360300  1
  C  C46  1  0.91424300  0.66241900  0.10360300  1
  C  C47  1  0.41424300  0.83758100  0.89639700  1
  C  C48  1  0.12992600  0.07494400  0.85059300  1
  C  C49  1  0.62992600  0.42505600  0.14940700  1
  C  C50  1  0.87007400  0.57494400  0.64940700  1
  C  C51  1  0.37007400  0.92505600  0.35059300  1
  C  C52  1  0.11863600  0.36079500  0.06081000  1
  C  C53  1  0.61863600  0.13920500  0.93919000  1
  C  C54  1  0.88136400  0.86079500  0.43919000  1
  C  C55  1  0.38136400  0.63920500  0.56081000  1
