# generated using pymatgen
data_CuNi3
_symmetry_space_group_name_H-M   'P 1'
_cell_length_a   7.81346200
_cell_length_b   8.61456200
_cell_length_c   13.26321700
_cell_angle_alpha   90.00000000
_cell_angle_beta   90.00000000
_cell_angle_gamma   90.00000000
_symmetry_Int_Tables_number   1
_chemical_formula_structural   CuNi3
_chemical_formula_sum   'Cu8 Ni24'
_cell_volume   892.74120541
_cell_formula_units_Z   8
loop_
 _symmetry_equiv_pos_site_id
 _symmetry_equiv_pos_as_xyz
  1  'x, y, z'
loop_
 _atom_site_type_symbol
 _atom_site_label
 _atom_site_symmetry_multiplicity
 _atom_site_fract_x
 _atom_site_fract_y
 _atom_site_fract_z
 _atom_site_occupancy
  Ni  Ni0  1  0.25928500  0.64187800  0.13682700  1
  Ni  Ni1  1  0.24071500  0.14187800  0.36317300  1
  Ni  Ni2  1  0.74071500  0.35812200  0.63682700  1
  Ni  Ni3  1  0.75928500  0.85812200  0.86317300  1
  Ni  Ni4  1  0.74071500  0.35812200  0.86317300  1
  Ni  Ni5  1  0.75928500  0.85812200  0.63682700  1
  Ni  Ni6  1  0.25928500  0.64187800  0.36317300  1
  Ni  Ni7  1  0.24071500  0.14187800  0.13682700  1
  Ni  Ni8  1  0.01013700  0.71968800  0.10976700  1
  Ni  Ni9  1  0.48986300  0.21968800  0.39023300  1
  Ni  Ni10  1  0.98986300  0.28031200  0.60976700  1
  Ni  Ni11  1  0.51013700  0.78031200  0.89023300  1
  Ni  Ni12  1  0.98986300  0.28031200  0.89023300  1
  Ni  Ni13  1  0.51013700  0.78031200  0.60976700  1
  Ni  Ni14  1  0.01013700  0.71968800  0.39023300  1
  Ni  Ni15  1  0.48986300  0.21968800  0.10976700  1
  Ni  Ni16  1  0.83180900  0.54310400  0.13718200  1
  Ni  Ni17  1  0.66819100  0.04310400  0.36281800  1
  Ni  Ni18  1  0.16819100  0.45689600  0.63718200  1
  Ni  Ni19  1  0.33180900  0.95689600  0.86281800  1
  Ni  Ni20  1  0.16819100  0.45689600  0.86281800  1
  Ni  Ni21  1  0.33180900  0.95689600  0.63718200  1
  Ni  Ni22  1  0.83180900  0.54310400  0.36281800  1
  Ni  Ni23  1  0.66819100  0.04310400  0.13718200  1
  Cu  Cu24  1  0.32683300  0.67405700  0.25000000  1
  Cu  Cu25  1  0.17316700  0.17405700  0.25000000  1
  Cu  Cu26  1  0.67316700  0.32594300  0.75000000  1
  Cu  Cu27  1  0.82683300  0.82594300  0.75000000  1
  Cu  Cu28  1  0.75546500  0.54372300  0.25000000  1
  Cu  Cu29  1  0.74453500  0.04372300  0.25000000  1
  Cu  Cu30  1  0.24453500  0.45627700  0.75000000  1
  Cu  Cu31  1  0.25546500  0.95627700  0.75000000  1
