# generated using pymatgen
data_Cu10NiC7
_symmetry_space_group_name_H-M   'P 1'
_cell_length_a   9.29891833
_cell_length_b   9.29891833
_cell_length_c   9.29891833
_cell_angle_alpha   109.47122063
_cell_angle_beta   109.47122063
_cell_angle_gamma   109.47122063
_symmetry_Int_Tables_number   1
_chemical_formula_structural   Cu10NiC7
_chemical_formula_sum   'Cu40 Ni4 C28'
_cell_volume   618.97827921
_cell_formula_units_Z   4
loop_
 _symmetry_equiv_pos_site_id
 _symmetry_equiv_pos_as_xyz
  1  'x, y, z'
loop_
 _atom_site_type_symbol
 _atom_site_label
 _atom_site_symmetry_multiplicity
 _atom_site_fract_x
 _atom_site_fract_y
 _atom_site_fract_z
 _atom_site_occupancy
  C  C0  1  0.53687700  0.75000000  0.28687700  1
  C  C1  1  0.25000000  0.21312300  0.96312300  1
  C  C2  1  0.28687700  0.53687700  0.75000000  1
  C  C3  1  0.96312300  0.25000000  0.21312300  1
  C  C4  1  0.75000000  0.28687700  0.53687700  1
  C  C5  1  0.21312300  0.96312300  0.25000000  1
  C  C6  1  0.77363800  0.75000000  0.52363800  1
  C  C7  1  0.25000000  0.97636200  0.72636200  1
  C  C8  1  0.52363800  0.77363800  0.75000000  1
  C  C9  1  0.72636200  0.25000000  0.97636200  1
  C  C10  1  0.75000000  0.52363800  0.77363800  1
  C  C11  1  0.97636200  0.72636200  0.25000000  1
  C  C12  1  0.96314600  0.50000000  0.00000000  1
  C  C13  1  0.00000000  0.96314600  0.50000000  1
  C  C14  1  0.50000000  0.00000000  0.96314600  1
  C  C15  1  0.53685400  0.53685400  0.53685400  1
  Ni  Ni16  1  0.23050100  0.50000000  0.00000000  1
  Ni  Ni17  1  0.00000000  0.23050100  0.50000000  1
  Ni  Ni18  1  0.50000000  0.00000000  0.23050100  1
  Ni  Ni19  1  0.26949900  0.26949900  0.26949900  1
  Cu  Cu20  1  0.58590900  0.59120500  0.88904000  1
  Cu  Cu21  1  0.69686800  0.61096000  0.20216500  1
  Cu  Cu22  1  0.49470400  0.29783500  0.90879500  1
  Cu  Cu23  1  0.20216500  0.69686800  0.61096000  1
  Cu  Cu24  1  0.90879500  0.49470400  0.29783500  1
  Cu  Cu25  1  0.88904000  0.58590900  0.59120500  1
  Cu  Cu26  1  0.29783500  0.90879500  0.49470400  1
  Cu  Cu27  1  0.59120500  0.88904000  0.58590900  1
  Cu  Cu28  1  0.61096000  0.20216500  0.69686800  1
  Cu  Cu29  1  0.91409100  0.80313200  0.00529600  1
  Cu  Cu30  1  0.80313200  0.00529600  0.91409100  1
  Cu  Cu31  1  0.00529600  0.91409100  0.80313200  1
  Cu  Cu32  1  0.44235900  0.41433100  0.70054000  1
  Cu  Cu33  1  0.74181800  0.79946000  0.21379000  1
  Cu  Cu34  1  0.52802800  0.28621000  0.08566900  1
  Cu  Cu35  1  0.21379000  0.74181800  0.79946000  1
  Cu  Cu36  1  0.08566900  0.52802800  0.28621000  1
  Cu  Cu37  1  0.70054000  0.44235900  0.41433100  1
  Cu  Cu38  1  0.28621000  0.08566900  0.52802800  1
  Cu  Cu39  1  0.41433100  0.70054000  0.44235900  1
  Cu  Cu40  1  0.79946000  0.21379000  0.74181800  1
  Cu  Cu41  1  0.05764100  0.75818200  0.97197200  1
  Cu  Cu42  1  0.75818200  0.97197200  0.05764100  1
  Cu  Cu43  1  0.97197200  0.05764100  0.75818200  1
  Cu  Cu44  1  0.15635200  0.53066400  0.88678400  1
  Cu  Cu45  1  0.26956900  0.61321600  0.14388000  1
  Cu  Cu46  1  0.12568900  0.35612000  0.96933600  1
  Cu  Cu47  1  0.14388000  0.26956900  0.61321600  1
  Cu  Cu48  1  0.96933600  0.12568900  0.35612000  1
  Cu  Cu49  1  0.88678400  0.15635200  0.53066400  1
  Cu  Cu50  1  0.35612000  0.96933600  0.12568900  1
  Cu  Cu51  1  0.53066400  0.88678400  0.15635200  1
  Cu  Cu52  1  0.61321600  0.14388000  0.26956900  1
  Cu  Cu53  1  0.34364800  0.23043100  0.37431100  1
  Cu  Cu54  1  0.23043100  0.37431100  0.34364800  1
  Cu  Cu55  1  0.37431100  0.34364800  0.23043100  1
  Cu  Cu56  1  0.36284300  0.50000000  0.00000000  1
  Cu  Cu57  1  0.00000000  0.36284300  0.50000000  1
  Cu  Cu58  1  0.50000000  0.00000000  0.36284300  1
  Cu  Cu59  1  0.13715700  0.13715700  0.13715700  1
  C  C60  1  0.52057700  0.54817400  0.75658500  1
  C  C61  1  0.76399200  0.74341500  0.29158900  1
  C  C62  1  0.47240300  0.20841100  0.95182600  1
  C  C63  1  0.29158900  0.76399200  0.74341500  1
  C  C64  1  0.95182600  0.47240300  0.20841100  1
  C  C65  1  0.75658500  0.52057700  0.54817400  1
  C  C66  1  0.20841100  0.95182600  0.47240300  1
  C  C67  1  0.54817400  0.75658500  0.52057700  1
  C  C68  1  0.74341500  0.29158900  0.76399200  1
  C  C69  1  0.97942300  0.73600800  0.02759700  1
  C  C70  1  0.73600800  0.02759700  0.97942300  1
  C  C71  1  0.02759700  0.97942300  0.73600800  1
