# generated using pymatgen
data_Cu4Ni5C21
_symmetry_space_group_name_H-M   'P 1'
_cell_length_a   8.76947056
_cell_length_b   8.76947056
_cell_length_c   10.76504911
_cell_angle_alpha   85.70053952
_cell_angle_beta   85.70053952
_cell_angle_gamma   62.86108370
_symmetry_Int_Tables_number   1
_chemical_formula_structural   Cu4Ni5C21
_chemical_formula_sum   'Cu8 Ni10 C42'
_cell_volume   733.87610089
_cell_formula_units_Z   2
loop_
 _symmetry_equiv_pos_site_id
 _symmetry_equiv_pos_as_xyz
  1  'x, y, z'
loop_
 _atom_site_type_symbol
 _atom_site_label
 _atom_site_symmetry_multiplicity
 _atom_site_fract_x
 _atom_site_fract_y
 _atom_site_fract_z
 _atom_site_occupancy
  Ni  Ni0  1  0.30008500  0.99828100  0.73216800  1
  Ni  Ni1  1  0.99828100  0.30008500  0.23216800  1
  Ni  Ni2  1  0.14108100  0.53430000  0.05054200  1
  Ni  Ni3  1  0.53430000  0.14108100  0.55054200  1
  Ni  Ni4  1  0.46570000  0.85891900  0.44945800  1
  Ni  Ni5  1  0.82998600  0.17001400  0.75000000  1
  Ni  Ni6  1  0.17001400  0.82998600  0.25000000  1
  Ni  Ni7  1  0.85891900  0.46570000  0.94945800  1
  Ni  Ni8  1  0.69991500  0.00171900  0.26783200  1
  Ni  Ni9  1  0.00171900  0.69991500  0.76783200  1
  Cu  Cu10  1  0.35038000  0.05960100  0.07065600  1
  Cu  Cu11  1  0.38369800  0.68196900  0.96466100  1
  Cu  Cu12  1  0.94039900  0.64962000  0.42934400  1
  Cu  Cu13  1  0.31803100  0.61630200  0.53533900  1
  Cu  Cu14  1  0.68196900  0.38369800  0.46466100  1
  Cu  Cu15  1  0.05960100  0.35038000  0.57065600  1
  Cu  Cu16  1  0.64962000  0.94039900  0.92934400  1
  Cu  Cu17  1  0.61630200  0.31803100  0.03533900  1
  C  C18  1  0.66018100  0.65591900  0.69904200  1
  C  C19  1  0.00000000  0.00000000  0.00000000  1
  C  C20  1  0.00000000  0.00000000  0.50000000  1
  C  C21  1  0.65591900  0.66018100  0.19904200  1
  C  C22  1  0.33981900  0.34408100  0.30095800  1
  C  C23  1  0.34408100  0.33981900  0.80095800  1
  C  C24  1  0.92536300  0.60062100  0.61594900  1
  C  C25  1  0.24286500  0.93348800  0.56480000  1
  C  C26  1  0.39495100  0.77587600  0.31609400  1
  C  C27  1  0.93344600  0.92606200  0.17904700  1
  C  C28  1  0.06651200  0.75713500  0.93520000  1
  C  C29  1  0.07393800  0.06655400  0.32095300  1
  C  C30  1  0.62162800  0.54745300  0.03593900  1
  C  C31  1  0.89371100  0.24910500  0.57308200  1
  C  C32  1  0.10628900  0.75089500  0.42691800  1
  C  C33  1  0.22568600  0.28106000  0.15353800  1
  C  C34  1  0.43110000  0.76216400  0.79963200  1
  C  C35  1  0.77431400  0.71894000  0.84646200  1
  C  C36  1  0.75713500  0.06651200  0.43520000  1
  C  C37  1  0.54633100  0.90796000  0.61765400  1
  C  C38  1  0.23783600  0.56890000  0.70036800  1
  C  C39  1  0.37837200  0.45254700  0.96406100  1
  C  C40  1  0.56890000  0.23783600  0.20036800  1
  C  C41  1  0.09204000  0.45366900  0.88234600  1
  C  C42  1  0.22412400  0.60504900  0.18390600  1
  C  C43  1  0.76216400  0.43110000  0.29963200  1
  C  C44  1  0.60062100  0.92536300  0.11594900  1
  C  C45  1  0.45366900  0.09204000  0.38234600  1
  C  C46  1  0.75089500  0.10628900  0.92691800  1
  C  C47  1  0.54745300  0.62162800  0.53593900  1
  C  C48  1  0.60504900  0.22412400  0.68390600  1
  C  C49  1  0.92606200  0.93344600  0.67904700  1
  C  C50  1  0.28106000  0.22568600  0.65353800  1
  C  C51  1  0.45254700  0.37837200  0.46406100  1
  C  C52  1  0.93348800  0.24286500  0.06480000  1
  C  C53  1  0.90796000  0.54633100  0.11765400  1
  C  C54  1  0.07463700  0.39937900  0.38405100  1
  C  C55  1  0.06655400  0.07393800  0.82095300  1
  C  C56  1  0.24910500  0.89371100  0.07308200  1
  C  C57  1  0.71894000  0.77431400  0.34646200  1
  C  C58  1  0.77587600  0.39495100  0.81609400  1
  C  C59  1  0.39937900  0.07463700  0.88405100  1
