# generated using pymatgen
data_Cu9NiC21
_symmetry_space_group_name_H-M   'P 1'
_cell_length_a   7.99574670
_cell_length_b   19.97798755
_cell_length_c   10.55913930
_cell_angle_alpha   19.07571163
_cell_angle_beta   55.61044816
_cell_angle_gamma   60.15904913
_symmetry_Int_Tables_number   1
_chemical_formula_structural   Cu9NiC21
_chemical_formula_sum   'Cu9 Ni1 C21'
_cell_volume   450.77805620
_cell_formula_units_Z   1
loop_
 _symmetry_equiv_pos_site_id
 _symmetry_equiv_pos_as_xyz
  1  'x, y, z'
loop_
 _atom_site_type_symbol
 _atom_site_label
 _atom_site_symmetry_multiplicity
 _atom_site_fract_x
 _atom_site_fract_y
 _atom_site_fract_z
 _atom_site_occupancy
  Ni  Ni0  1  0.99574871  0.00481525  0.99398793  1
  Cu  Cu1  1  0.01006930  0.17302499  0.04650966  1
  Cu  Cu2  1  0.50402373  0.00182523  0.99400641  1
  Cu  Cu3  1  0.99337828  0.40397665  0.99379283  1
  Cu  Cu4  1  0.50055085  0.19746177  0.00283456  1
  Cu  Cu5  1  0.01440626  0.60197675  0.96791313  1
  Cu  Cu6  1  0.49364298  0.39278788  0.01476373  1
  Cu  Cu7  1  0.00984506  0.81924824  0.97796240  1
  Cu  Cu8  1  0.49534492  0.60201215  0.99901268  1
  Cu  Cu9  1  0.48916103  0.80233641  0.00439999  1
  C  C10  1  0.80164905  0.51356426  0.44760036  1
  C  C11  1  0.12096154  0.14521142  0.25932626  1
  C  C12  1  0.12211207  0.34810863  0.25340455  1
  C  C13  1  0.62845489  0.13553115  0.27734456  1
  C  C14  1  0.37458501  0.05179160  0.74784746  1
  C  C15  1  0.11887400  0.54336515  0.26645905  1
  C  C16  1  0.61979581  0.35280624  0.24616937  1
  C  C17  1  0.37313075  0.24533277  0.75989110  1
  C  C18  1  0.12089651  0.75921058  0.23893097  1
  C  C19  1  0.87298348  0.05776387  0.73910662  1
  C  C20  1  0.12374079  0.94987416  0.24812869  1
  C  C21  1  0.62608915  0.55004713  0.24603323  1
  C  C22  1  0.35031048  0.44618649  0.76599149  1
  C  C23  1  0.87153019  0.26486166  0.73313874  1
  C  C24  1  0.37400499  0.65033886  0.74726503  1
  C  C25  1  0.62731839  0.75621917  0.24121701  1
  C  C26  1  0.62193270  0.95068721  0.25358742  1
  C  C27  1  0.87438635  0.45182787  0.74021695  1
  C  C28  1  0.37049530  0.85034645  0.75416858  1
  C  C29  1  0.87266050  0.65044863  0.74565484  1
  C  C30  1  0.87791696  0.82701141  0.79333440  1
