# generated using pymatgen
data_Cu12Ni3C
_symmetry_space_group_name_H-M   'P 1'
_cell_length_a   9.44575767
_cell_length_b   9.44575767
_cell_length_c   5.70442600
_cell_angle_alpha   90.00000000
_cell_angle_beta   90.00000000
_cell_angle_gamma   119.99999766
_symmetry_Int_Tables_number   1
_chemical_formula_structural   Cu12Ni3C
_chemical_formula_sum   'Cu24 Ni6 C2'
_cell_volume   440.77422593
_cell_formula_units_Z   2
loop_
 _symmetry_equiv_pos_site_id
 _symmetry_equiv_pos_as_xyz
  1  'x, y, z'
loop_
 _atom_site_type_symbol
 _atom_site_label
 _atom_site_symmetry_multiplicity
 _atom_site_fract_x
 _atom_site_fract_y
 _atom_site_fract_z
 _atom_site_occupancy
  C  C0  1  0.66666700  0.33333300  0.25000000  1
  C  C1  1  0.33333300  0.66666700  0.75000000  1
  Ni  Ni2  1  0.09076200  0.38851800  0.25000000  1
  Ni  Ni3  1  0.90923800  0.61148200  0.75000000  1
  Ni  Ni4  1  0.61148200  0.70224400  0.25000000  1
  Ni  Ni5  1  0.38851800  0.29775600  0.75000000  1
  Ni  Ni6  1  0.29775600  0.90923800  0.25000000  1
  Ni  Ni7  1  0.70224400  0.09076200  0.75000000  1
  Cu  Cu8  1  0.14488500  0.49583200  0.04310600  1
  Cu  Cu9  1  0.85511500  0.50416800  0.95689400  1
  Cu  Cu10  1  0.50416800  0.64905300  0.04310600  1
  Cu  Cu11  1  0.85511500  0.50416800  0.54310600  1
  Cu  Cu12  1  0.49583200  0.35094700  0.95689400  1
  Cu  Cu13  1  0.14488500  0.49583200  0.45689400  1
  Cu  Cu14  1  0.35094700  0.85511500  0.04310600  1
  Cu  Cu15  1  0.49583200  0.35094700  0.54310600  1
  Cu  Cu16  1  0.64905300  0.14488500  0.95689400  1
  Cu  Cu17  1  0.50416800  0.64905300  0.45689400  1
  Cu  Cu18  1  0.64905300  0.14488500  0.54310600  1
  Cu  Cu19  1  0.35094700  0.85511500  0.45689400  1
  Cu  Cu20  1  0.15290700  0.27877800  0.25000000  1
  Cu  Cu21  1  0.84709300  0.72122200  0.75000000  1
  Cu  Cu22  1  0.72122200  0.87412800  0.25000000  1
  Cu  Cu23  1  0.27877800  0.12587200  0.75000000  1
  Cu  Cu24  1  0.12587200  0.84709300  0.25000000  1
  Cu  Cu25  1  0.87412800  0.15290700  0.75000000  1
  Cu  Cu26  1  0.38527000  0.08753700  0.25000000  1
  Cu  Cu27  1  0.61473000  0.91246300  0.75000000  1
  Cu  Cu28  1  0.91246300  0.29773300  0.25000000  1
  Cu  Cu29  1  0.08753700  0.70226700  0.75000000  1
  Cu  Cu30  1  0.70226700  0.61473000  0.25000000  1
  Cu  Cu31  1  0.29773300  0.38527000  0.75000000  1
