# generated using pymatgen
data_Cu6Ni2C5
_symmetry_space_group_name_H-M   'P 1'
_cell_length_a   16.04099605
_cell_length_b   16.04099605
_cell_length_c   16.04099605
_cell_angle_alpha   165.73530724
_cell_angle_beta   165.73530724
_cell_angle_gamma   20.22612011
_symmetry_Int_Tables_number   1
_chemical_formula_structural   Cu6Ni2C5
_chemical_formula_sum   'Cu6 Ni2 C5'
_cell_volume   250.56973730
_cell_formula_units_Z   1
loop_
 _symmetry_equiv_pos_site_id
 _symmetry_equiv_pos_as_xyz
  1  'x, y, z'
loop_
 _atom_site_type_symbol
 _atom_site_label
 _atom_site_symmetry_multiplicity
 _atom_site_fract_x
 _atom_site_fract_y
 _atom_site_fract_z
 _atom_site_occupancy
  C  C0  1  0.28902100  0.28902100  0.00000000  1
  C  C1  1  0.71097900  0.71097900  0.00000000  1
  C  C2  1  0.58552900  0.58552900  0.00000000  1
  C  C3  1  0.41447100  0.41447100  0.00000000  1
  C  C4  1  0.00000000  0.00000000  0.00000000  1
  Ni  Ni5  1  0.83414200  0.83414200  0.00000000  1
  Ni  Ni6  1  0.16585800  0.16585800  0.00000000  1
  Cu  Cu7  1  0.25000000  0.75000000  0.50000000  1
  Cu  Cu8  1  0.75000000  0.25000000  0.50000000  1
  Cu  Cu9  1  0.55449500  0.05449500  0.50000000  1
  Cu  Cu10  1  0.05449500  0.55449500  0.50000000  1
  Cu  Cu11  1  0.44550500  0.94550500  0.50000000  1
  Cu  Cu12  1  0.94550500  0.44550500  0.50000000  1
