# generated using pymatgen
data_Cu8Ni2C
_symmetry_space_group_name_H-M   'P 1'
_cell_length_a   8.36226026
_cell_length_b   8.29969326
_cell_length_c   7.03568045
_cell_angle_alpha   65.48537494
_cell_angle_beta   64.56162313
_cell_angle_gamma   49.95300193
_symmetry_Int_Tables_number   1
_chemical_formula_structural   Cu8Ni2C
_chemical_formula_sum   'Cu32 Ni8 C4'
_cell_volume   330.71552893
_cell_formula_units_Z   4
loop_
 _symmetry_equiv_pos_site_id
 _symmetry_equiv_pos_as_xyz
  1  'x, y, z'
loop_
 _atom_site_type_symbol
 _atom_site_label
 _atom_site_symmetry_multiplicity
 _atom_site_fract_x
 _atom_site_fract_y
 _atom_site_fract_z
 _atom_site_occupancy
  C  C0  1  0.71987300  0.71987300  0.28012700  1
  C  C1  1  0.28012700  0.28012700  0.71987300  1
  C  C2  1  0.53012700  0.53012700  0.96987300  1
  C  C3  1  0.96987300  0.96987300  0.53012700  1
  Ni  Ni4  1  0.86517400  0.33450600  0.32917700  1
  Ni  Ni5  1  0.33450600  0.86517400  0.47114300  1
  Ni  Ni6  1  0.47114300  0.32917700  0.33450600  1
  Ni  Ni7  1  0.32917700  0.47114300  0.86517400  1
  Ni  Ni8  1  0.38482600  0.91549400  0.92082300  1
  Ni  Ni9  1  0.91549400  0.38482600  0.77885700  1
  Ni  Ni10  1  0.77885700  0.92082300  0.91549400  1
  Ni  Ni11  1  0.92082300  0.77885700  0.38482600  1
  Cu  Cu12  1  0.94994000  0.18910700  0.23874800  1
  Cu  Cu13  1  0.18910700  0.94994000  0.62220600  1
  Cu  Cu14  1  0.62220600  0.23874800  0.18910700  1
  Cu  Cu15  1  0.23874800  0.62220600  0.94994000  1
  Cu  Cu16  1  0.30006000  0.06089300  0.01125200  1
  Cu  Cu17  1  0.06089300  0.30006000  0.62779400  1
  Cu  Cu18  1  0.62779400  0.01125200  0.06089300  1
  Cu  Cu19  1  0.01125200  0.62779400  0.30006000  1
  Cu  Cu20  1  0.27903200  0.34732200  0.99420700  1
  Cu  Cu21  1  0.34732200  0.27903200  0.37943900  1
  Cu  Cu22  1  0.37943900  0.99420700  0.34732200  1
  Cu  Cu23  1  0.99420700  0.37943900  0.27903200  1
  Cu  Cu24  1  0.97096800  0.90267800  0.25579300  1
  Cu  Cu25  1  0.90267800  0.97096800  0.87056100  1
  Cu  Cu26  1  0.87056100  0.25579300  0.90267800  1
  Cu  Cu27  1  0.25579300  0.87056100  0.97096800  1
  Cu  Cu28  1  0.52674300  0.37497300  0.81183700  1
  Cu  Cu29  1  0.37497300  0.52674300  0.28644700  1
  Cu  Cu30  1  0.28644700  0.81183700  0.37497300  1
  Cu  Cu31  1  0.81183700  0.28644700  0.52674300  1
  Cu  Cu32  1  0.72325700  0.87502700  0.43816300  1
  Cu  Cu33  1  0.87502700  0.72325700  0.96355300  1
  Cu  Cu34  1  0.96355300  0.43816300  0.87502700  1
  Cu  Cu35  1  0.43816300  0.96355300  0.72325700  1
  Cu  Cu36  1  0.69947100  0.48465600  0.26369900  1
  Cu  Cu37  1  0.48465600  0.69947100  0.55217500  1
  Cu  Cu38  1  0.55217500  0.26369900  0.48465600  1
  Cu  Cu39  1  0.26369900  0.55217500  0.69947100  1
  Cu  Cu40  1  0.55052900  0.76534400  0.98630100  1
  Cu  Cu41  1  0.76534400  0.55052900  0.69782500  1
  Cu  Cu42  1  0.69782500  0.98630100  0.76534400  1
  Cu  Cu43  1  0.98630100  0.69782500  0.55052900  1
