# generated using pymatgen
data_Cu2NiC4
_symmetry_space_group_name_H-M   'P 1'
_cell_length_a   4.56134300
_cell_length_b   13.93043300
_cell_length_c   16.55769100
_cell_angle_alpha   90.00000000
_cell_angle_beta   90.00000000
_cell_angle_gamma   90.00000000
_symmetry_Int_Tables_number   1
_chemical_formula_structural   Cu2NiC4
_chemical_formula_sum   'Cu8 Ni4 C16'
_cell_volume   1052.10024205
_cell_formula_units_Z   4
loop_
 _symmetry_equiv_pos_site_id
 _symmetry_equiv_pos_as_xyz
  1  'x, y, z'
loop_
 _atom_site_type_symbol
 _atom_site_label
 _atom_site_symmetry_multiplicity
 _atom_site_fract_x
 _atom_site_fract_y
 _atom_site_fract_z
 _atom_site_occupancy
  Ni  Ni0  1  0.75000000  0.26042400  0.83179100  1
  Ni  Ni1  1  0.25000000  0.73957600  0.16820900  1
  Ni  Ni2  1  0.75000000  0.76042400  0.66820900  1
  Ni  Ni3  1  0.25000000  0.23957600  0.33179100  1
  Cu  Cu4  1  0.25000000  0.08039700  0.59699900  1
  Cu  Cu5  1  0.75000000  0.91960300  0.40300100  1
  Cu  Cu6  1  0.25000000  0.58039700  0.90300100  1
  Cu  Cu7  1  0.75000000  0.41960300  0.09699900  1
  Cu  Cu8  1  0.75000000  0.93735600  0.89110600  1
  Cu  Cu9  1  0.25000000  0.06264400  0.10889400  1
  Cu  Cu10  1  0.75000000  0.43735600  0.60889400  1
  Cu  Cu11  1  0.25000000  0.56264400  0.39110600  1
  C  C12  1  0.25000000  0.47386900  0.21635200  1
  C  C13  1  0.75000000  0.52613100  0.78364800  1
  C  C14  1  0.25000000  0.97386900  0.28364800  1
  C  C15  1  0.75000000  0.02613100  0.71635200  1
  C  C16  1  0.25000000  0.36985500  0.97110900  1
  C  C17  1  0.75000000  0.63014500  0.02889100  1
  C  C18  1  0.25000000  0.86985500  0.52889100  1
  C  C19  1  0.75000000  0.13014500  0.47110900  1
  C  C20  1  0.25000000  0.29421800  0.66664200  1
  C  C21  1  0.75000000  0.70578200  0.33335800  1
  C  C22  1  0.25000000  0.79421800  0.83335800  1
  C  C23  1  0.75000000  0.20578200  0.16664200  1
  C  C24  1  0.75000000  0.41042900  0.42166400  1
  C  C25  1  0.25000000  0.58957100  0.57833600  1
  C  C26  1  0.75000000  0.91042900  0.07833600  1
  C  C27  1  0.25000000  0.08957100  0.92166400  1
