# generated using pymatgen
data_Cu8Ni2C29
_symmetry_space_group_name_H-M   'P 1'
_cell_length_a   10.36248885
_cell_length_b   10.36248885
_cell_length_c   5.37882023
_cell_angle_alpha   84.64328136
_cell_angle_beta   84.64328136
_cell_angle_gamma   124.31000241
_symmetry_Int_Tables_number   1
_chemical_formula_structural   Cu8Ni2C29
_chemical_formula_sum   'Cu8 Ni2 C29'
_cell_volume   467.45780543
_cell_formula_units_Z   1
loop_
 _symmetry_equiv_pos_site_id
 _symmetry_equiv_pos_as_xyz
  1  'x, y, z'
loop_
 _atom_site_type_symbol
 _atom_site_label
 _atom_site_symmetry_multiplicity
 _atom_site_fract_x
 _atom_site_fract_y
 _atom_site_fract_z
 _atom_site_occupancy
  Ni  Ni0  1  0.99931600  0.00068400  0.00000000  1
  Ni  Ni1  1  0.82100400  0.17899600  0.00000000  1
  C  C2  1  0.74097300  0.25902700  0.50000000  1
  C  C3  1  0.25853100  0.74146900  0.50000000  1
  C  C4  1  0.17891700  0.82108300  0.00000000  1
  C  C5  1  0.92201700  0.07798300  0.50000000  1
  C  C6  1  0.07848500  0.92151500  0.50000000  1
  Cu  Cu7  1  0.20217900  0.36965900  0.72924000  1
  Cu  Cu8  1  0.37042200  0.20301800  0.72900700  1
  Cu  Cu9  1  0.79698200  0.62957800  0.27099300  1
  Cu  Cu10  1  0.63034100  0.79782100  0.27076000  1
  Cu  Cu11  1  0.12913900  0.46259800  0.22461300  1
  Cu  Cu12  1  0.46491000  0.12999500  0.22499500  1
  Cu  Cu13  1  0.87000500  0.53509000  0.77500500  1
  Cu  Cu14  1  0.53740200  0.87086100  0.77538700  1
  C  C15  1  0.34030700  0.34051600  0.72824900  1
  C  C16  1  0.65948400  0.65969300  0.27175100  1
  C  C17  1  0.13693300  0.62312800  0.23180800  1
  C  C18  1  0.62625500  0.13769300  0.22823000  1
  C  C19  1  0.86230700  0.37374500  0.77177000  1
  C  C20  1  0.37687200  0.86306700  0.76819200  1
  C  C21  1  0.22928500  0.46911200  0.45149500  1
  C  C22  1  0.47168300  0.23059800  0.45199600  1
  C  C23  1  0.76940200  0.52831700  0.54800400  1
  C  C24  1  0.53088800  0.77071500  0.54850500  1
  C  C25  1  0.10363600  0.10373600  0.29810600  1
  C  C26  1  0.89626400  0.89636400  0.70189400  1
  C  C27  1  0.02430500  0.20178600  0.78915000  1
  C  C28  1  0.20072100  0.02709100  0.78749700  1
  C  C29  1  0.97290900  0.79927900  0.21250300  1
  C  C30  1  0.79821400  0.97569500  0.21085000  1
  C  C31  1  0.21820600  0.47721800  0.94385500  1
  C  C32  1  0.47734500  0.21786700  0.94439300  1
  C  C33  1  0.78213300  0.52265500  0.05560700  1
  C  C34  1  0.52278200  0.78179400  0.05614500  1
  C  C35  1  0.95100200  0.29236700  0.28553900  1
  C  C36  1  0.29433200  0.95352500  0.29436500  1
  C  C37  1  0.04647500  0.70566800  0.70563500  1
  C  C38  1  0.70763300  0.04899800  0.71446100  1
