# generated using pymatgen
data_Cu2Ni3C8
_symmetry_space_group_name_H-M   'P 1'
_cell_length_a   5.96688029
_cell_length_b   5.96688029
_cell_length_c   9.55316500
_cell_angle_alpha   90.00000000
_cell_angle_beta   90.00000000
_cell_angle_gamma   120.00000325
_symmetry_Int_Tables_number   1
_chemical_formula_structural   Cu2Ni3C8
_chemical_formula_sum   'Cu4 Ni6 C16'
_cell_volume   294.55916949
_cell_formula_units_Z   2
loop_
 _symmetry_equiv_pos_site_id
 _symmetry_equiv_pos_as_xyz
  1  'x, y, z'
loop_
 _atom_site_type_symbol
 _atom_site_label
 _atom_site_symmetry_multiplicity
 _atom_site_fract_x
 _atom_site_fract_y
 _atom_site_fract_z
 _atom_site_occupancy
  Ni  Ni0  1  0.67462000  0.83731000  0.24345500  1
  Ni  Ni1  1  0.83731000  0.16269000  0.74345500  1
  Ni  Ni2  1  0.16269000  0.32538000  0.24345500  1
  Ni  Ni3  1  0.83731000  0.67462000  0.74345500  1
  Ni  Ni4  1  0.32538000  0.16269000  0.74345500  1
  Ni  Ni5  1  0.16269000  0.83731000  0.24345500  1
  Cu  Cu6  1  0.66666700  0.33333300  0.02875300  1
  Cu  Cu7  1  0.33333300  0.66666700  0.52875300  1
  Cu  Cu8  1  0.66666700  0.33333300  0.41770900  1
  Cu  Cu9  1  0.33333300  0.66666700  0.91770900  1
  C  C10  1  0.83705000  0.16295000  0.14573000  1
  C  C11  1  0.67409900  0.83705000  0.64573000  1
  C  C12  1  0.16295000  0.32590100  0.64573000  1
  C  C13  1  0.83705000  0.67409900  0.14573000  1
  C  C14  1  0.32590100  0.16295000  0.14573000  1
  C  C15  1  0.16295000  0.83705000  0.64573000  1
  C  C16  1  0.51806800  0.48193200  0.86559100  1
  C  C17  1  0.03613700  0.51806800  0.36559100  1
  C  C18  1  0.48193200  0.96386300  0.36559100  1
  C  C19  1  0.51806800  0.03613700  0.86559100  1
  C  C20  1  0.00000000  0.00000000  0.34984500  1
  C  C21  1  0.00000000  0.00000000  0.84984500  1
  C  C22  1  0.33333300  0.66666700  0.13286200  1
  C  C23  1  0.96386300  0.48193200  0.86559100  1
  C  C24  1  0.48193200  0.51806800  0.36559100  1
  C  C25  1  0.66666700  0.33333300  0.63286200  1
