# generated using pymatgen
data_Cu3Ni3C
_symmetry_space_group_name_H-M   'P 1'
_cell_length_a   4.42324200
_cell_length_b   11.91199400
_cell_length_c   21.04938000
_cell_angle_alpha   90.00000000
_cell_angle_beta   90.00000000
_cell_angle_gamma   90.00000000
_symmetry_Int_Tables_number   1
_chemical_formula_structural   Cu3Ni3C
_chemical_formula_sum   'Cu12 Ni12 C4'
_cell_volume   1109.08408949
_cell_formula_units_Z   4
loop_
 _symmetry_equiv_pos_site_id
 _symmetry_equiv_pos_as_xyz
  1  'x, y, z'
loop_
 _atom_site_type_symbol
 _atom_site_label
 _atom_site_symmetry_multiplicity
 _atom_site_fract_x
 _atom_site_fract_y
 _atom_site_fract_z
 _atom_site_occupancy
  Ni  Ni0  1  0.25000000  0.67323500  0.99017400  1
  Ni  Ni1  1  0.75000000  0.32676500  0.00982600  1
  Ni  Ni2  1  0.75000000  0.82676500  0.49017400  1
  Ni  Ni3  1  0.25000000  0.17323500  0.50982600  1
  Ni  Ni4  1  0.25000000  0.54638700  0.10365000  1
  Ni  Ni5  1  0.75000000  0.45361300  0.89635000  1
  Ni  Ni6  1  0.75000000  0.95361300  0.60365000  1
  Ni  Ni7  1  0.25000000  0.04638700  0.39635000  1
  Ni  Ni8  1  0.25000000  0.66081600  0.63381600  1
  Ni  Ni9  1  0.75000000  0.33918400  0.36618400  1
  Ni  Ni10  1  0.75000000  0.83918400  0.13381600  1
  Ni  Ni11  1  0.25000000  0.16081600  0.86618400  1
  Cu  Cu12  1  0.25000000  0.72880000  0.19460500  1
  Cu  Cu13  1  0.75000000  0.27120000  0.80539500  1
  Cu  Cu14  1  0.75000000  0.77120000  0.69460500  1
  Cu  Cu15  1  0.25000000  0.22880000  0.30539500  1
  Cu  Cu16  1  0.25000000  0.66949700  0.49871500  1
  Cu  Cu17  1  0.75000000  0.33050300  0.50128500  1
  Cu  Cu18  1  0.75000000  0.83050300  0.99871500  1
  Cu  Cu19  1  0.25000000  0.16949700  0.00128500  1
  Cu  Cu20  1  0.25000000  0.59679600  0.86135600  1
  Cu  Cu21  1  0.75000000  0.40320400  0.13864400  1
  Cu  Cu22  1  0.75000000  0.90320400  0.36135600  1
  Cu  Cu23  1  0.25000000  0.09679600  0.63864400  1
  C  C24  1  0.25000000  0.95505700  0.83197200  1
  C  C25  1  0.75000000  0.04494300  0.16802800  1
  C  C26  1  0.75000000  0.54494300  0.33197200  1
  C  C27  1  0.25000000  0.45505700  0.66802800  1
