# generated using pymatgen
data_CuNiC8
_symmetry_space_group_name_H-M   'P 1'
_cell_length_a   6.00908068
_cell_length_b   6.10957217
_cell_length_c   8.56802919
_cell_angle_alpha   90.16178858
_cell_angle_beta   90.27212002
_cell_angle_gamma   90.51648583
_symmetry_Int_Tables_number   1
_chemical_formula_structural   CuNiC8
_chemical_formula_sum   'Cu2 Ni2 C16'
_cell_volume   314.53968229
_cell_formula_units_Z   2
loop_
 _symmetry_equiv_pos_site_id
 _symmetry_equiv_pos_as_xyz
  1  'x, y, z'
loop_
 _atom_site_type_symbol
 _atom_site_label
 _atom_site_symmetry_multiplicity
 _atom_site_fract_x
 _atom_site_fract_y
 _atom_site_fract_z
 _atom_site_occupancy
  Ni  Ni0  1  0.51129597  0.53928563  0.24947029  1
  Ni  Ni1  1  0.48870403  0.46071437  0.75052971  1
  C  C2  1  -0.00000000  0.50000000  -0.00000000  1
  C  C3  1  0.50000000  -0.00000000  0.50000000  1
  Cu  Cu4  1  0.98885431  0.04498570  0.25160532  1
  Cu  Cu5  1  0.01114569  0.95501430  0.74839468  1
  C  C6  1  0.50000000  -0.00000000  -0.00000000  1
  C  C7  1  -0.00000000  0.50000000  0.50000000  1
  C  C8  1  0.21715969  0.19334296  0.95450123  1
  C  C9  1  0.27342871  0.70515847  0.54253312  1
  C  C10  1  0.78284031  0.80665704  0.04549877  1
  C  C11  1  0.72657129  0.29484153  0.45746688  1
  C  C12  1  0.29798084  0.72535489  0.95741917  1
  C  C13  1  0.19105970  0.21474545  0.54391597  1
  C  C14  1  0.70201916  0.27464511  0.04258083  1
  C  C15  1  0.80894030  0.78525455  0.45608403  1
  C  C16  1  0.40798246  0.98901779  0.23804114  1
  C  C17  1  0.07278205  0.47514376  0.26180721  1
  C  C18  1  0.59201754  0.01098221  0.76195886  1
  C  C19  1  0.92721795  0.52485624  0.73819279  1
