# generated using pymatgen
data_CuNiC12
_symmetry_space_group_name_H-M   'P 1'
_cell_length_a   6.46611101
_cell_length_b   7.61773077
_cell_length_c   14.15662068
_cell_angle_alpha   90.04163414
_cell_angle_beta   89.94474255
_cell_angle_gamma   90.03298063
_symmetry_Int_Tables_number   1
_chemical_formula_structural   CuNiC12
_chemical_formula_sum   'Cu4 Ni4 C48'
_cell_volume   697.31335558
_cell_formula_units_Z   4
loop_
 _symmetry_equiv_pos_site_id
 _symmetry_equiv_pos_as_xyz
  1  'x, y, z'
loop_
 _atom_site_type_symbol
 _atom_site_label
 _atom_site_symmetry_multiplicity
 _atom_site_fract_x
 _atom_site_fract_y
 _atom_site_fract_z
 _atom_site_occupancy
  C  C0  1  0.75009300  0.94731700  0.78410500  1
  C  C1  1  0.74998600  0.55279200  0.28398400  1
  C  C2  1  0.24992900  0.05249900  0.21589100  1
  C  C3  1  0.25007500  0.44731500  0.71598100  1
  Ni  Ni4  1  0.50001000  0.00004700  0.00003800  1
  Ni  Ni5  1  0.49994500  0.49998700  0.50004400  1
  Ni  Ni6  1  0.99994200  0.49996400  0.50006400  1
  Ni  Ni7  1  0.99995200  0.00009400  0.99996300  1
  Cu  Cu8  1  0.75015900  0.35809800  0.88302200  1
  Cu  Cu9  1  0.24987800  0.64197500  0.11695100  1
  Cu  Cu10  1  0.25020800  0.85903200  0.61720800  1
  Cu  Cu11  1  0.74984800  0.14100100  0.38278600  1
  C  C12  1  0.25014000  0.34758200  0.92531000  1
  C  C13  1  0.74987900  0.65249700  0.07465200  1
  C  C14  1  0.75013000  0.84746100  0.57465400  1
  C  C15  1  0.24986100  0.15252200  0.42533100  1
  C  C16  1  0.75006400  0.37789000  0.68865300  1
  C  C17  1  0.24996100  0.62202800  0.31136000  1
  C  C18  1  0.25013400  0.87775500  0.81166900  1
  C  C19  1  0.74991300  0.12223500  0.18832200  1
  C  C20  1  0.04280400  0.61535600  0.36635300  1
  C  C21  1  0.54287100  0.38465700  0.63380900  1
  C  C22  1  0.95707800  0.11534300  0.13362500  1
  C  C23  1  0.45706400  0.88447800  0.86617400  1
  C  C24  1  0.95722100  0.38455600  0.63368900  1
  C  C25  1  0.45712500  0.61524000  0.36621300  1
  C  C26  1  0.04290500  0.88468700  0.86630900  1
  C  C27  1  0.54295200  0.11555000  0.13383100  1
  C  C28  1  0.24965800  0.33459900  0.47036300  1
  C  C29  1  0.75011700  0.66536300  0.52971600  1
  C  C30  1  0.75000100  0.83453500  0.02967500  1
  C  C31  1  0.24994600  0.16554400  0.97029900  1
  C  C32  1  0.74904800  0.12790500  0.93672000  1
  C  C33  1  0.25066900  0.87220600  0.06327300  1
  C  C34  1  0.25011400  0.62741900  0.56334500  1
  C  C35  1  0.74975600  0.37245000  0.43682700  1
  C  C36  1  0.74999000  0.20740900  0.75247500  1
  C  C37  1  0.25007400  0.79253900  0.24754800  1
  C  C38  1  0.24976000  0.70745100  0.74724800  1
  C  C39  1  0.75031600  0.29254700  0.25275200  1
  C  C40  1  0.43154800  0.12359300  0.35609600  1
  C  C41  1  0.93182800  0.87676500  0.64376900  1
  C  C42  1  0.56840100  0.62339000  0.14396300  1
  C  C43  1  0.06839700  0.37660700  0.85616500  1
  C  C44  1  0.56848900  0.87649200  0.64394900  1
  C  C45  1  0.06823200  0.12319400  0.35621500  1
  C  C46  1  0.43164000  0.37663300  0.85601300  1
  C  C47  1  0.93164200  0.62342200  0.14378600  1
  C  C48  1  0.74980800  0.97407800  0.26515000  1
  C  C49  1  0.25026500  0.02587700  0.73480800  1
  C  C50  1  0.25003100  0.47399500  0.23470300  1
  C  C51  1  0.74998800  0.52602000  0.76526100  1
  C  C52  1  0.75003300  0.98633200  0.49585700  1
  C  C53  1  0.25006300  0.01354500  0.50409400  1
  C  C54  1  0.24993800  0.48671300  0.00407300  1
  C  C55  1  0.75012300  0.51342000  0.99586800  1
