# generated using pymatgen
data_Cu4NiC
_symmetry_space_group_name_H-M   'P 1'
_cell_length_a   4.93805400
_cell_length_b   7.28336600
_cell_length_c   8.36488000
_cell_angle_alpha   90.00000000
_cell_angle_beta   90.00000000
_cell_angle_gamma   90.00000000
_symmetry_Int_Tables_number   1
_chemical_formula_structural   Cu4NiC
_chemical_formula_sum   'Cu16 Ni4 C4'
_cell_volume   300.84838493
_cell_formula_units_Z   4
loop_
 _symmetry_equiv_pos_site_id
 _symmetry_equiv_pos_as_xyz
  1  'x, y, z'
loop_
 _atom_site_type_symbol
 _atom_site_label
 _atom_site_symmetry_multiplicity
 _atom_site_fract_x
 _atom_site_fract_y
 _atom_site_fract_z
 _atom_site_occupancy
  C  C0  1  0.00212100  0.89217500  0.33119600  1
  C  C1  1  0.49787900  0.10782500  0.83119600  1
  C  C2  1  0.99787900  0.39217500  0.16880400  1
  C  C3  1  0.50212100  0.60782500  0.66880400  1
  Ni  Ni4  1  0.00277500  0.94946800  0.67889100  1
  Ni  Ni5  1  0.49722500  0.05053200  0.17889100  1
  Ni  Ni6  1  0.99722500  0.44946800  0.82110900  1
  Ni  Ni7  1  0.50277500  0.55053200  0.32110900  1
  Cu  Cu8  1  0.97983000  0.69943400  0.12177900  1
  Cu  Cu9  1  0.52017000  0.30056600  0.62177900  1
  Cu  Cu10  1  0.02017000  0.19943400  0.37822100  1
  Cu  Cu11  1  0.47983000  0.80056600  0.87822100  1
  Cu  Cu12  1  0.50822400  0.94850500  0.30299300  1
  Cu  Cu13  1  0.99177600  0.05149500  0.80299300  1
  Cu  Cu14  1  0.49177600  0.44850500  0.19700700  1
  Cu  Cu15  1  0.00822400  0.55149500  0.69700700  1
  Cu  Cu16  1  0.73789300  0.59730200  0.37899000  1
  Cu  Cu17  1  0.76210700  0.40269800  0.87899000  1
  Cu  Cu18  1  0.26210700  0.09730200  0.12101000  1
  Cu  Cu19  1  0.23789300  0.90269800  0.62101000  1
  Cu  Cu20  1  0.28642500  0.59954100  0.39647000  1
  Cu  Cu21  1  0.21357500  0.40045900  0.89647000  1
  Cu  Cu22  1  0.71357500  0.09954100  0.10353000  1
  Cu  Cu23  1  0.78642500  0.90045900  0.60353000  1
