# generated using pymatgen
data_Cu2Ni2C23
_symmetry_space_group_name_H-M   'P 1'
_cell_length_a   6.40323000
_cell_length_b   7.55212600
_cell_length_c   13.98964000
_cell_angle_alpha   90.00000000
_cell_angle_beta   90.00000000
_cell_angle_gamma   90.00000000
_symmetry_Int_Tables_number   1
_chemical_formula_structural   Cu2Ni2C23
_chemical_formula_sum   'Cu4 Ni4 C46'
_cell_volume   676.51100786
_cell_formula_units_Z   2
loop_
 _symmetry_equiv_pos_site_id
 _symmetry_equiv_pos_as_xyz
  1  'x, y, z'
loop_
 _atom_site_type_symbol
 _atom_site_label
 _atom_site_symmetry_multiplicity
 _atom_site_fract_x
 _atom_site_fract_y
 _atom_site_fract_z
 _atom_site_occupancy
  C  C0  1  0.00000000  0.87367900  0.21808800  1
  C  C1  1  0.00000000  0.12632100  0.71808900  1
  Ni  Ni2  1  0.50000000  0.09822200  0.87949300  1
  Ni  Ni3  1  0.00000000  0.40411500  0.12233700  1
  Ni  Ni4  1  0.00000000  0.59588500  0.62233700  1
  Ni  Ni5  1  0.50000000  0.90177800  0.37949300  1
  Cu  Cu6  1  0.25232900  0.74531300  0.99647400  1
  Cu  Cu7  1  0.25232900  0.25468700  0.49647400  1
  Cu  Cu8  1  0.74767100  0.25468700  0.49647400  1
  Cu  Cu9  1  0.74767100  0.74531300  0.99647400  1
  C  C10  1  0.00000000  0.09979100  0.94056100  1
  C  C11  1  0.50000000  0.39936900  0.06253400  1
  C  C12  1  0.50000000  0.60063100  0.56253400  1
  C  C13  1  0.00000000  0.90020900  0.44056100  1
  C  C14  1  0.50000000  0.13978000  0.69211400  1
  C  C15  1  0.00000000  0.35841700  0.31213800  1
  C  C16  1  0.00000000  0.64158300  0.81213800  1
  C  C17  1  0.50000000  0.86022000  0.19211400  1
  C  C18  1  0.80011800  0.35761000  0.36927300  1
  C  C19  1  0.30158000  0.14229000  0.63093100  1
  C  C20  1  0.69842000  0.85771000  0.13093100  1
  C  C21  1  0.19988200  0.64239000  0.86927300  1
  C  C22  1  0.69842000  0.14229000  0.63093100  1
  C  C23  1  0.19988200  0.35761000  0.36927300  1
  C  C24  1  0.80011800  0.64239000  0.86927300  1
  C  C25  1  0.30158000  0.85771000  0.13093100  1
  C  C26  1  0.00000000  0.08343400  0.48737600  1
  C  C27  1  0.50000000  0.41565300  0.51772900  1
  C  C28  1  0.50000000  0.58434700  0.01772900  1
  C  C29  1  0.00000000  0.91656600  0.98737600  1
  C  C30  1  0.50000000  0.90642900  0.94164000  1
  C  C31  1  0.00000000  0.60025100  0.06133600  1
  C  C32  1  0.00000000  0.39974900  0.56133600  1
  C  C33  1  0.50000000  0.09357100  0.44164000  1
  C  C34  1  0.50000000  0.97031300  0.75942800  1
  C  C35  1  0.00000000  0.52909800  0.24143900  1
  C  C36  1  0.00000000  0.47090200  0.74143900  1
  C  C37  1  0.50000000  0.02968700  0.25942800  1
  C  C38  1  0.18885300  0.88125300  0.37093500  1
  C  C39  1  0.69825500  0.62269300  0.62373400  1
  C  C40  1  0.30174500  0.37730700  0.12373400  1
  C  C41  1  0.81114700  0.11874700  0.87093500  1
  C  C42  1  0.30174500  0.62269300  0.62373400  1
  C  C43  1  0.81114700  0.88125300  0.37093500  1
  C  C44  1  0.18885300  0.11874700  0.87093500  1
  C  C45  1  0.69825500  0.37730700  0.12373400  1
  C  C46  1  0.50000000  0.71829000  0.27295400  1
  C  C47  1  0.00000000  0.78457600  0.72858500  1
  C  C48  1  0.00000000  0.21542400  0.22858500  1
  C  C49  1  0.50000000  0.28171000  0.77295400  1
  C  C50  1  0.50000000  0.74601700  0.48334800  1
  C  C51  1  0.00000000  0.75579600  0.51636400  1
  C  C52  1  0.00000000  0.24420400  0.01636400  1
  C  C53  1  0.50000000  0.25398300  0.98334800  1
