# generated using pymatgen
data_Cu4Ni2C17
_symmetry_space_group_name_H-M   'P 1'
_cell_length_a   4.19960100
_cell_length_b   22.75317100
_cell_length_c   28.03919000
_cell_angle_alpha   90.00000000
_cell_angle_beta   90.00000000
_cell_angle_gamma   90.00000000
_symmetry_Int_Tables_number   1
_chemical_formula_structural   Cu4Ni2C17
_chemical_formula_sum   'Cu16 Ni8 C68'
_cell_volume   2679.26348183
_cell_formula_units_Z   4
loop_
 _symmetry_equiv_pos_site_id
 _symmetry_equiv_pos_as_xyz
  1  'x, y, z'
loop_
 _atom_site_type_symbol
 _atom_site_label
 _atom_site_symmetry_multiplicity
 _atom_site_fract_x
 _atom_site_fract_y
 _atom_site_fract_z
 _atom_site_occupancy
  Ni  Ni0  1  0.00000000  0.22529400  0.33895400  1
  Ni  Ni1  1  0.00000000  0.77470600  0.66104600  1
  Ni  Ni2  1  0.00000000  0.27470600  0.83895400  1
  Ni  Ni3  1  0.00000000  0.72529400  0.16104600  1
  Ni  Ni4  1  0.00000000  0.00000000  0.50000000  1
  Ni  Ni5  1  0.00000000  0.50000000  0.00000000  1
  Ni  Ni6  1  0.00000000  0.00000000  0.00000000  1
  Ni  Ni7  1  0.00000000  0.50000000  0.50000000  1
  Cu  Cu8  1  0.50000000  0.15312100  0.47615100  1
  Cu  Cu9  1  0.50000000  0.84687900  0.52384900  1
  Cu  Cu10  1  0.50000000  0.34687900  0.97615100  1
  Cu  Cu11  1  0.50000000  0.65312100  0.02384900  1
  Cu  Cu12  1  0.00000000  0.02196000  0.15496600  1
  Cu  Cu13  1  0.00000000  0.97803900  0.84503400  1
  Cu  Cu14  1  0.00000000  0.47804000  0.65496600  1
  Cu  Cu15  1  0.00000000  0.52196100  0.34503400  1
  Cu  Cu16  1  0.00000000  0.35865000  0.10767200  1
  Cu  Cu17  1  0.00000000  0.64135000  0.89232800  1
  Cu  Cu18  1  0.00000000  0.14135000  0.60767200  1
  Cu  Cu19  1  0.00000000  0.85865000  0.39232800  1
  Cu  Cu20  1  0.50000000  0.38472800  0.41570400  1
  Cu  Cu21  1  0.50000000  0.61527200  0.58429600  1
  Cu  Cu22  1  0.50000000  0.11527200  0.91570400  1
  Cu  Cu23  1  0.50000000  0.88472800  0.08429600  1
  C  C24  1  0.50000000  0.03243200  0.34429600  1
  C  C25  1  0.50000000  0.96756800  0.65570400  1
  C  C26  1  0.50000000  0.46756800  0.84429600  1
  C  C27  1  0.50000000  0.53243200  0.15570400  1
  C  C28  1  0.50000000  0.37249400  0.24929800  1
  C  C29  1  0.50000000  0.62750600  0.75070200  1
  C  C30  1  0.50000000  0.12750600  0.74929800  1
  C  C31  1  0.50000000  0.87249400  0.25070200  1
  C  C32  1  0.50000000  0.16727200  0.22537200  1
  C  C33  1  0.50000000  0.83272800  0.77462800  1
  C  C34  1  0.50000000  0.33272800  0.72537200  1
  C  C35  1  0.50000000  0.66727200  0.27462800  1
  C  C36  1  0.50000000  0.18669600  0.07303400  1
  C  C37  1  0.50000000  0.81330400  0.92696600  1
  C  C38  1  0.50000000  0.31330400  0.57303400  1
  C  C39  1  0.50000000  0.68669600  0.42696600  1
  C  C40  1  0.50000000  0.29132600  0.14735000  1
  C  C41  1  0.50000000  0.70867400  0.85265000  1
  C  C42  1  0.50000000  0.20867400  0.64735000  1
  C  C43  1  0.50000000  0.79132600  0.35265000  1
  C  C44  1  0.00000000  0.15050400  0.14193500  1
  C  C45  1  0.00000000  0.84949600  0.85806500  1
  C  C46  1  0.00000000  0.34949600  0.64193500  1
  C  C47  1  0.00000000  0.65050400  0.35806500  1
  C  C48  1  0.50000000  0.43677500  0.04939100  1
  C  C49  1  0.50000000  0.56322500  0.95060900  1
  C  C50  1  0.50000000  0.06322500  0.54939100  1
  C  C51  1  0.50000000  0.93677500  0.45060900  1
  C  C52  1  0.50000000  0.02710500  0.22209600  1
  C  C53  1  0.50000000  0.97289500  0.77790400  1
  C  C54  1  0.50000000  0.47289500  0.72209600  1
  C  C55  1  0.50000000  0.52710500  0.27790400  1
  C  C56  1  0.00000000  0.39337700  0.34210900  1
  C  C57  1  0.00000000  0.60662300  0.65789100  1
  C  C58  1  0.00000000  0.10662300  0.84210900  1
  C  C59  1  0.00000000  0.89337700  0.15789100  1
  C  C60  1  0.00000000  0.38231700  0.49213100  1
  C  C61  1  0.00000000  0.61768300  0.50786900  1
  C  C62  1  0.00000000  0.11768300  0.99213100  1
  C  C63  1  0.00000000  0.88231700  0.00786900  1
  C  C64  1  0.00000000  0.11900800  0.30128700  1
  C  C65  1  0.00000000  0.88099200  0.69871300  1
  C  C66  1  0.00000000  0.38099200  0.80128700  1
  C  C67  1  0.00000000  0.61900800  0.19871300  1
  C  C68  1  0.00000000  0.27206500  0.25408300  1
  C  C69  1  0.00000000  0.72793500  0.74591700  1
  C  C70  1  0.00000000  0.22793500  0.75408300  1
  C  C71  1  0.00000000  0.77206500  0.24591700  1
  C  C72  1  0.00000000  0.27733900  0.02177700  1
  C  C73  1  0.00000000  0.72266100  0.97822300  1
  C  C74  1  0.00000000  0.22266100  0.52177700  1
  C  C75  1  0.00000000  0.77733900  0.47822300  1
  C  C76  1  0.00000000  0.43944300  0.18611900  1
  C  C77  1  0.00000000  0.56055700  0.81388100  1
  C  C78  1  0.00000000  0.06055700  0.68611900  1
  C  C79  1  0.00000000  0.93944300  0.31388100  1
  C  C80  1  0.50000000  0.00852500  0.07039200  1
  C  C81  1  0.50000000  0.99147500  0.92960800  1
  C  C82  1  0.50000000  0.49147500  0.57039200  1
  C  C83  1  0.50000000  0.50852500  0.42960800  1
  C  C84  1  0.50000000  0.24591700  0.39520400  1
  C  C85  1  0.50000000  0.75408300  0.60479600  1
  C  C86  1  0.50000000  0.25408300  0.89520400  1
  C  C87  1  0.50000000  0.74591700  0.10479600  1
  C  C88  1  0.00000000  0.07844700  0.42872600  1
  C  C89  1  0.00000000  0.92155200  0.57127400  1
  C  C90  1  0.00000000  0.42155200  0.92872600  1
  C  C91  1  0.00000000  0.57844800  0.07127400  1
