# generated using pymatgen
data_Cu3NiC6
_symmetry_space_group_name_H-M   'P 1'
_cell_length_a   6.73820500
_cell_length_b   9.36569000
_cell_length_c   12.16857300
_cell_angle_alpha   90.00000000
_cell_angle_beta   90.00000000
_cell_angle_gamma   90.00000000
_symmetry_Int_Tables_number   1
_chemical_formula_structural   Cu3NiC6
_chemical_formula_sum   'Cu12 Ni4 C24'
_cell_volume   767.93356487
_cell_formula_units_Z   4
loop_
 _symmetry_equiv_pos_site_id
 _symmetry_equiv_pos_as_xyz
  1  'x, y, z'
loop_
 _atom_site_type_symbol
 _atom_site_label
 _atom_site_symmetry_multiplicity
 _atom_site_fract_x
 _atom_site_fract_y
 _atom_site_fract_z
 _atom_site_occupancy
  C  C0  1  0.25000000  0.75368700  0.74069700  1
  C  C1  1  0.75000000  0.24631300  0.25930300  1
  C  C2  1  0.75000000  0.75368700  0.75930300  1
  C  C3  1  0.25000000  0.24631300  0.24069700  1
  C  C4  1  0.02654200  0.45766700  0.38588000  1
  C  C5  1  0.52654200  0.54233300  0.61412000  1
  C  C6  1  0.97345800  0.45766700  0.11412000  1
  C  C7  1  0.47345800  0.54233300  0.88588000  1
  C  C8  1  0.97345800  0.54233300  0.61412000  1
  C  C9  1  0.47345800  0.45766700  0.38588000  1
  C  C10  1  0.02654200  0.54233300  0.88588000  1
  C  C11  1  0.52654200  0.45766700  0.11412000  1
  Ni  Ni12  1  0.25000000  0.75761700  0.47892000  1
  Ni  Ni13  1  0.75000000  0.24238300  0.52108000  1
  Ni  Ni14  1  0.75000000  0.75761700  0.02108000  1
  Ni  Ni15  1  0.25000000  0.24238300  0.97892000  1
  Cu  Cu16  1  0.25000000  0.64958400  0.58098700  1
  Cu  Cu17  1  0.75000000  0.35041600  0.41901300  1
  Cu  Cu18  1  0.75000000  0.64958400  0.91901300  1
  Cu  Cu19  1  0.25000000  0.35041600  0.08098700  1
  Cu  Cu20  1  0.25000000  0.62437800  0.35887800  1
  Cu  Cu21  1  0.75000000  0.37562200  0.64112200  1
  Cu  Cu22  1  0.75000000  0.62437800  0.14112200  1
  Cu  Cu23  1  0.25000000  0.37562200  0.85887800  1
  Cu  Cu24  1  0.25000000  0.13534400  0.38162400  1
  Cu  Cu25  1  0.75000000  0.86465600  0.61837600  1
  Cu  Cu26  1  0.75000000  0.13534400  0.11837600  1
  Cu  Cu27  1  0.25000000  0.86465600  0.88162400  1
  C  C28  1  0.06331900  0.83168400  0.46491600  1
  C  C29  1  0.56331900  0.16831600  0.53508400  1
  C  C30  1  0.93668100  0.83168400  0.03508400  1
  C  C31  1  0.43668100  0.16831600  0.96491600  1
  C  C32  1  0.93668100  0.16831600  0.53508400  1
  C  C33  1  0.43668100  0.83168400  0.46491600  1
  C  C34  1  0.06331900  0.16831600  0.96491600  1
  C  C35  1  0.56331900  0.83168400  0.03508400  1
  C  C36  1  0.25000000  0.68022800  0.26612600  1
  C  C37  1  0.75000000  0.31977200  0.73387400  1
  C  C38  1  0.75000000  0.68022800  0.23387400  1
  C  C39  1  0.25000000  0.31977200  0.76612600  1
