# generated using pymatgen
data_Cu12NiC26
_symmetry_space_group_name_H-M   'P 1'
_cell_length_a   26.48489176
_cell_length_b   26.48489176
_cell_length_c   5.51435900
_cell_angle_alpha   90.00000000
_cell_angle_beta   90.00000000
_cell_angle_gamma   168.04824623
_symmetry_Int_Tables_number   1
_chemical_formula_structural   Cu12NiC26
_chemical_formula_sum   'Cu12 Ni1 C26'
_cell_volume   801.02541641
_cell_formula_units_Z   1
loop_
 _symmetry_equiv_pos_site_id
 _symmetry_equiv_pos_as_xyz
  1  'x, y, z'
loop_
 _atom_site_type_symbol
 _atom_site_label
 _atom_site_symmetry_multiplicity
 _atom_site_fract_x
 _atom_site_fract_y
 _atom_site_fract_z
 _atom_site_occupancy
  Ni  Ni0  1  0.00000000  0.00000000  0.50000000  1
  Cu  Cu1  1  0.77426400  0.22573600  0.00000000  1
  Cu  Cu2  1  0.27427300  0.72572700  0.50000000  1
  Cu  Cu3  1  0.72572700  0.27427300  0.50000000  1
  Cu  Cu4  1  0.22573600  0.77426400  0.00000000  1
  Cu  Cu5  1  0.92058900  0.07941100  0.00000000  1
  Cu  Cu6  1  0.42058900  0.57941100  0.50000000  1
  Cu  Cu7  1  0.57941100  0.42058900  0.50000000  1
  Cu  Cu8  1  0.07941100  0.92058900  0.00000000  1
  Cu  Cu9  1  0.62777900  0.37222100  0.00000000  1
  Cu  Cu10  1  0.12843200  0.87156800  0.50000000  1
  Cu  Cu11  1  0.87156800  0.12843200  0.50000000  1
  Cu  Cu12  1  0.37222100  0.62777900  0.00000000  1
  C  C13  1  0.69950000  0.30050000  0.00000000  1
  C  C14  1  0.19948000  0.80052000  0.50000000  1
  C  C15  1  0.80052000  0.19948000  0.50000000  1
  C  C16  1  0.30050000  0.69950000  0.00000000  1
  C  C17  1  0.55516500  0.44483500  0.00000000  1
  C  C18  1  0.05201100  0.94798900  0.50000000  1
  C  C19  1  0.94798900  0.05201100  0.50000000  1
  C  C20  1  0.44483500  0.55516500  0.00000000  1
  C  C21  1  0.84596200  0.15403800  0.00000000  1
  C  C22  1  0.34596300  0.65403700  0.50000000  1
  C  C23  1  0.65403700  0.34596300  0.50000000  1
  C  C24  1  0.15403800  0.84596200  0.00000000  1
  C  C25  1  0.50000000  0.50000000  0.50000000  1
  C  C26  1  0.00000000  0.00000000  0.00000000  1
  C  C27  1  0.64802000  0.85567700  0.74815800  1
  C  C28  1  0.14432300  0.35198000  0.25184200  1
  C  C29  1  0.14432300  0.35198000  0.74815800  1
  C  C30  1  0.64802000  0.85567700  0.25184200  1
  C  C31  1  0.85567700  0.64802000  0.74815800  1
  C  C32  1  0.35198000  0.14432300  0.25184200  1
  C  C33  1  0.35198000  0.14432300  0.74815800  1
  C  C34  1  0.85567700  0.64802000  0.25184200  1
  C  C35  1  0.50000000  0.00000000  0.74997000  1
  C  C36  1  0.00000000  0.50000000  0.25003000  1
  C  C37  1  0.00000000  0.50000000  0.74997000  1
  C  C38  1  0.50000000  0.00000000  0.25003000  1
