# generated using pymatgen
data_Cu12Ni3C
_symmetry_space_group_name_H-M   'P 1'
_cell_length_a   8.04102975
_cell_length_b   8.04102975
_cell_length_c   8.01233762
_cell_angle_alpha   78.02391606
_cell_angle_beta   78.02391606
_cell_angle_gamma   77.93128821
_symmetry_Int_Tables_number   1
_chemical_formula_structural   Cu12Ni3C
_chemical_formula_sum   'Cu36 Ni9 C3'
_cell_volume   488.23795458
_cell_formula_units_Z   3
loop_
 _symmetry_equiv_pos_site_id
 _symmetry_equiv_pos_as_xyz
  1  'x, y, z'
loop_
 _atom_site_type_symbol
 _atom_site_label
 _atom_site_symmetry_multiplicity
 _atom_site_fract_x
 _atom_site_fract_y
 _atom_site_fract_z
 _atom_site_occupancy
  C  C0  1  0.00028000  0.50012600  0.50026100  1
  C  C1  1  0.50012600  0.00028000  0.50026100  1
  Ni  Ni2  1  0.26689300  0.65611800  0.25423000  1
  Ni  Ni3  1  0.26280100  0.26280100  0.66289100  1
  Ni  Ni4  1  0.65611800  0.26689300  0.25423000  1
  Ni  Ni5  1  0.73349200  0.34589900  0.74601600  1
  Ni  Ni6  1  0.73724100  0.73724100  0.33971600  1
  Ni  Ni7  1  0.34589900  0.73349200  0.74601600  1
  Ni  Ni8  1  0.42832700  0.42832700  0.42729700  1
  Ni  Ni9  1  0.56999900  0.56999900  0.57148800  1
  Ni  Ni10  1  0.04462200  0.04462200  0.04299400  1
  Cu  Cu11  1  0.44694500  0.87412200  0.87407400  1
  Cu  Cu12  1  0.87412200  0.44694500  0.87407400  1
  Cu  Cu13  1  0.87444400  0.87444400  0.44570000  1
  Cu  Cu14  1  0.56246300  0.12230900  0.12248900  1
  Cu  Cu15  1  0.12230900  0.56246300  0.12248900  1
  Cu  Cu16  1  0.12185400  0.12185400  0.56404000  1
  Cu  Cu17  1  0.37388800  0.20099600  0.01917500  1
  Cu  Cu18  1  0.01832300  0.37449100  0.19673700  1
  Cu  Cu19  1  0.19768000  0.01727400  0.37422400  1
  Cu  Cu20  1  0.01727400  0.19768000  0.37422400  1
  Cu  Cu21  1  0.37449100  0.01832300  0.19673700  1
  Cu  Cu22  1  0.20099600  0.37388800  0.01917500  1
  Cu  Cu23  1  0.62928300  0.79667000  0.97751800  1
  Cu  Cu24  1  0.97864100  0.62902100  0.80014900  1
  Cu  Cu25  1  0.79939300  0.97965800  0.62899900  1
  Cu  Cu26  1  0.97965800  0.79939300  0.62899900  1
  Cu  Cu27  1  0.62902100  0.97864100  0.80014900  1
  Cu  Cu28  1  0.79667000  0.62928300  0.97751800  1
  Cu  Cu29  1  0.29721600  0.00580400  0.00564000  1
  Cu  Cu30  1  0.00580400  0.29721600  0.00564000  1
  Cu  Cu31  1  0.00545300  0.00545300  0.29589100  1
  Cu  Cu32  1  0.72363200  0.98248500  0.98275700  1
  Cu  Cu33  1  0.98248500  0.72363200  0.98275700  1
  Cu  Cu34  1  0.98270500  0.98270500  0.72547200  1
  Cu  Cu35  1  0.42160600  0.10728800  0.82404200  1
  Cu  Cu36  1  0.81997700  0.42084900  0.10607500  1
  Cu  Cu37  1  0.10936000  0.81948000  0.41935600  1
  Cu  Cu38  1  0.81948000  0.10936000  0.41935600  1
  Cu  Cu39  1  0.42084900  0.81997700  0.10607500  1
  Cu  Cu40  1  0.10728800  0.42160600  0.82404200  1
  Cu  Cu41  1  0.58796400  0.89188700  0.17158400  1
  Cu  Cu42  1  0.17547200  0.58868300  0.89315000  1
  Cu  Cu43  1  0.88988300  0.17643400  0.58999200  1
  Cu  Cu44  1  0.17643400  0.88988300  0.58999200  1
  Cu  Cu45  1  0.58868300  0.17547200  0.89315000  1
  Cu  Cu46  1  0.89188700  0.58796400  0.17158400  1
  C  C47  1  0.93310900  0.93310900  0.93420800  1
