# generated using pymatgen
data_Cu5Ni2C25
_symmetry_space_group_name_H-M   'P 1'
_cell_length_a   5.90990100
_cell_length_b   5.92848290
_cell_length_c   8.08556033
_cell_angle_alpha   90.84583980
_cell_angle_beta   90.89151353
_cell_angle_gamma   93.43481715
_symmetry_Int_Tables_number   1
_chemical_formula_structural   Cu5Ni2C25
_chemical_formula_sum   'Cu5 Ni2 C25'
_cell_volume   282.71363807
_cell_formula_units_Z   1
loop_
 _symmetry_equiv_pos_site_id
 _symmetry_equiv_pos_as_xyz
  1  'x, y, z'
loop_
 _atom_site_type_symbol
 _atom_site_label
 _atom_site_symmetry_multiplicity
 _atom_site_fract_x
 _atom_site_fract_y
 _atom_site_fract_z
 _atom_site_occupancy
  C  C0  1  0.50000000  0.00000000  0.00000000  1
  C  C1  1  0.24450100  0.74108800  0.75866000  1
  C  C2  1  0.75611900  0.74261200  0.24481400  1
  C  C3  1  0.50000000  0.50000000  0.00000000  1
  C  C4  1  0.00000000  0.50000000  0.50000000  1
  C  C5  1  0.75549900  0.25891200  0.24134000  1
  C  C6  1  0.24388100  0.25738800  0.75518600  1
  C  C7  1  0.00000000  0.00000000  0.50000000  1
  C  C8  1  0.00000000  0.50000000  0.00000000  1
  Ni  Ni9  1  0.00000000  0.00000000  0.00000000  1
  Ni  Ni10  1  0.50000000  0.50000000  0.50000000  1
  Cu  Cu11  1  0.75807000  0.74033400  0.75259400  1
  Cu  Cu12  1  0.24193000  0.25966600  0.24740600  1
  Cu  Cu13  1  0.75301900  0.25255700  0.75154500  1
  Cu  Cu14  1  0.50000000  0.00000000  0.50000000  1
  Cu  Cu15  1  0.24698100  0.74744300  0.24845500  1
  C  C16  1  0.24348300  0.23774300  0.01373800  1
  C  C17  1  0.99831000  0.97886500  0.76016200  1
  C  C18  1  0.48044300  0.98660600  0.26745900  1
  C  C19  1  0.22813000  0.77477300  0.01408100  1
  C  C20  1  0.73983500  0.73825300  0.51123400  1
  C  C21  1  0.49605900  0.48483800  0.26071900  1
  C  C22  1  0.98079900  0.48211900  0.74909000  1
  C  C23  1  0.71837900  0.26429700  0.50814800  1
  C  C24  1  0.75651700  0.76225700  0.98626200  1
  C  C25  1  0.50394100  0.51516200  0.73928100  1
  C  C26  1  0.01920100  0.51788100  0.25091000  1
  C  C27  1  0.77187000  0.22522700  0.98591900  1
  C  C28  1  0.26016500  0.26174700  0.48876600  1
  C  C29  1  0.00169000  0.02113500  0.23983800  1
  C  C30  1  0.51955700  0.01339400  0.73254100  1
  C  C31  1  0.28162100  0.73570300  0.49185200  1
