# generated using pymatgen
data_Cu15NiC8
_symmetry_space_group_name_H-M   'P 1'
_cell_length_a   11.22968433
_cell_length_b   11.22968433
_cell_length_c   7.99262900
_cell_angle_alpha   90.00000000
_cell_angle_beta   90.00000000
_cell_angle_gamma   120.00000194
_symmetry_Int_Tables_number   1
_chemical_formula_structural   Cu15NiC8
_chemical_formula_sum   'Cu30 Ni2 C16'
_cell_volume   872.88167094
_cell_formula_units_Z   2
loop_
 _symmetry_equiv_pos_site_id
 _symmetry_equiv_pos_as_xyz
  1  'x, y, z'
loop_
 _atom_site_type_symbol
 _atom_site_label
 _atom_site_symmetry_multiplicity
 _atom_site_fract_x
 _atom_site_fract_y
 _atom_site_fract_z
 _atom_site_occupancy
  C  C0  1  0.27278300  0.27278300  0.76917700  1
  C  C1  1  0.00000000  0.72721700  0.76917700  1
  C  C2  1  0.72721700  0.72721700  0.26917700  1
  C  C3  1  0.00000000  0.27278300  0.26917700  1
  C  C4  1  0.72721700  0.00000000  0.76917700  1
  C  C5  1  0.27278300  0.00000000  0.26917700  1
  C  C6  1  0.66666700  0.33333300  0.52948200  1
  C  C7  1  0.33333300  0.66666700  0.02948200  1
  C  C8  1  0.66666700  0.33333300  0.02948200  1
  C  C9  1  0.33333300  0.66666700  0.52948200  1
  C  C10  1  0.60883200  0.60883200  0.82521900  1
  C  C11  1  0.00000000  0.39116800  0.82521900  1
  C  C12  1  0.39116800  0.39116800  0.32521900  1
  C  C13  1  0.00000000  0.60883200  0.32521900  1
  C  C14  1  0.39116800  0.00000000  0.82521900  1
  C  C15  1  0.60883200  0.00000000  0.32521900  1
  Ni  Ni16  1  0.00000000  0.00000000  0.00371200  1
  Ni  Ni17  1  0.00000000  0.00000000  0.50371200  1
  Cu  Cu18  1  0.70090600  0.70090600  0.64728800  1
  Cu  Cu19  1  0.00000000  0.29909400  0.64728800  1
  Cu  Cu20  1  0.29909400  0.29909400  0.14728800  1
  Cu  Cu21  1  0.00000000  0.70090600  0.14728800  1
  Cu  Cu22  1  0.29909400  0.00000000  0.64728800  1
  Cu  Cu23  1  0.70090600  0.00000000  0.14728800  1
  Cu  Cu24  1  0.86988300  0.44598400  0.78599500  1
  Cu  Cu25  1  0.57610200  0.13011700  0.78599500  1
  Cu  Cu26  1  0.13011700  0.55401600  0.28599500  1
  Cu  Cu27  1  0.57610200  0.44598400  0.28599500  1
  Cu  Cu28  1  0.55401600  0.42389800  0.78599500  1
  Cu  Cu29  1  0.42389800  0.86988300  0.28599500  1
  Cu  Cu30  1  0.55401600  0.13011700  0.28599500  1
  Cu  Cu31  1  0.42389800  0.55401600  0.78599500  1
  Cu  Cu32  1  0.44598400  0.57610200  0.28599500  1
  Cu  Cu33  1  0.44598400  0.86988300  0.78599500  1
  Cu  Cu34  1  0.86988300  0.42389800  0.28599500  1
  Cu  Cu35  1  0.13011700  0.57610200  0.78599500  1
  Cu  Cu36  1  0.86914200  0.25895500  0.96451700  1
  Cu  Cu37  1  0.38981300  0.13085800  0.96451700  1
  Cu  Cu38  1  0.13085800  0.74104500  0.46451700  1
  Cu  Cu39  1  0.38981300  0.25895500  0.46451700  1
  Cu  Cu40  1  0.74104500  0.61018700  0.96451700  1
  Cu  Cu41  1  0.61018700  0.86914200  0.46451700  1
  Cu  Cu42  1  0.74104500  0.13085800  0.46451700  1
  Cu  Cu43  1  0.61018700  0.74104500  0.96451700  1
  Cu  Cu44  1  0.25895500  0.38981300  0.46451700  1
  Cu  Cu45  1  0.25895500  0.86914200  0.96451700  1
  Cu  Cu46  1  0.86914200  0.61018700  0.46451700  1
  Cu  Cu47  1  0.13085800  0.38981300  0.96451700  1
