# generated using pymatgen
data_CuNi2C7
_symmetry_space_group_name_H-M   'P 1'
_cell_length_a   5.21982400
_cell_length_b   8.00120800
_cell_length_c   11.52788266
_cell_angle_alpha   81.33501360
_cell_angle_beta   90.00000000
_cell_angle_gamma   90.00000000
_symmetry_Int_Tables_number   1
_chemical_formula_structural   CuNi2C7
_chemical_formula_sum   'Cu4 Ni8 C28'
_cell_volume   475.96551074
_cell_formula_units_Z   4
loop_
 _symmetry_equiv_pos_site_id
 _symmetry_equiv_pos_as_xyz
  1  'x, y, z'
loop_
 _atom_site_type_symbol
 _atom_site_label
 _atom_site_symmetry_multiplicity
 _atom_site_fract_x
 _atom_site_fract_y
 _atom_site_fract_z
 _atom_site_occupancy
  C  C0  1  0.24309900  0.06377700  0.95976700  1
  C  C1  1  0.74309900  0.43622300  0.04023300  1
  C  C2  1  0.75690100  0.93622300  0.04023300  1
  C  C3  1  0.25690100  0.56377700  0.95976700  1
  Ni  Ni4  1  0.91321000  0.36566700  0.77194600  1
  Ni  Ni5  1  0.41321000  0.13433300  0.22805400  1
  Ni  Ni6  1  0.08679000  0.63433300  0.22805400  1
  Ni  Ni7  1  0.58679000  0.86566700  0.77194600  1
  Ni  Ni8  1  0.57789900  0.22199600  0.58007100  1
  Ni  Ni9  1  0.07789900  0.27800400  0.41992900  1
  Ni  Ni10  1  0.42210100  0.77800400  0.41992900  1
  Ni  Ni11  1  0.92210100  0.72199600  0.58007100  1
  Cu  Cu12  1  0.09212300  0.05120300  0.68259300  1
  Cu  Cu13  1  0.59212300  0.44879700  0.31740700  1
  Cu  Cu14  1  0.90787700  0.94879700  0.31740700  1
  Cu  Cu15  1  0.40787700  0.55120300  0.68259300  1
  C  C16  1  0.09250700  0.14544800  0.80164200  1
  C  C17  1  0.59250700  0.35455200  0.19835800  1
  C  C18  1  0.90749300  0.85455200  0.19835800  1
  C  C19  1  0.40749300  0.64544800  0.80164200  1
  C  C20  1  0.38790200  0.01680100  0.64451200  1
  C  C21  1  0.88790200  0.48319900  0.35548800  1
  C  C22  1  0.61209800  0.98319900  0.35548800  1
  C  C23  1  0.11209800  0.51680100  0.64451200  1
  C  C24  1  0.56882900  0.37354300  0.70294800  1
  C  C25  1  0.06882900  0.12645700  0.29705200  1
  C  C26  1  0.43117100  0.62645700  0.29705200  1
  C  C27  1  0.93117100  0.87354300  0.70294800  1
  C  C28  1  0.95262700  0.18185700  0.57661600  1
  C  C29  1  0.45262700  0.31814300  0.42338400  1
  C  C30  1  0.04737300  0.81814300  0.42338400  1
  C  C31  1  0.54737300  0.68185700  0.57661600  1
  C  C32  1  0.56304700  0.99842200  0.89958600  1
  C  C33  1  0.06304700  0.50157800  0.10041400  1
  C  C34  1  0.43695300  0.00157800  0.10041400  1
  C  C35  1  0.93695300  0.49842200  0.89958600  1
  C  C36  1  0.43650500  0.35915600  0.96975400  1
  C  C37  1  0.93650500  0.14084400  0.03024600  1
  C  C38  1  0.56349500  0.64084400  0.03024600  1
  C  C39  1  0.06349500  0.85915600  0.96975400  1
