# generated using pymatgen
data_Cu8NiC31
_symmetry_space_group_name_H-M   'P 1'
_cell_length_a   9.66415400
_cell_length_b   6.13398400
_cell_length_c   7.56771335
_cell_angle_alpha   67.26021019
_cell_angle_beta   90.00000000
_cell_angle_gamma   90.00000000
_symmetry_Int_Tables_number   1
_chemical_formula_structural   Cu8NiC31
_chemical_formula_sum   'Cu8 Ni1 C31'
_cell_volume   413.74158559
_cell_formula_units_Z   1
loop_
 _symmetry_equiv_pos_site_id
 _symmetry_equiv_pos_as_xyz
  1  'x, y, z'
loop_
 _atom_site_type_symbol
 _atom_site_label
 _atom_site_symmetry_multiplicity
 _atom_site_fract_x
 _atom_site_fract_y
 _atom_site_fract_z
 _atom_site_occupancy
  C  C0  1  0.99894600  0.00000000  0.00000000  1
  C  C1  1  0.27522800  0.55381800  0.27539800  1
  C  C2  1  0.77667800  0.54997100  0.77810000  1
  C  C3  1  0.27522800  0.44618200  0.72460200  1
  C  C4  1  0.77667800  0.45002900  0.22190000  1
  C  C5  1  0.94791500  0.00000000  0.50000000  1
  C  C6  1  0.44723300  0.00000000  0.00000000  1
  Ni  Ni7  1  0.49934700  0.00000000  0.50000000  1
  Cu  Cu8  1  0.00022400  0.50000000  0.50000000  1
  Cu  Cu9  1  0.49950500  0.50000000  0.00000000  1
  Cu  Cu10  1  0.22075500  0.94605800  0.72549000  1
  Cu  Cu11  1  0.72502700  0.94738200  0.22027600  1
  Cu  Cu12  1  0.22075500  0.05394200  0.27451000  1
  Cu  Cu13  1  0.72502700  0.05261800  0.77972400  1
  Cu  Cu14  1  0.55400700  0.50000000  0.50000000  1
  Cu  Cu15  1  0.05449900  0.50000000  0.00000000  1
  C  C16  1  0.92925700  0.35750300  0.42626700  1
  C  C17  1  0.42774500  0.35663600  0.92783700  1
  C  C18  1  0.92925700  0.64249700  0.57373300  1
  C  C19  1  0.42774500  0.64336400  0.07216300  1
  C  C20  1  0.14376700  0.50000000  0.50000000  1
  C  C21  1  0.64311600  0.50000000  0.00000000  1
  C  C22  1  0.07889500  0.97371600  0.71400600  1
  C  C23  1  0.58245400  0.96517500  0.20762100  1
  C  C24  1  0.29421400  0.21202000  0.32753200  1
  C  C25  1  0.80270300  0.20539300  0.83385400  1
  C  C26  1  0.62173600  0.37327100  0.40995600  1
  C  C27  1  0.11915000  0.36524700  0.91404000  1
  C  C28  1  0.29421400  0.78798000  0.67246800  1
  C  C29  1  0.80270300  0.79460700  0.16614600  1
  C  C30  1  0.62173600  0.62672900  0.59004400  1
  C  C31  1  0.11915000  0.63475300  0.08596000  1
  C  C32  1  0.07889500  0.02628400  0.28599400  1
  C  C33  1  0.58245400  0.03482500  0.79237900  1
  C  C34  1  0.79516500  0.09163900  0.29231100  1
  C  C35  1  0.29572000  0.08889100  0.79434000  1
  C  C36  1  0.79516500  0.90836100  0.70768900  1
  C  C37  1  0.29572000  0.91110900  0.20566000  1
  C  C38  1  0.41093000  0.50000000  0.50000000  1
  C  C39  1  0.91105900  0.50000000  0.00000000  1
