# generated using pymatgen
data_Cu12Ni3C2
_symmetry_space_group_name_H-M   'P 1'
_cell_length_a   8.72120400
_cell_length_b   8.84881300
_cell_length_c   26.21943400
_cell_angle_alpha   90.00000000
_cell_angle_beta   90.00000000
_cell_angle_gamma   90.00000000
_symmetry_Int_Tables_number   1
_chemical_formula_structural   Cu12Ni3C2
_chemical_formula_sum   'Cu96 Ni24 C16'
_cell_volume   2023.41411381
_cell_formula_units_Z   8
loop_
 _symmetry_equiv_pos_site_id
 _symmetry_equiv_pos_as_xyz
  1  'x, y, z'
loop_
 _atom_site_type_symbol
 _atom_site_label
 _atom_site_symmetry_multiplicity
 _atom_site_fract_x
 _atom_site_fract_y
 _atom_site_fract_z
 _atom_site_occupancy
  C  C0  1  0.61981200  0.02792700  0.06406300  1
  C  C1  1  0.88018800  0.02792700  0.56406300  1
  C  C2  1  0.21286600  0.99561800  0.18027900  1
  C  C3  1  0.28713400  0.99561800  0.68027900  1
  C  C4  1  0.71286600  0.50438200  0.18027900  1
  C  C5  1  0.78713400  0.50438200  0.68027900  1
  C  C6  1  0.38018800  0.47207300  0.56406300  1
  C  C7  1  0.11981200  0.47207300  0.06406300  1
  C  C8  1  0.61981200  0.52792700  0.43593700  1
  C  C9  1  0.88018800  0.52792700  0.93593700  1
  C  C10  1  0.28713400  0.49561800  0.81972100  1
  C  C11  1  0.21286600  0.49561800  0.31972100  1
  C  C12  1  0.71286600  0.00438200  0.31972100  1
  C  C13  1  0.78713400  0.00438200  0.81972100  1
  C  C14  1  0.11981200  0.97207300  0.43593700  1
  C  C15  1  0.38018800  0.97207300  0.93593700  1
  Ni  Ni16  1  0.07487300  0.85425300  0.29482300  1
  Ni  Ni17  1  0.42512700  0.85425300  0.79482300  1
  Ni  Ni18  1  0.72498700  0.89555800  0.44059700  1
  Ni  Ni19  1  0.77501300  0.89555800  0.94059700  1
  Ni  Ni20  1  0.91729900  0.80352400  0.12863500  1
  Ni  Ni21  1  0.58270100  0.80352400  0.62863500  1
  Ni  Ni22  1  0.41729900  0.69647600  0.12863500  1
  Ni  Ni23  1  0.08270100  0.69647600  0.62863500  1
  Ni  Ni24  1  0.22498700  0.60444200  0.44059700  1
  Ni  Ni25  1  0.27501300  0.60444200  0.94059700  1
  Ni  Ni26  1  0.57487300  0.64574700  0.29482300  1
  Ni  Ni27  1  0.92512700  0.64574700  0.79482300  1
  Ni  Ni28  1  0.42512700  0.35425300  0.70517700  1
  Ni  Ni29  1  0.07487300  0.35425300  0.20517700  1
  Ni  Ni30  1  0.72498700  0.39555800  0.05940300  1
  Ni  Ni31  1  0.77501300  0.39555800  0.55940300  1
  Ni  Ni32  1  0.91729900  0.30352400  0.37136500  1
  Ni  Ni33  1  0.58270100  0.30352400  0.87136500  1
  Ni  Ni34  1  0.41729900  0.19647600  0.37136500  1
  Ni  Ni35  1  0.08270100  0.19647600  0.87136500  1
  Ni  Ni36  1  0.22498700  0.10444200  0.05940300  1
  Ni  Ni37  1  0.27501300  0.10444200  0.55940300  1
  Ni  Ni38  1  0.57487300  0.14574700  0.20517700  1
  Ni  Ni39  1  0.92512700  0.14574700  0.70517700  1
  Cu  Cu40  1  0.56304400  0.92389900  0.43815200  1
  Cu  Cu41  1  0.93695600  0.92389900  0.93815200  1
  Cu  Cu42  1  0.91309700  0.90231500  0.28284800  1
  Cu  Cu43  1  0.58690300  0.90231500  0.78284800  1
  Cu  Cu44  1  0.81442100  0.00339200  0.47227800  1
  Cu  Cu45  1  0.68557900  0.00339200  0.97227800  1
  Cu  Cu46  1  0.13241700  0.91397600  0.34243500  1
  Cu  Cu47  1  0.36758300  0.91397600  0.84243500  1
  Cu  Cu48  1  0.81817900  0.88238200  0.09267500  1
  Cu  Cu49  1  0.68182100  0.88238200  0.59267500  1
  Cu  Cu50  1  0.17887600  0.90664600  0.25257800  1
  Cu  Cu51  1  0.32112400  0.90664600  0.75257800  1
  Cu  Cu52  1  0.99364300  0.92080100  0.16295300  1
  Cu  Cu53  1  0.50635700  0.92080100  0.66295300  1
  Cu  Cu54  1  0.79762100  0.91298900  0.38464700  1
  Cu  Cu55  1  0.70237900  0.91298900  0.88464700  1
  Cu  Cu56  1  0.57620100  0.81622000  0.29373800  1
  Cu  Cu57  1  0.92379900  0.81622000  0.79373800  1
  Cu  Cu58  1  0.32255800  0.78732000  0.16702300  1
  Cu  Cu59  1  0.17744200  0.78732000  0.66702300  1
  Cu  Cu60  1  0.27015800  0.76020400  0.45475900  1
  Cu  Cu61  1  0.22984200  0.76020400  0.95475900  1
  Cu  Cu62  1  0.96901000  0.78849900  0.60323500  1
  Cu  Cu63  1  0.53099000  0.78849900  0.10323500  1
  Cu  Cu64  1  0.46901000  0.71150100  0.60323500  1
  Cu  Cu65  1  0.03099000  0.71150100  0.10323500  1
  Cu  Cu66  1  0.72984200  0.73979600  0.95475900  1
  Cu  Cu67  1  0.77015800  0.73979600  0.45475900  1
  Cu  Cu68  1  0.82255800  0.71268000  0.16702300  1
  Cu  Cu69  1  0.67744200  0.71268000  0.66702300  1
  Cu  Cu70  1  0.07620100  0.68378000  0.29373800  1
  Cu  Cu71  1  0.42379900  0.68378000  0.79373800  1
  Cu  Cu72  1  0.29762100  0.58701100  0.38464700  1
  Cu  Cu73  1  0.20237900  0.58701100  0.88464700  1
  Cu  Cu74  1  0.00635700  0.57919900  0.66295300  1
  Cu  Cu75  1  0.49364300  0.57919900  0.16295300  1
  Cu  Cu76  1  0.67887600  0.59335400  0.25257800  1
  Cu  Cu77  1  0.82112400  0.59335400  0.75257800  1
  Cu  Cu78  1  0.31817900  0.61761800  0.09267500  1
  Cu  Cu79  1  0.18182100  0.61761800  0.59267500  1
  Cu  Cu80  1  0.86758300  0.58602400  0.84243500  1
  Cu  Cu81  1  0.63241700  0.58602400  0.34243500  1
  Cu  Cu82  1  0.18557900  0.49660800  0.97227800  1
  Cu  Cu83  1  0.31442100  0.49660800  0.47227800  1
  Cu  Cu84  1  0.41309700  0.59768500  0.28284800  1
  Cu  Cu85  1  0.08690300  0.59768500  0.78284800  1
  Cu  Cu86  1  0.43695600  0.57610100  0.93815200  1
  Cu  Cu87  1  0.06304400  0.57610100  0.43815200  1
  Cu  Cu88  1  0.56304400  0.42389900  0.06184800  1
  Cu  Cu89  1  0.93695600  0.42389900  0.56184800  1
  Cu  Cu90  1  0.91309700  0.40231500  0.21715200  1
  Cu  Cu91  1  0.58690300  0.40231500  0.71715200  1
  Cu  Cu92  1  0.81442100  0.50339200  0.02772200  1
  Cu  Cu93  1  0.68557900  0.50339200  0.52772200  1
  Cu  Cu94  1  0.36758300  0.41397600  0.65756500  1
  Cu  Cu95  1  0.13241700  0.41397600  0.15756500  1
  Cu  Cu96  1  0.81817900  0.38238200  0.40732500  1
  Cu  Cu97  1  0.68182100  0.38238200  0.90732500  1
  Cu  Cu98  1  0.17887600  0.40664600  0.24742200  1
  Cu  Cu99  1  0.32112400  0.40664600  0.74742200  1
  Cu  Cu100  1  0.99364300  0.42080100  0.33704700  1
  Cu  Cu101  1  0.50635700  0.42080100  0.83704700  1
  Cu  Cu102  1  0.79762100  0.41298900  0.11535300  1
  Cu  Cu103  1  0.70237900  0.41298900  0.61535300  1
  Cu  Cu104  1  0.57620100  0.31622000  0.20626200  1
  Cu  Cu105  1  0.92379900  0.31622000  0.70626200  1
  Cu  Cu106  1  0.32255800  0.28732000  0.33297700  1
  Cu  Cu107  1  0.17744200  0.28732000  0.83297700  1
  Cu  Cu108  1  0.27015800  0.26020400  0.04524100  1
  Cu  Cu109  1  0.22984200  0.26020400  0.54524100  1
  Cu  Cu110  1  0.53099000  0.28849900  0.39676500  1
  Cu  Cu111  1  0.96901000  0.28849900  0.89676500  1
  Cu  Cu112  1  0.03099000  0.21150100  0.39676500  1
  Cu  Cu113  1  0.46901000  0.21150100  0.89676500  1
  Cu  Cu114  1  0.77015800  0.23979600  0.04524100  1
  Cu  Cu115  1  0.72984200  0.23979600  0.54524100  1
  Cu  Cu116  1  0.82255800  0.21268000  0.33297700  1
  Cu  Cu117  1  0.67744200  0.21268000  0.83297700  1
  Cu  Cu118  1  0.42379900  0.18378000  0.70626200  1
  Cu  Cu119  1  0.07620100  0.18378000  0.20626200  1
  Cu  Cu120  1  0.29762100  0.08701100  0.11535300  1
  Cu  Cu121  1  0.20237900  0.08701100  0.61535300  1
  Cu  Cu122  1  0.49364300  0.07919900  0.33704700  1
  Cu  Cu123  1  0.00635700  0.07919900  0.83704700  1
  Cu  Cu124  1  0.67887600  0.09335400  0.24742200  1
  Cu  Cu125  1  0.82112400  0.09335400  0.74742200  1
  Cu  Cu126  1  0.31817900  0.11761800  0.40732500  1
  Cu  Cu127  1  0.18182100  0.11761800  0.90732500  1
  Cu  Cu128  1  0.63241700  0.08602400  0.15756500  1
  Cu  Cu129  1  0.86758300  0.08602400  0.65756500  1
  Cu  Cu130  1  0.31442100  0.99660800  0.02772200  1
  Cu  Cu131  1  0.18557900  0.99660800  0.52772200  1
  Cu  Cu132  1  0.41309700  0.09768500  0.21715200  1
  Cu  Cu133  1  0.08690300  0.09768500  0.71715200  1
  Cu  Cu134  1  0.43695600  0.07610100  0.56184800  1
  Cu  Cu135  1  0.06304400  0.07610100  0.06184800  1
