# generated using pymatgen
data_CuNiC2
_symmetry_space_group_name_H-M   'P 1'
_cell_length_a   7.00914117
_cell_length_b   7.00914117
_cell_length_c   7.00914117
_cell_angle_alpha   130.25742708
_cell_angle_beta   129.80667327
_cell_angle_gamma   73.35612766
_symmetry_Int_Tables_number   1
_chemical_formula_structural   CuNiC2
_chemical_formula_sum   'Cu2 Ni2 C4'
_cell_volume   197.05937114
_cell_formula_units_Z   2
loop_
 _symmetry_equiv_pos_site_id
 _symmetry_equiv_pos_as_xyz
  1  'x, y, z'
loop_
 _atom_site_type_symbol
 _atom_site_label
 _atom_site_symmetry_multiplicity
 _atom_site_fract_x
 _atom_site_fract_y
 _atom_site_fract_z
 _atom_site_occupancy
  C  C0  1  0.86970000  0.61970000  0.25000000  1
  C  C1  1  0.63030000  0.88030000  0.75000000  1
  C  C2  1  0.36987000  0.11987000  0.25000000  1
  C  C3  1  0.13013000  0.38013000  0.75000000  1
  Ni  Ni4  1  0.25000000  0.47312700  0.22312700  1
  Ni  Ni5  1  0.75000000  0.02687300  0.27687300  1
  Cu  Cu6  1  0.46707400  0.25000000  0.71707400  1
  Cu  Cu7  1  0.03292600  0.75000000  0.78292600  1
