# generated using pymatgen
data_Cu2NiC7
_symmetry_space_group_name_H-M   'P 1'
_cell_length_a   7.82024300
_cell_length_b   6.47096008
_cell_length_c   8.20681584
_cell_angle_alpha   118.61642667
_cell_angle_beta   90.00000000
_cell_angle_gamma   90.00000000
_symmetry_Int_Tables_number   1
_chemical_formula_structural   Cu2NiC7
_chemical_formula_sum   'Cu4 Ni2 C14'
_cell_volume   364.57076725
_cell_formula_units_Z   2
loop_
 _symmetry_equiv_pos_site_id
 _symmetry_equiv_pos_as_xyz
  1  'x, y, z'
loop_
 _atom_site_type_symbol
 _atom_site_label
 _atom_site_symmetry_multiplicity
 _atom_site_fract_x
 _atom_site_fract_y
 _atom_site_fract_z
 _atom_site_occupancy
  Ni  Ni0  1  0.82404000  0.59579000  0.67158900  1
  Ni  Ni1  1  0.32404000  0.40421000  0.32841100  1
  Cu  Cu2  1  0.88901500  0.26058800  0.19727400  1
  Cu  Cu3  1  0.38901500  0.73941200  0.80272600  1
  Cu  Cu4  1  0.30638400  0.85983600  0.25457200  1
  Cu  Cu5  1  0.80638400  0.14016400  0.74542800  1
  C  C6  1  0.61967200  0.03197900  0.59956200  1
  C  C7  1  0.11967100  0.96802100  0.40043800  1
  C  C8  1  0.26077400  0.54849500  0.59674500  1
  C  C9  1  0.76077400  0.45150500  0.40325500  1
  C  C10  1  0.93883200  0.36004700  0.72182300  1
  C  C11  1  0.43883200  0.63995300  0.27817700  1
  C  C12  1  0.59941200  0.60145600  0.79075800  1
  C  C13  1  0.09941200  0.39854400  0.20924200  1
  C  C14  1  0.93760700  0.89756500  0.73819000  1
  C  C15  1  0.43760700  0.10243500  0.26181000  1
  C  C16  1  0.76145500  0.31473300  0.01478700  1
  C  C17  1  0.26145500  0.68526700  0.98521300  1
  C  C18  1  0.88786400  0.94917300  0.11930900  1
  C  C19  1  0.38786400  0.05082700  0.88069100  1
