# generated using pymatgen
data_CuNiC14
_symmetry_space_group_name_H-M   'P 1'
_cell_length_a   6.71453357
_cell_length_b   6.71453296
_cell_length_c   10.57883018
_cell_angle_alpha   90.00000000
_cell_angle_beta   90.00000000
_cell_angle_gamma   120.00000293
_symmetry_Int_Tables_number   1
_chemical_formula_structural   CuNiC14
_chemical_formula_sum   'Cu1 Ni1 C14'
_cell_volume   413.04742987
_cell_formula_units_Z   1
loop_
 _symmetry_equiv_pos_site_id
 _symmetry_equiv_pos_as_xyz
  1  'x, y, z'
loop_
 _atom_site_type_symbol
 _atom_site_label
 _atom_site_symmetry_multiplicity
 _atom_site_fract_x
 _atom_site_fract_y
 _atom_site_fract_z
 _atom_site_occupancy
  Ni  Ni0  1  0.16666700  0.33333300  0.62500000  1
  Cu  Cu1  1  0.16666700  0.33333300  0.12500000  1
  C  C2  1  0.17227562  0.83613731  0.12500000  1
  C  C3  1  0.17464520  0.83732210  0.62500000  1
  C  C4  1  0.66386269  0.32772438  0.12500000  1
  C  C5  1  0.66267790  0.32535480  0.62500000  1
  C  C6  1  0.66386269  0.83613731  0.12500000  1
  C  C7  1  0.66267790  0.83732210  0.62500000  1
  C  C8  1  0.33993189  0.16006811  0.37203903  1
  C  C9  1  0.33993189  0.16006811  0.87796097  1
  C  C10  1  0.33993189  0.67986478  0.37203903  1
  C  C11  1  0.33993189  0.67986478  0.87796097  1
  C  C12  1  0.82013522  0.16006811  0.37203903  1
  C  C13  1  0.82013522  0.16006811  0.87796097  1
  C  C14  1  0.83333300  0.66666700  0.37577627  1
  C  C15  1  0.83333300  0.66666700  0.87422373  1
