# generated using pymatgen
data_CuNiC14
_symmetry_space_group_name_H-M   'P 1'
_cell_length_a   6.52072833
_cell_length_b   6.44086338
_cell_length_c   10.39372730
_cell_angle_alpha   90.00000000
_cell_angle_beta   90.00000000
_cell_angle_gamma   119.59566988
_symmetry_Int_Tables_number   1
_chemical_formula_structural   CuNiC14
_chemical_formula_sum   'Cu1 Ni1 C14'
_cell_volume   379.57465774
_cell_formula_units_Z   1
loop_
 _symmetry_equiv_pos_site_id
 _symmetry_equiv_pos_as_xyz
  1  'x, y, z'
loop_
 _atom_site_type_symbol
 _atom_site_label
 _atom_site_symmetry_multiplicity
 _atom_site_fract_x
 _atom_site_fract_y
 _atom_site_fract_z
 _atom_site_occupancy
  Ni  Ni0  1  0.17221059  0.83610479  0.12500000  1
  Cu  Cu1  1  0.18122702  0.34061301  0.12500000  1
  C  C2  1  0.16140031  0.33069965  0.62500000  1
  C  C3  1  0.16141256  0.83070578  0.62500000  1
  C  C4  1  0.67031069  0.33564028  0.12500000  1
  C  C5  1  0.66583285  0.33278452  0.62500000  1
  C  C6  1  0.67031069  0.83466941  0.12500000  1
  C  C7  1  0.66583285  0.83304733  0.62500000  1
  C  C8  1  0.33449079  0.16704306  0.38760132  1
  C  C9  1  0.33449079  0.16704306  0.86239868  1
  C  C10  1  0.33449079  0.66744872  0.38760132  1
  C  C11  1  0.33449079  0.66744872  0.86239868  1
  C  C12  1  0.82937810  0.16468955  0.37695287  1
  C  C13  1  0.82937810  0.16468955  0.87304713  1
  C  C14  1  0.82737154  0.66368627  0.38075522  1
  C  C15  1  0.82737154  0.66368627  0.86924478  1
