# generated using pymatgen
data_Cu6Ni21C16
_symmetry_space_group_name_H-M   'P 1'
_cell_length_a   11.69019128
_cell_length_b   11.69019128
_cell_length_c   11.69019168
_cell_angle_alpha   103.39318978
_cell_angle_beta   103.39318978
_cell_angle_gamma   103.39318539
_symmetry_Int_Tables_number   1
_chemical_formula_structural   Cu6Ni21C16
_chemical_formula_sum   'Cu12 Ni42 C32'
_cell_volume   1441.53794632
_cell_formula_units_Z   2
loop_
 _symmetry_equiv_pos_site_id
 _symmetry_equiv_pos_as_xyz
  1  'x, y, z'
loop_
 _atom_site_type_symbol
 _atom_site_label
 _atom_site_symmetry_multiplicity
 _atom_site_fract_x
 _atom_site_fract_y
 _atom_site_fract_z
 _atom_site_occupancy
  C  C0  1  0.01808200  0.78186200  0.88180100  1
  C  C1  1  0.78186200  0.88180100  0.01808200  1
  C  C2  1  0.88180100  0.01808200  0.78186200  1
  C  C3  1  0.98191800  0.21813800  0.11819900  1
  C  C4  1  0.21813800  0.11819900  0.98191800  1
  C  C5  1  0.11819900  0.98191800  0.21813800  1
  C  C6  1  0.00000000  0.00000000  0.00000000  1
  Ni  Ni7  1  0.73296600  0.45939200  0.59461500  1
  Ni  Ni8  1  0.45939200  0.59461500  0.73296600  1
  Ni  Ni9  1  0.59461500  0.73296600  0.45939200  1
  Ni  Ni10  1  0.26703400  0.54060800  0.40538500  1
  Ni  Ni11  1  0.54060800  0.40538500  0.26703400  1
  Ni  Ni12  1  0.40538500  0.26703400  0.54060800  1
  Ni  Ni13  1  0.20593300  0.57795700  0.82499300  1
  Ni  Ni14  1  0.57795700  0.82499300  0.20593300  1
  Ni  Ni15  1  0.82499300  0.20593300  0.57795700  1
  Ni  Ni16  1  0.79406700  0.42204300  0.17500700  1
  Ni  Ni17  1  0.42204300  0.17500700  0.79406700  1
  Ni  Ni18  1  0.17500700  0.79406700  0.42204300  1
  Ni  Ni19  1  0.06630200  0.46567400  0.71830500  1
  Ni  Ni20  1  0.46567400  0.71830500  0.06630200  1
  Ni  Ni21  1  0.71830500  0.06630200  0.46567400  1
  Ni  Ni22  1  0.93369800  0.53432600  0.28169500  1
  Ni  Ni23  1  0.53432600  0.28169500  0.93369800  1
  Ni  Ni24  1  0.28169500  0.93369800  0.53432600  1
  Ni  Ni25  1  0.09429100  0.49162500  0.88089300  1
  Ni  Ni26  1  0.49162500  0.88089300  0.09429100  1
  Ni  Ni27  1  0.88089300  0.09429100  0.49162500  1
  Ni  Ni28  1  0.90570900  0.50837500  0.11910700  1
  Ni  Ni29  1  0.50837500  0.11910700  0.90570900  1
  Ni  Ni30  1  0.11910700  0.90570900  0.50837500  1
  Ni  Ni31  1  0.82599400  0.48691000  0.44019500  1
  Ni  Ni32  1  0.48691000  0.44019500  0.82599400  1
  Ni  Ni33  1  0.44019500  0.82599400  0.48691000  1
  Ni  Ni34  1  0.17400600  0.51309000  0.55980500  1
  Ni  Ni35  1  0.51309000  0.55980500  0.17400600  1
  Ni  Ni36  1  0.55980500  0.17400600  0.51309000  1
  Ni  Ni37  1  0.72271900  0.33505100  0.40236700  1
  Ni  Ni38  1  0.33505100  0.40236700  0.72271900  1
  Ni  Ni39  1  0.40236700  0.72271900  0.33505100  1
  Ni  Ni40  1  0.27728100  0.66494900  0.59763300  1
  Ni  Ni41  1  0.66494900  0.59763300  0.27728100  1
  Ni  Ni42  1  0.59763300  0.27728100  0.66494900  1
  Ni  Ni43  1  0.88534900  0.36404900  0.46500800  1
  Ni  Ni44  1  0.36404900  0.46500800  0.88534900  1
  Ni  Ni45  1  0.46500800  0.88534900  0.36404900  1
  Ni  Ni46  1  0.11465100  0.63595100  0.53499200  1
  Ni  Ni47  1  0.63595100  0.53499200  0.11465100  1
  Ni  Ni48  1  0.53499200  0.11465100  0.63595100  1
  Cu  Cu49  1  0.10654200  0.53620900  0.80918100  1
  Cu  Cu50  1  0.53620900  0.80918100  0.10654200  1
  Cu  Cu51  1  0.80918100  0.10654200  0.53620900  1
  Cu  Cu52  1  0.89345800  0.46379100  0.19081900  1
  Cu  Cu53  1  0.46379100  0.19081900  0.89345800  1
  Cu  Cu54  1  0.19081900  0.89345800  0.46379100  1
  Cu  Cu55  1  0.80866000  0.40252400  0.46892600  1
  Cu  Cu56  1  0.40252400  0.46892600  0.80866000  1
  Cu  Cu57  1  0.46892600  0.80866000  0.40252400  1
  Cu  Cu58  1  0.19134000  0.59747600  0.53107400  1
  Cu  Cu59  1  0.59747600  0.53107400  0.19134000  1
  Cu  Cu60  1  0.53107400  0.19134000  0.59747600  1
  C  C61  1  0.14392100  0.74210800  0.11184900  1
  C  C62  1  0.74210800  0.11184900  0.14392100  1
  C  C63  1  0.11184900  0.14392100  0.74210800  1
  C  C64  1  0.85607900  0.25789200  0.88815100  1
  C  C65  1  0.25789200  0.88815100  0.85607900  1
  C  C66  1  0.88815100  0.85607900  0.25789200  1
  C  C67  1  0.78126100  0.63504800  0.89316500  1
  C  C68  1  0.63504800  0.89316500  0.78126100  1
  C  C69  1  0.89316500  0.78126100  0.63504800  1
  C  C70  1  0.21873900  0.36495200  0.10683500  1
  C  C71  1  0.36495200  0.10683500  0.21873900  1
  C  C72  1  0.10683500  0.21873900  0.36495200  1
  C  C73  1  0.50000000  0.50000000  0.50000000  1
  C  C74  1  0.04712700  0.62823700  0.81446600  1
  C  C75  1  0.62823700  0.81446600  0.04712700  1
  C  C76  1  0.81446600  0.04712700  0.62823700  1
  C  C77  1  0.95287300  0.37176300  0.18553400  1
  C  C78  1  0.37176300  0.18553400  0.95287300  1
  C  C79  1  0.18553400  0.95287300  0.37176300  1
  C  C80  1  0.80306200  0.42763800  0.59276500  1
  C  C81  1  0.42763800  0.59276500  0.80306200  1
  C  C82  1  0.59276500  0.80306200  0.42763800  1
  C  C83  1  0.19693800  0.57236200  0.40723600  1
  C  C84  1  0.57236200  0.40723500  0.19693800  1
  C  C85  1  0.40723500  0.19693800  0.57236200  1
