# generated using pymatgen
data_Cu10Ni3C
_symmetry_space_group_name_H-M   'P 1'
_cell_length_a   10.22452800
_cell_length_b   7.25553800
_cell_length_c   12.95343411
_cell_angle_alpha   77.94461025
_cell_angle_beta   90.00000000
_cell_angle_gamma   90.00000000
_symmetry_Int_Tables_number   1
_chemical_formula_structural   Cu10Ni3C
_chemical_formula_sum   'Cu40 Ni12 C4'
_cell_volume   939.75090071
_cell_formula_units_Z   4
loop_
 _symmetry_equiv_pos_site_id
 _symmetry_equiv_pos_as_xyz
  1  'x, y, z'
loop_
 _atom_site_type_symbol
 _atom_site_label
 _atom_site_symmetry_multiplicity
 _atom_site_fract_x
 _atom_site_fract_y
 _atom_site_fract_z
 _atom_site_occupancy
  C  C0  1  0.69012900  0.85732400  0.63695600  1
  C  C1  1  0.19012900  0.14267600  0.86304400  1
  C  C2  1  0.30987100  0.14267600  0.36304400  1
  C  C3  1  0.80987100  0.85732400  0.13695600  1
  Ni  Ni4  1  0.32524900  0.84113000  0.63334300  1
  Ni  Ni5  1  0.82524900  0.15887000  0.86665700  1
  Ni  Ni6  1  0.67475100  0.15887000  0.36665700  1
  Ni  Ni7  1  0.17475100  0.84113000  0.13334300  1
  Ni  Ni8  1  0.89544100  0.65445800  0.88404900  1
  Ni  Ni9  1  0.39544100  0.34554200  0.61595100  1
  Ni  Ni10  1  0.10455900  0.34554200  0.11595100  1
  Ni  Ni11  1  0.60455900  0.65445800  0.38404900  1
  Ni  Ni12  1  0.48829000  0.82233700  0.93541800  1
  Ni  Ni13  1  0.98829000  0.17766300  0.56458200  1
  Ni  Ni14  1  0.51171000  0.17766300  0.06458200  1
  Ni  Ni15  1  0.01171000  0.82233700  0.43541800  1
  Cu  Cu16  1  0.75773700  0.13191300  0.69453800  1
  Cu  Cu17  1  0.25773700  0.86808700  0.80546200  1
  Cu  Cu18  1  0.24226300  0.86808700  0.30546200  1
  Cu  Cu19  1  0.74226300  0.13191300  0.19453800  1
  Cu  Cu20  1  0.88061000  0.97007100  0.53038800  1
  Cu  Cu21  1  0.38061000  0.02992900  0.96961200  1
  Cu  Cu22  1  0.11939000  0.02992900  0.46961200  1
  Cu  Cu23  1  0.61939000  0.97007100  0.03038800  1
  Cu  Cu24  1  0.90381300  0.63505800  0.70677400  1
  Cu  Cu25  1  0.40381300  0.36494200  0.79322600  1
  Cu  Cu26  1  0.09618700  0.36494200  0.29322600  1
  Cu  Cu27  1  0.59618700  0.63505800  0.20677400  1
  Cu  Cu28  1  0.74496000  0.78261500  0.82160100  1
  Cu  Cu29  1  0.24496000  0.21738500  0.67839900  1
  Cu  Cu30  1  0.25504000  0.21738500  0.17839900  1
  Cu  Cu31  1  0.75504000  0.78261500  0.32160100  1
  Cu  Cu32  1  0.62320600  0.10429500  0.50870100  1
  Cu  Cu33  1  0.12320600  0.89570500  0.99129900  1
  Cu  Cu34  1  0.37679400  0.89570500  0.49129900  1
  Cu  Cu35  1  0.87679400  0.10429500  0.00870100  1
  Cu  Cu36  1  0.65394600  0.67599200  0.52277700  1
  Cu  Cu37  1  0.15394600  0.32400800  0.97722300  1
  Cu  Cu38  1  0.34605400  0.32400800  0.47722300  1
  Cu  Cu39  1  0.84605400  0.67599200  0.02277700  1
  Cu  Cu40  1  0.59015000  0.51377600  0.72623900  1
  Cu  Cu41  1  0.09015000  0.48622400  0.77376100  1
  Cu  Cu42  1  0.40985000  0.48622400  0.27376100  1
  Cu  Cu43  1  0.90985000  0.51377600  0.22623900  1
  Cu  Cu44  1  0.48571900  0.90441200  0.68681000  1
  Cu  Cu45  1  0.98571900  0.09558800  0.81319000  1
  Cu  Cu46  1  0.51428100  0.09558800  0.31319000  1
  Cu  Cu47  1  0.01428100  0.90441200  0.18681000  1
  Cu  Cu48  1  0.81782900  0.27175600  0.61389200  1
  Cu  Cu49  1  0.31782900  0.72824400  0.88610800  1
  Cu  Cu50  1  0.18217100  0.72824400  0.38610800  1
  Cu  Cu51  1  0.68217100  0.27175600  0.11389200  1
  Cu  Cu52  1  0.01312500  0.52531300  0.68810900  1
  Cu  Cu53  1  0.51312500  0.47468700  0.81189100  1
  Cu  Cu54  1  0.98687500  0.47468700  0.31189100  1
  Cu  Cu55  1  0.48687500  0.52531300  0.18810900  1
