# generated using pymatgen
data_Cu2Ni2C17
_symmetry_space_group_name_H-M   'P 1'
_cell_length_a   10.71147500
_cell_length_b   15.56343200
_cell_length_c   8.26148500
_cell_angle_alpha   90.00000000
_cell_angle_beta   90.00000000
_cell_angle_gamma   90.00000000
_symmetry_Int_Tables_number   1
_chemical_formula_structural   Cu2Ni2C17
_chemical_formula_sum   'Cu8 Ni8 C68'
_cell_volume   1377.24996394
_cell_formula_units_Z   4
loop_
 _symmetry_equiv_pos_site_id
 _symmetry_equiv_pos_as_xyz
  1  'x, y, z'
loop_
 _atom_site_type_symbol
 _atom_site_label
 _atom_site_symmetry_multiplicity
 _atom_site_fract_x
 _atom_site_fract_y
 _atom_site_fract_z
 _atom_site_occupancy
  C  C0  1  0.80826600  0.75000000  0.45012000  1
  C  C1  1  0.30826600  0.75000000  0.04988000  1
  C  C2  1  0.19173400  0.25000000  0.54988000  1
  C  C3  1  0.69173400  0.25000000  0.95012000  1
  Ni  Ni4  1  0.81914500  0.00106100  0.51435500  1
  Ni  Ni5  1  0.31914500  0.49893900  0.98564500  1
  Ni  Ni6  1  0.18085500  0.50106100  0.48564500  1
  Ni  Ni7  1  0.68085500  0.99893900  0.01435500  1
  Ni  Ni8  1  0.18085500  0.99893900  0.48564500  1
  Ni  Ni9  1  0.68085500  0.50106100  0.01435500  1
  Ni  Ni10  1  0.81914500  0.49893900  0.51435500  1
  Ni  Ni11  1  0.31914500  0.00106100  0.98564500  1
  Cu  Cu12  1  0.95714200  0.94993800  0.85635100  1
  Cu  Cu13  1  0.45714200  0.55006200  0.64364900  1
  Cu  Cu14  1  0.04285800  0.44993800  0.14364900  1
  Cu  Cu15  1  0.54285800  0.05006200  0.35635100  1
  Cu  Cu16  1  0.04285800  0.05006200  0.14364900  1
  Cu  Cu17  1  0.54285800  0.44993800  0.35635100  1
  Cu  Cu18  1  0.95714200  0.55006200  0.85635100  1
  Cu  Cu19  1  0.45714200  0.94993800  0.64364900  1
  C  C20  1  0.67524600  0.88624900  0.06461900  1
  C  C21  1  0.17524600  0.61375100  0.43538100  1
  C  C22  1  0.32475400  0.38624900  0.93538100  1
  C  C23  1  0.82475400  0.11375100  0.56461900  1
  C  C24  1  0.32475400  0.11375100  0.93538100  1
  C  C25  1  0.82475400  0.38624900  0.56461900  1
  C  C26  1  0.67524600  0.61375100  0.06461900  1
  C  C27  1  0.17524600  0.88624900  0.43538100  1
  C  C28  1  0.81355100  0.88485300  0.45890600  1
  C  C29  1  0.31355100  0.61514700  0.04109400  1
  C  C30  1  0.18644900  0.38485300  0.54109400  1
  C  C31  1  0.68644900  0.11514700  0.95890600  1
  C  C32  1  0.18644900  0.11514700  0.54109400  1
  C  C33  1  0.68644900  0.38485300  0.95890600  1
  C  C34  1  0.81355100  0.61514700  0.45890600  1
  C  C35  1  0.31355100  0.88485300  0.04109400  1
  C  C36  1  0.00820900  0.97961500  0.65593000  1
  C  C37  1  0.50820900  0.52038500  0.84407000  1
  C  C38  1  0.99179100  0.47961500  0.34407000  1
  C  C39  1  0.49179100  0.02038500  0.15593000  1
  C  C40  1  0.99179100  0.02038500  0.34407000  1
  C  C41  1  0.49179100  0.47961500  0.15593000  1
  C  C42  1  0.00820900  0.52038500  0.65593000  1
  C  C43  1  0.50820900  0.97961500  0.84407000  1
  C  C44  1  0.89875500  0.99577700  0.05434000  1
  C  C45  1  0.39875500  0.50422300  0.44566000  1
  C  C46  1  0.10124500  0.49577700  0.94566000  1
  C  C47  1  0.60124500  0.00422300  0.55434000  1
  C  C48  1  0.10124500  0.00422300  0.94566000  1
  C  C49  1  0.60124500  0.49577700  0.55434000  1
  C  C50  1  0.89875500  0.50422300  0.05434000  1
  C  C51  1  0.39875500  0.99577700  0.44566000  1
  C  C52  1  0.97899800  0.85006600  0.87962100  1
  C  C53  1  0.47899800  0.64993400  0.62037900  1
  C  C54  1  0.02100200  0.35006600  0.12037900  1
  C  C55  1  0.52100200  0.14993400  0.37962100  1
  C  C56  1  0.02100200  0.14993400  0.12037900  1
  C  C57  1  0.52100200  0.35006600  0.37962100  1
  C  C58  1  0.97899800  0.64993400  0.87962100  1
  C  C59  1  0.47899800  0.85006600  0.62037900  1
  C  C60  1  0.99379700  0.75000000  0.51358700  1
  C  C61  1  0.49379700  0.75000000  0.98641300  1
  C  C62  1  0.00620300  0.25000000  0.48641300  1
  C  C63  1  0.50620300  0.25000000  0.01358700  1
  C  C64  1  0.84387600  0.75000000  0.20398700  1
  C  C65  1  0.34387600  0.75000000  0.29601300  1
  C  C66  1  0.15612400  0.25000000  0.79601300  1
  C  C67  1  0.65612400  0.25000000  0.70398700  1
  C  C68  1  0.75431700  0.75000000  0.68961400  1
  C  C69  1  0.25431700  0.75000000  0.81038600  1
  C  C70  1  0.24568300  0.25000000  0.31038600  1
  C  C71  1  0.74568300  0.25000000  0.18961400  1
  C  C72  1  0.79642300  0.96492800  0.78670000  1
  C  C73  1  0.29642300  0.53507200  0.71330000  1
  C  C74  1  0.20357700  0.46492800  0.21330000  1
  C  C75  1  0.70357700  0.03507200  0.28670000  1
  C  C76  1  0.20357700  0.03507200  0.21330000  1
  C  C77  1  0.70357700  0.46492800  0.28670000  1
  C  C78  1  0.79642300  0.53507200  0.78670000  1
  C  C79  1  0.29642300  0.96492800  0.71330000  1
  C  C80  1  0.62414000  0.75000000  0.38022200  1
  C  C81  1  0.12414000  0.75000000  0.11977800  1
  C  C82  1  0.37586000  0.25000000  0.61977800  1
  C  C83  1  0.87586000  0.25000000  0.88022200  1
