# generated using pymatgen
data_Cu7(Ni25C28)2
_symmetry_space_group_name_H-M   'P 1'
_cell_length_a   7.43855400
_cell_length_b   12.54353774
_cell_length_c   12.84512748
_cell_angle_alpha   67.28029430
_cell_angle_beta   75.66563411
_cell_angle_gamma   74.70326545
_symmetry_Int_Tables_number   1
_chemical_formula_structural   Cu7(Ni25C28)2
_chemical_formula_sum   'Cu7 Ni50 C56'
_cell_volume   1051.96665823
_cell_formula_units_Z   1
loop_
 _symmetry_equiv_pos_site_id
 _symmetry_equiv_pos_as_xyz
  1  'x, y, z'
loop_
 _atom_site_type_symbol
 _atom_site_label
 _atom_site_symmetry_multiplicity
 _atom_site_fract_x
 _atom_site_fract_y
 _atom_site_fract_z
 _atom_site_occupancy
  C  C0  1  0.85967700  0.01151000  0.27264200  1
  C  C1  1  0.14032300  0.98849000  0.72735800  1
  C  C2  1  0.27839500  0.43196600  0.85072300  1
  C  C3  1  0.72160500  0.56803400  0.14927700  1
  Ni  Ni4  1  0.44187400  0.21869700  0.91133700  1
  Ni  Ni5  1  0.55812600  0.78130300  0.08866300  1
  Ni  Ni6  1  0.67618700  0.08324800  0.09476500  1
  Ni  Ni7  1  0.32381300  0.91675200  0.90523500  1
  Ni  Ni8  1  0.43934600  0.25979900  0.77050700  1
  Ni  Ni9  1  0.56065400  0.74020100  0.22949300  1
  Ni  Ni10  1  0.63772400  0.43927600  0.78476800  1
  Ni  Ni11  1  0.36227600  0.56072400  0.21523200  1
  Ni  Ni12  1  0.88226800  0.11533900  0.05673100  1
  Ni  Ni13  1  0.11773200  0.88466100  0.94326900  1
  Ni  Ni14  1  0.62500500  0.57581800  0.53171800  1
  Ni  Ni15  1  0.37499500  0.42418200  0.46828200  1
  Ni  Ni16  1  0.78061800  0.45032500  0.57762900  1
  Ni  Ni17  1  0.21938200  0.54967500  0.42237100  1
  Ni  Ni18  1  0.18155100  0.04940800  0.13804000  1
  Ni  Ni19  1  0.81844900  0.95059200  0.86196000  1
  Ni  Ni20  1  0.49443100  0.36548100  0.99915500  1
  Ni  Ni21  1  0.50556900  0.63451900  0.00084500  1
  Ni  Ni22  1  0.07237500  0.51144500  0.69650600  1
  Ni  Ni23  1  0.92762500  0.48855500  0.30349400  1
  Ni  Ni24  1  0.63992400  0.21147600  0.27481600  1
  Ni  Ni25  1  0.36007600  0.78852400  0.72518400  1
  Ni  Ni26  1  0.20501200  0.61027200  0.91593900  1
  Ni  Ni27  1  0.79498800  0.38972800  0.08406100  1
  Ni  Ni28  1  0.51639100  0.56904200  0.77025500  1
  Ni  Ni29  1  0.48360900  0.43095800  0.22974500  1
  Ni  Ni30  1  0.49718400  0.02689000  0.34820900  1
  Ni  Ni31  1  0.50281600  0.97311000  0.65179100  1
  Ni  Ni32  1  0.05399900  0.63383200  0.83242800  1
  Ni  Ni33  1  0.94600100  0.36616800  0.16757200  1
  Ni  Ni34  1  0.28071500  0.54006900  0.63811600  1
  Ni  Ni35  1  0.71928500  0.45993100  0.36188400  1
  Ni  Ni36  1  0.75475500  0.15958700  0.38057900  1
  Ni  Ni37  1  0.24524500  0.84041300  0.61942100  1
  Ni  Ni38  1  0.83215000  0.91200600  0.49379500  1
  Ni  Ni39  1  0.16785000  0.08799400  0.50620500  1
  Ni  Ni40  1  0.80410200  0.57925500  0.58727500  1
  Ni  Ni41  1  0.19589800  0.42074500  0.41272500  1
  Ni  Ni42  1  0.04866500  0.79991600  0.30765900  1
  Ni  Ni43  1  0.95133500  0.20008400  0.69234100  1
  Ni  Ni44  1  0.98328800  0.84329000  0.18436200  1
  Ni  Ni45  1  0.01671200  0.15671000  0.81563800  1
  Ni  Ni46  1  0.28759900  0.33784900  0.07017700  1
  Ni  Ni47  1  0.71240100  0.66215100  0.92982300  1
  Ni  Ni48  1  0.05231400  0.90562900  0.44062500  1
  Ni  Ni49  1  0.94768600  0.09437100  0.55937500  1
  Ni  Ni50  1  0.57550800  0.89538900  0.34055100  1
  Ni  Ni51  1  0.42449200  0.10461100  0.65944900  1
  Ni  Ni52  1  0.11593400  0.13456700  0.21603900  1
  Ni  Ni53  1  0.88406600  0.86543300  0.78396100  1
  Cu  Cu54  1  0.73971400  0.73400700  0.70222400  1
  Cu  Cu55  1  0.26028600  0.26599300  0.29777600  1
  Cu  Cu56  1  0.90099700  0.33082000  0.90608200  1
  Cu  Cu57  1  0.09900300  0.66918000  0.09391800  1
  Cu  Cu58  1  0.50000000  0.00000000  0.00000000  1
  Cu  Cu59  1  0.65545500  0.26982600  0.56093000  1
  Cu  Cu60  1  0.34454500  0.73017400  0.43907000  1
  C  C61  1  0.09804300  0.06045000  0.21293400  1
  C  C62  1  0.90195700  0.93955000  0.78706600  1
  C  C63  1  0.57696700  0.37749600  0.46765100  1
  C  C64  1  0.42303300  0.62250400  0.53234900  1
  C  C65  1  0.85746600  0.39242000  0.78871300  1
  C  C66  1  0.14253400  0.60758000  0.21128700  1
  C  C67  1  0.73359200  0.34938800  0.99346600  1
  C  C68  1  0.26640800  0.65061200  0.00653400  1
  C  C69  1  0.96141900  0.86077500  0.25702500  1
  C  C70  1  0.03858100  0.13922500  0.74297500  1
  C  C71  1  0.61184600  0.96898200  0.33511500  1
  C  C72  1  0.38815400  0.03101800  0.66488500  1
  C  C73  1  0.79631900  0.07518400  0.12598200  1
  C  C74  1  0.20368100  0.92481600  0.87401800  1
  C  C75  1  0.04855400  0.38335100  0.92257600  1
  C  C76  1  0.95144600  0.61664900  0.07742400  1
  C  C77  1  0.35699300  0.38216200  0.99523700  1
  C  C78  1  0.64300700  0.61783800  0.00476300  1
  C  C79  1  0.40251300  0.28286000  0.84058700  1
  C  C80  1  0.59748700  0.71714000  0.15941300  1
  C  C81  1  0.92185600  0.94603600  0.42321100  1
  C  C82  1  0.07814400  0.05396400  0.57678900  1
  C  C83  1  0.83818300  0.72536700  0.79555800  1
  C  C84  1  0.16181700  0.27463300  0.20444200  1
  C  C85  1  0.70455500  0.85823200  0.62437500  1
  C  C86  1  0.29544500  0.14176800  0.37562500  1
  C  C87  1  0.55351900  0.69599500  0.75712200  1
  C  C88  1  0.44648100  0.30400500  0.24287800  1
  C  C89  1  0.76690000  0.53891000  0.54132600  1
  C  C90  1  0.23310000  0.46109000  0.45867400  1
  C  C91  1  0.86063500  0.65505100  0.63977000  1
  C  C92  1  0.13936500  0.34494900  0.36023000  1
  C  C93  1  0.97179800  0.20366500  0.92644500  1
  C  C94  1  0.02820200  0.79633500  0.07355500  1
  C  C95  1  0.75677900  0.17680800  0.51119200  1
  C  C96  1  0.24322100  0.82319200  0.48880800  1
  C  C97  1  0.78685900  0.30470100  0.60762700  1
  C  C98  1  0.21314100  0.69529900  0.39237300  1
  C  C99  1  0.20734400  0.48398800  0.70254100  1
  C  C100  1  0.79265600  0.51601200  0.29745900  1
  C  C101  1  0.49617700  0.22677300  0.65171700  1
  C  C102  1  0.50382300  0.77322700  0.34828300  1
  C  C103  1  0.75394800  0.15466600  0.30531300  1
  C  C104  1  0.24605200  0.84533400  0.69468700  1
  C  C105  1  0.50678300  0.48813400  0.77707000  1
  C  C106  1  0.49321700  0.51186600  0.22293000  1
  C  C107  1  0.17610500  0.58636600  0.85633700  1
  C  C108  1  0.82389500  0.41363400  0.14366300  1
  C  C109  1  0.49994900  0.10790400  0.03846100  1
  C  C110  1  0.50005100  0.89209600  0.96153900  1
  C  C111  1  0.71843100  0.98569400  0.96257700  1
  C  C112  1  0.28156900  0.01430600  0.03742300  1
