# generated using pymatgen
data_Cu16Ni4C5
_symmetry_space_group_name_H-M   'P 1'
_cell_length_a   5.21470579
_cell_length_b   4.71765476
_cell_length_c   17.24155174
_cell_angle_alpha   90.65920677
_cell_angle_beta   90.00000000
_cell_angle_gamma   90.00000000
_symmetry_Int_Tables_number   1
_chemical_formula_structural   Cu16Ni4C5
_chemical_formula_sum   'Cu16 Ni4 C5'
_cell_volume   424.13447226
_cell_formula_units_Z   1
loop_
 _symmetry_equiv_pos_site_id
 _symmetry_equiv_pos_as_xyz
  1  'x, y, z'
loop_
 _atom_site_type_symbol
 _atom_site_label
 _atom_site_symmetry_multiplicity
 _atom_site_fract_x
 _atom_site_fract_y
 _atom_site_fract_z
 _atom_site_occupancy
  C  C0  1  0.25000000  0.27495693  0.62069149  1
  C  C1  1  0.25000000  0.24799749  0.03034819  1
  C  C2  1  0.75000000  0.70446171  0.46138610  1
  C  C3  1  0.75000000  0.80133418  0.87245933  1
  C  C4  1  0.75000000  -0.01088116  0.26752058  1
  Ni  Ni5  1  0.25000000  0.35879614  0.84717763  1
  Ni  Ni6  1  0.25000000  0.15669282  0.43573027  1
  Ni  Ni7  1  0.75000000  0.69382653  0.06657120  1
  Ni  Ni8  1  0.75000000  0.84003441  0.65462952  1
  Cu  Cu9  1  0.75000000  0.37730197  0.06945082  1
  Cu  Cu10  1  0.75000000  0.15511228  0.65619576  1
  Cu  Cu11  1  0.25000000  0.67402078  0.84786174  1
  Cu  Cu12  1  0.25000000  0.83946595  0.43481758  1
  Cu  Cu13  1  0.75000000  0.72435801  0.73366497  1
  Cu  Cu14  1  0.75000000  0.82593757  0.14386689  1
  Cu  Cu15  1  0.25000000  0.28162354  0.35930627  1
  Cu  Cu16  1  0.25000000  0.23535480  0.76954221  1
  Cu  Cu17  1  0.01807798  0.26592417  0.89345468  1
  Cu  Cu18  1  0.48261897  0.24642626  0.48349149  1
  Cu  Cu19  1  0.51617318  0.77948233  0.02050969  1
  Cu  Cu20  1  0.98285849  0.74297025  0.61045235  1
  Cu  Cu21  1  0.98382682  0.77948233  0.02050969  1
  Cu  Cu22  1  0.51714151  0.74297025  0.61045235  1
  Cu  Cu23  1  0.48192202  0.26592417  0.89345468  1
  Cu  Cu24  1  0.01738103  0.24642626  0.48349149  1
