# generated using pymatgen
data_Cu4Ni2C5
_symmetry_space_group_name_H-M   'P 1'
_cell_length_a   9.20521811
_cell_length_b   9.20521811
_cell_length_c   9.20521811
_cell_angle_alpha   148.93684417
_cell_angle_beta   131.50392692
_cell_angle_gamma   58.71667298
_symmetry_Int_Tables_number   1
_chemical_formula_structural   Cu4Ni2C5
_chemical_formula_sum   'Cu8 Ni4 C10'
_cell_volume   299.04557363
_cell_formula_units_Z   2
loop_
 _symmetry_equiv_pos_site_id
 _symmetry_equiv_pos_as_xyz
  1  'x, y, z'
loop_
 _atom_site_type_symbol
 _atom_site_label
 _atom_site_symmetry_multiplicity
 _atom_site_fract_x
 _atom_site_fract_y
 _atom_site_fract_z
 _atom_site_occupancy
  Ni  Ni0  1  0.73778600  0.35851000  0.37927500  1
  Ni  Ni1  1  0.26221400  0.64149000  0.62072500  1
  Ni  Ni2  1  0.97923500  0.85851000  0.12072500  1
  Ni  Ni3  1  0.02076500  0.14149000  0.87927500  1
  Cu  Cu4  1  0.30818900  0.55818900  0.25000000  1
  Cu  Cu5  1  0.69181100  0.44181100  0.75000000  1
  Cu  Cu6  1  0.69181100  0.94181100  0.25000000  1
  Cu  Cu7  1  0.30818900  0.05818900  0.75000000  1
  Cu  Cu8  1  0.31410400  0.06228700  0.25181700  1
  Cu  Cu9  1  0.68589600  0.93771300  0.74818300  1
  Cu  Cu10  1  0.81046900  0.56228700  0.24818300  1
  Cu  Cu11  1  0.18953100  0.43771300  0.75181700  1
  C  C12  1  0.41943900  0.21110800  0.20833000  1
  C  C13  1  0.58056100  0.78889200  0.79167000  1
  C  C14  1  0.00277800  0.71110800  0.29167000  1
  C  C15  1  0.99722200  0.28889200  0.70833000  1
  C  C16  1  0.00000000  0.25000000  0.25000000  1
  C  C17  1  0.00000000  0.75000000  0.75000000  1
  C  C18  1  0.50954300  0.43580400  0.07373900  1
  C  C19  1  0.49045700  0.56419600  0.92626100  1
  C  C20  1  0.36206500  0.93580400  0.42626100  1
  C  C21  1  0.63793500  0.06419600  0.57373900  1
