# generated using pymatgen
data_Cu12Ni9C
_symmetry_space_group_name_H-M   'P 1'
_cell_length_a   7.94405900
_cell_length_b   7.95969156
_cell_length_c   8.30277251
_cell_angle_alpha   116.73640035
_cell_angle_beta   94.56275867
_cell_angle_gamma   110.79541934
_symmetry_Int_Tables_number   1
_chemical_formula_structural   Cu12Ni9C
_chemical_formula_sum   'Cu12 Ni9 C1'
_cell_volume   419.94124324
_cell_formula_units_Z   1
loop_
 _symmetry_equiv_pos_site_id
 _symmetry_equiv_pos_as_xyz
  1  'x, y, z'
loop_
 _atom_site_type_symbol
 _atom_site_label
 _atom_site_symmetry_multiplicity
 _atom_site_fract_x
 _atom_site_fract_y
 _atom_site_fract_z
 _atom_site_occupancy
  C  C0  1  0.17574400  0.17656700  0.99489800  1
  Ni  Ni1  1  0.75404800  0.79563800  0.85364700  1
  Ni  Ni2  1  0.13335000  0.74706600  0.14294100  1
  Ni  Ni3  1  0.89016000  0.78167600  0.22272800  1
  Ni  Ni4  1  0.19801500  0.07235100  0.39537600  1
  Ni  Ni5  1  0.65297000  0.01662600  0.80539900  1
  Ni  Ni6  1  0.10694000  0.23771400  0.71310500  1
  Ni  Ni7  1  0.52172700  0.49496000  0.51910200  1
  Ni  Ni8  1  0.62064800  0.21117600  0.20440900  1
  Ni  Ni9  1  0.24310500  0.72333900  0.77558400  1
  Cu  Cu10  1  0.17692900  0.60503400  0.16611700  1
  Cu  Cu11  1  0.85293000  0.65089800  0.35132200  1
  Cu  Cu12  1  0.63987700  0.68465100  0.79713100  1
  Cu  Cu13  1  0.02764000  0.32583900  0.94615100  1
  Cu  Cu14  1  0.62944100  0.99031800  0.95001000  1
  Cu  Cu15  1  0.03049000  0.99855900  0.35616200  1
  Cu  Cu16  1  0.29224400  0.13060600  0.27861000  1
  Cu  Cu17  1  0.23603100  0.92333900  0.05720300  1
  Cu  Cu18  1  0.51749900  0.26288600  0.05391500  1
  Cu  Cu19  1  0.62729600  0.15449800  0.65185200  1
  Cu  Cu20  1  0.15701700  0.41088600  0.60795500  1
  Cu  Cu21  1  0.01589700  0.10537400  0.65638900  1
