# generated using pymatgen
data_Cu4Ni2C37
_symmetry_space_group_name_H-M   'P 1'
_cell_length_a   9.07998716
_cell_length_b   9.07998716
_cell_length_c   14.91432600
_cell_angle_alpha   90.00000000
_cell_angle_beta   90.00000000
_cell_angle_gamma   111.14725609
_symmetry_Int_Tables_number   1
_chemical_formula_structural   Cu4Ni2C37
_chemical_formula_sum   'Cu8 Ni4 C74'
_cell_volume   1146.82124346
_cell_formula_units_Z   2
loop_
 _symmetry_equiv_pos_site_id
 _symmetry_equiv_pos_as_xyz
  1  'x, y, z'
loop_
 _atom_site_type_symbol
 _atom_site_label
 _atom_site_symmetry_multiplicity
 _atom_site_fract_x
 _atom_site_fract_y
 _atom_site_fract_z
 _atom_site_occupancy
  C  C0  1  0.00000000  0.00000000  0.50000000  1
  C  C1  1  0.00000000  0.00000000  0.00000000  1
  C  C2  1  0.40888900  0.63120800  0.39167800  1
  C  C3  1  0.36879200  0.59111100  0.60832200  1
  C  C4  1  0.40888900  0.63120800  0.10832200  1
  C  C5  1  0.36879200  0.59111100  0.89167800  1
  C  C6  1  0.59111100  0.36879200  0.60832200  1
  C  C7  1  0.63120800  0.40888900  0.39167800  1
  C  C8  1  0.59111100  0.36879200  0.89167800  1
  C  C9  1  0.63120800  0.40888900  0.10832200  1
  C  C10  1  0.44610800  0.83799800  0.39906000  1
  C  C11  1  0.16200200  0.55389200  0.60094000  1
  C  C12  1  0.44610800  0.83799800  0.10094000  1
  C  C13  1  0.16200200  0.55389200  0.89906000  1
  C  C14  1  0.55389200  0.16200200  0.60094000  1
  C  C15  1  0.83799800  0.44610800  0.39906000  1
  C  C16  1  0.55389200  0.16200200  0.89906000  1
  C  C17  1  0.83799800  0.44610800  0.10094000  1
  C  C18  1  0.54083900  0.74851400  0.47604800  1
  C  C19  1  0.25148600  0.45916100  0.52395200  1
  C  C20  1  0.54083900  0.74851400  0.02395200  1
  C  C21  1  0.25148600  0.45916100  0.97604800  1
  C  C22  1  0.45916100  0.25148600  0.52395200  1
  C  C23  1  0.74851400  0.54083900  0.47604800  1
  C  C24  1  0.45916100  0.25148600  0.97604800  1
  C  C25  1  0.74851400  0.54083900  0.02395200  1
  C  C26  1  0.66068700  0.04023100  0.25000000  1
  C  C27  1  0.95976900  0.33931300  0.75000000  1
  C  C28  1  0.33931300  0.95976900  0.75000000  1
  C  C29  1  0.04023100  0.66068700  0.25000000  1
  C  C30  1  0.84354200  0.13658900  0.25000000  1
  C  C31  1  0.86341100  0.15645800  0.75000000  1
  C  C32  1  0.15645800  0.86341100  0.75000000  1
  C  C33  1  0.13658900  0.84354200  0.25000000  1
  C  C34  1  0.82370200  0.92877100  0.34790700  1
  C  C35  1  0.07122900  0.17629800  0.65209300  1
  C  C36  1  0.82370200  0.92877100  0.15209300  1
  C  C37  1  0.07122900  0.17629800  0.84790700  1
  C  C38  1  0.17629800  0.07122900  0.65209300  1
  C  C39  1  0.92877100  0.82370200  0.34790700  1
  C  C40  1  0.17629800  0.07122900  0.84790700  1
  C  C41  1  0.92877100  0.82370200  0.15209300  1
  C  C42  1  0.24011200  0.13575200  0.37288600  1
  C  C43  1  0.86424800  0.75988800  0.62711400  1
  C  C44  1  0.24011200  0.13575200  0.12711400  1
  C  C45  1  0.86424800  0.75988800  0.87288600  1
  C  C46  1  0.75988800  0.86424800  0.62711400  1
  C  C47  1  0.13575200  0.24011200  0.37288600  1
  C  C48  1  0.75988800  0.86424800  0.87288600  1
  C  C49  1  0.13575200  0.24011200  0.12711400  1
  C  C50  1  0.43265900  0.73153000  0.43774300  1
  C  C51  1  0.26847000  0.56734100  0.56225700  1
  C  C52  1  0.43265900  0.73153000  0.06225700  1
  C  C53  1  0.26847000  0.56734100  0.93774300  1
  C  C54  1  0.56734100  0.26847000  0.56225700  1
  C  C55  1  0.73153000  0.43265900  0.43774300  1
  C  C56  1  0.56734100  0.26847000  0.93774300  1
  C  C57  1  0.73153000  0.43265900  0.06225700  1
  C  C58  1  0.21366100  0.78633900  0.50000000  1
  C  C59  1  0.21366100  0.78633900  0.00000000  1
  C  C60  1  0.78633900  0.21366100  0.50000000  1
  C  C61  1  0.78633900  0.21366100  0.00000000  1
  Ni  Ni62  1  0.39687200  0.07708300  0.25000000  1
  Ni  Ni63  1  0.92291700  0.60312800  0.75000000  1
  Ni  Ni64  1  0.60312800  0.92291700  0.75000000  1
  Ni  Ni65  1  0.07708300  0.39687200  0.25000000  1
  Cu  Cu66  1  0.30029600  0.69970400  0.50000000  1
  Cu  Cu67  1  0.30029600  0.69970400  0.00000000  1
  Cu  Cu68  1  0.69970400  0.30029600  0.50000000  1
  Cu  Cu69  1  0.69970400  0.30029600  0.00000000  1
  Cu  Cu70  1  0.13528800  0.86471200  0.50000000  1
  Cu  Cu71  1  0.13528800  0.86471200  0.00000000  1
  Cu  Cu72  1  0.86471200  0.13528800  0.50000000  1
  Cu  Cu73  1  0.86471200  0.13528800  0.00000000  1
  C  C74  1  0.86966700  0.86966700  0.38786100  1
  C  C75  1  0.13033300  0.13033300  0.61213900  1
  C  C76  1  0.86966700  0.86966700  0.11213900  1
  C  C77  1  0.13033300  0.13033300  0.88786100  1
  C  C78  1  0.17182800  0.17182800  0.41185500  1
  C  C79  1  0.82817200  0.82817200  0.58814500  1
  C  C80  1  0.17182800  0.17182800  0.08814500  1
  C  C81  1  0.82817200  0.82817200  0.91185500  1
  C  C82  1  0.76458200  0.02796500  0.25000000  1
  C  C83  1  0.97203500  0.23541800  0.75000000  1
  C  C84  1  0.23541800  0.97203500  0.75000000  1
  C  C85  1  0.02796500  0.76458200  0.25000000  1
