# generated using pymatgen
data_Cu2Ni2C23
_symmetry_space_group_name_H-M   'P 1'
_cell_length_a   14.47210800
_cell_length_b   4.93624800
_cell_length_c   9.39123100
_cell_angle_alpha   90.00000000
_cell_angle_beta   90.00000000
_cell_angle_gamma   90.00000000
_symmetry_Int_Tables_number   1
_chemical_formula_structural   Cu2Ni2C23
_chemical_formula_sum   'Cu4 Ni4 C46'
_cell_volume   670.88995414
_cell_formula_units_Z   2
loop_
 _symmetry_equiv_pos_site_id
 _symmetry_equiv_pos_as_xyz
  1  'x, y, z'
loop_
 _atom_site_type_symbol
 _atom_site_label
 _atom_site_symmetry_multiplicity
 _atom_site_fract_x
 _atom_site_fract_y
 _atom_site_fract_z
 _atom_site_occupancy
  C  C0  1  0.00000000  0.41001900  0.33705600  1
  C  C1  1  0.50000000  0.58998100  0.83705600  1
  C  C2  1  0.63026000  0.24392100  0.26814500  1
  C  C3  1  0.36974000  0.24392100  0.26814500  1
  C  C4  1  0.86974000  0.75607900  0.76814500  1
  C  C5  1  0.13026000  0.75607900  0.76814500  1
  C  C6  1  0.58740400  0.01040000  0.40185500  1
  C  C7  1  0.41259600  0.01040000  0.40185500  1
  C  C8  1  0.91259600  0.98960000  0.90185500  1
  C  C9  1  0.08740400  0.98960000  0.90185500  1
  C  C10  1  0.66927000  0.26465000  0.45136200  1
  C  C11  1  0.33073000  0.26465000  0.45136200  1
  C  C12  1  0.83073000  0.73535000  0.95136200  1
  C  C13  1  0.16927000  0.73535000  0.95136200  1
  C  C14  1  0.83382700  0.15353000  0.19342000  1
  C  C15  1  0.16617300  0.15353000  0.19342000  1
  C  C16  1  0.66617300  0.84647000  0.69342000  1
  C  C17  1  0.33382700  0.84647000  0.69342000  1
  C  C18  1  0.83322800  0.36303300  0.43720100  1
  C  C19  1  0.16677200  0.36303300  0.43720100  1
  C  C20  1  0.66677200  0.63696700  0.93720100  1
  C  C21  1  0.33322800  0.63696700  0.93720100  1
  C  C22  1  0.89233300  0.08199900  0.48049000  1
  C  C23  1  0.10766700  0.08199900  0.48049000  1
  C  C24  1  0.60766700  0.91800100  0.98049000  1
  C  C25  1  0.39233300  0.91800100  0.98049000  1
  Ni  Ni26  1  0.64668600  0.13027300  0.36518100  1
  Ni  Ni27  1  0.35331400  0.13027300  0.36518100  1
  Ni  Ni28  1  0.85331400  0.86972700  0.86518100  1
  Ni  Ni29  1  0.14668600  0.86972700  0.86518100  1
  Cu  Cu30  1  0.73532800  0.89223600  0.32736700  1
  Cu  Cu31  1  0.26467200  0.89223600  0.32736700  1
  Cu  Cu32  1  0.76467200  0.10776400  0.82736700  1
  Cu  Cu33  1  0.23532800  0.10776400  0.82736700  1
  C  C34  1  0.83355200  0.05607600  0.28980300  1
  C  C35  1  0.16644800  0.05607600  0.28980300  1
  C  C36  1  0.66644800  0.94392400  0.78980300  1
  C  C37  1  0.33355200  0.94392400  0.78980300  1
  C  C38  1  0.87609500  0.21289800  0.39877800  1
  C  C39  1  0.12390500  0.21289800  0.39877800  1
  C  C40  1  0.62390500  0.78710200  0.89877800  1
  C  C41  1  0.37609500  0.78710200  0.89877800  1
  C  C42  1  0.00000000  0.71778400  0.51672400  1
  C  C43  1  0.50000000  0.28221600  0.01672400  1
  C  C44  1  0.00000000  0.41885900  0.10078400  1
  C  C45  1  0.50000000  0.58114100  0.60078400  1
  C  C46  1  0.71349000  0.74710500  0.19826600  1
  C  C47  1  0.28651000  0.74710500  0.19826600  1
  C  C48  1  0.78651000  0.25289500  0.69826600  1
  C  C49  1  0.21349000  0.25289500  0.69826600  1
  C  C50  1  0.75380600  0.74302800  0.45785500  1
  C  C51  1  0.24619400  0.74302800  0.45785500  1
  C  C52  1  0.74619400  0.25697200  0.95785500  1
  C  C53  1  0.25380600  0.25697200  0.95785500  1
