# generated using pymatgen
data_CuNiC6
_symmetry_space_group_name_H-M   'P 1'
_cell_length_a   11.07219600
_cell_length_b   5.88474300
_cell_length_c   8.96230313
_cell_angle_alpha   72.70202728
_cell_angle_beta   90.00000000
_cell_angle_gamma   90.00000000
_symmetry_Int_Tables_number   1
_chemical_formula_structural   CuNiC6
_chemical_formula_sum   'Cu4 Ni4 C24'
_cell_volume   557.54542994
_cell_formula_units_Z   4
loop_
 _symmetry_equiv_pos_site_id
 _symmetry_equiv_pos_as_xyz
  1  'x, y, z'
loop_
 _atom_site_type_symbol
 _atom_site_label
 _atom_site_symmetry_multiplicity
 _atom_site_fract_x
 _atom_site_fract_y
 _atom_site_fract_z
 _atom_site_occupancy
  C  C0  1  0.10647900  0.52102400  0.84094900  1
  C  C1  1  0.89352100  0.47897600  0.15905100  1
  C  C2  1  0.60647900  0.47897600  0.65905100  1
  C  C3  1  0.39352100  0.52102400  0.34094900  1
  Ni  Ni4  1  0.37135600  0.05959800  0.11446700  1
  Ni  Ni5  1  0.62864400  0.94040200  0.88553300  1
  Ni  Ni6  1  0.87135600  0.94040200  0.38553300  1
  Ni  Ni7  1  0.12864400  0.05959800  0.61446700  1
  Cu  Cu8  1  0.91174400  0.03995800  0.83920600  1
  Cu  Cu9  1  0.08825600  0.96004200  0.16079400  1
  Cu  Cu10  1  0.58825600  0.03995800  0.33920600  1
  Cu  Cu11  1  0.41174400  0.96004200  0.66079400  1
  C  C12  1  0.97978400  0.85311000  0.67972900  1
  C  C13  1  0.02334800  0.30390200  0.68301900  1
  C  C14  1  0.75516300  0.22927000  0.30900700  1
  C  C15  1  0.46436900  0.77617100  0.49373700  1
  C  C16  1  0.71399400  0.76240600  0.45273000  1
  C  C17  1  0.78600600  0.76240600  0.95273000  1
  C  C18  1  0.47665200  0.30390200  0.18301900  1
  C  C19  1  0.52334800  0.69609800  0.81698100  1
  C  C20  1  0.53563100  0.22382900  0.50626300  1
  C  C21  1  0.47978400  0.14689000  0.82027100  1
  C  C22  1  0.28600600  0.23759400  0.54727000  1
  C  C23  1  0.02021600  0.14689000  0.32027100  1
  C  C24  1  0.52021600  0.85311000  0.17972900  1
  C  C25  1  0.21399400  0.23759400  0.04727000  1
  C  C26  1  0.96436900  0.22382900  0.00626300  1
  C  C27  1  0.03563100  0.77617100  0.99373700  1
  C  C28  1  0.24483700  0.77073000  0.69099300  1
  C  C29  1  0.97665200  0.69609800  0.31698100  1
  C  C30  1  0.25516300  0.77073000  0.19099300  1
  C  C31  1  0.74483700  0.22927000  0.80900700  1
