# generated using pymatgen
data_Cu4Ni2C3
_symmetry_space_group_name_H-M   'P 1'
_cell_length_a   8.95361685
_cell_length_b   8.95361685
_cell_length_c   7.17690925
_cell_angle_alpha   89.88478717
_cell_angle_beta   89.88478717
_cell_angle_gamma   75.64605727
_symmetry_Int_Tables_number   1
_chemical_formula_structural   Cu4Ni2C3
_chemical_formula_sum   'Cu8 Ni4 C6'
_cell_volume   557.39036853
_cell_formula_units_Z   2
loop_
 _symmetry_equiv_pos_site_id
 _symmetry_equiv_pos_as_xyz
  1  'x, y, z'
loop_
 _atom_site_type_symbol
 _atom_site_label
 _atom_site_symmetry_multiplicity
 _atom_site_fract_x
 _atom_site_fract_y
 _atom_site_fract_z
 _atom_site_occupancy
  C  C0  1  0.40169500  0.59830500  0.75000000  1
  C  C1  1  0.59830500  0.40169500  0.25000000  1
  C  C2  1  0.00571900  0.74715700  0.04494900  1
  C  C3  1  0.25284300  0.99428100  0.45505100  1
  C  C4  1  0.99428100  0.25284300  0.95505100  1
  C  C5  1  0.74715700  0.00571900  0.54494900  1
  Ni  Ni6  1  0.41923000  0.17382700  0.91545800  1
  Ni  Ni7  1  0.82617300  0.58077100  0.58454200  1
  Ni  Ni8  1  0.58077000  0.82617300  0.08454200  1
  Ni  Ni9  1  0.17382700  0.41923000  0.41545800  1
  Cu  Cu10  1  0.74315200  0.57242300  0.93148100  1
  Cu  Cu11  1  0.42757700  0.25684800  0.56851900  1
  Cu  Cu12  1  0.25684800  0.42757700  0.06851900  1
  Cu  Cu13  1  0.57242300  0.74315200  0.43148100  1
  Cu  Cu14  1  0.05843400  0.70911100  0.52660200  1
  Cu  Cu15  1  0.29088900  0.94156600  0.97339800  1
  Cu  Cu16  1  0.70911100  0.05843400  0.02660200  1
  Cu  Cu17  1  0.94156600  0.29088900  0.47339800  1
