# generated using pymatgen
data_Cu13Ni3C50
_symmetry_space_group_name_H-M   'P 1'
_cell_length_a   12.59164420
_cell_length_b   12.59164420
_cell_length_c   12.59164420
_cell_angle_alpha   60.00000000
_cell_angle_beta   60.00000000
_cell_angle_gamma   60.00000000
_symmetry_Int_Tables_number   1
_chemical_formula_structural   Cu13Ni3C50
_chemical_formula_sum   'Cu13 Ni3 C50'
_cell_volume   1411.66722708
_cell_formula_units_Z   1
loop_
 _symmetry_equiv_pos_site_id
 _symmetry_equiv_pos_as_xyz
  1  'x, y, z'
loop_
 _atom_site_type_symbol
 _atom_site_label
 _atom_site_symmetry_multiplicity
 _atom_site_fract_x
 _atom_site_fract_y
 _atom_site_fract_z
 _atom_site_occupancy
  C  C0  1  0.78793300  0.21206700  0.21206700  1
  C  C1  1  0.21206700  0.78793300  0.78793300  1
  C  C2  1  0.21206700  0.78793300  0.21206700  1
  C  C3  1  0.78793300  0.21206700  0.78793300  1
  C  C4  1  0.21206700  0.21206700  0.78793300  1
  C  C5  1  0.78793300  0.78793300  0.21206700  1
  C  C6  1  0.32125300  0.99325200  0.19233400  1
  C  C7  1  0.67874700  0.00674800  0.80766600  1
  C  C8  1  0.99325200  0.32125300  0.49316100  1
  C  C9  1  0.19233400  0.49316100  0.32125300  1
  C  C10  1  0.19233400  0.32125300  0.99325200  1
  C  C11  1  0.00674800  0.67874700  0.50683900  1
  C  C12  1  0.80766600  0.50683900  0.67874700  1
  C  C13  1  0.80766600  0.67874700  0.00674800  1
  C  C14  1  0.49316100  0.19233400  0.99325200  1
  C  C15  1  0.49316100  0.99325200  0.32125300  1
  C  C16  1  0.50683900  0.80766600  0.00674800  1
  C  C17  1  0.50683900  0.00674800  0.67874700  1
  C  C18  1  0.32125300  0.19233400  0.49316100  1
  C  C19  1  0.67874700  0.80766600  0.50683900  1
  C  C20  1  0.99325200  0.49316100  0.19233400  1
  C  C21  1  0.00674800  0.50683900  0.80766600  1
  C  C22  1  0.99325200  0.19233400  0.32125300  1
  C  C23  1  0.00674800  0.80766600  0.67874700  1
  C  C24  1  0.49316100  0.32125300  0.19233400  1
  C  C25  1  0.50683900  0.67874700  0.80766600  1
  C  C26  1  0.19233400  0.99325200  0.49316100  1
  C  C27  1  0.80766600  0.00674800  0.50683900  1
  C  C28  1  0.32125300  0.49316100  0.99325200  1
  C  C29  1  0.67874700  0.50683900  0.00674800  1
  C  C30  1  0.44763100  0.26064800  0.73935200  1
  C  C31  1  0.55236900  0.73935200  0.26064800  1
  C  C32  1  0.26064800  0.44763100  0.55236900  1
  C  C33  1  0.73935200  0.55236900  0.44763100  1
  C  C34  1  0.73935200  0.44763100  0.26064800  1
  C  C35  1  0.26064800  0.55236900  0.73935200  1
  C  C36  1  0.55236900  0.26064800  0.44763100  1
  C  C37  1  0.44763100  0.73935200  0.55236900  1
  C  C38  1  0.26064800  0.73935200  0.44763100  1
  C  C39  1  0.73935200  0.26064800  0.55236900  1
  C  C40  1  0.55236900  0.44763100  0.73935200  1
  C  C41  1  0.44763100  0.55236900  0.26064800  1
  C  C42  1  0.08997200  0.08997200  0.08997200  1
  C  C43  1  0.91002800  0.91002800  0.91002800  1
  C  C44  1  0.08997200  0.08997200  0.73008500  1
  C  C45  1  0.08997200  0.73008500  0.08997200  1
  C  C46  1  0.91002800  0.91002800  0.26991500  1
  C  C47  1  0.91002800  0.26991500  0.91002800  1
  C  C48  1  0.73008500  0.08997200  0.08997200  1
  C  C49  1  0.26991500  0.91002800  0.91002800  1
  Ni  Ni50  1  0.25000000  0.25000000  0.25000000  1
  Ni  Ni51  1  0.75000000  0.75000000  0.75000000  1
  Ni  Ni52  1  0.50000000  0.50000000  0.50000000  1
  Cu  Cu53  1  0.00000000  0.00000000  0.00000000  1
  Cu  Cu54  1  0.37010100  0.06276200  0.93723800  1
  Cu  Cu55  1  0.62989900  0.93723800  0.06276200  1
  Cu  Cu56  1  0.06276200  0.37010100  0.62989900  1
  Cu  Cu57  1  0.93723800  0.62989900  0.37010100  1
  Cu  Cu58  1  0.93723800  0.37010100  0.06276200  1
  Cu  Cu59  1  0.06276200  0.62989900  0.93723800  1
  Cu  Cu60  1  0.62989900  0.06276200  0.37010100  1
  Cu  Cu61  1  0.37010100  0.93723800  0.62989900  1
  Cu  Cu62  1  0.06276200  0.93723800  0.37010100  1
  Cu  Cu63  1  0.93723800  0.06276200  0.62989900  1
  Cu  Cu64  1  0.62989900  0.37010100  0.93723800  1
  Cu  Cu65  1  0.37010100  0.62989900  0.06276200  1
