# generated using pymatgen
data_Cu4(Ni2C)3
_symmetry_space_group_name_H-M   'P 1'
_cell_length_a   16.95644266
_cell_length_b   16.95644266
_cell_length_c   16.95644290
_cell_angle_alpha   14.25651126
_cell_angle_beta   14.25651126
_cell_angle_gamma   14.25651051
_symmetry_Int_Tables_number   1
_chemical_formula_structural   Cu4(Ni2C)3
_chemical_formula_sum   'Cu4 Ni6 C3'
_cell_volume   257.37687324
_cell_formula_units_Z   1
loop_
 _symmetry_equiv_pos_site_id
 _symmetry_equiv_pos_as_xyz
  1  'x, y, z'
loop_
 _atom_site_type_symbol
 _atom_site_label
 _atom_site_symmetry_multiplicity
 _atom_site_fract_x
 _atom_site_fract_y
 _atom_site_fract_z
 _atom_site_occupancy
  C  C0  1  0.56546600  0.56546600  0.56546600  1
  C  C1  1  0.43453400  0.43453400  0.43453400  1
  Ni  Ni2  1  0.18548000  0.18548000  0.18548000  1
  Ni  Ni3  1  0.81452000  0.81452000  0.81452000  1
  Ni  Ni4  1  0.94772100  0.94772100  0.94772100  1
  Ni  Ni5  1  0.68315100  0.68315100  0.68315100  1
  Ni  Ni6  1  0.31684900  0.31684900  0.31684900  1
  Ni  Ni7  1  0.05227900  0.05227900  0.05227900  1
  Cu  Cu8  1  0.26567100  0.26567100  0.26567100  1
  Cu  Cu9  1  0.13512500  0.13512500  0.13512500  1
  Cu  Cu10  1  0.86487500  0.86487500  0.86487500  1
  Cu  Cu11  1  0.73432900  0.73432900  0.73432900  1
  C  C12  1  0.00000000  0.00000000  0.00000000  1
