# generated using pymatgen
data_CuNi13C6
_symmetry_space_group_name_H-M   'P 1'
_cell_length_a   13.17316724
_cell_length_b   13.17316724
_cell_length_c   13.17316724
_cell_angle_alpha   144.30086168
_cell_angle_beta   144.30086168
_cell_angle_gamma   51.37763533
_symmetry_Int_Tables_number   1
_chemical_formula_structural   CuNi13C6
_chemical_formula_sum   'Cu2 Ni26 C12'
_cell_volume   774.19057328
_cell_formula_units_Z   2
loop_
 _symmetry_equiv_pos_site_id
 _symmetry_equiv_pos_as_xyz
  1  'x, y, z'
loop_
 _atom_site_type_symbol
 _atom_site_label
 _atom_site_symmetry_multiplicity
 _atom_site_fract_x
 _atom_site_fract_y
 _atom_site_fract_z
 _atom_site_occupancy
  C  C0  1  0.60440600  0.60440600  0.00000000  1
  C  C1  1  0.10440600  0.10440600  0.00000000  1
  C  C2  1  0.39559400  0.39559400  0.00000000  1
  C  C3  1  0.89559400  0.89559400  0.00000000  1
  C  C4  1  0.47848400  0.97848400  0.82689300  1
  C  C5  1  0.15159100  0.65159100  0.17310700  1
  C  C6  1  0.97848400  0.15159100  0.50000000  1
  C  C7  1  0.65159100  0.47848400  0.50000000  1
  C  C8  1  0.52151600  0.02151600  0.17310700  1
  C  C9  1  0.84840900  0.34840900  0.82689300  1
  C  C10  1  0.02151600  0.84840900  0.50000000  1
  C  C11  1  0.34840900  0.52151600  0.50000000  1
  Ni  Ni12  1  0.50000000  0.00000000  0.50000000  1
  Ni  Ni13  1  0.00000000  0.50000000  0.50000000  1
  Ni  Ni14  1  0.56669200  0.71019200  0.27688400  1
  Ni  Ni15  1  0.43330800  0.28980800  0.72311600  1
  Ni  Ni16  1  0.06669200  0.78980800  0.85650000  1
  Ni  Ni17  1  0.93330800  0.21019200  0.14350000  1
  Ni  Ni18  1  0.28980800  0.56669200  0.85650000  1
  Ni  Ni19  1  0.71019200  0.43330800  0.14350000  1
  Ni  Ni20  1  0.21019200  0.06669200  0.27688400  1
  Ni  Ni21  1  0.78980800  0.93330800  0.72311600  1
  Ni  Ni22  1  0.62079200  0.12079200  0.85722700  1
  Ni  Ni23  1  0.26356500  0.76356500  0.14277300  1
  Ni  Ni24  1  0.12079200  0.26356500  0.50000000  1
  Ni  Ni25  1  0.76356500  0.62079200  0.50000000  1
  Ni  Ni26  1  0.37920800  0.87920800  0.14277300  1
  Ni  Ni27  1  0.73643500  0.23643500  0.85722700  1
  Ni  Ni28  1  0.87920800  0.73643500  0.50000000  1
  Ni  Ni29  1  0.23643500  0.37920800  0.50000000  1
  Ni  Ni30  1  0.79509800  0.29509800  0.27486900  1
  Ni  Ni31  1  0.02022900  0.52022900  0.72513100  1
  Ni  Ni32  1  0.29509800  0.02022900  0.50000000  1
  Ni  Ni33  1  0.52022900  0.79509800  0.50000000  1
  Ni  Ni34  1  0.20490200  0.70490200  0.72513100  1
  Ni  Ni35  1  0.97977100  0.47977100  0.27486900  1
  Ni  Ni36  1  0.70490200  0.97977100  0.50000000  1
  Ni  Ni37  1  0.47977100  0.20490200  0.50000000  1
  Cu  Cu38  1  0.25000000  0.25000000  0.00000000  1
  Cu  Cu39  1  0.75000000  0.75000000  0.00000000  1
