# generated using pymatgen
data_CuNiC13
_symmetry_space_group_name_H-M   'P 1'
_cell_length_a   8.52155042
_cell_length_b   4.54973856
_cell_length_c   4.54973856
_cell_angle_alpha   90.00000000
_cell_angle_beta   90.00000000
_cell_angle_gamma   90.00000000
_symmetry_Int_Tables_number   1
_chemical_formula_structural   CuNiC13
_chemical_formula_sum   'Cu1 Ni1 C13'
_cell_volume   176.39712450
_cell_formula_units_Z   1
loop_
 _symmetry_equiv_pos_site_id
 _symmetry_equiv_pos_as_xyz
  1  'x, y, z'
loop_
 _atom_site_type_symbol
 _atom_site_label
 _atom_site_symmetry_multiplicity
 _atom_site_fract_x
 _atom_site_fract_y
 _atom_site_fract_z
 _atom_site_occupancy
  Ni  Ni0  1  0.08458450  0.50000000  0.50000000  1
  Cu  Cu1  1  0.98063027  0.00000000  -0.00000000  1
  C  C2  1  0.49522555  0.00000000  -0.00000000  1
  C  C3  1  0.51717506  0.50000000  0.50000000  1
  C  C4  1  0.24312516  0.00000000  0.50000000  1
  C  C5  1  0.76163115  -0.00000000  0.50000000  1
  C  C6  1  0.24312516  0.50000000  0.00000000  1
  C  C7  1  0.76163115  0.50000000  0.00000000  1
  C  C8  1  0.25244214  0.00000000  -0.00000000  1
  C  C9  1  0.73064626  0.00000000  0.00000000  1
  C  C10  1  0.73894761  0.50000000  0.50000000  1
  C  C11  1  0.99324241  0.00000000  0.50000000  1
  C  C12  1  0.47717559  -0.00000000  0.50000000  1
  C  C13  1  0.99324241  0.50000000  -0.00000000  1
  C  C14  1  0.47717559  0.50000000  -0.00000000  1
