# generated using pymatgen
data_Cu5(NiC2)2
_symmetry_space_group_name_H-M   'P 1'
_cell_length_a   3.86611405
_cell_length_b   3.86611405
_cell_length_c   15.49480000
_cell_angle_alpha   90.00000000
_cell_angle_beta   90.00000000
_cell_angle_gamma   120.00000092
_symmetry_Int_Tables_number   1
_chemical_formula_structural   Cu5(NiC2)2
_chemical_formula_sum   'Cu5 Ni2 C4'
_cell_volume   200.56997783
_cell_formula_units_Z   1
loop_
 _symmetry_equiv_pos_site_id
 _symmetry_equiv_pos_as_xyz
  1  'x, y, z'
loop_
 _atom_site_type_symbol
 _atom_site_label
 _atom_site_symmetry_multiplicity
 _atom_site_fract_x
 _atom_site_fract_y
 _atom_site_fract_z
 _atom_site_occupancy
  Ni  Ni0  1  0.33333300  0.66666700  0.74496600  1
  Ni  Ni1  1  0.66666700  0.33333300  0.25503400  1
  Cu  Cu2  1  0.00000000  0.00000000  0.83159700  1
  Cu  Cu3  1  0.00000000  0.00000000  0.16840300  1
  Cu  Cu4  1  0.00000000  0.00000000  0.32821500  1
  Cu  Cu5  1  0.00000000  0.00000000  0.67178500  1
  Cu  Cu6  1  0.00000000  0.00000000  0.00000000  1
  C  C7  1  0.66666700  0.33333300  0.90843400  1
  C  C8  1  0.33333300  0.66666700  0.09156600  1
  C  C9  1  0.33333300  0.66666700  0.40588600  1
  C  C10  1  0.66666700  0.33333300  0.59411400  1
