# generated using pymatgen
data_Cu9NiC21
_symmetry_space_group_name_H-M   'P 1'
_cell_length_a   7.30882514
_cell_length_b   7.30882514
_cell_length_c   17.62962300
_cell_angle_alpha   90.00000000
_cell_angle_beta   90.00000000
_cell_angle_gamma   119.99999226
_symmetry_Int_Tables_number   1
_chemical_formula_structural   Cu9NiC21
_chemical_formula_sum   'Cu18 Ni2 C42'
_cell_volume   815.58425832
_cell_formula_units_Z   2
loop_
 _symmetry_equiv_pos_site_id
 _symmetry_equiv_pos_as_xyz
  1  'x, y, z'
loop_
 _atom_site_type_symbol
 _atom_site_label
 _atom_site_symmetry_multiplicity
 _atom_site_fract_x
 _atom_site_fract_y
 _atom_site_fract_z
 _atom_site_occupancy
  C  C0  1  0.66666700  0.33333300  0.63366500  1
  C  C1  1  0.33333300  0.66666700  0.13366500  1
  C  C2  1  0.33333300  0.66666700  0.36633500  1
  C  C3  1  0.66666700  0.33333300  0.86633500  1
  C  C4  1  0.00000000  0.00000000  0.75000000  1
  C  C5  1  0.00000000  0.00000000  0.25000000  1
  Ni  Ni6  1  0.00000000  0.00000000  0.50000000  1
  Ni  Ni7  1  0.00000000  0.00000000  0.00000000  1
  Cu  Cu8  1  0.11844700  0.49527200  0.75000000  1
  Cu  Cu9  1  0.50472800  0.62317500  0.75000000  1
  Cu  Cu10  1  0.37682500  0.88155300  0.75000000  1
  Cu  Cu11  1  0.88155300  0.50472800  0.25000000  1
  Cu  Cu12  1  0.49527200  0.37682500  0.25000000  1
  Cu  Cu13  1  0.62317500  0.11844700  0.25000000  1
  Cu  Cu14  1  0.28660000  0.45172000  0.58633200  1
  Cu  Cu15  1  0.54828000  0.83488000  0.58633200  1
  Cu  Cu16  1  0.16512000  0.71340000  0.58633200  1
  Cu  Cu17  1  0.71340000  0.54828000  0.08633200  1
  Cu  Cu18  1  0.45172000  0.16512000  0.08633200  1
  Cu  Cu19  1  0.83488000  0.28660000  0.08633200  1
  Cu  Cu20  1  0.71340000  0.54828000  0.41366800  1
  Cu  Cu21  1  0.45172000  0.16512000  0.41366800  1
  Cu  Cu22  1  0.83488000  0.28660000  0.41366800  1
  Cu  Cu23  1  0.28660000  0.45172000  0.91366800  1
  Cu  Cu24  1  0.54828000  0.83488000  0.91366800  1
  Cu  Cu25  1  0.16512000  0.71340000  0.91366800  1
  C  C26  1  0.16724400  0.70802900  0.75000000  1
  C  C27  1  0.29197100  0.45921500  0.75000000  1
  C  C28  1  0.54078500  0.83275600  0.75000000  1
  C  C29  1  0.83275600  0.29197100  0.25000000  1
  C  C30  1  0.70802900  0.54078500  0.25000000  1
  C  C31  1  0.45921500  0.16724400  0.25000000  1
  C  C32  1  0.49721300  0.62195800  0.58616600  1
  C  C33  1  0.37804200  0.87525600  0.58616600  1
  C  C34  1  0.12474400  0.50278700  0.58616600  1
  C  C35  1  0.50278700  0.37804200  0.08616600  1
  C  C36  1  0.62195800  0.12474400  0.08616600  1
  C  C37  1  0.87525600  0.49721300  0.08616600  1
  C  C38  1  0.50278700  0.37804200  0.41383400  1
  C  C39  1  0.62195800  0.12474400  0.41383400  1
  C  C40  1  0.87525600  0.49721300  0.41383400  1
  C  C41  1  0.49721300  0.62195800  0.91383400  1
  C  C42  1  0.37804200  0.87525600  0.91383400  1
  C  C43  1  0.12474400  0.50278700  0.91383400  1
  C  C44  1  0.92135400  0.33285400  0.75000000  1
  C  C45  1  0.66714600  0.58850000  0.75000000  1
  C  C46  1  0.41150000  0.07864600  0.75000000  1
  C  C47  1  0.07864600  0.66714600  0.25000000  1
  C  C48  1  0.33285400  0.41150000  0.25000000  1
  C  C49  1  0.58850000  0.92135400  0.25000000  1
  C  C50  1  0.25183800  0.25399200  0.58554800  1
  C  C51  1  0.74600800  0.99784600  0.58554800  1
  C  C52  1  0.00215400  0.74816200  0.58554800  1
  C  C53  1  0.74816200  0.74600800  0.08554800  1
  C  C54  1  0.25399200  0.00215400  0.08554800  1
  C  C55  1  0.99784600  0.25183800  0.08554800  1
  C  C56  1  0.74816200  0.74600800  0.41445200  1
  C  C57  1  0.25399200  0.00215400  0.41445200  1
  C  C58  1  0.99784600  0.25183800  0.41445200  1
  C  C59  1  0.25183800  0.25399200  0.91445200  1
  C  C60  1  0.74600800  0.99784600  0.91445200  1
  C  C61  1  0.00215400  0.74816200  0.91445200  1
