# generated using pymatgen
data_CuNi4C11
_symmetry_space_group_name_H-M   'P 1'
_cell_length_a   22.09122700
_cell_length_b   11.03390000
_cell_length_c   15.83694758
_cell_angle_alpha   64.57835995
_cell_angle_beta   90.00000000
_cell_angle_gamma   90.00000000
_symmetry_Int_Tables_number   1
_chemical_formula_structural   CuNi4C11
_chemical_formula_sum   'Cu4 Ni16 C44'
_cell_volume   3486.51401084
_cell_formula_units_Z   4
loop_
 _symmetry_equiv_pos_site_id
 _symmetry_equiv_pos_as_xyz
  1  'x, y, z'
loop_
 _atom_site_type_symbol
 _atom_site_label
 _atom_site_symmetry_multiplicity
 _atom_site_fract_x
 _atom_site_fract_y
 _atom_site_fract_z
 _atom_site_occupancy
  Ni  Ni0  1  0.64855000  0.56589300  0.48866900  1
  Ni  Ni1  1  0.85145000  0.56589300  0.98866900  1
  Ni  Ni2  1  0.35145000  0.43410700  0.51133100  1
  Ni  Ni3  1  0.14855000  0.43410700  0.01133100  1
  Ni  Ni4  1  0.56413500  0.09820300  0.57518900  1
  Ni  Ni5  1  0.93586500  0.09820300  0.07518900  1
  Ni  Ni6  1  0.43586500  0.90179700  0.42481100  1
  Ni  Ni7  1  0.06413500  0.90179700  0.92481100  1
  Ni  Ni8  1  0.39551000  0.25024600  0.70377200  1
  Ni  Ni9  1  0.10449000  0.25024600  0.20377200  1
  Ni  Ni10  1  0.60449000  0.74975400  0.29622800  1
  Ni  Ni11  1  0.89551000  0.74975400  0.79622800  1
  Ni  Ni12  1  0.49914400  0.69077200  0.59156000  1
  Ni  Ni13  1  0.00085600  0.69077200  0.09156000  1
  Ni  Ni14  1  0.50085600  0.30922800  0.40844000  1
  Ni  Ni15  1  0.99914400  0.30922800  0.90844000  1
  C  C16  1  0.53959600  0.52962900  0.54670900  1
  C  C17  1  0.96040400  0.52962900  0.04670900  1
  C  C18  1  0.46040400  0.47037100  0.45329100  1
  C  C19  1  0.03959600  0.47037100  0.95329100  1
  Cu  Cu20  1  0.55525400  0.31323900  0.69157400  1
  Cu  Cu21  1  0.94474600  0.31323900  0.19157400  1
  Cu  Cu22  1  0.44474600  0.68676100  0.30842600  1
  Cu  Cu23  1  0.05525400  0.68676100  0.80842600  1
  C  C24  1  0.62180700  0.70802800  0.40441700  1
  C  C25  1  0.87819300  0.70802800  0.90441700  1
  C  C26  1  0.37819300  0.29197200  0.59558300  1
  C  C27  1  0.12180700  0.29197200  0.09558300  1
  C  C28  1  0.68035000  0.59829700  0.55780600  1
  C  C29  1  0.81965000  0.59829700  0.05780600  1
  C  C30  1  0.31965000  0.40170300  0.44219400  1
  C  C31  1  0.18035000  0.40170300  0.94219400  1
  C  C32  1  0.65114100  0.45307700  0.46239400  1
  C  C33  1  0.84885900  0.45307700  0.96239400  1
  C  C34  1  0.34885900  0.54692300  0.53760600  1
  C  C35  1  0.15114100  0.54692300  0.03760600  1
  C  C36  1  0.62355000  0.14348100  0.53325200  1
  C  C37  1  0.87645000  0.14348100  0.03325200  1
  C  C38  1  0.37645000  0.85651900  0.46674800  1
  C  C39  1  0.12355000  0.85651900  0.96674800  1
  C  C40  1  0.54107300  0.98697300  0.65995500  1
  C  C41  1  0.95892700  0.98697300  0.15995500  1
  C  C42  1  0.45892700  0.01302700  0.34004500  1
  C  C43  1  0.04107300  0.01302700  0.84004500  1
  C  C44  1  0.43318700  0.12880800  0.73822900  1
  C  C45  1  0.06681300  0.12880800  0.23822900  1
  C  C46  1  0.56681300  0.87119200  0.26177100  1
  C  C47  1  0.93318700  0.87119200  0.76177100  1
  C  C48  1  0.37160600  0.33705100  0.74423800  1
  C  C49  1  0.12839400  0.33705100  0.24423800  1
  C  C50  1  0.62839400  0.66294900  0.25576200  1
  C  C51  1  0.87160600  0.66294900  0.75576200  1
  C  C52  1  0.49312100  0.81815200  0.48760800  1
  C  C53  1  0.00687900  0.81815200  0.98760800  1
  C  C54  1  0.50687900  0.18184800  0.51239200  1
  C  C55  1  0.99312100  0.18184800  0.01239200  1
  C  C56  1  0.44372100  0.64842600  0.64760900  1
  C  C57  1  0.05627900  0.64842600  0.14760900  1
  C  C58  1  0.55627900  0.35157400  0.35239100  1
  C  C59  1  0.94372100  0.35157400  0.85239100  1
  C  C60  1  0.56513500  0.68670100  0.61756500  1
  C  C61  1  0.93486500  0.68670100  0.11756500  1
  C  C62  1  0.43486500  0.31329900  0.38243500  1
  C  C63  1  0.06513500  0.31329900  0.88243500  1
