# generated using pymatgen
data_Cu2Ni5C36
_symmetry_space_group_name_H-M   'P 1'
_cell_length_a   6.73517884
_cell_length_b   6.73517884
_cell_length_c   24.48955200
_cell_angle_alpha   90.00000000
_cell_angle_beta   90.00000000
_cell_angle_gamma   97.20285061
_symmetry_Int_Tables_number   1
_chemical_formula_structural   Cu2Ni5C36
_chemical_formula_sum   'Cu4 Ni10 C72'
_cell_volume   1102.14379285
_cell_formula_units_Z   2
loop_
 _symmetry_equiv_pos_site_id
 _symmetry_equiv_pos_as_xyz
  1  'x, y, z'
loop_
 _atom_site_type_symbol
 _atom_site_label
 _atom_site_symmetry_multiplicity
 _atom_site_fract_x
 _atom_site_fract_y
 _atom_site_fract_z
 _atom_site_occupancy
  Ni  Ni0  1  0.69261600  0.69261600  0.50000000  1
  Ni  Ni1  1  0.30738400  0.30738400  0.00000000  1
  Ni  Ni2  1  0.08163300  0.08163300  0.50000000  1
  Ni  Ni3  1  0.91836700  0.91836700  0.00000000  1
  Ni  Ni4  1  0.70354400  0.29645600  0.75000000  1
  Ni  Ni5  1  0.29645600  0.70354400  0.25000000  1
  Ni  Ni6  1  0.03691600  0.33546600  0.63624600  1
  Ni  Ni7  1  0.96308400  0.66453400  0.13624600  1
  Ni  Ni8  1  0.66453400  0.96308400  0.86375400  1
  Ni  Ni9  1  0.33546600  0.03691600  0.36375400  1
  Cu  Cu10  1  0.26334200  0.58132900  0.87767900  1
  Cu  Cu11  1  0.73665800  0.41867100  0.37767900  1
  Cu  Cu12  1  0.41867100  0.73665800  0.62232100  1
  Cu  Cu13  1  0.58132900  0.26334200  0.12232100  1
  C  C14  1  0.20390300  0.30286600  0.76917800  1
  C  C15  1  0.79609700  0.69713400  0.26917800  1
  C  C16  1  0.69713400  0.79609700  0.73082200  1
  C  C17  1  0.30286600  0.20390300  0.23082200  1
  C  C18  1  0.74919400  0.47875400  0.88457400  1
  C  C19  1  0.25080600  0.52124600  0.38457400  1
  C  C20  1  0.52124600  0.25080600  0.61542600  1
  C  C21  1  0.47875400  0.74919400  0.11542600  1
  C  C22  1  0.19653600  0.60428500  0.50544200  1
  C  C23  1  0.80346400  0.39571500  0.00544200  1
  C  C24  1  0.39571500  0.80346400  0.99455800  1
  C  C25  1  0.60428500  0.19653600  0.49455800  1
  C  C26  1  0.92501600  0.82979800  0.62576700  1
  C  C27  1  0.07498400  0.17020200  0.12576700  1
  C  C28  1  0.17020200  0.07498400  0.87423300  1
  C  C29  1  0.82979800  0.92501600  0.37423300  1
  C  C30  1  0.24780200  0.49668300  0.80337700  1
  C  C31  1  0.75219800  0.50331700  0.30337700  1
  C  C32  1  0.50331700  0.75219800  0.69662300  1
  C  C33  1  0.49668300  0.24780200  0.19662300  1
  C  C34  1  0.00106400  0.02702100  0.59775500  1
  C  C35  1  0.99893600  0.97297900  0.09775500  1
  C  C36  1  0.97297900  0.99893600  0.90224500  1
  C  C37  1  0.02702100  0.00106400  0.40224500  1
  C  C38  1  0.03223500  0.31318400  0.72893600  1
  C  C39  1  0.96776500  0.68681600  0.22893600  1
  C  C40  1  0.68681600  0.96776500  0.77106400  1
  C  C41  1  0.31318400  0.03223500  0.27106400  1
  C  C42  1  0.76656400  0.61915300  0.75875300  1
  C  C43  1  0.23343600  0.38084700  0.25875300  1
  C  C44  1  0.38084700  0.23343600  0.74124700  1
  C  C45  1  0.61915300  0.76656400  0.24124700  1
  C  C46  1  0.69595500  0.39702000  0.94656300  1
  C  C47  1  0.30404500  0.60298000  0.44656300  1
  C  C48  1  0.60298000  0.30404500  0.55343700  1
  C  C49  1  0.39702000  0.69595500  0.05343700  1
  C  C50  1  0.38064500  0.69487100  0.53998500  1
  C  C51  1  0.61935500  0.30512900  0.03998500  1
  C  C52  1  0.30512900  0.61935500  0.96001500  1
  C  C53  1  0.69487100  0.38064500  0.46001500  1
  C  C54  1  0.09326200  0.68960800  0.62843500  1
  C  C55  1  0.90673800  0.31039200  0.12843500  1
  C  C56  1  0.31039200  0.90673800  0.87156500  1
  C  C57  1  0.68960800  0.09326200  0.37156500  1
  C  C58  1  0.72834500  0.72450000  0.59968100  1
  C  C59  1  0.27165500  0.27550000  0.09968100  1
  C  C60  1  0.27550000  0.27165500  0.90031900  1
  C  C61  1  0.72450000  0.72834500  0.40031900  1
  C  C62  1  0.96600000  0.57667300  0.88552800  1
  C  C63  1  0.03400000  0.42332700  0.38552800  1
  C  C64  1  0.42332700  0.03400000  0.61447200  1
  C  C65  1  0.57667300  0.96600000  0.11447200  1
  C  C66  1  0.37366500  0.40596800  0.62549800  1
  C  C67  1  0.62633500  0.59403200  0.12549800  1
  C  C68  1  0.59403200  0.62633500  0.87450200  1
  C  C69  1  0.40596800  0.37366500  0.37450200  1
  C  C70  1  0.03527100  0.74450300  0.50228400  1
  C  C71  1  0.96472900  0.25549700  0.00228400  1
  C  C72  1  0.25549700  0.96472900  0.99771600  1
  C  C73  1  0.74450300  0.03527100  0.49771600  1
  C  C74  1  0.10911500  0.39825200  0.52438900  1
  C  C75  1  0.89088500  0.60174800  0.02438900  1
  C  C76  1  0.60174800  0.89088500  0.97561100  1
  C  C77  1  0.39825200  0.10911500  0.47561100  1
  C  C78  1  0.11421100  0.12921400  0.81296700  1
  C  C79  1  0.88578900  0.87078600  0.31296700  1
  C  C80  1  0.87078600  0.88578900  0.68703300  1
  C  C81  1  0.12921400  0.11421100  0.18703300  1
  C  C82  1  0.70542100  0.29166100  0.65149200  1
  C  C83  1  0.29457900  0.70833900  0.15149200  1
  C  C84  1  0.70833900  0.29457900  0.84850800  1
  C  C85  1  0.29166100  0.70542100  0.34850800  1
