# generated using pymatgen
data_Cu5NiC3
_symmetry_space_group_name_H-M   'P 1'
_cell_length_a   5.65450640
_cell_length_b   5.65450640
_cell_length_c   8.01149535
_cell_angle_alpha   67.29185463
_cell_angle_beta   67.29185463
_cell_angle_gamma   70.48282421
_symmetry_Int_Tables_number   1
_chemical_formula_structural   Cu5NiC3
_chemical_formula_sum   'Cu10 Ni2 C6'
_cell_volume   212.76451754
_cell_formula_units_Z   2
loop_
 _symmetry_equiv_pos_site_id
 _symmetry_equiv_pos_as_xyz
  1  'x, y, z'
loop_
 _atom_site_type_symbol
 _atom_site_label
 _atom_site_symmetry_multiplicity
 _atom_site_fract_x
 _atom_site_fract_y
 _atom_site_fract_z
 _atom_site_occupancy
  C  C0  1  0.50083500  0.50083500  0.49950700  1
  C  C1  1  0.49659100  0.99509100  0.99546500  1
  C  C2  1  0.99509100  0.49659100  0.99546500  1
  C  C3  1  0.29904600  0.29904600  0.21513300  1
  C  C4  1  0.69889800  0.69889800  0.79355200  1
  C  C5  1  0.47445500  0.47445500  0.01682000  1
  Ni  Ni6  1  0.92782500  0.92782500  0.27680300  1
  Ni  Ni7  1  0.07187300  0.07187400  0.72216100  1
  Cu  Cu8  1  0.84605900  0.22555100  0.21956700  1
  Cu  Cu9  1  0.22555100  0.84605900  0.21956700  1
  Cu  Cu10  1  0.15505800  0.77500000  0.78043600  1
  Cu  Cu11  1  0.77500000  0.15505800  0.78043600  1
  Cu  Cu12  1  0.34498800  0.34498800  0.07584800  1
  Cu  Cu13  1  0.65885100  0.65885100  0.93192300  1
  Cu  Cu14  1  0.82344500  0.82344500  0.18290800  1
  Cu  Cu15  1  0.17727500  0.17727500  0.81611800  1
  Cu  Cu16  1  0.82945200  0.82945200  0.48395700  1
  Cu  Cu17  1  0.17200800  0.17200800  0.51533500  1
