# generated using pymatgen
data_Cu7NiC10
_symmetry_space_group_name_H-M   'P 1'
_cell_length_a   6.69895917
_cell_length_b   6.91021100
_cell_length_c   9.70076724
_cell_angle_alpha   90.00000000
_cell_angle_beta   103.88469953
_cell_angle_gamma   90.00000000
_symmetry_Int_Tables_number   1
_chemical_formula_structural   Cu7NiC10
_chemical_formula_sum   'Cu14 Ni2 C20'
_cell_volume   435.93908875
_cell_formula_units_Z   2
loop_
 _symmetry_equiv_pos_site_id
 _symmetry_equiv_pos_as_xyz
  1  'x, y, z'
loop_
 _atom_site_type_symbol
 _atom_site_label
 _atom_site_symmetry_multiplicity
 _atom_site_fract_x
 _atom_site_fract_y
 _atom_site_fract_z
 _atom_site_occupancy
  Ni  Ni0  1  0.97406200  0.90514400  0.68494100  1
  Ni  Ni1  1  0.97406200  0.09485600  0.18494100  1
  Cu  Cu2  1  0.54407900  0.98146900  0.82368800  1
  Cu  Cu3  1  0.54407900  0.01853100  0.32368800  1
  Cu  Cu4  1  0.35138100  0.01907300  0.02150600  1
  Cu  Cu5  1  0.35138100  0.98092700  0.52150600  1
  Cu  Cu6  1  0.11341000  0.40016200  0.07392200  1
  Cu  Cu7  1  0.11341000  0.59983800  0.57392200  1
  Cu  Cu8  1  0.65738500  0.36235500  0.98966200  1
  Cu  Cu9  1  0.65738500  0.63764500  0.48966200  1
  Cu  Cu10  1  0.84577400  0.61797600  0.80937000  1
  Cu  Cu11  1  0.84577400  0.38202400  0.30937000  1
  Cu  Cu12  1  0.29935500  0.62099300  0.88221000  1
  Cu  Cu13  1  0.29935500  0.37900700  0.38221000  1
  Cu  Cu14  1  0.48412700  0.36741900  0.68630300  1
  Cu  Cu15  1  0.48412700  0.63258100  0.18630300  1
  C  C16  1  0.75390000  0.84865600  0.80826900  1
  C  C17  1  0.75390000  0.15134400  0.30826900  1
  C  C18  1  0.55422100  0.13731700  0.96899400  1
  C  C19  1  0.55422100  0.86268300  0.46899400  1
  C  C20  1  0.32461700  0.86789600  0.86911300  1
  C  C21  1  0.32461700  0.13210400  0.36911300  1
  C  C22  1  0.15280600  0.15851700  0.04699500  1
  C  C23  1  0.15280600  0.84148300  0.54699500  1
  C  C24  1  0.28747100  0.50565200  0.72308300  1
  C  C25  1  0.28747100  0.49434800  0.22308300  1
  C  C26  1  0.44997500  0.12091200  0.67184900  1
  C  C27  1  0.44997500  0.87908800  0.17184900  1
  C  C28  1  0.88031000  0.38448200  0.12943800  1
  C  C29  1  0.88031000  0.61551800  0.62943800  1
  C  C30  1  0.07551000  0.56808600  0.93472500  1
  C  C31  1  0.07551000  0.43191400  0.43472500  1
  C  C32  1  0.69796200  0.41826700  0.82331600  1
  C  C33  1  0.69796200  0.58173300  0.32331600  1
  C  C34  1  0.49595600  0.54010900  0.02191700  1
  C  C35  1  0.49595600  0.45989100  0.52191700  1
