# generated using pymatgen
data_Cu(NiC4)7
_symmetry_space_group_name_H-M   'P 1'
_cell_length_a   10.86770013
_cell_length_b   11.30600853
_cell_length_c   17.84043013
_cell_angle_alpha   108.32236531
_cell_angle_beta   107.69794147
_cell_angle_gamma   90.30582774
_symmetry_Int_Tables_number   1
_chemical_formula_structural   Cu(NiC4)7
_chemical_formula_sum   'Cu4 Ni28 C112'
_cell_volume   1970.06482114
_cell_formula_units_Z   4
loop_
 _symmetry_equiv_pos_site_id
 _symmetry_equiv_pos_as_xyz
  1  'x, y, z'
loop_
 _atom_site_type_symbol
 _atom_site_label
 _atom_site_symmetry_multiplicity
 _atom_site_fract_x
 _atom_site_fract_y
 _atom_site_fract_z
 _atom_site_occupancy
  Ni  Ni0  1  0.30616500  0.06344000  0.61038100  1
  Ni  Ni1  1  0.30926100  0.56522200  0.60982600  1
  Ni  Ni2  1  0.80866400  0.06452800  0.61013400  1
  Ni  Ni3  1  0.80629400  0.56360000  0.10843300  1
  Ni  Ni4  1  0.80686300  0.56376100  0.61055200  1
  Ni  Ni5  1  0.19810700  0.43413000  0.38849900  1
  Ni  Ni6  1  0.19747400  0.43787200  0.89335100  1
  Ni  Ni7  1  0.19538000  0.93542300  0.38744400  1
  Ni  Ni8  1  0.20108400  0.93618900  0.89294600  1
  Ni  Ni9  1  0.69597300  0.43443100  0.38941000  1
  Ni  Ni10  1  0.69957400  0.43800700  0.89381300  1
  Ni  Ni11  1  0.69680000  0.93573500  0.38847900  1
  Ni  Ni12  1  0.69982200  0.93882400  0.89313000  1
  Ni  Ni13  1  0.05564700  0.29571200  0.10984500  1
  Ni  Ni14  1  0.05541500  0.29498900  0.60999600  1
  Ni  Ni15  1  0.05951400  0.79706600  0.60973200  1
  Ni  Ni16  1  0.55706700  0.29519100  0.10883600  1
  Ni  Ni17  1  0.55893200  0.29812100  0.60963200  1
  Ni  Ni18  1  0.55844900  0.79629800  0.10889600  1
  Ni  Ni19  1  0.55577600  0.79510600  0.60973600  1
  Ni  Ni20  1  0.44693700  0.20261900  0.38589400  1
  Ni  Ni21  1  0.44941800  0.20636200  0.89365900  1
  Ni  Ni22  1  0.44412900  0.70193700  0.38688100  1
  Ni  Ni23  1  0.45024000  0.70749700  0.89303500  1
  Ni  Ni24  1  0.94337900  0.19945900  0.38702800  1
  Ni  Ni25  1  0.94846100  0.20500000  0.89350000  1
  Ni  Ni26  1  0.94774700  0.70481400  0.38808000  1
  Ni  Ni27  1  0.95031100  0.70391900  0.89280200  1
  Cu  Cu28  1  0.30675900  0.06631500  0.10512300  1
  Cu  Cu29  1  0.30172100  0.56529600  0.10575200  1
  Cu  Cu30  1  0.79886500  0.06912700  0.10546800  1
  Cu  Cu31  1  0.05498400  0.78425300  0.10627200  1
  C  C32  1  0.10367100  0.08540500  0.24451900  1
  C  C33  1  0.10853100  0.09165400  0.75152500  1
  C  C34  1  0.10973700  0.59229800  0.24865900  1
  C  C35  1  0.10861800  0.59126900  0.75013100  1
  C  C36  1  0.60402900  0.08865400  0.24607300  1
  C  C37  1  0.60838200  0.09076900  0.74969300  1
  C  C38  1  0.60389200  0.59032300  0.24761300  1
  C  C39  1  0.60945800  0.59228700  0.75167000  1
  C  C40  1  0.35657400  0.40761300  0.24690700  1
  C  C41  1  0.35768900  0.40954900  0.75057900  1
  C  C42  1  0.35064400  0.90695600  0.24529000  1
  C  C43  1  0.35890400  0.90973000  0.75124400  1
  C  C44  1  0.85797900  0.40689800  0.25037800  1
  C  C45  1  0.85862000  0.40901800  0.75141100  1
  C  C46  1  0.85761800  0.91107300  0.24636600  1
  C  C47  1  0.85867100  0.90808400  0.75069600  1
  C  C48  1  0.00927900  0.00527300  0.00991800  1
  C  C49  1  0.00458000  0.00002000  0.49944300  1
  C  C50  1  0.00727900  0.50128000  0.00402500  1
  C  C51  1  0.00449600  0.49917800  0.49897400  1
  C  C52  1  0.50873900  0.00315900  0.00438400  1
  C  C53  1  0.50426500  0.00121400  0.50019600  1
  C  C54  1  0.50610700  0.50235200  0.00325300  1
  C  C55  1  0.50446500  0.49987000  0.49897100  1
  C  C56  1  0.25768100  0.25284900  0.00432400  1
  C  C57  1  0.25486700  0.24933500  0.50030600  1
  C  C58  1  0.25907100  0.75278100  0.00765800  1
  C  C59  1  0.25402900  0.74943900  0.49838100  1
  C  C60  1  0.75604400  0.25122000  0.00261300  1
  C  C61  1  0.75374200  0.24942700  0.49945800  1
  C  C62  1  0.75906800  0.75304700  0.00458300  1
  C  C63  1  0.75428100  0.74954100  0.49970700  1
  C  C64  1  0.11770300  0.11415500  0.49195000  1
  C  C65  1  0.12417700  0.11383400  0.99597400  1
  C  C66  1  0.11900900  0.61467900  0.49264200  1
  C  C67  1  0.12604300  0.62262700  0.99607600  1
  C  C68  1  0.61830500  0.11541000  0.49254600  1
  C  C69  1  0.62768000  0.12328100  0.99422200  1
  C  C70  1  0.61804900  0.61445600  0.49222700  1
  C  C71  1  0.62373900  0.62313400  0.99303400  1
  C  C72  1  0.13691400  0.38022200  0.01327500  1
  C  C73  1  0.13918500  0.36715300  0.50561200  1
  C  C74  1  0.14431000  0.87164900  0.01532100  1
  C  C75  1  0.13605700  0.87335600  0.50653300  1
  C  C76  1  0.63366500  0.37706400  0.00926900  1
  C  C77  1  0.63591200  0.37347400  0.50690500  1
  C  C78  1  0.64095600  0.88303100  0.01190000  1
  C  C79  1  0.63872900  0.86806200  0.50568200  1
  C  C80  1  0.36764800  0.12919000  0.49180400  1
  C  C81  1  0.37477700  0.12166300  0.99542900  1
  C  C82  1  0.37059900  0.62390900  0.49112200  1
  C  C83  1  0.37036100  0.62915400  0.99579800  1
  C  C84  1  0.86985600  0.12337300  0.49131000  1
  C  C85  1  0.87384000  0.12060600  0.99518900  1
  C  C86  1  0.86781300  0.62906100  0.49204300  1
  C  C87  1  0.87930400  0.62458200  0.99583700  1
  C  C88  1  0.38262500  0.38946000  0.01331200  1
  C  C89  1  0.38850000  0.38660500  0.50521000  1
  C  C90  1  0.38594700  0.88697600  0.01427500  1
  C  C91  1  0.38820300  0.88667700  0.50491200  1
  C  C92  1  0.88412700  0.38079600  0.01033900  1
  C  C93  1  0.88806000  0.38560100  0.50545300  1
  C  C94  1  0.89544600  0.88779900  0.01412400  1
  C  C95  1  0.88891600  0.88668300  0.50566200  1
  C  C96  1  0.09305300  0.09458200  0.13911700  1
  C  C97  1  0.08272300  0.09413400  0.64181700  1
  C  C98  1  0.08940900  0.60211100  0.14255600  1
  C  C99  1  0.08178100  0.59245000  0.63982000  1
  C  C100  1  0.59199700  0.09470000  0.14061900  1
  C  C101  1  0.58057900  0.09220200  0.63903700  1
  C  C102  1  0.58514600  0.59677800  0.14121900  1
  C  C103  1  0.58317900  0.59461900  0.64207200  1
  C  C104  1  0.44121800  0.40660900  0.35640500  1
  C  C105  1  0.44004800  0.40588700  0.85857600  1
  C  C106  1  0.43700300  0.90888500  0.35581800  1
  C  C107  1  0.44172900  0.90540900  0.85914500  1
  C  C108  1  0.94183100  0.40571200  0.36036900  1
  C  C109  1  0.94275900  0.40504300  0.85912100  1
  C  C110  1  0.94118200  0.90687000  0.35531200  1
  C  C111  1  0.94298100  0.90267600  0.85815700  1
  C  C112  1  0.33388900  0.28529100  0.14273500  1
  C  C113  1  0.33174000  0.29741700  0.64031000  1
  C  C114  1  0.33374600  0.78443100  0.14160900  1
  C  C115  1  0.33367100  0.79782000  0.64252200  1
  C  C116  1  0.83567200  0.28871800  0.14525900  1
  C  C117  1  0.83307500  0.29687500  0.64252500  1
  C  C118  1  0.84015400  0.79460700  0.14128400  1
  C  C119  1  0.83243200  0.79713600  0.64037500  1
  C  C120  1  0.18894200  0.19691800  0.35420700  1
  C  C121  1  0.19135600  0.20367800  0.85979900  1
  C  C122  1  0.19114100  0.70420900  0.35746000  1
  C  C123  1  0.19205200  0.70356900  0.85820700  1
  C  C124  1  0.68496000  0.20109800  0.35507800  1
  C  C125  1  0.69263200  0.20304700  0.85681300  1
  C  C126  1  0.68688900  0.70219400  0.35731700  1
  C  C127  1  0.69405600  0.70494600  0.85954500  1
  C  C128  1  0.42205300  0.06037400  0.23974900  1
  C  C129  1  0.43157300  0.06588400  0.75094200  1
  C  C130  1  0.42266700  0.56256700  0.24118700  1
  C  C131  1  0.43162100  0.56563400  0.75085300  1
  C  C132  1  0.92317300  0.06666900  0.24089800  1
  C  C133  1  0.93128000  0.06474000  0.75095500  1
  C  C134  1  0.93337900  0.56079700  0.24862000  1
  C  C135  1  0.93157200  0.56486700  0.75053800  1
  C  C136  1  0.18154700  0.43669900  0.24917400  1
  C  C137  1  0.18054300  0.43540900  0.75024500  1
  C  C138  1  0.16991500  0.92568700  0.24127600  1
  C  C139  1  0.18154800  0.93598800  0.75085300  1
  C  C140  1  0.68139800  0.43721000  0.24985400  1
  C  C141  1  0.68148100  0.43631300  0.75105700  1
  C  C142  1  0.68136800  0.93584100  0.24914900  1
  C  C143  1  0.68118000  0.93517300  0.74993600  1
