# generated using pymatgen
data_CuNiC8
_symmetry_space_group_name_H-M   'P 1'
_cell_length_a   3.78271000
_cell_length_b   9.60917400
_cell_length_c   9.65705747
_cell_angle_alpha   60.39839641
_cell_angle_beta   90.00000000
_cell_angle_gamma   90.00000000
_symmetry_Int_Tables_number   1
_chemical_formula_structural   CuNiC8
_chemical_formula_sum   'Cu2 Ni2 C16'
_cell_volume   305.20670455
_cell_formula_units_Z   2
loop_
 _symmetry_equiv_pos_site_id
 _symmetry_equiv_pos_as_xyz
  1  'x, y, z'
loop_
 _atom_site_type_symbol
 _atom_site_label
 _atom_site_symmetry_multiplicity
 _atom_site_fract_x
 _atom_site_fract_y
 _atom_site_fract_z
 _atom_site_occupancy
  C  C0  1  0.00000000  0.58283700  0.13319300  1
  C  C1  1  0.00000000  0.13199300  0.27225400  1
  C  C2  1  0.00000000  0.29879300  0.58532500  1
  C  C3  1  0.50000000  0.40509000  0.89583100  1
  C  C4  1  0.50000000  0.87704200  0.71424300  1
  C  C5  1  0.50000000  0.70413400  0.40314300  1
  Ni  Ni6  1  0.00000000  0.67138600  0.66716500  1
  Ni  Ni7  1  0.50000000  0.32648700  0.33864400  1
  Cu  Cu8  1  0.00000000  0.56370600  0.38740300  1
  Cu  Cu9  1  0.00000000  0.38369500  0.05202600  1
  C  C10  1  0.00000000  0.84075200  0.87936300  1
  C  C11  1  0.00000000  0.88720700  0.27355200  1
  C  C12  1  0.00000000  0.27586800  0.83763200  1
  C  C13  1  0.50000000  0.14566400  0.11871500  1
  C  C14  1  0.50000000  0.12177200  0.71484600  1
  C  C15  1  0.50000000  0.72711300  0.14921200  1
  C  C16  1  0.00000000  0.04786700  0.56615600  1
  C  C17  1  0.50000000  0.43116800  0.62559600  1
  C  C18  1  0.50000000  0.62241400  0.95241900  1
  C  C19  1  0.50000000  0.95501000  0.43328400  1
