# generated using pymatgen
data_Cu12Ni2C5
_symmetry_space_group_name_H-M   'P 1'
_cell_length_a   10.65596400
_cell_length_b   10.65596400
_cell_length_c   10.65596400
_cell_angle_alpha   90.00000000
_cell_angle_beta   90.00000000
_cell_angle_gamma   90.00000000
_symmetry_Int_Tables_number   1
_chemical_formula_structural   Cu12Ni2C5
_chemical_formula_sum   'Cu48 Ni8 C20'
_cell_volume   1209.98011702
_cell_formula_units_Z   4
loop_
 _symmetry_equiv_pos_site_id
 _symmetry_equiv_pos_as_xyz
  1  'x, y, z'
loop_
 _atom_site_type_symbol
 _atom_site_label
 _atom_site_symmetry_multiplicity
 _atom_site_fract_x
 _atom_site_fract_y
 _atom_site_fract_z
 _atom_site_occupancy
  C  C0  1  0.01763700  0.21606600  0.37534100  1
  C  C1  1  0.48236300  0.78393400  0.87534100  1
  C  C2  1  0.98236300  0.71606600  0.12465900  1
  C  C3  1  0.37534100  0.01763700  0.21606600  1
  C  C4  1  0.51763700  0.28393400  0.62465900  1
  C  C5  1  0.87534100  0.48236300  0.78393400  1
  C  C6  1  0.12465900  0.98236300  0.71606600  1
  C  C7  1  0.62465900  0.51763700  0.28393400  1
  C  C8  1  0.21606600  0.37534100  0.01763700  1
  C  C9  1  0.71606600  0.12465900  0.98236300  1
  C  C10  1  0.28393400  0.62465900  0.51763700  1
  C  C11  1  0.78393400  0.87534100  0.48236300  1
  C  C12  1  0.33505000  0.33505000  0.33505000  1
  C  C13  1  0.16495000  0.66495000  0.83505000  1
  C  C14  1  0.66495000  0.83505000  0.16495000  1
  C  C15  1  0.83505000  0.16495000  0.66495000  1
  C  C16  1  0.59875800  0.59875800  0.59875800  1
  C  C17  1  0.90124200  0.40124200  0.09875800  1
  C  C18  1  0.40124200  0.09875800  0.90124200  1
  C  C19  1  0.09875800  0.90124200  0.40124200  1
  Ni  Ni20  1  0.04851800  0.04851800  0.04851800  1
  Ni  Ni21  1  0.45148200  0.95148200  0.54851800  1
  Ni  Ni22  1  0.95148200  0.54851800  0.45148200  1
  Ni  Ni23  1  0.54851800  0.45148200  0.95148200  1
  Ni  Ni24  1  0.81665600  0.81665600  0.81665600  1
  Ni  Ni25  1  0.68334400  0.18334400  0.31665600  1
  Ni  Ni26  1  0.18334400  0.31665600  0.68334400  1
  Ni  Ni27  1  0.31665600  0.68334400  0.18334400  1
  Cu  Cu28  1  0.00981100  0.07673000  0.32978200  1
  Cu  Cu29  1  0.49018900  0.92327000  0.82978200  1
  Cu  Cu30  1  0.99018900  0.57673000  0.17021800  1
  Cu  Cu31  1  0.32978200  0.00981100  0.07673000  1
  Cu  Cu32  1  0.50981100  0.42327000  0.67021800  1
  Cu  Cu33  1  0.82978200  0.49018900  0.92327000  1
  Cu  Cu34  1  0.17021800  0.99018900  0.57673000  1
  Cu  Cu35  1  0.67021800  0.50981100  0.42327000  1
  Cu  Cu36  1  0.07673000  0.32978200  0.00981100  1
  Cu  Cu37  1  0.57673000  0.17021800  0.99018900  1
  Cu  Cu38  1  0.42327000  0.67021800  0.50981100  1
  Cu  Cu39  1  0.92327000  0.82978200  0.49018900  1
  Cu  Cu40  1  0.26605500  0.50079800  0.44211400  1
  Cu  Cu41  1  0.23394500  0.49920200  0.94211400  1
  Cu  Cu42  1  0.73394500  0.00079800  0.05788600  1
  Cu  Cu43  1  0.44211400  0.26605500  0.50079800  1
  Cu  Cu44  1  0.76605500  0.99920200  0.55788600  1
  Cu  Cu45  1  0.94211400  0.23394500  0.49920200  1
  Cu  Cu46  1  0.05788600  0.73394500  0.00079800  1
  Cu  Cu47  1  0.55788600  0.76605500  0.99920200  1
  Cu  Cu48  1  0.50079800  0.44211400  0.26605500  1
  Cu  Cu49  1  0.00079800  0.05788600  0.73394500  1
  Cu  Cu50  1  0.99920200  0.55788600  0.76605500  1
  Cu  Cu51  1  0.49920200  0.94211400  0.23394500  1
  Cu  Cu52  1  0.04180800  0.80309300  0.22494600  1
  Cu  Cu53  1  0.45819200  0.19690700  0.72494600  1
  Cu  Cu54  1  0.95819200  0.30309300  0.27505400  1
  Cu  Cu55  1  0.22494600  0.04180800  0.80309300  1
  Cu  Cu56  1  0.54180800  0.69690700  0.77505400  1
  Cu  Cu57  1  0.72494600  0.45819200  0.19690700  1
  Cu  Cu58  1  0.27505400  0.95819200  0.30309300  1
  Cu  Cu59  1  0.77505400  0.54180800  0.69690700  1
  Cu  Cu60  1  0.80309300  0.22494600  0.04180800  1
  Cu  Cu61  1  0.30309300  0.27505400  0.95819200  1
  Cu  Cu62  1  0.69690700  0.77505400  0.54180800  1
  Cu  Cu63  1  0.19690700  0.72494600  0.45819200  1
  Cu  Cu64  1  0.15648900  0.25245100  0.40294700  1
  Cu  Cu65  1  0.34351100  0.74754900  0.90294700  1
  Cu  Cu66  1  0.84351100  0.75245100  0.09705300  1
  Cu  Cu67  1  0.40294700  0.15648900  0.25245100  1
  Cu  Cu68  1  0.65648900  0.24754900  0.59705300  1
  Cu  Cu69  1  0.90294700  0.34351100  0.74754900  1
  Cu  Cu70  1  0.09705300  0.84351100  0.75245100  1
  Cu  Cu71  1  0.59705300  0.65648900  0.24754900  1
  Cu  Cu72  1  0.25245100  0.40294700  0.15648900  1
  Cu  Cu73  1  0.75245100  0.09705300  0.84351100  1
  Cu  Cu74  1  0.24754900  0.59705300  0.65648900  1
  Cu  Cu75  1  0.74754900  0.90294700  0.34351100  1
