# generated using pymatgen
data_Cu2Ni12C7
_symmetry_space_group_name_H-M   'P 1'
_cell_length_a   7.39729098
_cell_length_b   7.39729098
_cell_length_c   7.39729051
_cell_angle_alpha   60.84071609
_cell_angle_beta   60.84071609
_cell_angle_gamma   60.84072032
_symmetry_Int_Tables_number   1
_chemical_formula_structural   Cu2Ni12C7
_chemical_formula_sum   'Cu2 Ni12 C7'
_cell_volume   291.64806254
_cell_formula_units_Z   1
loop_
 _symmetry_equiv_pos_site_id
 _symmetry_equiv_pos_as_xyz
  1  'x, y, z'
loop_
 _atom_site_type_symbol
 _atom_site_label
 _atom_site_symmetry_multiplicity
 _atom_site_fract_x
 _atom_site_fract_y
 _atom_site_fract_z
 _atom_site_occupancy
  C  C0  1  0.00000000  0.50000000  0.50000000  1
  C  C1  1  0.50000000  0.50000000  0.00000000  1
  C  C2  1  0.50000000  0.00000000  0.50000000  1
  C  C3  1  0.00000000  0.00000000  0.00000000  1
  C  C4  1  0.50000000  0.00000000  0.00000000  1
  C  C5  1  0.00000000  0.00000000  0.50000000  1
  C  C6  1  0.00000000  0.50000000  0.00000000  1
  Ni  Ni7  1  0.94412500  0.31455900  0.31455900  1
  Ni  Ni8  1  0.31816700  0.92897700  0.92897700  1
  Ni  Ni9  1  0.31455900  0.31455900  0.94412500  1
  Ni  Ni10  1  0.92897700  0.92897700  0.31816700  1
  Ni  Ni11  1  0.92897700  0.31816700  0.92897700  1
  Ni  Ni12  1  0.31455900  0.94412500  0.31455900  1
  Ni  Ni13  1  0.05587500  0.68544100  0.68544100  1
  Ni  Ni14  1  0.68183300  0.07102300  0.07102300  1
  Ni  Ni15  1  0.68544100  0.68544100  0.05587500  1
  Ni  Ni16  1  0.07102300  0.07102300  0.68183300  1
  Ni  Ni17  1  0.07102300  0.68183300  0.07102300  1
  Ni  Ni18  1  0.68544100  0.05587500  0.68544100  1
  Cu  Cu19  1  0.36253200  0.36253200  0.36253200  1
  Cu  Cu20  1  0.63746800  0.63746800  0.63746800  1
