# generated using pymatgen
data_CuNiC5
_symmetry_space_group_name_H-M   'P 1'
_cell_length_a   6.79048696
_cell_length_b   6.79048696
_cell_length_c   5.40911500
_cell_angle_alpha   90.00000000
_cell_angle_beta   90.00000000
_cell_angle_gamma   133.18976843
_symmetry_Int_Tables_number   1
_chemical_formula_structural   CuNiC5
_chemical_formula_sum   'Cu2 Ni2 C10'
_cell_volume   181.84849320
_cell_formula_units_Z   2
loop_
 _symmetry_equiv_pos_site_id
 _symmetry_equiv_pos_as_xyz
  1  'x, y, z'
loop_
 _atom_site_type_symbol
 _atom_site_label
 _atom_site_symmetry_multiplicity
 _atom_site_fract_x
 _atom_site_fract_y
 _atom_site_fract_z
 _atom_site_occupancy
  Ni  Ni0  1  0.89409900  0.10590100  0.25000000  1
  Ni  Ni1  1  0.10590100  0.89409900  0.75000000  1
  Cu  Cu2  1  0.38542500  0.61457500  0.75000000  1
  Cu  Cu3  1  0.61457500  0.38542500  0.25000000  1
  C  C4  1  0.24969400  0.75030600  0.25000000  1
  C  C5  1  0.75030600  0.24969400  0.75000000  1
  C  C6  1  0.57461100  0.42538900  0.75000000  1
  C  C7  1  0.08867100  0.91132900  0.25000000  1
  C  C8  1  0.42538900  0.57461100  0.25000000  1
  C  C9  1  0.91132900  0.08867100  0.75000000  1
  C  C10  1  0.00000000  0.50000000  0.00000000  1
  C  C11  1  0.50000000  0.00000000  0.50000000  1
  C  C12  1  0.00000000  0.50000000  0.50000000  1
  C  C13  1  0.50000000  0.00000000  0.00000000  1
