# generated using pymatgen
data_Cu3NiC5
_symmetry_space_group_name_H-M   'P 1'
_cell_length_a   6.44920600
_cell_length_b   9.47945402
_cell_length_c   9.47739576
_cell_angle_alpha   120.00718914
_cell_angle_beta   90.00000000
_cell_angle_gamma   90.00000000
_symmetry_Int_Tables_number   1
_chemical_formula_structural   Cu3NiC5
_chemical_formula_sum   'Cu6 Ni2 C10'
_cell_volume   501.73887953
_cell_formula_units_Z   2
loop_
 _symmetry_equiv_pos_site_id
 _symmetry_equiv_pos_as_xyz
  1  'x, y, z'
loop_
 _atom_site_type_symbol
 _atom_site_label
 _atom_site_symmetry_multiplicity
 _atom_site_fract_x
 _atom_site_fract_y
 _atom_site_fract_z
 _atom_site_occupancy
  C  C0  1  0.74986700  0.26470700  0.00000000  1
  C  C1  1  0.75008300  0.73526000  0.73524700  1
  C  C2  1  0.75008300  0.00001200  0.26475300  1
  C  C3  1  0.24986700  0.73529300  0.00000000  1
  C  C4  1  0.25008300  0.26474000  0.26475300  1
  C  C5  1  0.25008300  0.99998800  0.73524700  1
  C  C6  1  0.50002000  0.33330500  0.66656600  1
  C  C7  1  0.50002000  0.66673900  0.33343400  1
  C  C8  1  0.00002000  0.66669500  0.33343400  1
  C  C9  1  0.00002000  0.33326100  0.66656600  1
  Ni  Ni10  1  0.49984600  0.99995800  0.00000000  1
  Ni  Ni11  1  0.99984600  0.00004200  0.00000000  1
  Cu  Cu12  1  0.75012100  0.61551600  0.00000000  1
  Cu  Cu13  1  0.74998000  0.38446500  0.38437100  1
  Cu  Cu14  1  0.74998000  0.00009500  0.61562900  1
  Cu  Cu15  1  0.25012100  0.38448400  0.00000000  1
  Cu  Cu16  1  0.24998000  0.61553500  0.61562900  1
  Cu  Cu17  1  0.24998000  0.99990500  0.38437100  1
