# generated using pymatgen
data_CuNiC8
_symmetry_space_group_name_H-M   'P 1'
_cell_length_a   5.92063701
_cell_length_b   5.90202176
_cell_length_c   8.35416221
_cell_angle_alpha   90.12452591
_cell_angle_beta   89.99290872
_cell_angle_gamma   89.79601096
_symmetry_Int_Tables_number   1
_chemical_formula_structural   CuNiC8
_chemical_formula_sum   'Cu2 Ni2 C16'
_cell_volume   291.92303374
_cell_formula_units_Z   2
loop_
 _symmetry_equiv_pos_site_id
 _symmetry_equiv_pos_as_xyz
  1  'x, y, z'
loop_
 _atom_site_type_symbol
 _atom_site_label
 _atom_site_symmetry_multiplicity
 _atom_site_fract_x
 _atom_site_fract_y
 _atom_site_fract_z
 _atom_site_occupancy
  Ni  Ni0  1  0.99847847  0.00695000  0.24933033  1
  Ni  Ni1  1  0.00152153  0.99305000  0.75066967  1
  Cu  Cu2  1  0.49927280  0.50927094  0.25104356  1
  Cu  Cu3  1  0.50072720  0.49072906  0.74895644  1
  C  C4  1  0.50000000  -0.00000000  -0.00000000  1
  C  C5  1  -0.00000000  0.50000000  0.50000000  1
  C  C6  1  -0.00000000  0.50000000  -0.00000000  1
  C  C7  1  0.50000000  -0.00000000  0.50000000  1
  C  C8  1  0.21157063  0.25767538  0.97966073  1
  C  C9  1  0.29508569  0.74918321  0.51982297  1
  C  C10  1  0.78842937  0.74232462  0.02033927  1
  C  C11  1  0.70491431  0.25081679  0.48017703  1
  C  C12  1  0.24803461  0.70689463  0.97811307  1
  C  C13  1  0.25979591  0.21368623  0.51897811  1
  C  C14  1  0.75196539  0.29310537  0.02188693  1
  C  C15  1  0.74020409  0.78631377  0.48102189  1
  C  C16  1  0.46538533  0.99427256  0.27396712  1
  C  C17  1  0.04623029  0.49891865  0.22607800  1
  C  C18  1  0.53461467  0.00572744  0.72603288  1
  C  C19  1  0.95376971  0.50108135  0.77392200  1
