# generated using pymatgen
data_Cu3NiC20
_symmetry_space_group_name_H-M   'P 1'
_cell_length_a   5.81119655
_cell_length_b   5.81119655
_cell_length_c   11.84676000
_cell_angle_alpha   90.00000000
_cell_angle_beta   90.00000000
_cell_angle_gamma   120.00000629
_symmetry_Int_Tables_number   1
_chemical_formula_structural   Cu3NiC20
_chemical_formula_sum   'Cu3 Ni1 C20'
_cell_volume   346.46656008
_cell_formula_units_Z   1
loop_
 _symmetry_equiv_pos_site_id
 _symmetry_equiv_pos_as_xyz
  1  'x, y, z'
loop_
 _atom_site_type_symbol
 _atom_site_label
 _atom_site_symmetry_multiplicity
 _atom_site_fract_x
 _atom_site_fract_y
 _atom_site_fract_z
 _atom_site_occupancy
  C  C0  1  0.66666700  0.33333300  0.42531600  1
  C  C1  1  0.00000000  0.00000000  0.57480400  1
  C  C2  1  0.33333300  0.66666700  0.00205600  1
  C  C3  1  0.66666700  0.33333300  0.79496900  1
  C  C4  1  0.00000000  0.00000000  0.21400900  1
  Ni  Ni5  1  0.66666700  0.33333300  0.10572300  1
  Cu  Cu6  1  0.33333300  0.66666700  0.68398100  1
  Cu  Cu7  1  0.33333300  0.66666700  0.30741000  1
  Cu  Cu8  1  0.00000000  0.00000000  0.90182700  1
  C  C9  1  0.00270800  0.50135400  0.61039200  1
  C  C10  1  0.49864600  0.50135400  0.61039200  1
  C  C11  1  0.49864600  0.99729200  0.61039200  1
  C  C12  1  0.67591000  0.83795500  0.37632200  1
  C  C13  1  0.16204500  0.83795500  0.37632200  1
  C  C14  1  0.16204500  0.32409000  0.37632200  1
  C  C15  1  0.99455800  0.49727900  0.19292500  1
  C  C16  1  0.50272100  0.49727900  0.19292500  1
  C  C17  1  0.50272100  0.00544200  0.19292500  1
  C  C18  1  0.67066400  0.83533200  0.80890800  1
  C  C19  1  0.16466800  0.83533200  0.80890800  1
  C  C20  1  0.16466800  0.32933600  0.80890800  1
  C  C21  1  0.83585800  0.16414200  0.00808600  1
  C  C22  1  0.83585800  0.67171500  0.00808600  1
  C  C23  1  0.32828500  0.16414200  0.00808600  1
