# generated using pymatgen
data_Cu2Ni5C6
_symmetry_space_group_name_H-M   'P 1'
_cell_length_a   10.52756800
_cell_length_b   10.52756800
_cell_length_c   5.67542400
_cell_angle_alpha   90.00000000
_cell_angle_beta   90.00000000
_cell_angle_gamma   90.00000000
_symmetry_Int_Tables_number   1
_chemical_formula_structural   Cu2Ni5C6
_chemical_formula_sum   'Cu8 Ni20 C24'
_cell_volume   629.00547116
_cell_formula_units_Z   4
loop_
 _symmetry_equiv_pos_site_id
 _symmetry_equiv_pos_as_xyz
  1  'x, y, z'
loop_
 _atom_site_type_symbol
 _atom_site_label
 _atom_site_symmetry_multiplicity
 _atom_site_fract_x
 _atom_site_fract_y
 _atom_site_fract_z
 _atom_site_occupancy
  Ni  Ni0  1  0.27434300  0.10303300  0.84850900  1
  Ni  Ni1  1  0.22565700  0.60303300  0.84850900  1
  Ni  Ni2  1  0.72565700  0.89696700  0.84850900  1
  Ni  Ni3  1  0.77434300  0.39696700  0.84850900  1
  Ni  Ni4  1  0.89696700  0.27434300  0.15149100  1
  Ni  Ni5  1  0.60303300  0.77434300  0.15149100  1
  Ni  Ni6  1  0.10303300  0.72565700  0.15149100  1
  Ni  Ni7  1  0.39696700  0.22565700  0.15149100  1
  Ni  Ni8  1  0.50000000  0.00000000  0.00000000  1
  Ni  Ni9  1  0.00000000  0.50000000  0.00000000  1
  Ni  Ni10  1  0.40274200  0.39477100  0.67822400  1
  Ni  Ni11  1  0.09725800  0.89477100  0.67822400  1
  Ni  Ni12  1  0.59725800  0.60522900  0.67822400  1
  Ni  Ni13  1  0.90274200  0.10522900  0.67822400  1
  Ni  Ni14  1  0.60522900  0.40274200  0.32177600  1
  Ni  Ni15  1  0.89477100  0.90274200  0.32177600  1
  Ni  Ni16  1  0.39477100  0.59725800  0.32177600  1
  Ni  Ni17  1  0.10522900  0.09725800  0.32177600  1
  Ni  Ni18  1  0.50000000  0.00000000  0.50000000  1
  Ni  Ni19  1  0.00000000  0.50000000  0.50000000  1
  Cu  Cu20  1  0.60436100  0.22754700  0.75144300  1
  Cu  Cu21  1  0.89563900  0.72754700  0.75144300  1
  Cu  Cu22  1  0.39563900  0.77245300  0.75144300  1
  Cu  Cu23  1  0.10436100  0.27245300  0.75144300  1
  Cu  Cu24  1  0.77245300  0.60436100  0.24855700  1
  Cu  Cu25  1  0.72754700  0.10436100  0.24855700  1
  Cu  Cu26  1  0.22754700  0.39563900  0.24855700  1
  Cu  Cu27  1  0.27245300  0.89563900  0.24855700  1
  C  C28  1  0.45504700  0.16715000  0.80873000  1
  C  C29  1  0.04495300  0.66715000  0.80873000  1
  C  C30  1  0.54495300  0.83285000  0.80873000  1
  C  C31  1  0.95504700  0.33285000  0.80873000  1
  C  C32  1  0.83285000  0.45504700  0.19127000  1
  C  C33  1  0.66715000  0.95504700  0.19127000  1
  C  C34  1  0.16715000  0.54495300  0.19127000  1
  C  C35  1  0.33285000  0.04495300  0.19127000  1
  C  C36  1  0.60419100  0.39391500  0.69581800  1
  C  C37  1  0.89580900  0.89391500  0.69581800  1
  C  C38  1  0.39580900  0.60608500  0.69581800  1
  C  C39  1  0.10419200  0.10608500  0.69581800  1
  C  C40  1  0.60608500  0.60419100  0.30418200  1
  C  C41  1  0.89391500  0.10419200  0.30418200  1
  C  C42  1  0.39391500  0.39580900  0.30418200  1
  C  C43  1  0.10608500  0.89580900  0.30418200  1
  C  C44  1  0.20824000  0.29176000  0.00000000  1
  C  C45  1  0.29176000  0.79176000  0.00000000  1
  C  C46  1  0.79176000  0.70824000  0.00000000  1
  C  C47  1  0.70824000  0.20824000  0.00000000  1
  C  C48  1  0.64595100  0.14595100  0.50000000  1
  C  C49  1  0.85404900  0.64595100  0.50000000  1
  C  C50  1  0.35404900  0.85404900  0.50000000  1
  C  C51  1  0.14595100  0.35404900  0.50000000  1
