# generated using pymatgen
data_CuNiC8
_symmetry_space_group_name_H-M   'P 1'
_cell_length_a   5.42953600
_cell_length_b   5.46773900
_cell_length_c   7.68299300
_cell_angle_alpha   90.00000000
_cell_angle_beta   90.00000000
_cell_angle_gamma   90.00000000
_symmetry_Int_Tables_number   1
_chemical_formula_structural   CuNiC8
_chemical_formula_sum   'Cu2 Ni2 C16'
_cell_volume   228.08720852
_cell_formula_units_Z   2
loop_
 _symmetry_equiv_pos_site_id
 _symmetry_equiv_pos_as_xyz
  1  'x, y, z'
loop_
 _atom_site_type_symbol
 _atom_site_label
 _atom_site_symmetry_multiplicity
 _atom_site_fract_x
 _atom_site_fract_y
 _atom_site_fract_z
 _atom_site_occupancy
  Ni  Ni0  1  0.01154900  0.24589100  0.50000000  1
  Ni  Ni1  1  0.51154900  0.75410900  0.50000000  1
  Cu  Cu2  1  0.99422700  0.24950000  0.00000000  1
  Cu  Cu3  1  0.49422700  0.75050000  0.00000000  1
  C  C4  1  0.50133200  0.25040900  0.75430900  1
  C  C5  1  0.00133200  0.74959100  0.24569100  1
  C  C6  1  0.50133200  0.25040900  0.24569100  1
  C  C7  1  0.00133200  0.74959100  0.75430900  1
  C  C8  1  0.22941700  0.48071900  0.78524600  1
  C  C9  1  0.72941700  0.51928100  0.21475400  1
  C  C10  1  0.76884400  0.02002600  0.26741400  1
  C  C11  1  0.26884400  0.97997400  0.73258600  1
  C  C12  1  0.76884400  0.02002600  0.73258600  1
  C  C13  1  0.26884400  0.97997400  0.26741400  1
  C  C14  1  0.22941700  0.48071900  0.21475400  1
  C  C15  1  0.72941700  0.51928100  0.78524600  1
  C  C16  1  0.49795000  0.18799100  0.00000000  1
  C  C17  1  0.99795000  0.81200900  0.00000000  1
  C  C18  1  0.49709000  0.29177900  0.50000000  1
  C  C19  1  0.99709000  0.70822100  0.50000000  1
