# generated using pymatgen
data_Cu3NiC16
_symmetry_space_group_name_H-M   'P 1'
_cell_length_a   4.01699500
_cell_length_b   4.01699500
_cell_length_c   19.67836800
_cell_angle_alpha   90.00000000
_cell_angle_beta   90.00000000
_cell_angle_gamma   90.00000000
_symmetry_Int_Tables_number   1
_chemical_formula_structural   Cu3NiC16
_chemical_formula_sum   'Cu3 Ni1 C16'
_cell_volume   317.53504262
_cell_formula_units_Z   1
loop_
 _symmetry_equiv_pos_site_id
 _symmetry_equiv_pos_as_xyz
  1  'x, y, z'
loop_
 _atom_site_type_symbol
 _atom_site_label
 _atom_site_symmetry_multiplicity
 _atom_site_fract_x
 _atom_site_fract_y
 _atom_site_fract_z
 _atom_site_occupancy
  Ni  Ni0  1  0.00000000  0.00000000  0.00000000  1
  Cu  Cu1  1  0.50000000  0.50000000  0.25101800  1
  Cu  Cu2  1  0.00000000  0.00000000  0.50000000  1
  Cu  Cu3  1  0.50000000  0.50000000  0.74898200  1
  C  C4  1  0.00000000  0.50000000  0.12709100  1
  C  C5  1  0.50000000  0.00000000  0.37478100  1
  C  C6  1  0.00000000  0.50000000  0.62521900  1
  C  C7  1  0.50000000  0.00000000  0.87290900  1
  C  C8  1  0.50000000  0.00000000  0.12709100  1
  C  C9  1  0.00000000  0.50000000  0.37478100  1
  C  C10  1  0.50000000  0.00000000  0.62521900  1
  C  C11  1  0.00000000  0.50000000  0.87290900  1
  C  C12  1  0.50000000  0.50000000  0.06488200  1
  C  C13  1  0.00000000  0.00000000  0.31419000  1
  C  C14  1  0.50000000  0.50000000  0.56378700  1
  C  C15  1  0.00000000  0.00000000  0.81350200  1
  C  C16  1  0.00000000  0.00000000  0.18649800  1
  C  C17  1  0.50000000  0.50000000  0.43621300  1
  C  C18  1  0.00000000  0.00000000  0.68581000  1
  C  C19  1  0.50000000  0.50000000  0.93511800  1
