# generated using pymatgen
data_Cu2Ni12C41
_symmetry_space_group_name_H-M   'P 1'
_cell_length_a   12.75381800
_cell_length_b   18.38495300
_cell_length_c   12.73672470
_cell_angle_alpha   90.00000000
_cell_angle_beta   116.77501479
_cell_angle_gamma   90.00000000
_symmetry_Int_Tables_number   1
_chemical_formula_structural   Cu2Ni12C41
_chemical_formula_sum   'Cu8 Ni48 C164'
_cell_volume   2666.28209615
_cell_formula_units_Z   4
loop_
 _symmetry_equiv_pos_site_id
 _symmetry_equiv_pos_as_xyz
  1  'x, y, z'
loop_
 _atom_site_type_symbol
 _atom_site_label
 _atom_site_symmetry_multiplicity
 _atom_site_fract_x
 _atom_site_fract_y
 _atom_site_fract_z
 _atom_site_occupancy
  C  C0  1  0.51632600  0.86585900  0.24367200  1
  C  C1  1  0.48367400  0.36585900  0.25632800  1
  C  C2  1  0.48367400  0.13414100  0.75632800  1
  C  C3  1  0.51632600  0.63414100  0.74367200  1
  C  C4  1  0.26870300  0.93082900  0.08751000  1
  C  C5  1  0.73129700  0.43082900  0.41249000  1
  C  C6  1  0.73129700  0.06917100  0.91249000  1
  C  C7  1  0.26870300  0.56917100  0.58751000  1
  C  C8  1  0.30259000  0.78818300  0.23376800  1
  C  C9  1  0.69741000  0.28818300  0.26623200  1
  C  C10  1  0.69741000  0.21181700  0.76623200  1
  C  C11  1  0.30259000  0.71181700  0.73376800  1
  C  C12  1  0.74976900  0.80551000  0.26206500  1
  C  C13  1  0.25023100  0.30551000  0.23793500  1
  C  C14  1  0.25023100  0.19449000  0.73793500  1
  C  C15  1  0.74976900  0.69449000  0.76206500  1
  C  C16  1  0.74414800  0.93302800  0.42513000  1
  C  C17  1  0.25585200  0.43302800  0.07487000  1
  C  C18  1  0.25585200  0.06697200  0.57487000  1
  C  C19  1  0.74414800  0.56697200  0.92513000  1
  C  C20  1  0.42372800  0.97798900  0.03648100  1
  C  C21  1  0.57627200  0.47798900  0.46351900  1
  C  C22  1  0.57627200  0.02201100  0.96351900  1
  C  C23  1  0.42372800  0.52201100  0.53648100  1
  C  C24  1  0.31745300  0.04571300  0.01595100  1
  C  C25  1  0.68254700  0.54571300  0.48404900  1
  C  C26  1  0.68254700  0.95428700  0.98404900  1
  C  C27  1  0.31745300  0.45428700  0.51595100  1
  C  C28  1  0.42719700  0.02600800  0.16031000  1
  C  C29  1  0.57280300  0.52600800  0.33969000  1
  C  C30  1  0.57280300  0.97399200  0.83969000  1
  C  C31  1  0.42719700  0.47399200  0.66031000  1
  C  C32  1  0.10309900  0.86132700  0.92948900  1
  C  C33  1  0.89690100  0.36132700  0.57051100  1
  C  C34  1  0.89690100  0.13867300  0.07051100  1
  C  C35  1  0.10309900  0.63867300  0.42948900  1
  C  C36  1  0.12130500  0.94822600  0.87968600  1
  C  C37  1  0.87869500  0.44822600  0.62031400  1
  C  C38  1  0.87869500  0.05177400  0.12031400  1
  C  C39  1  0.12130500  0.55177400  0.37968600  1
  C  C40  1  0.21830300  0.87658800  0.88922600  1
  C  C41  1  0.78169700  0.37658800  0.61077400  1
  C  C42  1  0.78169700  0.12341200  0.11077400  1
  C  C43  1  0.21830300  0.62341200  0.38922600  1
  C  C44  1  0.10830800  0.93529700  0.14912000  1
  C  C45  1  0.89169200  0.43529700  0.35088000  1
  C  C46  1  0.89169200  0.06470300  0.85088000  1
  C  C47  1  0.10830800  0.56470300  0.64912000  1
  C  C48  1  0.22198500  0.99766200  0.23350600  1
  C  C49  1  0.77801500  0.49766200  0.26649400  1
  C  C50  1  0.77801500  0.00233800  0.76649400  1
  C  C51  1  0.22198500  0.50233800  0.73350600  1
  C  C52  1  0.11955500  0.01908600  0.08642600  1
  C  C53  1  0.88044500  0.51908600  0.41357400  1
  C  C54  1  0.88044500  0.98091400  0.91357400  1
  C  C55  1  0.11955500  0.48091400  0.58642600  1
  C  C56  1  0.38647800  0.82630500  0.44417100  1
  C  C57  1  0.61352200  0.32630500  0.05582900  1
  C  C58  1  0.61352200  0.17369500  0.55582900  1
  C  C59  1  0.38647800  0.67369500  0.94417100  1
  C  C60  1  0.23594300  0.85245800  0.36646000  1
  C  C61  1  0.76405700  0.35245800  0.13354000  1
  C  C62  1  0.76405700  0.14754200  0.63354000  1
  C  C63  1  0.23594300  0.64754200  0.86646000  1
  C  C64  1  0.27369900  0.76051300  0.41030600  1
  C  C65  1  0.72630100  0.26051300  0.08969400  1
  C  C66  1  0.72630100  0.23948700  0.58969400  1
  C  C67  1  0.27369900  0.73948700  0.91030600  1
  C  C68  1  0.40551300  0.68998300  0.18083500  1
  C  C69  1  0.59448700  0.18998300  0.31916500  1
  C  C70  1  0.59448700  0.31001700  0.81916500  1
  C  C71  1  0.40551300  0.81001700  0.68083500  1
  C  C72  1  0.49264900  0.72031000  0.32908800  1
  C  C73  1  0.50735100  0.22031000  0.17091200  1
  C  C74  1  0.50735100  0.27969000  0.67091200  1
  C  C75  1  0.49264900  0.77969000  0.82908800  1
  C  C76  1  0.37039400  0.66247700  0.29528400  1
  C  C77  1  0.62960600  0.16247700  0.20471600  1
  C  C78  1  0.62960600  0.33752300  0.70471600  1
  C  C79  1  0.37039400  0.83752300  0.79528400  1
  C  C80  1  0.14651900  0.73984700  0.04408600  1
  C  C81  1  0.85348100  0.23984700  0.45591400  1
  C  C82  1  0.85348100  0.26015300  0.95591400  1
  C  C83  1  0.14651900  0.76015300  0.54408600  1
  C  C84  1  0.12819800  0.71007600  0.16772500  1
  C  C85  1  0.87180200  0.21007600  0.33227500  1
  C  C86  1  0.87180200  0.28992400  0.83227500  1
  C  C87  1  0.12819800  0.78992400  0.66772500  1
  C  C88  1  0.08481300  0.79944000  0.11269700  1
  C  C89  1  0.91518700  0.29944000  0.38730300  1
  C  C90  1  0.91518700  0.20056000  0.88730300  1
  C  C91  1  0.08481300  0.70056000  0.61269700  1
  C  C92  1  0.95130800  0.85975900  0.34405500  1
  C  C93  1  0.04869200  0.35975900  0.15594500  1
  C  C94  1  0.04869200  0.14024100  0.65594500  1
  C  C95  1  0.95130800  0.64024100  0.84405500  1
  C  C96  1  0.92210200  0.80328200  0.22100900  1
  C  C97  1  0.07789800  0.30328200  0.27899100  1
  C  C98  1  0.07789800  0.19671800  0.77899100  1
  C  C99  1  0.92210200  0.69671800  0.72100900  1
  C  C100  1  0.86176300  0.89244400  0.19871800  1
  C  C101  1  0.13823700  0.39244400  0.30128200  1
  C  C102  1  0.13823700  0.10755600  0.80128200  1
  C  C103  1  0.86176300  0.60755600  0.69871800  1
  C  C104  1  0.72566100  0.69405300  0.36297300  1
  C  C105  1  0.27433900  0.19405300  0.13702700  1
  C  C106  1  0.27433900  0.30594700  0.63702700  1
  C  C107  1  0.72566100  0.80594700  0.86297300  1
  C  C108  1  0.83940200  0.68199400  0.32020200  1
  C  C109  1  0.16059800  0.18199400  0.17979800  1
  C  C110  1  0.16059800  0.31800600  0.67979800  1
  C  C111  1  0.83940200  0.81800600  0.82020200  1
  C  C112  1  0.86558000  0.73458100  0.44643600  1
  C  C113  1  0.13442000  0.23458100  0.05356400  1
  C  C114  1  0.13442000  0.26541900  0.55356400  1
  C  C115  1  0.86558000  0.76541900  0.94643600  1
  C  C116  1  0.56409300  0.75316200  0.10366500  1
  C  C117  1  0.43590700  0.25316200  0.39633500  1
  C  C118  1  0.43590700  0.24683800  0.89633500  1
  C  C119  1  0.56409300  0.74683800  0.60366500  1
  C  C120  1  0.62216300  0.82251100  0.04652500  1
  C  C121  1  0.37783700  0.32251100  0.45347500  1
  C  C122  1  0.37783700  0.17748900  0.95347500  1
  C  C123  1  0.62216300  0.67748900  0.54652500  1
  C  C124  1  0.68627700  0.73462100  0.07658000  1
  C  C125  1  0.31372300  0.23462100  0.42342000  1
  C  C126  1  0.31372300  0.26537900  0.92342000  1
  C  C127  1  0.68627700  0.76537900  0.57658000  1
  C  C128  1  0.58946600  0.92306600  0.49528800  1
  C  C129  1  0.41053400  0.42306600  0.00471200  1
  C  C130  1  0.41053400  0.07693400  0.50471200  1
  C  C131  1  0.58946600  0.57693400  0.99528800  1
  C  C132  1  0.66590800  0.00714300  0.53727500  1
  C  C133  1  0.33409200  0.50714300  0.96272500  1
  C  C134  1  0.33409200  0.99285700  0.46272500  1
  C  C135  1  0.66590800  0.49285700  0.03727500  1
  C  C136  1  0.55749200  0.99493700  0.39053800  1
  C  C137  1  0.44250800  0.49493700  0.10946200  1
  C  C138  1  0.44250800  0.00506300  0.60946200  1
  C  C139  1  0.55749200  0.50506300  0.89053800  1
  C  C140  1  0.94177800  0.87710200  0.54553900  1
  C  C141  1  0.05822200  0.37710200  0.95446100  1
  C  C142  1  0.05822200  0.12289800  0.45446100  1
  C  C143  1  0.94177800  0.62289800  0.04553900  1
  C  C144  1  0.90295000  0.93859700  0.62935700  1
  C  C145  1  0.09705000  0.43859700  0.87064300  1
  C  C146  1  0.09705000  0.06140300  0.37064300  1
  C  C147  1  0.90295000  0.56140300  0.12935700  1
  C  C148  1  0.84061000  0.85011700  0.59944800  1
  C  C149  1  0.15939000  0.35011700  0.90055200  1
  C  C150  1  0.15939000  0.14988300  0.40055200  1
  C  C151  1  0.84061000  0.64988300  0.09944800  1
  C  C152  1  0.87619800  0.00322800  0.36233600  1
  C  C153  1  0.12380200  0.50322800  0.13766400  1
  C  C154  1  0.12380200  0.99677200  0.63766400  1
  C  C155  1  0.87619800  0.49677200  0.86233600  1
  C  C156  1  0.73346500  0.04265800  0.30459600  1
  C  C157  1  0.26653500  0.54265800  0.19540400  1
  C  C158  1  0.26653500  0.95734200  0.69540400  1
  C  C159  1  0.73346500  0.45734200  0.80459600  1
  C  C160  1  0.83439700  0.05552900  0.45454000  1
  C  C161  1  0.16560300  0.55552900  0.04546000  1
  C  C162  1  0.16560300  0.94447100  0.54546000  1
  C  C163  1  0.83439700  0.44447100  0.95454000  1
  Ni  Ni164  1  0.36929400  0.00150100  0.07490200  1
  Ni  Ni165  1  0.63070600  0.50150100  0.42509800  1
  Ni  Ni166  1  0.63070600  0.99849900  0.92509800  1
  Ni  Ni167  1  0.36929400  0.49849900  0.57490200  1
  Ni  Ni168  1  0.16911400  0.90070800  0.93258400  1
  Ni  Ni169  1  0.83088600  0.40070800  0.56741600  1
  Ni  Ni170  1  0.83088600  0.09929200  0.06741600  1
  Ni  Ni171  1  0.16911400  0.59929200  0.43258400  1
  Ni  Ni172  1  0.17109000  0.97474900  0.14493700  1
  Ni  Ni173  1  0.82891000  0.47474900  0.35506300  1
  Ni  Ni174  1  0.82891000  0.02525100  0.85506300  1
  Ni  Ni175  1  0.17109000  0.52525100  0.64493700  1
  Ni  Ni176  1  0.29934700  0.80919600  0.37697100  1
  Ni  Ni177  1  0.70065300  0.30919600  0.12302900  1
  Ni  Ni178  1  0.70065300  0.19080400  0.62302900  1
  Ni  Ni179  1  0.29934700  0.69080400  0.87697100  1
  Ni  Ni180  1  0.40298500  0.70806500  0.26189500  1
  Ni  Ni181  1  0.59701500  0.20806500  0.23810500  1
  Ni  Ni182  1  0.59701500  0.29193500  0.73810500  1
  Ni  Ni183  1  0.40298500  0.79193500  0.76189500  1
  Ni  Ni184  1  0.15108200  0.75719800  0.12860400  1
  Ni  Ni185  1  0.84891800  0.25719800  0.37139600  1
  Ni  Ni186  1  0.84891800  0.24280200  0.87139600  1
  Ni  Ni187  1  0.15108200  0.74280200  0.62860400  1
  Ni  Ni188  1  0.88352100  0.84460900  0.25625900  1
  Ni  Ni189  1  0.11647900  0.34460900  0.24374100  1
  Ni  Ni190  1  0.11647900  0.15539100  0.74374100  1
  Ni  Ni191  1  0.88352100  0.65539100  0.75625900  1
  Ni  Ni192  1  0.79913300  0.72147100  0.35704000  1
  Ni  Ni193  1  0.20086700  0.22147100  0.14296000  1
  Ni  Ni194  1  0.20086700  0.27852900  0.64296000  1
  Ni  Ni195  1  0.79913300  0.77852900  0.85704000  1
  Ni  Ni196  1  0.64553500  0.77651100  0.10821700  1
  Ni  Ni197  1  0.35446500  0.27651100  0.39178300  1
  Ni  Ni198  1  0.35446500  0.22348900  0.89178300  1
  Ni  Ni199  1  0.64553500  0.72348900  0.60821700  1
  Ni  Ni200  1  0.62810200  0.96711800  0.46554900  1
  Ni  Ni201  1  0.37189800  0.46711800  0.03445100  1
  Ni  Ni202  1  0.37189800  0.03288200  0.53445100  1
  Ni  Ni203  1  0.62810200  0.53288200  0.96554900  1
  Ni  Ni204  1  0.86859300  0.89553300  0.56186200  1
  Ni  Ni205  1  0.13140700  0.39553300  0.93813800  1
  Ni  Ni206  1  0.13140700  0.10446700  0.43813800  1
  Ni  Ni207  1  0.86859300  0.60446700  0.06186200  1
  Ni  Ni208  1  0.80243700  0.01585400  0.38161700  1
  Ni  Ni209  1  0.19756300  0.51585400  0.11838300  1
  Ni  Ni210  1  0.19756300  0.98414600  0.61838300  1
  Ni  Ni211  1  0.80243700  0.48414600  0.88161700  1
  Cu  Cu212  1  0.35415800  0.86096100  0.18056600  1
  Cu  Cu213  1  0.64584200  0.36096100  0.31943400  1
  Cu  Cu214  1  0.64584200  0.13903900  0.81943400  1
  Cu  Cu215  1  0.35415800  0.63903900  0.68056600  1
  Cu  Cu216  1  0.67902700  0.86862000  0.31207500  1
  Cu  Cu217  1  0.32097300  0.36862000  0.18792500  1
  Cu  Cu218  1  0.32097300  0.13138000  0.68792500  1
  Cu  Cu219  1  0.67902700  0.63138000  0.81207500  1
