# generated using pymatgen
data_Cu(NiC4)3
_symmetry_space_group_name_H-M   'P 1'
_cell_length_a   5.17703700
_cell_length_b   5.98331158
_cell_length_c   10.78264821
_cell_angle_alpha   106.02238872
_cell_angle_beta   94.59187159
_cell_angle_gamma   106.85090840
_symmetry_Int_Tables_number   1
_chemical_formula_structural   Cu(NiC4)3
_chemical_formula_sum   'Cu2 Ni6 C24'
_cell_volume   302.55531956
_cell_formula_units_Z   2
loop_
 _symmetry_equiv_pos_site_id
 _symmetry_equiv_pos_as_xyz
  1  'x, y, z'
loop_
 _atom_site_type_symbol
 _atom_site_label
 _atom_site_symmetry_multiplicity
 _atom_site_fract_x
 _atom_site_fract_y
 _atom_site_fract_z
 _atom_site_occupancy
  C  C0  1  0.87591100  0.56350600  0.12630800  1
  C  C1  1  0.12694000  0.93899000  0.87313500  1
  C  C2  1  0.62415100  0.18559100  0.37411700  1
  C  C3  1  0.37584900  0.81440900  0.62588300  1
  C  C4  1  0.87306000  0.06101000  0.12686500  1
  C  C5  1  0.12408900  0.43649400  0.87369200  1
  C  C6  1  0.62705200  0.69116100  0.37355800  1
  C  C7  1  0.37294800  0.30883900  0.62644200  1
  Ni  Ni8  1  0.49852600  0.74957300  0.00009500  1
  Ni  Ni9  1  0.24998700  0.37546100  0.25025800  1
  Ni  Ni10  1  0.00000000  0.00000000  0.50000000  1
  Ni  Ni11  1  0.50147400  0.25042700  0.99990500  1
  Ni  Ni12  1  0.75001300  0.62453900  0.74974200  1
  Ni  Ni13  1  0.00000000  0.50000000  0.50000000  1
  Cu  Cu14  1  0.25084300  0.87692000  0.25012400  1
  Cu  Cu15  1  0.74915700  0.12308000  0.74987600  1
  C  C16  1  0.70575300  0.15510100  0.56607200  1
  C  C17  1  0.29199700  0.33964400  0.43594400  1
  C  C18  1  0.20565400  0.40897700  0.06494400  1
  C  C19  1  0.79434600  0.59102300  0.93505600  1
  C  C20  1  0.03890400  0.96247600  0.68819000  1
  C  C21  1  0.45589300  0.78790800  0.81436800  1
  C  C22  1  0.96109600  0.03752400  0.31181000  1
  C  C23  1  0.54410700  0.21209200  0.18563200  1
  C  C24  1  0.70800300  0.66035600  0.56405600  1
  C  C25  1  0.29424700  0.84489900  0.43392800  1
  C  C26  1  0.20861000  0.91042600  0.06544900  1
  C  C27  1  0.79139000  0.08957400  0.93455100  1
  C  C28  1  0.46062400  0.28604400  0.81257500  1
  C  C29  1  0.95676000  0.54102900  0.31581100  1
  C  C30  1  0.04324000  0.45897100  0.68418900  1
  C  C31  1  0.53937600  0.71395600  0.18742500  1
