# generated using pymatgen
data_Cu11Ni2C
_symmetry_space_group_name_H-M   'P 1'
_cell_length_a   14.92530000
_cell_length_b   6.57659500
_cell_length_c   6.67428953
_cell_angle_alpha   60.89326138
_cell_angle_beta   90.00000000
_cell_angle_gamma   90.00000000
_symmetry_Int_Tables_number   1
_chemical_formula_structural   Cu11Ni2C
_chemical_formula_sum   'Cu22 Ni4 C2'
_cell_volume   572.39919002
_cell_formula_units_Z   2
loop_
 _symmetry_equiv_pos_site_id
 _symmetry_equiv_pos_as_xyz
  1  'x, y, z'
loop_
 _atom_site_type_symbol
 _atom_site_label
 _atom_site_symmetry_multiplicity
 _atom_site_fract_x
 _atom_site_fract_y
 _atom_site_fract_z
 _atom_site_occupancy
  C  C0  1  0.48343900  0.99203300  0.00332900  1
  C  C1  1  0.98343900  0.00796700  0.99667100  1
  Ni  Ni2  1  0.52498000  0.66031400  0.67771500  1
  Ni  Ni3  1  0.02498000  0.33968600  0.32228500  1
  Ni  Ni4  1  0.92671500  0.67208300  0.66938200  1
  Ni  Ni5  1  0.42671500  0.32791700  0.33061800  1
  Cu  Cu6  1  0.42868000  0.65857900  0.70025400  1
  Cu  Cu7  1  0.92868000  0.34142100  0.29974600  1
  Cu  Cu8  1  0.02357000  0.66807700  0.68781000  1
  Cu  Cu9  1  0.52357000  0.33192300  0.31219000  1
  Cu  Cu10  1  0.56646200  0.78050000  0.79012300  1
  Cu  Cu11  1  0.55966200  0.42174100  0.78550400  1
  Cu  Cu12  1  0.55149400  0.77896100  0.43664100  1
  Cu  Cu13  1  0.06646200  0.21950000  0.20987700  1
  Cu  Cu14  1  0.05966200  0.57825900  0.21449600  1
  Cu  Cu15  1  0.05149400  0.22103900  0.56335900  1
  Cu  Cu16  1  0.88814000  0.79534000  0.78269800  1
  Cu  Cu17  1  0.89127000  0.43383900  0.78008500  1
  Cu  Cu18  1  0.89874500  0.79068200  0.42860300  1
  Cu  Cu19  1  0.38814000  0.20466000  0.21730200  1
  Cu  Cu20  1  0.39127000  0.56616100  0.21991500  1
  Cu  Cu21  1  0.39874500  0.20931800  0.57139700  1
  Cu  Cu22  1  0.69633200  0.14575000  0.75881200  1
  Cu  Cu23  1  0.73693900  0.02180700  0.94830500  1
  Cu  Cu24  1  0.68857300  0.89430900  0.12776400  1
  Cu  Cu25  1  0.19633200  0.85425000  0.24118800  1
  Cu  Cu26  1  0.23693900  0.97819300  0.05169500  1
  Cu  Cu27  1  0.18857300  0.10569100  0.87223600  1
