# generated using pymatgen
data_Cu2Ni2C15
_symmetry_space_group_name_H-M   'P 1'
_cell_length_a   6.47422201
_cell_length_b   8.34716108
_cell_length_c   12.36721100
_cell_angle_alpha   90.00000000
_cell_angle_beta   90.00000000
_cell_angle_gamma   105.61268079
_symmetry_Int_Tables_number   1
_chemical_formula_structural   Cu2Ni2C15
_chemical_formula_sum   'Cu4 Ni4 C30'
_cell_volume   643.68131110
_cell_formula_units_Z   2
loop_
 _symmetry_equiv_pos_site_id
 _symmetry_equiv_pos_as_xyz
  1  'x, y, z'
loop_
 _atom_site_type_symbol
 _atom_site_label
 _atom_site_symmetry_multiplicity
 _atom_site_fract_x
 _atom_site_fract_y
 _atom_site_fract_z
 _atom_site_occupancy
  C  C0  1  0.00000000  0.50000000  0.50000000  1
  C  C1  1  0.00000000  0.00000000  0.00000000  1
  Ni  Ni2  1  0.80556400  0.96112700  0.35218800  1
  Ni  Ni3  1  0.19443600  0.53887300  0.85218800  1
  Ni  Ni4  1  0.19443600  0.03887300  0.64781200  1
  Ni  Ni5  1  0.80556400  0.46112700  0.14781200  1
  Cu  Cu6  1  0.38096000  0.66715600  0.19686500  1
  Cu  Cu7  1  0.61904000  0.83284400  0.69686500  1
  Cu  Cu8  1  0.61904000  0.33284400  0.80313500  1
  Cu  Cu9  1  0.38096000  0.16715600  0.30313500  1
  C  C10  1  0.38030500  0.80099900  0.17928200  1
  C  C11  1  0.61969500  0.69900100  0.67928200  1
  C  C12  1  0.61969500  0.19900100  0.82071800  1
  C  C13  1  0.38030500  0.30099900  0.32071800  1
  C  C14  1  0.76714700  0.09115200  0.42124700  1
  C  C15  1  0.23285300  0.40884800  0.92124700  1
  C  C16  1  0.23285300  0.90884800  0.57875300  1
  C  C17  1  0.76714700  0.59115200  0.07875300  1
  C  C18  1  0.60034900  0.67234800  0.44639000  1
  C  C19  1  0.39965100  0.82765200  0.94639000  1
  C  C20  1  0.39965100  0.32765200  0.55361000  1
  C  C21  1  0.60034900  0.17234800  0.05361000  1
  C  C22  1  0.01252000  0.92556500  0.36044100  1
  C  C23  1  0.98748000  0.57443500  0.86044100  1
  C  C24  1  0.98748000  0.07443500  0.63955900  1
  C  C25  1  0.01252000  0.42556500  0.13955900  1
  C  C26  1  0.16133700  0.58135100  0.37497900  1
  C  C27  1  0.83866300  0.91864900  0.87497900  1
  C  C28  1  0.83866300  0.41864900  0.62502100  1
  C  C29  1  0.16133700  0.08135100  0.12502100  1
  C  C30  1  0.07456400  0.41269000  0.37190800  1
  C  C31  1  0.92543600  0.08731000  0.87190800  1
  C  C32  1  0.92543600  0.58731000  0.62809200  1
  C  C33  1  0.07456400  0.91269000  0.12809200  1
  C  C34  1  0.32157000  0.43643400  0.59375400  1
  C  C35  1  0.67843000  0.06356600  0.09375400  1
  C  C36  1  0.67843000  0.56356600  0.40624600  1
  C  C37  1  0.32157000  0.93643400  0.90624600  1
