# generated using pymatgen
data_Cu3NiC40
_symmetry_space_group_name_H-M   'P 1'
_cell_length_a   7.06101700
_cell_length_b   8.31146379
_cell_length_c   9.75179090
_cell_angle_alpha   89.69793673
_cell_angle_beta   71.21598525
_cell_angle_gamma   89.46985509
_symmetry_Int_Tables_number   1
_chemical_formula_structural   Cu3NiC40
_chemical_formula_sum   'Cu3 Ni1 C40'
_cell_volume   541.80077169
_cell_formula_units_Z   1
loop_
 _symmetry_equiv_pos_site_id
 _symmetry_equiv_pos_as_xyz
  1  'x, y, z'
loop_
 _atom_site_type_symbol
 _atom_site_label
 _atom_site_symmetry_multiplicity
 _atom_site_fract_x
 _atom_site_fract_y
 _atom_site_fract_z
 _atom_site_occupancy
  C  C0  1  0.32625200  0.86251500  0.08638300  1
  C  C1  1  0.67546600  0.36191000  0.41199900  1
  C  C2  1  0.32439200  0.86192300  0.58818200  1
  C  C3  1  0.67597200  0.36144900  0.91225300  1
  Ni  Ni4  1  0.73148200  0.99889900  0.89234000  1
  Cu  Cu5  1  0.27169800  0.49933500  0.10702900  1
  Cu  Cu6  1  0.72806400  0.99969100  0.39281400  1
  Cu  Cu7  1  0.27189300  0.49933800  0.60786400  1
  C  C8  1  0.47785500  0.17963400  0.19967000  1
  C  C9  1  0.91236300  0.78464100  0.10690100  1
  C  C10  1  0.08619500  0.28412600  0.39336900  1
  C  C11  1  0.52183200  0.68061600  0.30002800  1
  C  C12  1  0.47795900  0.17908000  0.70078700  1
  C  C13  1  0.91230500  0.78326500  0.60799100  1
  C  C14  1  0.08657000  0.28559400  0.89384500  1
  C  C15  1  0.51960300  0.68032500  0.80065100  1
  C  C16  1  0.15131000  0.32560000  0.02446400  1
  C  C17  1  0.11265000  0.69605300  0.06673300  1
  C  C18  1  0.51821300  0.03720500  0.09371800  1
  C  C19  1  0.49386500  0.34295200  0.12354700  1
  C  C20  1  0.39465800  0.67782600  0.19859600  1
  C  C21  1  0.08346600  0.43331100  0.30003500  1
  C  C22  1  0.24799200  0.15342200  0.29753100  1
  C  C23  1  0.75266600  0.65432300  0.20209700  1
  C  C24  1  0.91481300  0.93330700  0.19907700  1
  C  C25  1  0.60493800  0.17731600  0.30163300  1
  C  C26  1  0.50622600  0.84315600  0.37675600  1
  C  C27  1  0.48315100  0.53846900  0.40650600  1
  C  C28  1  0.14888800  0.32477900  0.52456200  1
  C  C29  1  0.11372500  0.69605500  0.56612900  1
  C  C30  1  0.88651700  0.19641200  0.43319400  1
  C  C31  1  0.85131700  0.82529200  0.47548100  1
  C  C32  1  0.51739500  0.03817600  0.59361800  1
  C  C33  1  0.49442100  0.34206200  0.62371000  1
  C  C34  1  0.39518200  0.67599300  0.69698600  1
  C  C35  1  0.08551900  0.43469600  0.79974900  1
  C  C36  1  0.24765700  0.15400500  0.79790600  1
  C  C37  1  0.75179600  0.65438500  0.70300100  1
  C  C38  1  0.91512000  0.93288800  0.70018000  1
  C  C39  1  0.60782000  0.17610800  0.80114900  1
  C  C40  1  0.49807100  0.84159000  0.87740000  1
  C  C41  1  0.48311100  0.53688700  0.90603000  1
  C  C42  1  0.88615700  0.20126300  0.93552300  1
  C  C43  1  0.85345100  0.82529000  0.97258400  1
