# generated using pymatgen
data_Cu(NiC5)2
_symmetry_space_group_name_H-M   'P 1'
_cell_length_a   5.94948548
_cell_length_b   10.62502159
_cell_length_c   11.45312370
_cell_angle_alpha   62.79020526
_cell_angle_beta   75.05196063
_cell_angle_gamma   90.04054690
_symmetry_Int_Tables_number   1
_chemical_formula_structural   Cu(NiC5)2
_chemical_formula_sum   'Cu4 Ni8 C40'
_cell_volume   616.12464100
_cell_formula_units_Z   4
loop_
 _symmetry_equiv_pos_site_id
 _symmetry_equiv_pos_as_xyz
  1  'x, y, z'
loop_
 _atom_site_type_symbol
 _atom_site_label
 _atom_site_symmetry_multiplicity
 _atom_site_fract_x
 _atom_site_fract_y
 _atom_site_fract_z
 _atom_site_occupancy
  C  C0  1  0.04186600  0.01784000  0.23047800  1
  C  C1  1  0.04083000  0.51783200  0.23083800  1
  C  C2  1  0.27189800  0.73230900  0.76865500  1
  C  C3  1  0.27226200  0.23234900  0.76867000  1
  C  C4  1  0.95825200  0.98234200  0.76861900  1
  C  C5  1  0.95765200  0.48184900  0.76902900  1
  C  C6  1  0.72826900  0.26767100  0.23065000  1
  C  C7  1  0.72804800  0.76761200  0.23122400  1
  Ni  Ni8  1  0.87041800  0.83296000  0.56316700  1
  Ni  Ni9  1  0.87033900  0.33294700  0.56330900  1
  Ni  Ni10  1  0.43602400  0.91782600  0.43489900  1
  Ni  Ni11  1  0.43577400  0.41767500  0.43496600  1
  Ni  Ni12  1  0.12896200  0.16727700  0.43592700  1
  Ni  Ni13  1  0.12868100  0.66716300  0.43628900  1
  Ni  Ni14  1  0.56427700  0.08279700  0.56378100  1
  Ni  Ni15  1  0.56409800  0.58262500  0.56407200  1
  Cu  Cu16  1  0.64666900  0.62642800  0.00060000  1
  Cu  Cu17  1  0.35279000  0.87594000  0.00049600  1
  Cu  Cu18  1  0.64706900  0.12560700  0.00045700  1
  Cu  Cu19  1  0.35206700  0.37622800  0.00056200  1
  C  C20  1  0.04524600  0.39560200  0.13881000  1
  C  C21  1  0.04606900  0.89435400  0.13969900  1
  C  C22  1  0.18089400  0.85464200  0.85876600  1
  C  C23  1  0.18082700  0.35427800  0.85904300  1
  C  C24  1  0.95955800  0.60426400  0.85893100  1
  C  C25  1  0.96003800  0.10463600  0.85867600  1
  C  C26  1  0.81444200  0.14442000  0.13947100  1
  C  C27  1  0.81426500  0.64505700  0.13922400  1
  C  C28  1  0.31176200  0.14431600  0.11899400  1
  C  C29  1  0.31099200  0.64423500  0.11984500  1
  C  C30  1  0.43716400  0.61033200  0.88139200  1
  C  C31  1  0.43920300  0.11052700  0.88004300  1
  C  C32  1  0.68032900  0.86093100  0.88036300  1
  C  C33  1  0.68023200  0.35955600  0.88072800  1
  C  C34  1  0.56867900  0.39371200  0.11920800  1
  C  C35  1  0.56966700  0.89426900  0.11920700  1
  C  C36  1  0.92695600  0.10689500  0.35406800  1
  C  C37  1  0.92601200  0.60666400  0.35456900  1
  C  C38  1  0.28131200  0.14335400  0.64441100  1
  C  C39  1  0.28125000  0.64317400  0.64463700  1
  C  C40  1  0.71973400  0.85673800  0.35450600  1
  C  C41  1  0.71949700  0.35668600  0.35422000  1
  C  C42  1  0.07207600  0.89308100  0.64473300  1
  C  C43  1  0.07214300  0.39328500  0.64465900  1
  C  C44  1  0.45604900  0.12698800  0.38663800  1
  C  C45  1  0.45567700  0.62697200  0.38670100  1
  C  C46  1  0.84372600  0.12399700  0.61129600  1
  C  C47  1  0.84342800  0.62375200  0.61176200  1
  C  C48  1  0.54313700  0.87374700  0.61168500  1
  C  C49  1  0.54313100  0.37393000  0.61136300  1
  C  C50  1  0.15762100  0.87684400  0.38670500  1
  C  C51  1  0.15726400  0.37686400  0.38669900  1
