# generated using pymatgen
data_Cu2NiC13
_symmetry_space_group_name_H-M   'P 1'
_cell_length_a   9.38960098
_cell_length_b   9.38960098
_cell_length_c   15.91883092
_cell_angle_alpha   90.00000000
_cell_angle_beta   90.00000000
_cell_angle_gamma   119.99999830
_symmetry_Int_Tables_number   1
_chemical_formula_structural   Cu2NiC13
_chemical_formula_sum   'Cu12 Ni6 C78'
_cell_volume   1215.44715893
_cell_formula_units_Z   6
loop_
 _symmetry_equiv_pos_site_id
 _symmetry_equiv_pos_as_xyz
  1  'x, y, z'
loop_
 _atom_site_type_symbol
 _atom_site_label
 _atom_site_symmetry_multiplicity
 _atom_site_fract_x
 _atom_site_fract_y
 _atom_site_fract_z
 _atom_site_occupancy
  C  C0  1  0.80726763  0.19273237  0.75000000  1
  C  C1  1  0.38546473  0.19273237  0.41666700  1
  C  C2  1  0.19273237  0.80726763  0.25000000  1
  C  C3  1  0.61453527  0.80726763  0.91666700  1
  C  C4  1  0.80726763  0.61453527  0.08333300  1
  C  C5  1  0.19273237  0.38546473  0.58333300  1
  C  C6  1  0.44839318  0.55160682  0.75000000  1
  C  C7  1  0.10321364  0.55160682  0.41666700  1
  C  C8  1  0.55160682  0.44839318  0.25000000  1
  C  C9  1  0.89678636  0.44839318  0.91666700  1
  C  C10  1  0.44839318  0.89678636  0.08333300  1
  C  C11  1  0.55160682  0.10321364  0.58333300  1
  Ni  Ni12  1  0.15573105  0.84426895  0.75000000  1
  Ni  Ni13  1  0.68853790  0.84426895  0.41666700  1
  Ni  Ni14  1  0.84426895  0.15573105  0.25000000  1
  Ni  Ni15  1  0.31146210  0.15573105  0.91666700  1
  Ni  Ni16  1  0.15573105  0.31146210  0.08333300  1
  Ni  Ni17  1  0.84426895  0.68853790  0.58333300  1
  Cu  Cu18  1  0.60891274  0.77989178  0.58447734  1
  Cu  Cu19  1  0.17097904  0.39108726  0.25114434  1
  Cu  Cu20  1  0.39108726  0.22010822  0.08447734  1
  Cu  Cu21  1  0.82902096  0.22010822  0.08218966  1
  Cu  Cu22  1  0.22010822  0.82902096  0.91781034  1
  Cu  Cu23  1  0.82902096  0.60891274  0.75114434  1
  Cu  Cu24  1  0.77989178  0.60891274  0.41552266  1
  Cu  Cu25  1  0.17097904  0.77989178  0.58218966  1
  Cu  Cu26  1  0.77989178  0.17097904  0.41781034  1
  Cu  Cu27  1  0.22010822  0.39108726  0.91552266  1
  Cu  Cu28  1  0.39108726  0.17097904  0.74885566  1
  Cu  Cu29  1  0.60891274  0.82902096  0.24885566  1
  C  C30  1  0.57807480  0.75984526  0.48819568  1
  C  C31  1  0.18177046  0.42192520  0.15486268  1
  C  C32  1  0.42192520  0.24015474  0.98819568  1
  C  C33  1  0.81822954  0.24015474  0.17847132  1
  C  C34  1  0.24015474  0.81822954  0.82152868  1
  C  C35  1  0.81822954  0.57807480  0.65486268  1
  C  C36  1  0.75984526  0.57807480  0.51180432  1
  C  C37  1  0.18177046  0.75984526  0.67847132  1
  C  C38  1  0.75984526  0.18177046  0.32152868  1
  C  C39  1  0.24015474  0.42192520  0.01180432  1
  C  C40  1  0.42192520  0.18177046  0.84513732  1
  C  C41  1  0.57807480  0.81822954  0.34513732  1
  C  C42  1  0.85646227  0.85646227  -0.00000000  1
  C  C43  1  1.00000000  0.14353773  0.66666700  1
  C  C44  1  0.14353773  0.14353773  0.50000000  1
  C  C45  1  0.14353773  1.00000000  0.33333300  1
  C  C46  1  0.00000000  0.85646227  0.16666700  1
  C  C47  1  0.85646227  0.00000000  0.83333300  1
  C  C48  1  0.37897082  0.52493071  0.87320537  1
  C  C49  1  0.14595989  0.62102918  0.53987237  1
  C  C50  1  0.62102918  0.47506929  0.37320537  1
  C  C51  1  0.85404011  0.47506929  0.79346163  1
  C  C52  1  0.47506929  0.85404011  0.20653837  1
  C  C53  1  0.85404011  0.37897082  0.03987237  1
  C  C54  1  0.52493071  0.37897082  0.12679463  1
  C  C55  1  0.14595989  0.52493071  0.29346163  1
  C  C56  1  0.52493071  0.14595989  0.70653837  1
  C  C57  1  0.47506929  0.62102918  0.62679463  1
  C  C58  1  0.62102918  0.14595989  0.46012763  1
  C  C59  1  0.37897082  0.85404011  0.96012763  1
  C  C60  1  0.61122755  0.93370341  0.61792115  1
  C  C61  1  0.32247586  0.38877245  0.28458815  1
  C  C62  1  0.38877245  0.06629659  0.11792115  1
  C  C63  1  0.67752414  0.06629659  0.04874585  1
  C  C64  1  0.06629659  0.67752414  0.95125415  1
  C  C65  1  0.67752414  0.61122755  0.78458815  1
  C  C66  1  0.93370341  0.61122755  0.38207885  1
  C  C67  1  0.32247586  0.93370341  0.54874585  1
  C  C68  1  0.93370341  0.32247586  0.45125415  1
  C  C69  1  0.06629659  0.38877245  0.88207885  1
  C  C70  1  0.38877245  0.32247586  0.71541185  1
  C  C71  1  0.61122755  0.67752414  0.21541185  1
  C  C72  1  0.78123956  0.80073876  0.60317197  1
  C  C73  1  0.01949920  0.21876044  0.26983897  1
  C  C74  1  0.21876044  0.19926124  0.10317197  1
  C  C75  1  0.98050080  0.19926124  0.06349503  1
  C  C76  1  0.19926124  0.98050080  0.93650497  1
  C  C77  1  0.98050080  0.78123956  0.76983897  1
  C  C78  1  0.80073876  0.78123956  0.39682803  1
  C  C79  1  0.01949920  0.80073876  0.56349503  1
  C  C80  1  0.80073876  0.01949920  0.43650497  1
  C  C81  1  0.19926124  0.21876044  0.89682803  1
  C  C82  1  0.21876044  0.01949920  0.73016103  1
  C  C83  1  0.78123956  0.98050080  0.23016103  1
  C  C84  1  0.72293515  0.21175608  0.89137723  1
  C  C85  1  0.48882094  0.27706485  0.55804423  1
  C  C86  1  0.27706485  0.78824392  0.39137723  1
  C  C87  1  0.51117906  0.78824392  0.77528977  1
  C  C88  1  0.78824392  0.51117906  0.22471023  1
  C  C89  1  0.51117906  0.72293515  0.05804423  1
  C  C90  1  0.21175608  0.72293515  0.10862277  1
  C  C91  1  0.48882094  0.21175608  0.27528977  1
  C  C92  1  0.21175608  0.48882094  0.72471023  1
  C  C93  1  0.78824392  0.27706485  0.60862277  1
  C  C94  1  0.27706485  0.48882094  0.44195577  1
  C  C95  1  0.72293515  0.51117906  0.94195577  1
