# generated using pymatgen
data_Cu(NiC)6
_symmetry_space_group_name_H-M   'P 1'
_cell_length_a   4.67895045
_cell_length_b   4.67895045
_cell_length_c   14.38470346
_cell_angle_alpha   89.97290685
_cell_angle_beta   89.97290685
_cell_angle_gamma   120.13567392
_symmetry_Int_Tables_number   1
_chemical_formula_structural   Cu(NiC)6
_chemical_formula_sum   'Cu2 Ni12 C12'
_cell_volume   272.35344667
_cell_formula_units_Z   2
loop_
 _symmetry_equiv_pos_site_id
 _symmetry_equiv_pos_as_xyz
  1  'x, y, z'
loop_
 _atom_site_type_symbol
 _atom_site_label
 _atom_site_symmetry_multiplicity
 _atom_site_fract_x
 _atom_site_fract_y
 _atom_site_fract_z
 _atom_site_occupancy
  C  C0  1  0.11318100  0.11656200  0.36453000  1
  C  C1  1  0.11656200  0.11318100  0.86453000  1
  C  C2  1  0.11155900  0.09619200  0.61224500  1
  C  C3  1  0.09619200  0.11155900  0.11224500  1
  C  C4  1  0.74931000  0.42739000  0.47444700  1
  C  C5  1  0.42739000  0.74931000  0.97444700  1
  C  C6  1  0.78404300  0.42343200  0.24895200  1
  C  C7  1  0.42343200  0.78404300  0.74895200  1
  C  C8  1  0.46568400  0.77169700  0.22215100  1
  C  C9  1  0.77169700  0.46568400  0.72215100  1
  C  C10  1  0.41858800  0.77566400  0.50049200  1
  C  C11  1  0.77566400  0.41858800  0.00049200  1
  Ni  Ni12  1  0.45512700  0.50113700  0.49709500  1
  Ni  Ni13  1  0.50113700  0.45512700  0.99709500  1
  Ni  Ni14  1  0.68403900  0.08471400  0.52078900  1
  Ni  Ni15  1  0.08471400  0.68403900  0.02078900  1
  Ni  Ni16  1  0.10939900  0.74347500  0.48816600  1
  Ni  Ni17  1  0.74347500  0.10939900  0.98816600  1
  Ni  Ni18  1  0.74345400  0.73717400  0.22826300  1
  Ni  Ni19  1  0.73717400  0.74345400  0.72826300  1
  Ni  Ni20  1  0.15706500  0.49784000  0.23449800  1
  Ni  Ni21  1  0.49784000  0.15706500  0.73449800  1
  Ni  Ni22  1  0.51333100  0.08085700  0.19885800  1
  Ni  Ni23  1  0.08085700  0.51333100  0.69885800  1
  Cu  Cu24  1  0.70522000  0.33046500  0.36111200  1
  Cu  Cu25  1  0.33046500  0.70522000  0.86111200  1
