# generated using pymatgen
data_Cu2Ni3C13
_symmetry_space_group_name_H-M   'P 1'
_cell_length_a   5.56320668
_cell_length_b   5.56320668
_cell_length_c   7.81966441
_cell_angle_alpha   67.06923742
_cell_angle_beta   67.06923742
_cell_angle_gamma   70.20279313
_symmetry_Int_Tables_number   1
_chemical_formula_structural   Cu2Ni3C13
_chemical_formula_sum   'Cu2 Ni3 C13'
_cell_volume   200.22983381
_cell_formula_units_Z   1
loop_
 _symmetry_equiv_pos_site_id
 _symmetry_equiv_pos_as_xyz
  1  'x, y, z'
loop_
 _atom_site_type_symbol
 _atom_site_label
 _atom_site_symmetry_multiplicity
 _atom_site_fract_x
 _atom_site_fract_y
 _atom_site_fract_z
 _atom_site_occupancy
  C  C0  1  0.50013400  0.50013400  0.49998700  1
  C  C1  1  0.50355000  0.99494800  0.99778400  1
  C  C2  1  0.99494800  0.50355000  0.99778400  1
  Ni  Ni3  1  0.29708400  0.29708400  0.21794900  1
  Ni  Ni4  1  0.70342400  0.70342400  0.78528700  1
  Ni  Ni5  1  0.47935200  0.47935200  0.01219100  1
  Cu  Cu6  1  0.92124500  0.92124500  0.28492000  1
  Cu  Cu7  1  0.07929900  0.07929900  0.71461000  1
  C  C8  1  0.83697800  0.22325800  0.22630400  1
  C  C9  1  0.22325800  0.83697800  0.22630400  1
  C  C10  1  0.16371500  0.77738500  0.77340400  1
  C  C11  1  0.77738500  0.16371500  0.77340400  1
  C  C12  1  0.81689600  0.81689600  0.49646000  1
  C  C13  1  0.18353400  0.18353400  0.50296100  1
  C  C14  1  0.34443300  0.34443300  0.07472100  1
  C  C15  1  0.65570400  0.65570400  0.92820800  1
  C  C16  1  0.81607000  0.81607000  0.18666800  1
  C  C17  1  0.18423000  0.18423000  0.81315600  1
