# generated using pymatgen
data_Cu2Ni3C17
_symmetry_space_group_name_H-M   'P 1'
_cell_length_a   7.32592000
_cell_length_b   6.39184100
_cell_length_c   12.58302928
_cell_angle_alpha   72.02666041
_cell_angle_beta   90.00000000
_cell_angle_gamma   90.00000000
_symmetry_Int_Tables_number   1
_chemical_formula_structural   Cu2Ni3C17
_chemical_formula_sum   'Cu4 Ni6 C34'
_cell_volume   560.46084371
_cell_formula_units_Z   2
loop_
 _symmetry_equiv_pos_site_id
 _symmetry_equiv_pos_as_xyz
  1  'x, y, z'
loop_
 _atom_site_type_symbol
 _atom_site_label
 _atom_site_symmetry_multiplicity
 _atom_site_fract_x
 _atom_site_fract_y
 _atom_site_fract_z
 _atom_site_occupancy
  C  C0  1  0.20601500  0.52753200  0.56755900  1
  C  C1  1  0.79398500  0.47246800  0.43244100  1
  C  C2  1  0.70601500  0.47246800  0.93244100  1
  C  C3  1  0.29398500  0.52753200  0.06755900  1
  C  C4  1  0.50000000  0.00000000  0.00000000  1
  C  C5  1  0.00000000  0.00000000  0.50000000  1
  Ni  Ni6  1  0.24139500  0.97134000  0.75717700  1
  Ni  Ni7  1  0.75860500  0.02866000  0.24282300  1
  Ni  Ni8  1  0.74139500  0.02866000  0.74282300  1
  Ni  Ni9  1  0.25860500  0.97134000  0.25717700  1
  Ni  Ni10  1  0.50000000  0.00000000  0.50000000  1
  Ni  Ni11  1  0.00000000  0.00000000  0.00000000  1
  Cu  Cu12  1  0.23368000  0.41428400  0.83858600  1
  Cu  Cu13  1  0.76632000  0.58571600  0.16141400  1
  Cu  Cu14  1  0.73368000  0.58571600  0.66141400  1
  Cu  Cu15  1  0.26632000  0.41428400  0.33858600  1
  C  C16  1  0.79783600  0.96682600  0.90292100  1
  C  C17  1  0.20216400  0.03317400  0.09707900  1
  C  C18  1  0.29783600  0.03317400  0.59707900  1
  C  C19  1  0.70216400  0.96682600  0.40292100  1
  C  C20  1  0.49708100  0.93201000  0.80549400  1
  C  C21  1  0.50291900  0.06799000  0.19450600  1
  C  C22  1  0.99708100  0.06799000  0.69450600  1
  C  C23  1  0.00291900  0.93201000  0.30549400  1
  C  C24  1  0.26991400  0.29685700  0.74774600  1
  C  C25  1  0.73008600  0.70314300  0.25225400  1
  C  C26  1  0.76991400  0.70314300  0.75225400  1
  C  C27  1  0.23008600  0.29685700  0.24774600  1
  C  C28  1  0.88990400  0.60751600  0.58076100  1
  C  C29  1  0.11009600  0.39248400  0.41923900  1
  C  C30  1  0.38990400  0.39248400  0.91923900  1
  C  C31  1  0.61009600  0.60751600  0.08076100  1
  C  C32  1  0.95114400  0.67863200  0.09835800  1
  C  C33  1  0.04885600  0.32136800  0.90164200  1
  C  C34  1  0.45114400  0.32136800  0.40164200  1
  C  C35  1  0.54885600  0.67863200  0.59835800  1
  C  C36  1  0.18931700  0.88128400  0.92144800  1
  C  C37  1  0.81068300  0.11871600  0.07855200  1
  C  C38  1  0.68931700  0.11871600  0.57855200  1
  C  C39  1  0.31068300  0.88128400  0.42144800  1
  C  C40  1  0.19116900  0.65426800  0.76384300  1
  C  C41  1  0.80883100  0.34573200  0.23615700  1
  C  C42  1  0.69116900  0.34573200  0.73615700  1
  C  C43  1  0.30883100  0.65426800  0.26384300  1
