# generated using pymatgen
data_Cu9Ni6C
_symmetry_space_group_name_H-M   'P 1'
_cell_length_a   7.70004255
_cell_length_b   13.68592236
_cell_length_c   11.01551600
_cell_angle_alpha   90.00000000
_cell_angle_beta   90.00000000
_cell_angle_gamma   27.29074473
_symmetry_Int_Tables_number   1
_chemical_formula_structural   Cu9Ni6C
_chemical_formula_sum   'Cu18 Ni12 C2'
_cell_volume   532.25171748
_cell_formula_units_Z   2
loop_
 _symmetry_equiv_pos_site_id
 _symmetry_equiv_pos_as_xyz
  1  'x, y, z'
loop_
 _atom_site_type_symbol
 _atom_site_label
 _atom_site_symmetry_multiplicity
 _atom_site_fract_x
 _atom_site_fract_y
 _atom_site_fract_z
 _atom_site_occupancy
  C  C0  1  0.00000000  0.27059900  0.25000000  1
  C  C1  1  0.00000000  0.72940100  0.75000000  1
  Ni  Ni2  1  0.68654100  0.77442500  0.25000000  1
  Ni  Ni3  1  0.68654100  0.53903300  0.75000000  1
  Ni  Ni4  1  0.31345900  0.22557500  0.75000000  1
  Ni  Ni5  1  0.31345900  0.46096700  0.25000000  1
  Ni  Ni6  1  0.68304100  0.30899300  0.91063500  1
  Ni  Ni7  1  0.68304100  0.00796500  0.08936500  1
  Ni  Ni8  1  0.68304100  0.30899300  0.58936500  1
  Ni  Ni9  1  0.68304100  0.00796500  0.41063500  1
  Ni  Ni10  1  0.31695900  0.69100700  0.08936500  1
  Ni  Ni11  1  0.31695900  0.99203500  0.91063500  1
  Ni  Ni12  1  0.31695900  0.69100700  0.41063500  1
  Ni  Ni13  1  0.31695900  0.99203500  0.58936500  1
  Cu  Cu14  1  0.00000000  0.56853000  0.25000000  1
  Cu  Cu15  1  0.00000000  0.43147000  0.75000000  1
  Cu  Cu16  1  0.39261700  0.96310800  0.25000000  1
  Cu  Cu17  1  0.39261700  0.64427500  0.75000000  1
  Cu  Cu18  1  0.60738300  0.03689200  0.75000000  1
  Cu  Cu19  1  0.60738300  0.35572500  0.25000000  1
  Cu  Cu20  1  0.00000000  0.13096500  0.96421300  1
  Cu  Cu21  1  0.00000000  0.86903500  0.03578700  1
  Cu  Cu22  1  0.00000000  0.13096500  0.53578700  1
  Cu  Cu23  1  0.00000000  0.86903500  0.46421300  1
  Cu  Cu24  1  0.38299400  0.47627600  0.86717600  1
  Cu  Cu25  1  0.38299400  0.14073000  0.13282400  1
  Cu  Cu26  1  0.38299400  0.47627600  0.63282400  1
  Cu  Cu27  1  0.38299400  0.14073000  0.36717600  1
  Cu  Cu28  1  0.61700600  0.52372400  0.13282400  1
  Cu  Cu29  1  0.61700600  0.85927000  0.86717600  1
  Cu  Cu30  1  0.61700600  0.52372400  0.36717600  1
  Cu  Cu31  1  0.61700600  0.85927000  0.63282400  1
