# generated using pymatgen
data_CuNiC15
_symmetry_space_group_name_H-M   'P 1'
_cell_length_a   8.84463495
_cell_length_b   8.84463472
_cell_length_c   8.84463552
_cell_angle_alpha   59.03042776
_cell_angle_beta   59.03042982
_cell_angle_gamma   59.03043343
_symmetry_Int_Tables_number   1
_chemical_formula_structural   CuNiC15
_chemical_formula_sum   'Cu2 Ni2 C30'
_cell_volume   478.42481070
_cell_formula_units_Z   2
loop_
 _symmetry_equiv_pos_site_id
 _symmetry_equiv_pos_as_xyz
  1  'x, y, z'
loop_
 _atom_site_type_symbol
 _atom_site_label
 _atom_site_symmetry_multiplicity
 _atom_site_fract_x
 _atom_site_fract_y
 _atom_site_fract_z
 _atom_site_occupancy
  Ni  Ni0  1  0.13943300  0.13943300  0.13943300  1
  Ni  Ni1  1  0.63943300  0.63943300  0.63943300  1
  Cu  Cu2  1  0.35865300  0.35865300  0.35865300  1
  Cu  Cu3  1  0.85865300  0.85865300  0.85865300  1
  C  C4  1  0.03168300  0.46480000  0.75051600  1
  C  C5  1  0.46480000  0.75051600  0.03168300  1
  C  C6  1  0.75051600  0.03168300  0.46480000  1
  C  C7  1  0.25051600  0.96480000  0.53168300  1
  C  C8  1  0.53168300  0.25051600  0.96480000  1
  C  C9  1  0.96480000  0.53168300  0.25051600  1
  C  C10  1  0.13382700  0.50758100  0.28266800  1
  C  C11  1  0.28266800  0.13382700  0.50758100  1
  C  C12  1  0.06239400  0.28794500  0.92047900  1
  C  C13  1  0.50758100  0.28266800  0.13382700  1
  C  C14  1  0.00758100  0.63382700  0.78266700  1
  C  C15  1  0.21344300  0.44126300  0.57855700  1
  C  C16  1  0.28794500  0.92047900  0.06239400  1
  C  C17  1  0.44126300  0.57855700  0.21344300  1
  C  C18  1  0.21258100  0.00128900  0.36463100  1
  C  C19  1  0.57855700  0.21344300  0.44126300  1
  C  C20  1  0.07855700  0.94126300  0.71344300  1
  C  C21  1  0.36463100  0.21258100  0.00128900  1
  C  C22  1  0.63382700  0.78266700  0.00758100  1
  C  C23  1  0.92047900  0.06239400  0.28794500  1
  C  C24  1  0.42047900  0.78794500  0.56239400  1
  C  C25  1  0.78266700  0.00758100  0.63382700  1
  C  C26  1  0.56239400  0.42047900  0.78794500  1
  C  C27  1  0.71344300  0.07855700  0.94126300  1
  C  C28  1  0.78794500  0.56239400  0.42047900  1
  C  C29  1  0.00128900  0.36463100  0.21258100  1
  C  C30  1  0.50128900  0.71258100  0.86463100  1
  C  C31  1  0.94126300  0.71344300  0.07855700  1
  C  C32  1  0.71258100  0.86463100  0.50128900  1
  C  C33  1  0.86463100  0.50128900  0.71258100  1
