# generated using pymatgen
data_CuNiC29
_symmetry_space_group_name_H-M   'P 1'
_cell_length_a   8.63482790
_cell_length_b   8.96352916
_cell_length_c   4.51356502
_cell_angle_alpha   90.00000000
_cell_angle_beta   90.00000000
_cell_angle_gamma   90.00000000
_symmetry_Int_Tables_number   1
_chemical_formula_structural   CuNiC29
_chemical_formula_sum   'Cu1 Ni1 C29'
_cell_volume   349.34330516
_cell_formula_units_Z   1
loop_
 _symmetry_equiv_pos_site_id
 _symmetry_equiv_pos_as_xyz
  1  'x, y, z'
loop_
 _atom_site_type_symbol
 _atom_site_label
 _atom_site_symmetry_multiplicity
 _atom_site_fract_x
 _atom_site_fract_y
 _atom_site_fract_z
 _atom_site_occupancy
  Ni  Ni0  1  0.11343273  0.50000000  0.00000000  1
  Cu  Cu1  1  0.98431107  0.00000000  0.00000000  1
  C  C2  1  0.49741912  0.00000000  0.00000000  1
  C  C3  1  0.51889740  0.50000000  0.00000000  1
  C  C4  1  0.99210133  0.24630942  0.50000000  1
  C  C5  1  0.99210133  0.75369058  0.50000000  1
  C  C6  1  0.49780954  0.25053206  0.50000000  1
  C  C7  1  0.49780954  0.74946794  0.50000000  1
  C  C8  1  0.24628853  0.00000000  0.50000000  1
  C  C9  1  0.26508095  0.50000000  0.50000000  1
  C  C10  1  0.74103598  0.00000000  0.50000000  1
  C  C11  1  0.76110585  0.50000000  0.50000000  1
  C  C12  1  0.24474195  0.21594213  0.00000000  1
  C  C13  1  0.24474195  0.78405787  -0.00000000  1
  C  C14  1  0.75381370  0.25951292  0.00000000  1
  C  C15  1  0.75381370  0.74048708  0.00000000  1
  C  C16  1  0.27249866  0.00000000  0.00000000  1
  C  C17  1  0.71538922  0.00000000  0.00000000  1
  C  C18  1  0.74050275  0.50000000  0.00000000  1
  C  C19  1  0.24746900  0.25724554  0.50000000  1
  C  C20  1  0.24746900  0.74275446  0.50000000  1
  C  C21  1  0.74274695  0.24981725  0.50000000  1
  C  C22  1  0.74274695  0.75018275  0.50000000  1
  C  C23  1  0.00934653  0.00000000  0.50000000  1
  C  C24  1  0.99446663  0.50000000  0.50000000  1
  C  C25  1  0.49059615  0.00000000  0.50000000  1
  C  C26  1  0.49201591  0.50000000  0.50000000  1
  C  C27  1  0.99375249  0.25736821  0.00000000  1
  C  C28  1  0.99375249  0.74263179  0.00000000  1
  C  C29  1  0.48137129  0.26802554  0.00000000  1
  C  C30  1  0.48137129  0.73197446  0.00000000  1
