# generated using pymatgen
data_Cu3Ni18C19
_symmetry_space_group_name_H-M   'P 1'
_cell_length_a   11.94991032
_cell_length_b   11.94991032
_cell_length_c   6.78959200
_cell_angle_alpha   90.00000000
_cell_angle_beta   90.00000000
_cell_angle_gamma   120.00000176
_symmetry_Int_Tables_number   1
_chemical_formula_structural   Cu3Ni18C19
_chemical_formula_sum   'Cu6 Ni36 C38'
_cell_volume   839.66024903
_cell_formula_units_Z   2
loop_
 _symmetry_equiv_pos_site_id
 _symmetry_equiv_pos_as_xyz
  1  'x, y, z'
loop_
 _atom_site_type_symbol
 _atom_site_label
 _atom_site_symmetry_multiplicity
 _atom_site_fract_x
 _atom_site_fract_y
 _atom_site_fract_z
 _atom_site_occupancy
  C  C0  1  0.33333300  0.66666700  0.24921400  1
  C  C1  1  0.66666700  0.33333300  0.74921400  1
  Ni  Ni2  1  0.50065600  0.63155900  0.55942100  1
  Ni  Ni3  1  0.36844100  0.86909700  0.55942100  1
  Ni  Ni4  1  0.13090300  0.49934400  0.55942100  1
  Ni  Ni5  1  0.36844100  0.49934400  0.55942100  1
  Ni  Ni6  1  0.13090300  0.63155900  0.55942100  1
  Ni  Ni7  1  0.50065600  0.86909700  0.55942100  1
  Ni  Ni8  1  0.49923800  0.36847000  0.44081200  1
  Ni  Ni9  1  0.63153000  0.13076800  0.44081200  1
  Ni  Ni10  1  0.86923200  0.50076200  0.44081200  1
  Ni  Ni11  1  0.63153000  0.50076200  0.44081200  1
  Ni  Ni12  1  0.86923200  0.36847000  0.44081200  1
  Ni  Ni13  1  0.49923800  0.13076800  0.44081200  1
  Ni  Ni14  1  0.49934400  0.36844100  0.05942100  1
  Ni  Ni15  1  0.63155900  0.13090300  0.05942100  1
  Ni  Ni16  1  0.86909700  0.50065600  0.05942100  1
  Ni  Ni17  1  0.63155900  0.50065600  0.05942100  1
  Ni  Ni18  1  0.86909700  0.36844100  0.05942100  1
  Ni  Ni19  1  0.49934400  0.13090300  0.05942100  1
  Ni  Ni20  1  0.50076200  0.63153000  0.94081200  1
  Ni  Ni21  1  0.36847000  0.86923200  0.94081200  1
  Ni  Ni22  1  0.13076800  0.49923800  0.94081200  1
  Ni  Ni23  1  0.36847000  0.49923800  0.94081200  1
  Ni  Ni24  1  0.13076800  0.63153000  0.94081200  1
  Ni  Ni25  1  0.50076200  0.86923200  0.94081200  1
  Ni  Ni26  1  0.12024800  0.74413100  0.25445200  1
  Ni  Ni27  1  0.25586900  0.37611700  0.25445200  1
  Ni  Ni28  1  0.62388300  0.87975200  0.25445200  1
  Ni  Ni29  1  0.25586900  0.87975200  0.25445200  1
  Ni  Ni30  1  0.62388300  0.74413100  0.25445200  1
  Ni  Ni31  1  0.12024800  0.37611700  0.25445200  1
  Ni  Ni32  1  0.87975200  0.25586900  0.75445200  1
  Ni  Ni33  1  0.74413100  0.62388300  0.75445200  1
  Ni  Ni34  1  0.37611700  0.12024800  0.75445200  1
  Ni  Ni35  1  0.74413100  0.12024800  0.75445200  1
  Ni  Ni36  1  0.37611700  0.25586900  0.75445200  1
  Ni  Ni37  1  0.87975200  0.62388300  0.75445200  1
  Cu  Cu38  1  0.13167700  0.86832300  0.75602400  1
  Cu  Cu39  1  0.13167700  0.26335300  0.75602400  1
  Cu  Cu40  1  0.73664700  0.86832300  0.75602400  1
  Cu  Cu41  1  0.86832300  0.13167700  0.25602400  1
  Cu  Cu42  1  0.86832300  0.73664700  0.25602400  1
  Cu  Cu43  1  0.26335300  0.13167700  0.25602400  1
  C  C44  1  0.29509400  0.93041400  0.75008800  1
  C  C45  1  0.06958600  0.36468000  0.75008800  1
  C  C46  1  0.63532000  0.70490600  0.75008800  1
  C  C47  1  0.06958600  0.70490600  0.75008800  1
  C  C48  1  0.63532000  0.93041400  0.75008800  1
  C  C49  1  0.29509400  0.36468000  0.75008800  1
  C  C50  1  0.70490600  0.06958600  0.25008800  1
  C  C51  1  0.93041400  0.63532000  0.25008800  1
  C  C52  1  0.36468000  0.29509400  0.25008800  1
  C  C53  1  0.93041400  0.29509400  0.25008800  1
  C  C54  1  0.36468000  0.06958600  0.25008800  1
  C  C55  1  0.70490600  0.63532000  0.25008800  1
  C  C56  1  0.41977600  0.58022400  0.48561200  1
  C  C57  1  0.41977600  0.83955300  0.48561200  1
  C  C58  1  0.16044700  0.58022400  0.48561200  1
  C  C59  1  0.58024600  0.41975400  0.51394400  1
  C  C60  1  0.58024600  0.16049200  0.51394400  1
  C  C61  1  0.83950800  0.41975400  0.51394400  1
  C  C62  1  0.58022400  0.41977600  0.98561200  1
  C  C63  1  0.58022400  0.16044700  0.98561200  1
  C  C64  1  0.83955300  0.41977600  0.98561200  1
  C  C65  1  0.41975400  0.58024600  0.01394400  1
  C  C66  1  0.41975400  0.83950800  0.01394400  1
  C  C67  1  0.16049200  0.58024600  0.01394400  1
  C  C68  1  0.21487400  0.78512600  0.24284200  1
  C  C69  1  0.21487400  0.42974800  0.24284200  1
  C  C70  1  0.57025200  0.78512600  0.24284200  1
  C  C71  1  0.78512600  0.21487400  0.74284200  1
  C  C72  1  0.78512600  0.57025200  0.74284200  1
  C  C73  1  0.42974800  0.21487400  0.74284200  1
  C  C74  1  0.09477800  0.90522200  0.53829300  1
  C  C75  1  0.09477800  0.18955700  0.53829300  1
  C  C76  1  0.81044300  0.90522200  0.53829300  1
  C  C77  1  0.90522200  0.09477800  0.03829300  1
  C  C78  1  0.90522200  0.81044300  0.03829300  1
  C  C79  1  0.18955700  0.09477800  0.03829300  1
