# generated using pymatgen
data_Cu4NiC4
_symmetry_space_group_name_H-M   'P 1'
_cell_length_a   4.83555000
_cell_length_b   11.15757200
_cell_length_c   19.28082900
_cell_angle_alpha   90.00000000
_cell_angle_beta   90.00000000
_cell_angle_gamma   90.00000000
_symmetry_Int_Tables_number   1
_chemical_formula_structural   Cu4NiC4
_chemical_formula_sum   'Cu16 Ni4 C16'
_cell_volume   1040.25851468
_cell_formula_units_Z   4
loop_
 _symmetry_equiv_pos_site_id
 _symmetry_equiv_pos_as_xyz
  1  'x, y, z'
loop_
 _atom_site_type_symbol
 _atom_site_label
 _atom_site_symmetry_multiplicity
 _atom_site_fract_x
 _atom_site_fract_y
 _atom_site_fract_z
 _atom_site_occupancy
  C  C0  1  0.00000000  0.59619300  0.60589300  1
  C  C1  1  0.00000000  0.40380700  0.39410700  1
  C  C2  1  0.00000000  0.09619300  0.89410700  1
  C  C3  1  0.00000000  0.90380700  0.10589300  1
  C  C4  1  0.00000000  0.31654600  0.55565100  1
  C  C5  1  0.00000000  0.68345400  0.44434900  1
  C  C6  1  0.00000000  0.81654600  0.94434900  1
  C  C7  1  0.00000000  0.18345400  0.05565100  1
  C  C8  1  0.50000000  0.30223100  0.46445000  1
  C  C9  1  0.50000000  0.69776900  0.53555000  1
  C  C10  1  0.50000000  0.80223100  0.03555000  1
  C  C11  1  0.50000000  0.19776900  0.96445000  1
  C  C12  1  0.50000000  0.43824700  0.61417800  1
  C  C13  1  0.50000000  0.56175300  0.38582200  1
  C  C14  1  0.50000000  0.93824700  0.88582200  1
  C  C15  1  0.50000000  0.06175300  0.11417800  1
  Ni  Ni16  1  0.25000800  0.50000000  0.50000000  1
  Ni  Ni17  1  0.74999200  0.00000000  0.00000000  1
  Ni  Ni18  1  0.74999200  0.50000000  0.50000000  1
  Ni  Ni19  1  0.25000800  0.00000000  0.00000000  1
  Cu  Cu20  1  0.00000000  0.39391900  0.69708600  1
  Cu  Cu21  1  0.00000000  0.60608100  0.30291400  1
  Cu  Cu22  1  0.00000000  0.89391900  0.80291400  1
  Cu  Cu23  1  0.00000000  0.10608100  0.19708600  1
  Cu  Cu24  1  0.50000000  0.18353600  0.59621700  1
  Cu  Cu25  1  0.50000000  0.81646400  0.40378300  1
  Cu  Cu26  1  0.50000000  0.68353600  0.90378300  1
  Cu  Cu27  1  0.50000000  0.31646400  0.09621700  1
  Cu  Cu28  1  0.50000000  0.66535700  0.68273700  1
  Cu  Cu29  1  0.50000000  0.33464300  0.31726300  1
  Cu  Cu30  1  0.50000000  0.16535700  0.81726300  1
  Cu  Cu31  1  0.50000000  0.83464300  0.18273700  1
  Cu  Cu32  1  0.00000000  0.34117600  0.93839500  1
  Cu  Cu33  1  0.00000000  0.65882400  0.06160500  1
  Cu  Cu34  1  0.00000000  0.84117600  0.56160500  1
  Cu  Cu35  1  0.00000000  0.15882400  0.43839500  1
