# generated using pymatgen
data_Cu2NiC5
_symmetry_space_group_name_H-M   'P 1'
_cell_length_a   8.40834030
_cell_length_b   8.40834030
_cell_length_c   5.48159900
_cell_angle_alpha   90.00000000
_cell_angle_beta   90.00000000
_cell_angle_gamma   141.02636477
_symmetry_Int_Tables_number   1
_chemical_formula_structural   Cu2NiC5
_chemical_formula_sum   'Cu4 Ni2 C10'
_cell_volume   243.75454742
_cell_formula_units_Z   2
loop_
 _symmetry_equiv_pos_site_id
 _symmetry_equiv_pos_as_xyz
  1  'x, y, z'
loop_
 _atom_site_type_symbol
 _atom_site_label
 _atom_site_symmetry_multiplicity
 _atom_site_fract_x
 _atom_site_fract_y
 _atom_site_fract_z
 _atom_site_occupancy
  Ni  Ni0  1  0.68519900  0.68519900  0.30847300  1
  Ni  Ni1  1  0.31480100  0.31480100  0.80847300  1
  Cu  Cu2  1  0.95047600  0.61228000  0.75386300  1
  Cu  Cu3  1  0.04952400  0.38772000  0.25386300  1
  Cu  Cu4  1  0.38772000  0.04952400  0.25386300  1
  Cu  Cu5  1  0.61228000  0.95047600  0.75386300  1
  C  C6  1  0.76193700  0.26323500  0.52994900  1
  C  C7  1  0.23806300  0.73676500  0.02994900  1
  C  C8  1  0.73676500  0.23806300  0.02994900  1
  C  C9  1  0.26323500  0.76193700  0.52994900  1
  C  C10  1  0.92731300  0.73575400  0.35976600  1
  C  C11  1  0.07268700  0.26424600  0.85976600  1
  C  C12  1  0.41404300  0.41404300  0.49294100  1
  C  C13  1  0.58595700  0.58595700  0.99294100  1
  C  C14  1  0.73575400  0.92731300  0.35976600  1
  C  C15  1  0.26424600  0.07268700  0.85976600  1
