# generated using pymatgen
data_Cu2NiC10
_symmetry_space_group_name_H-M   'P 1'
_cell_length_a   4.16917022
_cell_length_b   5.30243704
_cell_length_c   10.22330160
_cell_angle_alpha   76.51687490
_cell_angle_beta   78.21699983
_cell_angle_gamma   66.81775407
_symmetry_Int_Tables_number   1
_chemical_formula_structural   Cu2NiC10
_chemical_formula_sum   'Cu2 Ni1 C10'
_cell_volume   200.42588053
_cell_formula_units_Z   1
loop_
 _symmetry_equiv_pos_site_id
 _symmetry_equiv_pos_as_xyz
  1  'x, y, z'
loop_
 _atom_site_type_symbol
 _atom_site_label
 _atom_site_symmetry_multiplicity
 _atom_site_fract_x
 _atom_site_fract_y
 _atom_site_fract_z
 _atom_site_occupancy
  C  C0  1  0.19500800  0.80558200  0.80458500  1
  C  C1  1  0.78055100  0.22509600  0.21371700  1
  Ni  Ni2  1  0.92107400  0.54271200  0.61558300  1
  Cu  Cu3  1  0.64379900  0.16779800  0.54559300  1
  Cu  Cu4  1  0.35455900  0.84918700  0.44144000  1
  C  C5  1  0.88611700  0.32438800  0.90355000  1
  C  C6  1  0.11357400  0.67731900  0.09549700  1
  C  C7  1  0.13674400  0.14941100  0.57760700  1
  C  C8  1  0.69798800  0.88237300  0.72191200  1
  C  C9  1  0.85701700  0.84675500  0.43881600  1
  C  C10  1  0.41068200  0.54317800  0.63594400  1
  C  C11  1  0.33923500  0.05966400  0.26190800  1
  C  C12  1  0.58032000  0.45153700  0.38759800  1
