# generated using pymatgen
data_Cu2NiC14
_symmetry_space_group_name_H-M   'P 1'
_cell_length_a   6.34307254
_cell_length_b   6.95867155
_cell_length_c   7.89123100
_cell_angle_alpha   68.20768160
_cell_angle_beta   117.70979633
_cell_angle_gamma   131.45219245
_symmetry_Int_Tables_number   1
_chemical_formula_structural   Cu2NiC14
_chemical_formula_sum   'Cu2 Ni1 C14'
_cell_volume   230.06571454
_cell_formula_units_Z   1
loop_
 _symmetry_equiv_pos_site_id
 _symmetry_equiv_pos_as_xyz
  1  'x, y, z'
loop_
 _atom_site_type_symbol
 _atom_site_label
 _atom_site_symmetry_multiplicity
 _atom_site_fract_x
 _atom_site_fract_y
 _atom_site_fract_z
 _atom_site_occupancy
  C  C0  1  0.30047964  0.51117185  0.73267214  1
  C  C1  1  0.30158069  0.65618929  0.21015782  1
  C  C2  1  0.70209785  0.34674974  0.78932106  1
  C  C3  1  0.70048011  0.48521635  0.26847774  1
  Ni  Ni4  1  0.48870834  0.99402483  0.50044091  1
  Cu  Cu5  1  0.99977628  0.00221758  0.49997762  1
  Cu  Cu6  1  0.99875738  0.99925148  0.00070194  1
  C  C7  1  0.04535070  0.70082747  0.57145379  1
  C  C8  1  0.33808366  0.00959114  0.21094441  1
  C  C9  1  0.58818734  0.75388329  0.52660479  1
  C  C10  1  0.20549075  0.10710915  0.78602782  1
  C  C11  1  0.80923337  0.61042801  0.98193685  1
  C  C12  1  0.19085224  0.38969088  0.01817445  1
  C  C13  1  0.79507574  0.89185630  0.21386365  1
  C  C14  1  0.41260515  0.24874196  0.47326991  1
  C  C15  1  0.66278580  0.99178003  0.78946832  1
  C  C16  1  0.96045396  0.30127064  0.42650878  1
