# generated using pymatgen
data_Cu2NiC16
_symmetry_space_group_name_H-M   'P 1'
_cell_length_a   5.22699611
_cell_length_b   5.12722561
_cell_length_c   9.84633300
_cell_angle_alpha   89.99996576
_cell_angle_beta   89.99987030
_cell_angle_gamma   90.37255412
_symmetry_Int_Tables_number   1
_chemical_formula_structural   Cu2NiC16
_chemical_formula_sum   'Cu2 Ni1 C16'
_cell_volume   263.87603080
_cell_formula_units_Z   1
loop_
 _symmetry_equiv_pos_site_id
 _symmetry_equiv_pos_as_xyz
  1  'x, y, z'
loop_
 _atom_site_type_symbol
 _atom_site_label
 _atom_site_symmetry_multiplicity
 _atom_site_fract_x
 _atom_site_fract_y
 _atom_site_fract_z
 _atom_site_occupancy
  Ni  Ni0  1  0.99999500  0.50000200  0.08242400  1
  Cu  Cu1  1  0.00000100  0.99999900  0.98182800  1
  Cu  Cu2  1  0.50000000  0.50000000  0.50410100  1
  C  C3  1  0.00000100  0.99999900  0.33757500  1
  C  C4  1  0.00000000  0.00000000  0.66560600  1
  C  C5  1  0.49999900  0.50000000  0.18384800  1
  C  C6  1  0.50000000  0.50000000  0.82356500  1
  C  C7  1  0.17130200  0.82543000  0.50025100  1
  C  C8  1  0.20972000  0.78227900  0.81170700  1
  C  C9  1  0.19476700  0.77430400  0.18386300  1
  C  C10  1  0.28411500  0.28088900  0.31380900  1
  C  C11  1  0.28784000  0.28385500  0.68681800  1
  C  C12  1  0.31209900  0.34869900  0.00470200  1
  C  C13  1  0.68789900  0.65130000  0.00470400  1
  C  C14  1  0.71589100  0.71911200  0.31380800  1
  C  C15  1  0.71215800  0.71614500  0.68681900  1
  C  C16  1  0.80523300  0.22569300  0.18386400  1
  C  C17  1  0.79027900  0.21772400  0.81170700  1
  C  C18  1  0.82869900  0.17457000  0.50025200  1
