# generated using pymatgen
data_Cu6NiC24
_symmetry_space_group_name_H-M   'P 1'
_cell_length_a   5.42704128
_cell_length_b   5.18357878
_cell_length_c   15.94035696
_cell_angle_alpha   90.81278960
_cell_angle_beta   100.17487392
_cell_angle_gamma   88.60431111
_symmetry_Int_Tables_number   1
_chemical_formula_structural   Cu6NiC24
_chemical_formula_sum   'Cu6 Ni1 C24'
_cell_volume   441.22056804
_cell_formula_units_Z   1
loop_
 _symmetry_equiv_pos_site_id
 _symmetry_equiv_pos_as_xyz
  1  'x, y, z'
loop_
 _atom_site_type_symbol
 _atom_site_label
 _atom_site_symmetry_multiplicity
 _atom_site_fract_x
 _atom_site_fract_y
 _atom_site_fract_z
 _atom_site_occupancy
  Ni  Ni0  1  0.31485400  0.98853600  0.44500900  1
  Cu  Cu1  1  0.98713000  0.98506200  0.00002400  1
  Cu  Cu2  1  0.15582700  0.50814900  0.31792000  1
  Cu  Cu3  1  0.32218800  0.00858300  0.67909300  1
  Cu  Cu4  1  0.45608400  0.46751100  0.99549200  1
  Cu  Cu5  1  0.65669700  0.07485700  0.31265300  1
  Cu  Cu6  1  0.80877200  0.44959700  0.66896400  1
  C  C7  1  0.03912300  0.21139500  0.65455600  1
  C  C8  1  0.20105900  0.29652400  0.97580500  1
  C  C9  1  0.36345300  0.21433100  0.29091600  1
  C  C10  1  0.54239600  0.27218200  0.65409000  1
  C  C11  1  0.85083300  0.30741200  0.29398800  1
  C  C12  1  0.13657300  0.71650400  0.69018600  1
  C  C13  1  0.03588100  0.11122300  0.10540600  1
  C  C14  1  0.19746600  0.35084300  0.42947200  1
  C  C15  1  0.38526500  0.07862400  0.78853200  1
  C  C16  1  0.13316600  0.65249200  0.21762600  1
  C  C17  1  0.29030200  0.91507600  0.55790900  1
  C  C18  1  0.46534900  0.60272500  0.89515700  1
  C  C19  1  0.67946900  0.19523000  0.96915200  1
  C  C20  1  0.30634600  0.78297000  0.02962500  1
  C  C21  1  0.44540800  0.71710600  0.36741500  1
  C  C22  1  0.62103700  0.78091100  0.69192500  1
  C  C23  1  0.56376800  0.40247500  0.10501700  1
  C  C24  1  0.66500600  0.10088700  0.43098900  1
  C  C25  1  0.88665900  0.44887800  0.78202300  1
  C  C26  1  0.64877400  0.85162500  0.22822500  1
  C  C27  1  0.78034800  0.58323500  0.56380100  1
  C  C28  1  0.98086000  0.91103300  0.89160300  1
  C  C29  1  0.80930100  0.69975500  0.02371600  1
  C  C30  1  0.99679400  0.82677100  0.36782100  1
