# generated using pymatgen
data_Cu5Ni7C5
_symmetry_space_group_name_H-M   'P 1'
_cell_length_a   5.34396341
_cell_length_b   5.46271592
_cell_length_c   8.81013283
_cell_angle_alpha   78.46313836
_cell_angle_beta   90.81238911
_cell_angle_gamma   58.43260468
_symmetry_Int_Tables_number   1
_chemical_formula_structural   Cu5Ni7C5
_chemical_formula_sum   'Cu5 Ni7 C5'
_cell_volume   212.51719382
_cell_formula_units_Z   1
loop_
 _symmetry_equiv_pos_site_id
 _symmetry_equiv_pos_as_xyz
  1  'x, y, z'
loop_
 _atom_site_type_symbol
 _atom_site_label
 _atom_site_symmetry_multiplicity
 _atom_site_fract_x
 _atom_site_fract_y
 _atom_site_fract_z
 _atom_site_occupancy
  C  C0  1  0.30362800  0.38100400  0.10145800  1
  C  C1  1  0.75216300  0.50464300  0.25729600  1
  C  C2  1  0.43708800  0.98247000  0.52779500  1
  C  C3  1  0.22763100  0.51440100  0.73564800  1
  C  C4  1  0.04718800  0.99718900  0.00266500  1
  Ni  Ni5  1  0.99554600  0.27300400  0.12253100  1
  Ni  Ni6  1  0.56574600  0.75963000  0.36892200  1
  Ni  Ni7  1  0.41698300  0.74445400  0.07650300  1
  Ni  Ni8  1  0.41242700  0.73365900  0.66663500  1
  Ni  Ni9  1  0.45918000  0.22265900  0.63636600  1
  Ni  Ni10  1  0.07474600  0.70159500  0.88625000  1
  Ni  Ni11  1  0.09091400  0.22610000  0.42736100  1
  Cu  Cu12  1  0.90534200  0.75682900  0.57188500  1
  Cu  Cu13  1  0.96497500  0.73442000  0.17874800  1
  Cu  Cu14  1  0.56864900  0.27078600  0.29572700  1
  Cu  Cu15  1  0.59389600  0.21114100  0.95271000  1
  Cu  Cu16  1  0.05889900  0.24851900  0.82006800  1
