# generated using pymatgen
data_Cu6NiC3
_symmetry_space_group_name_H-M   'P 1'
_cell_length_a   8.93722337
_cell_length_b   8.93912388
_cell_length_c   21.92302758
_cell_angle_alpha   89.81217711
_cell_angle_beta   90.00000000
_cell_angle_gamma   119.99296727
_symmetry_Int_Tables_number   1
_chemical_formula_structural   Cu6NiC3
_chemical_formula_sum   'Cu72 Ni12 C36'
_cell_volume   1516.89804615
_cell_formula_units_Z   12
loop_
 _symmetry_equiv_pos_site_id
 _symmetry_equiv_pos_as_xyz
  1  'x, y, z'
loop_
 _atom_site_type_symbol
 _atom_site_label
 _atom_site_symmetry_multiplicity
 _atom_site_fract_x
 _atom_site_fract_y
 _atom_site_fract_z
 _atom_site_occupancy
  C  C0  1  0.63099377  0.99871755  0.25575446  1
  C  C1  1  0.00862769  0.64628173  0.24225695  1
  C  C2  1  0.63765404  0.64628173  0.74225695  1
  C  C3  1  0.36772378  0.99871755  0.75575446  1
  C  C4  1  0.31416422  0.34001879  0.58511489  1
  C  C5  1  0.66471428  0.96081326  0.58360100  1
  C  C6  1  0.29609999  0.96081326  0.08360100  1
  C  C7  1  0.02585556  0.34001879  0.08511489  1
  C  C8  1  0.97943272  0.67227434  0.92492397  1
  C  C9  1  0.68703409  0.02620973  0.90799570  1
  C  C10  1  0.33917464  0.02620973  0.40799570  1
  C  C11  1  0.69284062  0.67227434  0.42492397  1
  C  C12  1  0.98224836  0.99078101  0.49974019  1
  C  C13  1  0.00853265  0.99078101  0.99974019  1
  C  C14  1  0.66014533  0.31728568  0.83331013  1
  C  C15  1  0.65714135  0.31728568  0.33331013  1
  C  C16  1  0.34092199  0.65905464  0.16679926  1
  C  C17  1  0.31813165  0.65905464  0.66679926  1
  C  C18  1  0.00560089  0.00765228  0.34991817  1
  C  C19  1  0.00205138  0.00765228  0.84991817  1
  C  C20  1  0.98995676  0.99109329  0.64966857  1
  C  C21  1  0.00113653  0.99109329  0.14966857  1
  C  C22  1  0.67742479  0.33621764  0.68320361  1
  C  C23  1  0.65879384  0.33621764  0.18320361  1
  C  C24  1  0.66026489  0.33574928  0.98346103  1
  C  C25  1  0.67548539  0.33574928  0.48346103  1
  C  C26  1  0.33098701  0.66934166  0.01628656  1
  C  C27  1  0.33835364  0.66934166  0.51628656  1
  C  C28  1  0.33530041  0.67117131  0.31749065  1
  C  C29  1  0.33586990  0.67117131  0.81749065  1
  C  C30  1  0.30135687  0.00124695  0.25059111  1
  C  C31  1  0.69989008  0.00124695  0.75059111  1
  C  C32  1  0.66701507  0.63021748  0.58285181  1
  C  C33  1  0.96320341  0.63021748  0.08285181  1
  C  C34  1  0.33306569  0.97092366  0.91684652  1
  C  C35  1  0.63785697  0.97092366  0.41684652  1
  Ni  Ni36  1  0.70310335  0.70298350  0.25228809  1
  Ni  Ni37  1  0.00169088  0.29771062  0.24749649  1
  Ni  Ni38  1  0.29601974  0.29771062  0.74749649  1
  Ni  Ni39  1  -0.00011985  0.70298350  0.75228809  1
  Ni  Ni40  1  0.96751379  0.33564485  0.58365989  1
  Ni  Ni41  1  0.36692564  0.03595587  0.58338233  1
  Ni  Ni42  1  0.66903123  0.03595587  0.08338233  1
  Ni  Ni43  1  0.36813207  0.33564485  0.08365989  1
  Ni  Ni44  1  0.62782803  0.66377842  0.91516103  1
  Ni  Ni45  1  0.03854441  0.36876861  0.91802691  1
  Ni  Ni46  1  0.33022320  0.36876861  0.41802691  1
  Ni  Ni47  1  0.03594939  0.66377842  0.41516103  1
  Cu  Cu48  1  0.21347535  0.01411080  0.30939243  1
  Cu  Cu49  1  0.80389838  0.78253461  0.30866892  1
  Cu  Cu50  1  0.97770345  0.18452392  0.29972080  1
  Cu  Cu51  1  0.20682048  0.18452392  0.79972080  1
  Cu  Cu52  1  0.97863622  0.78253461  0.80866892  1
  Cu  Cu53  1  0.80063546  0.01411080  0.80939243  1
  Cu  Cu54  1  0.78918035  0.97905326  0.69379111  1
  Cu  Cu55  1  0.20388173  0.21961672  0.68972035  1
  Cu  Cu56  1  0.02937631  0.81804456  0.69945412  1
  Cu  Cu57  1  0.78866826  0.81804456  0.19945412  1
  Cu  Cu58  1  0.01573498  0.21961672  0.18972035  1
  Cu  Cu59  1  0.18987290  0.97905326  0.19379111  1
  Cu  Cu60  1  0.88666065  0.35195738  0.63937295  1
  Cu  Cu61  1  0.47608053  0.11903794  0.63789350  1
  Cu  Cu62  1  0.64731363  0.52022818  0.64012779  1
  Cu  Cu63  1  0.87291556  0.52022818  0.14012779  1
  Cu  Cu64  1  0.64295842  0.11903794  0.13789350  1
  Cu  Cu65  1  0.46529773  0.35195738  0.13937295  1
  Cu  Cu66  1  0.45024192  0.30795518  0.02965923  1
  Cu  Cu67  1  0.86354717  0.53944990  0.02429527  1
  Cu  Cu68  1  0.69014217  0.14155308  0.02810352  1
  Cu  Cu69  1  0.45141191  0.14155308  0.52810352  1
  Cu  Cu70  1  0.67590373  0.53944990  0.52429527  1
  Cu  Cu71  1  0.85771426  0.30795518  0.52965923  1
  Cu  Cu72  1  0.53313844  0.67909452  0.96746787  1
  Cu  Cu73  1  0.13061368  0.44501657  0.97590266  1
  Cu  Cu74  1  0.30709429  0.85647572  0.97391733  1
  Cu  Cu75  1  0.54938043  0.85647572  0.47391733  1
  Cu  Cu76  1  0.31440188  0.44501657  0.47590266  1
  Cu  Cu77  1  0.14595509  0.67909452  0.46746787  1
  Cu  Cu78  1  0.11184159  0.64736743  0.35731823  1
  Cu  Cu79  1  0.52340064  0.88283264  0.35994833  1
  Cu  Cu80  1  0.34531916  0.47895474  0.36577030  1
  Cu  Cu81  1  0.13363458  0.47895474  0.86577030  1
  Cu  Cu82  1  0.35943100  0.88283264  0.85994833  1
  Cu  Cu83  1  0.53552484  0.64736743  0.85731823  1
  Cu  Cu84  1  0.02271419  0.82536305  0.41429312  1
  Cu  Cu85  1  0.81738262  0.98454194  0.41107935  1
  Cu  Cu86  1  0.18087666  0.19062789  0.41327256  1
  Cu  Cu87  1  0.00975123  0.19062789  0.91327256  1
  Cu  Cu88  1  0.16715932  0.98454194  0.91107935  1
  Cu  Cu89  1  0.80264886  0.82536305  0.91429312  1
  Cu  Cu90  1  0.99097269  0.17998204  0.58721459  1
  Cu  Cu91  1  0.19594441  0.02489487  0.58898064  1
  Cu  Cu92  1  0.82556427  0.81598191  0.58592305  1
  Cu  Cu93  1  0.99041765  0.81598191  0.08592305  1
  Cu  Cu94  1  0.82895046  0.02489487  0.08898064  1
  Cu  Cu95  1  0.18900935  0.17998204  0.08721459  1
  Cu  Cu96  1  0.67084281  0.15874012  0.74619453  1
  Cu  Cu97  1  0.47384122  0.31833284  0.74579326  1
  Cu  Cu98  1  0.83965653  0.53294626  0.74555506  1
  Cu  Cu99  1  0.69329073  0.53294626  0.24555506  1
  Cu  Cu100  1  0.84449262  0.31833284  0.24579326  1
  Cu  Cu101  1  0.48789832  0.15874012  0.24619453  1
  Cu  Cu102  1  0.65767032  0.51488155  0.92019423  1
  Cu  Cu103  1  0.86335058  0.35475608  0.91881859  1
  Cu  Cu104  1  0.50026740  0.14981509  0.92228038  1
  Cu  Cu105  1  0.64954868  0.14981509  0.42228038  1
  Cu  Cu106  1  0.49140650  0.35475608  0.41881859  1
  Cu  Cu107  1  0.85721224  0.51488155  0.42019423  1
  Cu  Cu108  1  0.34690659  0.48993348  0.07754939  1
  Cu  Cu109  1  0.14824026  0.64814563  0.08124069  1
  Cu  Cu110  1  0.51464124  0.86081339  0.07865152  1
  Cu  Cu111  1  0.34617115  0.86081339  0.57865152  1
  Cu  Cu112  1  0.49990437  0.64814563  0.58124069  1
  Cu  Cu113  1  0.14302589  0.48993348  0.57754939  1
  Cu  Cu114  1  0.31833566  0.83371505  0.25273835  1
  Cu  Cu115  1  0.52673585  0.68015121  0.25648813  1
  Cu  Cu116  1  0.15580956  0.47337832  0.25337849  1
  Cu  Cu117  1  0.31756776  0.47337832  0.75337849  1
  Cu  Cu118  1  0.15341436  0.68015121  0.75648813  1
  Cu  Cu119  1  0.51537838  0.83371505  0.75273835  1
