# generated using pymatgen
data_Cu2Ni6C7
_symmetry_space_group_name_H-M   'P 1'
_cell_length_a   7.11174300
_cell_length_b   8.70719500
_cell_length_c   9.30980769
_cell_angle_alpha   82.51515056
_cell_angle_beta   90.00000000
_cell_angle_gamma   90.00000000
_symmetry_Int_Tables_number   1
_chemical_formula_structural   Cu2Ni6C7
_chemical_formula_sum   'Cu8 Ni24 C28'
_cell_volume   571.58221148
_cell_formula_units_Z   4
loop_
 _symmetry_equiv_pos_site_id
 _symmetry_equiv_pos_as_xyz
  1  'x, y, z'
loop_
 _atom_site_type_symbol
 _atom_site_label
 _atom_site_symmetry_multiplicity
 _atom_site_fract_x
 _atom_site_fract_y
 _atom_site_fract_z
 _atom_site_occupancy
  C  C0  1  0.50000000  0.50000000  0.00000000  1
  C  C1  1  0.00000000  0.50000000  0.50000000  1
  C  C2  1  0.50000000  0.00000000  0.50000000  1
  C  C3  1  0.00000000  0.00000000  0.00000000  1
  Ni  Ni4  1  0.97126400  0.67570600  0.89484700  1
  Ni  Ni5  1  0.47126400  0.32429400  0.60515300  1
  Ni  Ni6  1  0.02873600  0.32429400  0.10515300  1
  Ni  Ni7  1  0.52873600  0.67570600  0.39484700  1
  Ni  Ni8  1  0.79151900  0.07079400  0.72428700  1
  Ni  Ni9  1  0.29151900  0.92920600  0.77571300  1
  Ni  Ni10  1  0.20848100  0.92920600  0.27571300  1
  Ni  Ni11  1  0.70848100  0.07079400  0.22428700  1
  Ni  Ni12  1  0.61928400  0.78321900  0.00845700  1
  Ni  Ni13  1  0.11928400  0.21678100  0.49154300  1
  Ni  Ni14  1  0.38071600  0.21678100  0.99154300  1
  Ni  Ni15  1  0.88071600  0.78321900  0.50845700  1
  Ni  Ni16  1  0.09930300  0.76443200  0.54765400  1
  Ni  Ni17  1  0.59930300  0.23556800  0.95234600  1
  Ni  Ni18  1  0.90069700  0.23556800  0.45234600  1
  Ni  Ni19  1  0.90632100  0.69740400  0.26201900  1
  Ni  Ni20  1  0.64626700  0.52974800  0.72035100  1
  Ni  Ni21  1  0.14626700  0.47025200  0.77964900  1
  Ni  Ni22  1  0.35373300  0.47025200  0.27964900  1
  Ni  Ni23  1  0.85373300  0.52974800  0.22035100  1
  Ni  Ni24  1  0.59367900  0.69740400  0.76201900  1
  Ni  Ni25  1  0.09367900  0.30259600  0.73798100  1
  Ni  Ni26  1  0.40632100  0.30259600  0.23798100  1
  Ni  Ni27  1  0.40069700  0.76443200  0.04765400  1
  Cu  Cu28  1  0.11556800  0.67766900  0.93857100  1
  Cu  Cu29  1  0.61556800  0.32233100  0.56142900  1
  Cu  Cu30  1  0.88443200  0.32233100  0.06142900  1
  Cu  Cu31  1  0.38443200  0.67766900  0.43857100  1
  Cu  Cu32  1  0.77527900  0.96248700  0.27361000  1
  Cu  Cu33  1  0.27527900  0.03751300  0.22639000  1
  Cu  Cu34  1  0.72472100  0.96248700  0.77361000  1
  Cu  Cu35  1  0.22472100  0.03751300  0.72639000  1
  C  C36  1  0.97277100  0.71734500  0.56881900  1
  C  C37  1  0.47277100  0.28265500  0.93118100  1
  C  C38  1  0.02722900  0.28265500  0.43118100  1
  C  C39  1  0.52722900  0.71734500  0.06881900  1
  C  C40  1  0.60892000  0.58707700  0.80145700  1
  C  C41  1  0.10892000  0.41292300  0.69854300  1
  C  C42  1  0.39108000  0.41292300  0.19854300  1
  C  C43  1  0.89108000  0.58707700  0.30145700  1
  C  C44  1  0.22066400  0.56295900  0.92381900  1
  C  C45  1  0.72066400  0.43704100  0.57618100  1
  C  C46  1  0.77933600  0.43704100  0.07618100  1
  C  C47  1  0.27933600  0.56295900  0.42381900  1
  C  C48  1  0.33528600  0.79549400  0.49867000  1
  C  C49  1  0.83528600  0.20450600  0.00133000  1
  C  C50  1  0.72503600  0.90675000  0.40100400  1
  C  C51  1  0.16471400  0.79549400  0.99867000  1
  C  C52  1  0.60228600  0.89976900  0.70076700  1
  C  C53  1  0.10228600  0.10023100  0.79923300  1
  C  C54  1  0.39771400  0.10023100  0.29923300  1
  C  C55  1  0.89771400  0.89976900  0.20076700  1
  C  C56  1  0.77496400  0.90675000  0.90100400  1
  C  C57  1  0.27496400  0.09325000  0.59899600  1
  C  C58  1  0.22503600  0.09325000  0.09899600  1
  C  C59  1  0.66471400  0.20450600  0.50133000  1
