# generated using pymatgen
data_Cu12NiC4
_symmetry_space_group_name_H-M   'P 1'
_cell_length_a   8.88289937
_cell_length_b   8.89345632
_cell_length_c   22.91506856
_cell_angle_alpha   90.12970198
_cell_angle_beta   90.00000000
_cell_angle_gamma   119.96074059
_symmetry_Int_Tables_number   1
_chemical_formula_structural   Cu12NiC4
_chemical_formula_sum   'Cu72 Ni6 C24'
_cell_volume   1568.36557671
_cell_formula_units_Z   6
loop_
 _symmetry_equiv_pos_site_id
 _symmetry_equiv_pos_as_xyz
  1  'x, y, z'
loop_
 _atom_site_type_symbol
 _atom_site_label
 _atom_site_symmetry_multiplicity
 _atom_site_fract_x
 _atom_site_fract_y
 _atom_site_fract_z
 _atom_site_occupancy
  C  C0  1  -0.00014741  0.00304545  0.35605310  1
  C  C1  1  0.00319286  0.00304545  0.85605310  1
  C  C2  1  0.99229106  0.00561610  0.64395220  1
  C  C3  1  0.01332504  0.00561610  0.14395220  1
  C  C4  1  0.66651959  0.33637845  0.68938610  1
  C  C5  1  0.66985986  0.33637845  0.18938610  1
  C  C6  1  0.65895806  0.33894910  0.97728520  1
  C  C7  1  0.67999204  0.33894910  0.47728520  1
  C  C8  1  0.33318559  0.66971245  0.02272010  1
  C  C9  1  0.33652586  0.66971245  0.52272010  1
  C  C10  1  0.32562406  0.67228310  0.31061920  1
  C  C11  1  0.34665804  0.67228310  0.81061920  1
  C  C12  1  0.28915867  0.00304786  0.25035211  1
  C  C13  1  0.00056881  0.28725954  0.24995056  1
  C  C14  1  0.28669073  0.28725954  0.74995056  1
  C  C15  1  0.71388919  0.00304786  0.75035211  1
  C  C16  1  0.95582567  0.33638086  0.58368511  1
  C  C17  1  0.66723581  0.62059254  0.58328356  1
  C  C18  1  0.95335773  0.62059254  0.08328356  1
  C  C19  1  0.38055619  0.33638086  0.08368511  1
  C  C20  1  0.62249167  0.66971486  0.91701911  1
  C  C21  1  0.33390181  0.95392654  0.91661756  1
  C  C22  1  0.62002373  0.95392654  0.41661756  1
  C  C23  1  0.04722219  0.66971486  0.41701911  1
  Ni  Ni24  1  0.71131294  0.71290221  0.24991507  1
  Ni  Ni25  1  0.00158927  0.71290221  0.74991507  1
  Ni  Ni26  1  0.37797994  0.04623521  0.58324807  1
  Ni  Ni27  1  0.66825627  0.04623521  0.08324807  1
  Ni  Ni28  1  0.04464594  0.37956921  0.91658207  1
  Ni  Ni29  1  0.33492227  0.37956921  0.41658207  1
  Cu  Cu30  1  0.20174270  0.02911398  0.30415600  1
  Cu  Cu31  1  0.82067093  0.79099469  0.30221178  1
  Cu  Cu32  1  0.97096344  0.17239961  0.30400191  1
  Cu  Cu33  1  0.20143617  0.17239961  0.80400191  1
  Cu  Cu34  1  0.97032376  0.79099469  0.80221178  1
  Cu  Cu35  1  0.82737127  0.02911398  0.80415600  1
  Cu  Cu36  1  0.79663336  0.96929586  0.69620372  1
  Cu  Cu37  1  0.17293620  0.19927664  0.69576997  1
  Cu  Cu38  1  0.03005028  0.81985761  0.69778930  1
  Cu  Cu39  1  0.78980733  0.81985761  0.19778930  1
  Cu  Cu40  1  0.02634044  0.19927664  0.19576997  1
  Cu  Cu41  1  0.17266250  0.96929586  0.19620372  1
  Cu  Cu42  1  0.86840970  0.36244698  0.63748900  1
  Cu  Cu43  1  0.48733793  0.12432769  0.63554478  1
  Cu  Cu44  1  0.63763044  0.50573261  0.63733491  1
  Cu  Cu45  1  0.86810317  0.50573261  0.13733491  1
  Cu  Cu46  1  0.63699076  0.12432769  0.13554478  1
  Cu  Cu47  1  0.49403827  0.36244698  0.13748900  1
  Cu  Cu48  1  0.46330036  0.30262886  0.02953672  1
  Cu  Cu49  1  0.83960320  0.53260964  0.02910297  1
  Cu  Cu50  1  0.69671728  0.15319061  0.03112230  1
  Cu  Cu51  1  0.45647433  0.15319061  0.53112230  1
  Cu  Cu52  1  0.69300744  0.53260964  0.52910297  1
  Cu  Cu53  1  0.83932950  0.30262886  0.52953672  1
  Cu  Cu54  1  0.53507570  0.69578098  0.97082300  1
  Cu  Cu55  1  0.15400393  0.45766169  0.96887878  1
  Cu  Cu56  1  0.30429644  0.83906661  0.97066891  1
  Cu  Cu57  1  0.53476917  0.83906661  0.47066891  1
  Cu  Cu58  1  0.30365676  0.45766169  0.46887878  1
  Cu  Cu59  1  0.16070427  0.69578098  0.47082300  1
  Cu  Cu60  1  0.12996636  0.63596286  0.36287072  1
  Cu  Cu61  1  0.50626920  0.86594364  0.36243697  1
  Cu  Cu62  1  0.36338328  0.48652461  0.36445630  1
  Cu  Cu63  1  0.12314033  0.48652461  0.86445630  1
  Cu  Cu64  1  0.35967344  0.86594364  0.86243697  1
  Cu  Cu65  1  0.50599550  0.63596286  0.86287072  1
  Cu  Cu66  1  0.02506594  0.82762481  0.40636786  1
  Cu  Cu67  1  0.80104255  0.97505699  0.40669104  1
  Cu  Cu68  1  0.17934942  0.20552674  0.40872555  1
  Cu  Cu69  1  0.02617732  0.20552674  0.90872555  1
  Cu  Cu70  1  0.17401444  0.97505699  0.90669104  1
  Cu  Cu71  1  0.80255887  0.82762481  0.90636786  1
  Cu  Cu72  1  0.97597991  0.17530166  0.59205015  1
  Cu  Cu73  1  0.20358362  0.02371732  0.59234773  1
  Cu  Cu74  1  0.82844185  0.79996294  0.59346194  1
  Cu  Cu75  1  0.97152109  0.79996294  0.09346194  1
  Cu  Cu76  1  0.82013370  0.02371732  0.09234773  1
  Cu  Cu77  1  0.19932174  0.17530166  0.09205015  1
  Cu  Cu78  1  0.69173294  0.16095781  0.73970086  1
  Cu  Cu79  1  0.46770955  0.30838999  0.74002404  1
  Cu  Cu80  1  0.84601642  0.53885974  0.74205855  1
  Cu  Cu81  1  0.69284432  0.53885974  0.24205855  1
  Cu  Cu82  1  0.84068144  0.30838999  0.24002404  1
  Cu  Cu83  1  0.46922587  0.16095781  0.23970086  1
  Cu  Cu84  1  0.64264691  0.50863466  0.92538315  1
  Cu  Cu85  1  0.87025062  0.35705032  0.92568073  1
  Cu  Cu86  1  0.49510885  0.13329594  0.92679494  1
  Cu  Cu87  1  0.63818809  0.13329594  0.42679494  1
  Cu  Cu88  1  0.48680070  0.35705032  0.42568073  1
  Cu  Cu89  1  0.86598874  0.50863466  0.42538315  1
  Cu  Cu90  1  0.35839894  0.49429181  0.07303486  1
  Cu  Cu91  1  0.13437555  0.64172399  0.07335804  1
  Cu  Cu92  1  0.51268242  0.87219374  0.07539255  1
  Cu  Cu93  1  0.35951032  0.87219374  0.57539255  1
  Cu  Cu94  1  0.50734744  0.64172399  0.57335804  1
  Cu  Cu95  1  0.13589187  0.49429181  0.57303486  1
  Cu  Cu96  1  0.30931291  0.84196866  0.25871715  1
  Cu  Cu97  1  0.53691662  0.69038432  0.25901473  1
  Cu  Cu98  1  0.16177485  0.46662994  0.26012894  1
  Cu  Cu99  1  0.30485409  0.46662994  0.76012894  1
  Cu  Cu100  1  0.15346670  0.69038432  0.75901473  1
  Cu  Cu101  1  0.53265474  0.84196866  0.75871715  1
