# generated using pymatgen
data_Cu2Ni8C11
_symmetry_space_group_name_H-M   'P 1'
_cell_length_a   27.32356800
_cell_length_b   5.38794600
_cell_length_c   6.23831550
_cell_angle_alpha   58.95612298
_cell_angle_beta   90.00000000
_cell_angle_gamma   90.00000000
_symmetry_Int_Tables_number   1
_chemical_formula_structural   Cu2Ni8C11
_chemical_formula_sum   'Cu8 Ni32 C44'
_cell_volume   786.85292947
_cell_formula_units_Z   4
loop_
 _symmetry_equiv_pos_site_id
 _symmetry_equiv_pos_as_xyz
  1  'x, y, z'
loop_
 _atom_site_type_symbol
 _atom_site_label
 _atom_site_symmetry_multiplicity
 _atom_site_fract_x
 _atom_site_fract_y
 _atom_site_fract_z
 _atom_site_occupancy
  C  C0  1  0.37490200  0.68959600  0.78315200  1
  C  C1  1  0.87490200  0.31040400  0.71684800  1
  C  C2  1  0.62509800  0.31040400  0.21684800  1
  C  C3  1  0.12509800  0.68959600  0.28315200  1
  Ni  Ni4  1  0.33116700  0.17431900  0.92375800  1
  Ni  Ni5  1  0.83116700  0.82568100  0.57624200  1
  Ni  Ni6  1  0.66883300  0.82568100  0.07624200  1
  Ni  Ni7  1  0.16883300  0.17431900  0.42375800  1
  Ni  Ni8  1  0.28753800  0.40345300  0.83123300  1
  Ni  Ni9  1  0.78753800  0.59654700  0.66876700  1
  Ni  Ni10  1  0.71246200  0.59654700  0.16876700  1
  Ni  Ni11  1  0.21246200  0.40345300  0.33123300  1
  Ni  Ni12  1  0.44091700  0.70665300  0.43316500  1
  Ni  Ni13  1  0.94091700  0.29334700  0.06683500  1
  Ni  Ni14  1  0.55908300  0.29334700  0.56683500  1
  Ni  Ni15  1  0.05908300  0.70665300  0.93316500  1
  Ni  Ni16  1  0.41378900  0.40863500  0.58144500  1
  Ni  Ni17  1  0.91378900  0.59136500  0.91855500  1
  Ni  Ni18  1  0.58621100  0.59136500  0.41855500  1
  Ni  Ni19  1  0.08621100  0.40863500  0.08144500  1
  Ni  Ni20  1  0.39117400  0.24813700  0.22969200  1
  Ni  Ni21  1  0.89117400  0.75186300  0.27030800  1
  Ni  Ni22  1  0.60882600  0.75186300  0.77030800  1
  Ni  Ni23  1  0.10882600  0.24813700  0.72969200  1
  Ni  Ni24  1  0.44622100  0.31476600  0.11901600  1
  Ni  Ni25  1  0.94622100  0.68523400  0.38098400  1
  Ni  Ni26  1  0.55377900  0.68523400  0.88098400  1
  Ni  Ni27  1  0.05377900  0.31476600  0.61901600  1
  Ni  Ni28  1  0.31929900  0.64899500  0.15242400  1
  Ni  Ni29  1  0.81929900  0.35100500  0.34757600  1
  Ni  Ni30  1  0.68070100  0.35100500  0.84757600  1
  Ni  Ni31  1  0.18070100  0.64899500  0.65242400  1
  Ni  Ni32  1  0.37067700  0.74064300  0.20117400  1
  Ni  Ni33  1  0.87067700  0.25935700  0.29882600  1
  Ni  Ni34  1  0.62932300  0.25935700  0.79882600  1
  Ni  Ni35  1  0.12932300  0.74064300  0.70117400  1
  Cu  Cu36  1  0.29535500  0.11808200  0.49199100  1
  Cu  Cu37  1  0.79535500  0.88191800  0.00800900  1
  Cu  Cu38  1  0.70464500  0.88191800  0.50800900  1
  Cu  Cu39  1  0.20464500  0.11808200  0.99199100  1
  Cu  Cu40  1  0.47473600  0.99758400  0.73759500  1
  Cu  Cu41  1  0.97473600  0.00241600  0.76240500  1
  Cu  Cu42  1  0.52526400  0.00241600  0.26240500  1
  Cu  Cu43  1  0.02526400  0.99758400  0.23759500  1
  C  C44  1  0.32341700  0.38378000  0.82385300  1
  C  C45  1  0.82341700  0.61622000  0.67614700  1
  C  C46  1  0.67658300  0.61622000  0.17614700  1
  C  C47  1  0.17658300  0.38378000  0.32385300  1
  C  C48  1  0.40798600  0.62184700  0.49572200  1
  C  C49  1  0.90798600  0.37815300  0.00427800  1
  C  C50  1  0.59201400  0.37815300  0.50427800  1
  C  C51  1  0.09201400  0.62184700  0.99572200  1
  C  C52  1  0.41085800  0.33502300  0.07576700  1
  C  C53  1  0.91085800  0.66497700  0.42423300  1
  C  C54  1  0.58914200  0.66497700  0.92423300  1
  C  C55  1  0.08914200  0.33502300  0.57576700  1
  C  C56  1  0.34691500  0.78655100  0.06496800  1
  C  C57  1  0.84691500  0.21344900  0.43503200  1
  C  C58  1  0.65308500  0.21344900  0.93503200  1
  C  C59  1  0.15308500  0.78655100  0.56496800  1
  C  C60  1  0.26900800  0.93187900  0.65860300  1
  C  C61  1  0.76900800  0.06812100  0.84139700  1
  C  C62  1  0.73099200  0.06812100  0.34139700  1
  C  C63  1  0.23099200  0.93187900  0.15860300  1
  C  C64  1  0.27899900  0.36341700  0.32613500  1
  C  C65  1  0.77899900  0.63658300  0.17386500  1
  C  C66  1  0.72100100  0.63658300  0.67386500  1
  C  C67  1  0.22100100  0.36341700  0.82613500  1
  C  C68  1  0.34173200  0.06651600  0.48290000  1
  C  C69  1  0.84173200  0.93348400  0.01710000  1
  C  C70  1  0.65826800  0.93348400  0.51710000  1
  C  C71  1  0.15826800  0.06651600  0.98290000  1
  C  C72  1  0.50014500  0.19940600  0.72130200  1
  C  C73  1  0.00014500  0.80059400  0.77869800  1
  C  C74  1  0.49985500  0.80059400  0.27869800  1
  C  C75  1  0.99985500  0.19940600  0.22130200  1
  C  C76  1  0.49241200  0.76246000  0.77774900  1
  C  C77  1  0.99241200  0.23754000  0.72225100  1
  C  C78  1  0.50758800  0.23754000  0.22225100  1
  C  C79  1  0.00758800  0.76246000  0.27774900  1
  C  C80  1  0.42762700  0.03533600  0.70899300  1
  C  C81  1  0.92762700  0.96466400  0.79100700  1
  C  C82  1  0.57237300  0.96466400  0.29100700  1
  C  C83  1  0.07237300  0.03533600  0.20899300  1
