# generated using pymatgen
data_CuNiC9
_symmetry_space_group_name_H-M   'P 1'
_cell_length_a   6.51378694
_cell_length_b   6.50365631
_cell_length_c   6.51060247
_cell_angle_alpha   51.86468472
_cell_angle_beta   51.83688666
_cell_angle_gamma   51.82296428
_symmetry_Int_Tables_number   1
_chemical_formula_structural   CuNiC9
_chemical_formula_sum   'Cu1 Ni1 C9'
_cell_volume   157.60256198
_cell_formula_units_Z   1
loop_
 _symmetry_equiv_pos_site_id
 _symmetry_equiv_pos_as_xyz
  1  'x, y, z'
loop_
 _atom_site_type_symbol
 _atom_site_label
 _atom_site_symmetry_multiplicity
 _atom_site_fract_x
 _atom_site_fract_y
 _atom_site_fract_z
 _atom_site_occupancy
  C  C0  1  0.78695472  0.78829438  0.78913583  1
  C  C1  1  0.32583838  0.32568674  0.32729248  1
  Ni  Ni2  1  0.13743202  0.13908330  0.14038486  1
  C  C3  1  0.97213470  0.97190307  0.97260117  1
  Cu  Cu4  1  0.55557978  0.55573219  0.55671165  1
  C  C5  1  0.33950478  0.77713635  0.05634791  1
  C  C6  1  0.77714816  0.05532306  0.34066288  1
  C  C7  1  0.05692162  0.33935236  0.77834327  1
  C  C8  1  0.55117746  0.21081242  0.90693659  1
  C  C9  1  0.90600425  0.54967959  0.21170176  1
  C  C10  1  0.21035213  0.90604454  0.55083360  1
