# generated using pymatgen
data_Cu4NiC6
_symmetry_space_group_name_H-M   'P 1'
_cell_length_a   8.70890600
_cell_length_b   8.70890600
_cell_length_c   9.37756200
_cell_angle_alpha   90.00000000
_cell_angle_beta   90.00000000
_cell_angle_gamma   90.00000000
_symmetry_Int_Tables_number   1
_chemical_formula_structural   Cu4NiC6
_chemical_formula_sum   'Cu8 Ni2 C12'
_cell_volume   711.24159985
_cell_formula_units_Z   2
loop_
 _symmetry_equiv_pos_site_id
 _symmetry_equiv_pos_as_xyz
  1  'x, y, z'
loop_
 _atom_site_type_symbol
 _atom_site_label
 _atom_site_symmetry_multiplicity
 _atom_site_fract_x
 _atom_site_fract_y
 _atom_site_fract_z
 _atom_site_occupancy
  C  C0  1  0.68062100  0.88980900  0.50000000  1
  C  C1  1  0.31937900  0.11019100  0.50000000  1
  C  C2  1  0.61019100  0.81937900  0.00000000  1
  C  C3  1  0.11019100  0.68062100  0.50000000  1
  C  C4  1  0.88980900  0.31937900  0.50000000  1
  C  C5  1  0.18062100  0.61019100  0.00000000  1
  C  C6  1  0.81937900  0.38980900  0.00000000  1
  C  C7  1  0.38980900  0.18062100  0.00000000  1
  C  C8  1  0.00000000  0.00000000  0.80388300  1
  C  C9  1  0.50000000  0.50000000  0.69611700  1
  C  C10  1  0.00000000  0.00000000  0.19611700  1
  C  C11  1  0.50000000  0.50000000  0.30388300  1
  Ni  Ni12  1  0.00000000  0.00000000  0.50000000  1
  Ni  Ni13  1  0.50000000  0.50000000  0.00000000  1
  Cu  Cu14  1  0.17555600  0.32444400  0.75000000  1
  Cu  Cu15  1  0.67555600  0.17555600  0.75000000  1
  Cu  Cu16  1  0.32444400  0.82444400  0.75000000  1
  Cu  Cu17  1  0.82444400  0.67555600  0.75000000  1
  Cu  Cu18  1  0.82444400  0.67555600  0.25000000  1
  Cu  Cu19  1  0.32444400  0.82444400  0.25000000  1
  Cu  Cu20  1  0.67555600  0.17555600  0.25000000  1
  Cu  Cu21  1  0.17555600  0.32444400  0.25000000  1
