# generated using pymatgen
data_Cu2NiC16
_symmetry_space_group_name_H-M   'P 1'
_cell_length_a   7.57178486
_cell_length_b   7.38183839
_cell_length_c   7.38183889
_cell_angle_alpha   60.55769761
_cell_angle_beta   59.28743275
_cell_angle_gamma   59.28742494
_symmetry_Int_Tables_number   1
_chemical_formula_structural   Cu2NiC16
_chemical_formula_sum   'Cu2 Ni1 C16'
_cell_volume   289.73827874
_cell_formula_units_Z   1
loop_
 _symmetry_equiv_pos_site_id
 _symmetry_equiv_pos_as_xyz
  1  'x, y, z'
loop_
 _atom_site_type_symbol
 _atom_site_label
 _atom_site_symmetry_multiplicity
 _atom_site_fract_x
 _atom_site_fract_y
 _atom_site_fract_z
 _atom_site_occupancy
  Ni  Ni0  1  0.27403500  0.25959000  0.25959000  1
  C  C1  1  0.99332600  0.98834900  0.98834900  1
  C  C2  1  0.50367200  0.98434200  0.98434200  1
  Cu  Cu3  1  0.44367000  0.43652300  0.43652300  1
  Cu  Cu4  1  0.73040900  0.60122900  0.60122900  1
  C  C5  1  0.99688400  0.99038500  0.49254500  1
  C  C6  1  0.99688400  0.49254500  0.99038500  1
  C  C7  1  0.04715400  0.06439400  0.69335300  1
  C  C8  1  0.04715400  0.69335300  0.06439400  1
  C  C9  1  0.08730200  0.66711600  0.66711600  1
  C  C10  1  0.31625300  0.31253600  0.94927500  1
  C  C11  1  0.31625300  0.94927500  0.31253600  1
  C  C12  1  0.67663700  0.06276700  0.69313800  1
  C  C13  1  0.67663700  0.69313800  0.06276700  1
  C  C14  1  0.94514500  0.32777400  0.32777400  1
  C  C15  1  0.93211000  0.30823200  0.94616800  1
  C  C16  1  0.93211000  0.94616800  0.30823200  1
  C  C17  1  0.66395900  0.07727200  0.07727200  1
  C  C18  1  0.30826100  0.93072800  0.93072800  1
