# generated using pymatgen
data_Cu2NiC11
_symmetry_space_group_name_H-M   'P 1'
_cell_length_a   6.35759751
_cell_length_b   6.35759860
_cell_length_c   8.05587271
_cell_angle_alpha   93.70184500
_cell_angle_beta   93.70183948
_cell_angle_gamma   62.14247482
_symmetry_Int_Tables_number   1
_chemical_formula_structural   Cu2NiC11
_chemical_formula_sum   'Cu2 Ni1 C11'
_cell_volume   287.05742852
_cell_formula_units_Z   1
loop_
 _symmetry_equiv_pos_site_id
 _symmetry_equiv_pos_as_xyz
  1  'x, y, z'
loop_
 _atom_site_type_symbol
 _atom_site_label
 _atom_site_symmetry_multiplicity
 _atom_site_fract_x
 _atom_site_fract_y
 _atom_site_fract_z
 _atom_site_occupancy
  C  C0  1  0.73830141  0.73830141  0.22393989  1
  C  C1  1  0.26169859  0.26169859  0.77606011  1
  C  C2  1  -0.00000000  0.00000000  0.50000000  1
  C  C3  1  -0.00000000  0.00000000  0.00000000  1
  Ni  Ni4  1  0.50000000  0.50000000  0.50000000  1
  Cu  Cu5  1  0.61149077  0.61149077  0.83160138  1
  Cu  Cu6  1  0.38850923  0.38850923  0.16839862  1
  C  C7  1  0.76744327  0.76744327  0.89461394  1
  C  C8  1  0.77062924  0.36701114  0.67767961  1
  C  C9  1  0.23255673  0.23255673  0.10538606  1
  C  C10  1  0.63298886  0.22937076  0.32232039  1
  C  C11  1  0.36701114  0.77062924  0.67767961  1
  C  C12  1  0.50000000  0.50000000  0.00000000  1
  C  C13  1  0.22937076  0.63298886  0.32232039  1
