# generated using pymatgen
data_CuNiC24
_symmetry_space_group_name_H-M   'P 1'
_cell_length_a   6.40013768
_cell_length_b   6.40013768
_cell_length_c   6.40013821
_cell_angle_alpha   96.49783188
_cell_angle_beta   96.49783188
_cell_angle_gamma   96.49782427
_symmetry_Int_Tables_number   1
_chemical_formula_structural   CuNiC24
_chemical_formula_sum   'Cu1 Ni1 C24'
_cell_volume   256.68784830
_cell_formula_units_Z   1
loop_
 _symmetry_equiv_pos_site_id
 _symmetry_equiv_pos_as_xyz
  1  'x, y, z'
loop_
 _atom_site_type_symbol
 _atom_site_label
 _atom_site_symmetry_multiplicity
 _atom_site_fract_x
 _atom_site_fract_y
 _atom_site_fract_z
 _atom_site_occupancy
  Ni  Ni0  1  0.00000000  0.00000000  0.00000000  1
  Cu  Cu1  1  0.50000000  0.50000000  0.50000000  1
  C  C2  1  0.20395800  0.31288700  0.81533200  1
  C  C3  1  0.81533200  0.20395800  0.31288700  1
  C  C4  1  0.31288700  0.81533200  0.20395800  1
  C  C5  1  0.79604200  0.68711300  0.18466800  1
  C  C6  1  0.18466800  0.79604200  0.68711300  1
  C  C7  1  0.68711300  0.18466800  0.79604200  1
  C  C8  1  0.20273700  0.40202000  0.05820100  1
  C  C9  1  0.05820100  0.20273700  0.40202000  1
  C  C10  1  0.40202000  0.05820100  0.20273700  1
  C  C11  1  0.94179900  0.79726300  0.59798000  1
  C  C12  1  0.59798000  0.94179900  0.79726300  1
  C  C13  1  0.79726300  0.59798000  0.94179900  1
  C  C14  1  0.93962000  0.12819200  0.30018600  1
  C  C15  1  0.30018600  0.93962000  0.12819200  1
  C  C16  1  0.87180800  0.69981400  0.06038000  1
  C  C17  1  0.06038000  0.87180800  0.69981400  1
  C  C18  1  0.69981400  0.06038000  0.87180800  1
  C  C19  1  0.12819200  0.30018600  0.93962000  1
  C  C20  1  0.70247500  0.67038000  0.43320600  1
  C  C21  1  0.43320600  0.70247500  0.67038000  1
  C  C22  1  0.67038000  0.43320600  0.70247500  1
  C  C23  1  0.29752500  0.32962000  0.56679400  1
  C  C24  1  0.32962000  0.56679400  0.29752500  1
  C  C25  1  0.56679400  0.29752500  0.32962000  1
