# generated using pymatgen
data_Cu2NiC14
_symmetry_space_group_name_H-M   'P 1'
_cell_length_a   3.77929541
_cell_length_b   5.36053133
_cell_length_c   10.12090033
_cell_angle_alpha   90.00000000
_cell_angle_beta   90.00000000
_cell_angle_gamma   110.64766502
_symmetry_Int_Tables_number   1
_chemical_formula_structural   Cu2NiC14
_chemical_formula_sum   'Cu2 Ni1 C14'
_cell_volume   191.86922657
_cell_formula_units_Z   1
loop_
 _symmetry_equiv_pos_site_id
 _symmetry_equiv_pos_as_xyz
  1  'x, y, z'
loop_
 _atom_site_type_symbol
 _atom_site_label
 _atom_site_symmetry_multiplicity
 _atom_site_fract_x
 _atom_site_fract_y
 _atom_site_fract_z
 _atom_site_occupancy
  Ni  Ni0  1  0.54997657  0.10652586  0.25000000  1
  C  C1  1  0.12451980  0.24918518  0.56828501  1
  C  C2  1  0.12451980  0.24918518  0.93171499  1
  C  C3  1  0.85736783  0.71491080  0.05977463  1
  C  C4  1  0.85736783  0.71491080  0.44022537  1
  Cu  Cu5  1  0.29223012  0.58617932  0.25000000  1
  Cu  Cu6  1  0.80073396  0.60148312  0.75000000  1
  C  C7  1  0.03391540  0.06746054  0.11936281  1
  C  C8  1  0.30691094  0.61402225  0.04805493  1
  C  C9  1  0.03391540  0.06746054  0.38063719  1
  C  C10  1  0.30691094  0.61402225  0.45194507  1
  C  C11  1  0.20435714  0.40878173  0.75000000  1
  C  C12  1  0.75315988  0.50765943  0.25000000  1
  C  C13  1  0.67260155  0.34534752  0.55658543  1
  C  C14  1  0.94552715  0.89125898  0.88653877  1
  C  C15  1  0.67260155  0.34534752  0.94341457  1
  C  C16  1  0.94552715  0.89125898  0.61346123  1
