# generated using pymatgen
data_Cu3Ni3C31
_symmetry_space_group_name_H-M   'P 1'
_cell_length_a   8.40775762
_cell_length_b   8.40601331
_cell_length_c   21.69956599
_cell_angle_alpha   89.21704028
_cell_angle_beta   90.68895528
_cell_angle_gamma   120.19036410
_symmetry_Int_Tables_number   1
_chemical_formula_structural   Cu3Ni3C31
_chemical_formula_sum   'Cu9 Ni9 C93'
_cell_volume   1325.46232613
_cell_formula_units_Z   3
loop_
 _symmetry_equiv_pos_site_id
 _symmetry_equiv_pos_as_xyz
  1  'x, y, z'
loop_
 _atom_site_type_symbol
 _atom_site_label
 _atom_site_symmetry_multiplicity
 _atom_site_fract_x
 _atom_site_fract_y
 _atom_site_fract_z
 _atom_site_occupancy
  C  C0  1  0.36036173  0.36059058  0.25109458  1
  C  C1  1  0.69359776  0.02693367  0.91670162  1
  C  C2  1  0.97263992  0.30603915  0.41679319  1
  C  C3  1  0.00351908  0.99752657  0.50041378  1
  C  C4  1  0.00171825  0.99576667  0.00059124  1
  C  C5  1  0.66286566  0.33555398  0.83284466  1
  C  C6  1  0.66657085  0.33327758  0.33333156  1
  C  C7  1  0.33213369  0.67564406  0.16617483  1
  C  C8  1  0.33335338  0.66665939  0.66669451  1
  C  C9  1  0.01452897  0.00415730  0.35208668  1
  C  C10  1  0.99724360  0.99247762  0.85239248  1
  C  C11  1  0.99175137  0.00546236  0.64776720  1
  C  C12  1  -0.00004136  0.00529288  0.14814350  1
  C  C13  1  0.67497763  0.32792431  0.68562621  1
  C  C14  1  0.66842674  0.31698310  0.18588981  1
  C  C15  1  0.66070465  0.33102318  0.98084645  1
  C  C16  1  0.66914397  0.34050740  0.48100495  1
  C  C17  1  0.34556713  0.68184314  0.01858740  1
  C  C18  1  0.31908626  0.65497371  0.51868085  1
  C  C19  1  0.31936490  0.66323859  0.31454268  1
  C  C20  1  0.34809155  0.67919428  0.81483088  1
  Ni  Ni21  1  0.28734569  0.99515958  0.24888128  1
  Ni  Ni22  1  0.99598384  0.28687344  0.25039281  1
  Ni  Ni23  1  0.71150172  -0.00005439  0.75013283  1
  Ni  Ni24  1  0.95529020  0.33337001  0.58317769  1
  Ni  Ni25  1  0.66849076  0.04384068  0.08299815  1
  Ni  Ni26  1  0.62073070  0.66044043  0.91697901  1
  Ni  Ni27  1  0.32722518  0.95442430  0.91628113  1
  Ni  Ni28  1  0.33956165  0.38029030  0.41663345  1
  Ni  Ni29  1  0.04449129  0.67225165  0.41694943  1
  Cu  Cu30  1  0.71422240  0.71425058  0.25009408  1
  Cu  Cu31  1  0.28888967  0.28919995  0.74988088  1
  Cu  Cu32  1  0.00040616  0.71177546  0.74928867  1
  Cu  Cu33  1  0.37777224  0.04426255  0.58336917  1
  Cu  Cu34  1  0.66627876  0.62154808  0.58396343  1
  Cu  Cu35  1  0.95467412  0.62074890  0.08349031  1
  Cu  Cu36  1  0.37783567  0.33442636  0.08359746  1
  Cu  Cu37  1  0.05076396  0.38396933  0.91665747  1
  Cu  Cu38  1  0.61731837  0.94987862  0.41697059  1
  C  C39  1  0.20747145  0.03880627  0.30557040  1
  C  C40  1  0.82646156  0.79324773  0.30575750  1
  C  C41  1  0.96310743  0.16859310  0.30918901  1
  C  C42  1  0.20785319  0.17305236  0.80549632  1
  C  C43  1  0.96786870  0.79178230  0.80465412  1
  C  C44  1  0.83125879  0.03484993  0.80888662  1
  C  C45  1  0.79773968  0.96516169  0.69393950  1
  C  C46  1  0.17534045  0.20629418  0.69420264  1
  C  C47  1  0.03452338  0.82828051  0.69384239  1
  C  C48  1  0.79310370  0.82618417  0.19400350  1
  C  C49  1  0.03810960  0.20416855  0.19425744  1
  C  C50  1  0.16636823  0.96413620  0.19171724  1
  C  C51  1  0.86891687  0.36823039  0.63941089  1
  C  C52  1  0.49145703  0.12715465  0.63912182  1
  C  C53  1  0.63214391  0.50497750  0.63949187  1
  C  C54  1  0.87121208  0.50743138  0.13923355  1
  C  C55  1  0.63242808  0.12924998  0.13885241  1
  C  C56  1  0.49226458  0.36880285  0.13998049  1
  C  C57  1  0.46034096  0.30227775  0.02897409  1
  C  C58  1  0.83941317  0.53961634  0.02770477  1
  C  C59  1  0.70201232  0.16379267  0.02422564  1
  C  C60  1  0.45878465  0.16035895  0.52781128  1
  C  C61  1  0.69864151  0.54146505  0.52867070  1
  C  C62  1  0.83559432  0.29848780  0.52449429  1
  C  C63  1  0.53830728  0.70291797  0.97319106  1
  C  C64  1  0.16170018  0.46200244  0.97278378  1
  C  C65  1  0.29378233  0.83469799  0.97380869  1
  C  C66  1  0.53800912  0.83842862  0.47312343  1
  C  C67  1  0.29844160  0.46416605  0.47253873  1
  C  C68  1  0.16529274  0.70583512  0.47406069  1
  C  C69  1  0.12514151  0.62736672  0.36082167  1
  C  C70  1  0.50616742  0.87165277  0.36099917  1
  C  C71  1  0.37097001  0.49728125  0.35759322  1
  C  C72  1  0.12887236  0.49516182  0.86047816  1
  C  C73  1  0.36986326  0.87210653  0.86010997  1
  C  C74  1  0.50134677  0.62733197  0.85951677  1
  C  C75  1  0.01985325  0.83899862  0.40764451  1
  C  C76  1  0.80444315  0.97453597  0.41017890  1
  C  C77  1  0.16181115  0.18959125  0.40926051  1
  C  C78  1  0.02573953  0.19597983  0.91009810  1
  C  C79  1  0.15994932  0.97867591  0.90677438  1
  C  C80  1  0.81193998  0.83775589  0.90847077  1
  C  C81  1  0.97652913  0.16171822  0.59126030  1
  C  C82  1  0.19296110  0.02339650  0.59140558  1
  C  C83  1  0.83416459  0.80491266  0.59110716  1
  C  C84  1  0.97453479  0.80529709  0.09037953  1
  C  C85  1  0.84025507  0.02351487  0.09190966  1
  C  C86  1  0.19466742  0.16723109  0.09025610  1
  C  C87  1  0.69024241  0.17160302  0.74207618  1
  C  C88  1  0.47375402  0.30996632  0.74188618  1
  C  C89  1  0.83247907  0.52838473  0.74219431  1
  C  C90  1  0.68974309  0.52709826  0.24237600  1
  C  C91  1  0.82947716  0.31223627  0.24222506  1
  C  C92  1  0.47810163  0.17419450  0.24112554  1
  C  C93  1  0.64522541  0.49322357  0.92651353  1
  C  C94  1  0.86275023  0.35917834  0.92317517  1
  C  C95  1  0.50454463  0.14556318  0.92482487  1
  C  C96  1  0.64093656  0.13754264  0.42342332  1
  C  C97  1  0.50663727  0.35571960  0.42610100  1
  C  C98  1  0.85353808  0.49459806  0.42515561  1
  C  C99  1  0.35625089  0.49754204  0.07539231  1
  C  C100  1  0.13727611  0.63667260  0.07612666  1
  C  C101  1  0.49529901  0.85187218  0.07587601  1
  C  C102  1  0.36259702  0.86227243  0.57614515  1
  C  C103  1  0.50354550  0.64377830  0.57557257  1
  C  C104  1  0.14801291  0.50526230  0.57601905  1
  C  C105  1  0.31292385  0.82906992  0.25861782  1
  C  C106  1  0.52802086  0.69152982  0.25674518  1
  C  C107  1  0.17302564  0.47801509  0.25751868  1
  C  C108  1  0.30414185  0.47119792  0.75719115  1
  C  C109  1  0.16308876  0.68945234  0.75775501  1
  C  C110  1  0.51880725  0.82797574  0.75726143  1
