# generated using pymatgen
data_Cu7Ni5C58
_symmetry_space_group_name_H-M   'P 1'
_cell_length_a   17.76609729
_cell_length_b   8.88013338
_cell_length_c   23.02258785
_cell_angle_alpha   90.03704197
_cell_angle_beta   89.93618364
_cell_angle_gamma   120.04266427
_symmetry_Int_Tables_number   1
_chemical_formula_structural   Cu7Ni5C58
_chemical_formula_sum   'Cu21 Ni15 C174'
_cell_volume   3144.19269299
_cell_formula_units_Z   3
loop_
 _symmetry_equiv_pos_site_id
 _symmetry_equiv_pos_as_xyz
  1  'x, y, z'
loop_
 _atom_site_type_symbol
 _atom_site_label
 _atom_site_symmetry_multiplicity
 _atom_site_fract_x
 _atom_site_fract_y
 _atom_site_fract_z
 _atom_site_occupancy
  C  C0  1  0.00050459  0.99402468  0.49688982  1
  C  C1  1  0.49802168  0.00366729  0.99575290  1
  C  C2  1  0.33208375  0.32404749  0.84045230  1
  C  C3  1  0.83321937  0.33699946  0.83552806  1
  C  C4  1  0.33121302  0.32727258  0.33322803  1
  C  C5  1  0.83789852  0.34018509  0.33546783  1
  C  C6  1  0.00683832  0.99265524  0.35426018  1
  C  C7  1  0.50493676  0.01941959  0.85512816  1
  C  C8  1  0.00594101  0.00473404  0.65272264  1
  C  C9  1  0.50547233  0.00715995  0.15092531  1
  C  C10  1  0.32752014  0.32490465  0.97584418  1
  C  C11  1  0.83960682  0.33400259  0.98399248  1
  C  C12  1  0.33874830  0.34452907  0.48470693  1
  C  C13  1  0.83278897  0.33107903  0.47960341  1
  C  C14  1  0.15744199  0.67109917  0.31043379  1
  C  C15  1  0.66604168  0.66953162  0.30560936  1
  C  C16  1  0.16636959  0.67328087  0.80797673  1
  C  C17  1  0.65842023  0.64503216  0.81061923  1
  C  C18  1  0.50335126  0.01187961  0.35154096  1
  C  C19  1  0.00874021  0.99520685  0.85491728  1
  C  C20  1  0.50364755  0.01032435  0.64083658  1
  C  C21  1  0.00515860  -0.00006406  0.13962644  1
  C  C22  1  0.33398953  0.34534567  0.68744670  1
  C  C23  1  0.82998534  0.32724278  0.69147194  1
  C  C24  1  0.32947351  0.32792676  0.18791924  1
  C  C25  1  0.83382770  0.32319563  0.18550058  1
  C  C26  1  0.16230186  0.66666813  0.02324123  1
  C  C27  1  0.66538239  0.66348952  0.02102861  1
  C  C28  1  0.16549514  0.66798657  0.52176126  1
  C  C29  1  0.66476193  0.66924321  0.52582974  1
  Ni  Ni30  1  0.14176317  0.99758704  0.24972935  1
  Ni  Ni31  1  0.64710081  0.00550782  0.24883634  1
  Ni  Ni32  1  0.49937596  0.29172749  0.24793646  1
  Ni  Ni33  1  0.14622806  0.29272237  0.74989844  1
  Ni  Ni34  1  0.64093737  0.28569443  0.75048642  1
  Ni  Ni35  1  0.00055096  0.71121329  0.74887039  1
  Ni  Ni36  1  0.47446291  0.33192405  0.58294110  1
  Ni  Ni37  1  0.69229300  0.05249895  0.58258760  1
  Ni  Ni38  1  0.33236400  0.62392015  0.58311297  1
  Ni  Ni39  1  0.97559342  0.61783668  0.08275952  1
  Ni  Ni40  1  0.83242092  0.03915375  0.08244697  1
  Ni  Ni41  1  0.19279703  0.34045302  0.08157568  1
  Ni  Ni42  1  0.51967387  0.37473147  0.91663812  1
  Ni  Ni43  1  0.16966408  0.95345242  0.91517495  1
  Ni  Ni44  1  0.01882313  0.66426794  0.41679721  1
  Cu  Cu45  1  0.35559521  0.71013370  0.25069576  1
  Cu  Cu46  1  0.85779452  0.71096579  0.24863603  1
  Cu  Cu47  1  -0.00100069  0.28428001  0.24928820  1
  Cu  Cu48  1  0.49972288  0.71440925  0.74942960  1
  Cu  Cu49  1  0.35726991  0.00343802  0.74802200  1
  Cu  Cu50  1  0.85509854  0.99881119  0.75105292  1
  Cu  Cu51  1  0.97829878  0.33284091  0.58268063  1
  Cu  Cu52  1  0.18862617  0.04388332  0.58241716  1
  Cu  Cu53  1  0.83397146  0.62318464  0.58247790  1
  Cu  Cu54  1  0.47792754  0.62291525  0.08207882  1
  Cu  Cu55  1  0.33399878  0.04408629  0.08233374  1
  Cu  Cu56  1  0.68902387  0.33405418  0.08210452  1
  Cu  Cu57  1  0.31063978  0.66891411  0.91696348  1
  Cu  Cu58  1  0.81088634  0.66882594  0.91585767  1
  Cu  Cu59  1  0.02213567  0.37599246  0.91546288  1
  Cu  Cu60  1  0.66757328  0.95424583  0.91644817  1
  Cu  Cu61  1  0.31129025  0.95395170  0.41591351  1
  Cu  Cu62  1  0.81019063  0.95238811  0.41713951  1
  Cu  Cu63  1  0.16760047  0.38104284  0.41666700  1
  Cu  Cu64  1  0.66592001  0.37885385  0.41610983  1
  Cu  Cu65  1  0.52314058  0.66844695  0.41591177  1
  C  C66  1  0.10578851  0.04622615  0.30708317  1
  C  C67  1  0.59485957  0.03212298  0.30717005  1
  C  C68  1  0.41389049  0.79495499  0.30351101  1
  C  C69  1  0.91094672  0.78494428  0.30161736  1
  C  C70  1  0.48116951  0.15887727  0.30706721  1
  C  C71  1  0.97983444  0.17847029  0.30227238  1
  C  C72  1  0.09584447  0.15889123  0.80687743  1
  C  C73  1  0.60451893  0.16328141  0.80690998  1
  C  C74  1  0.48036126  0.78206725  0.80199525  1
  C  C75  1  0.97945518  0.80115400  0.80673338  1
  C  C76  1  0.41112497  0.03816878  0.80060847  1
  C  C77  1  0.91105756  0.03537677  0.80257927  1
  C  C78  1  0.40101532  0.98094508  0.69641555  1
  C  C79  1  0.89331146  0.97623973  0.69757329  1
  C  C80  1  0.08898544  0.20459447  0.69283923  1
  C  C81  1  0.58147071  0.18385040  0.69396373  1
  C  C82  1  0.00916188  0.82231594  0.69209881  1
  C  C83  1  0.50765726  0.81629722  0.69715475  1
  C  C84  1  0.39450600  0.81325978  0.19856099  1
  C  C85  1  0.89829618  0.81927623  0.19737517  1
  C  C86  1  0.00730821  0.19896069  0.19758117  1
  C  C87  1  0.51029496  0.19631249  0.19302143  1
  C  C88  1  0.08085069  0.97812466  0.19440110  1
  C  C89  1  0.58770993  0.97319793  0.19337132  1
  C  C90  1  0.42934648  0.36265084  0.63992196  1
  C  C91  1  0.94049568  0.36579906  0.63500698  1
  C  C92  1  0.24229950  0.12220082  0.63477482  1
  C  C93  1  0.75558270  0.14291131  0.63875079  1
  C  C94  1  0.31504539  0.49403519  0.63990068  1
  C  C95  1  0.81854935  0.51377069  0.63474350  1
  C  C96  1  0.44016391  0.51443705  0.13559177  1
  C  C97  1  0.92768614  0.49572179  0.14045598  1
  C  C98  1  0.32066935  0.12876666  0.13595858  1
  C  C99  1  0.81484548  0.13479254  0.14011311  1
  C  C100  1  0.25496321  0.36806547  0.13993660  1
  C  C101  1  0.74281009  0.36103468  0.13517947  1
  C  C102  1  0.23406362  0.29833327  0.02813474  1
  C  C103  1  0.72841140  0.30755538  0.03033938  1
  C  C104  1  0.42561008  0.54195305  0.03115788  1
  C  C105  1  0.91761903  0.53870078  0.02639498  1
  C  C106  1  0.34960372  0.15217836  0.03169837  1
  C  C107  1  0.84925866  0.16047298  0.02754451  1
  C  C108  1  0.22819406  0.14820192  0.53003295  1
  C  C109  1  0.73285577  0.16641706  0.52608878  1
  C  C110  1  0.34937963  0.53871148  0.52718650  1
  C  C111  1  0.84770965  0.54454383  0.53052634  1
  C  C112  1  0.41877505  0.29838314  0.52546363  1
  C  C113  1  0.92559641  0.30978526  0.53074403  1
  C  C114  1  0.26656160  0.69114845  0.97010621  1
  C  C115  1  0.76829015  0.69188621  0.97004019  1
  C  C116  1  0.07547568  0.45595135  0.96970661  1
  C  C117  1  0.58578484  0.48057432  0.97403241  1
  C  C118  1  0.15455457  0.83024378  0.97376826  1
  C  C119  1  0.65859409  0.84329568  0.97007141  1
  C  C120  1  0.26988482  0.84623543  0.46973639  1
  C  C121  1  0.76502641  0.83953503  0.47001443  1
  C  C122  1  0.15858810  0.47387087  0.47002877  1
  C  C123  1  0.65222019  0.45891626  0.46907975  1
  C  C124  1  0.08409250  0.68787919  0.47405365  1
  C  C125  1  0.57760747  0.69289118  0.46953573  1
  C  C126  1  0.06520133  0.63549998  0.36116762  1
  C  C127  1  0.56470976  0.64216422  0.36548104  1
  C  C128  1  0.25864731  0.87088919  0.36464291  1
  C  C129  1  0.75760515  0.87059885  0.36580573  1
  C  C130  1  0.18158990  0.48584815  0.36498628  1
  C  C131  1  0.67830436  0.48355761  0.36474353  1
  C  C132  1  0.06260997  0.48339389  0.86498794  1
  C  C133  1  0.56734121  0.49508536  0.86096186  1
  C  C134  1  0.18077801  0.86222808  0.85971659  1
  C  C135  1  0.68161689  0.87769076  0.86490333  1
  C  C136  1  0.25906250  0.64269469  0.86528369  1
  C  C137  1  0.75743492  0.64390822  0.86472782  1
  C  C138  1  0.01247552  0.84136665  0.41497497  1
  C  C139  1  0.51430995  0.82641006  0.40922267  1
  C  C140  1  0.39879426  0.96737795  0.40928704  1
  C  C141  1  0.89734574  0.97132685  0.41404069  1
  C  C142  1  0.08578460  0.21106726  0.41505874  1
  C  C143  1  0.58396129  0.20053857  0.40876605  1
  C  C144  1  0.01123212  0.19878070  0.90871337  1
  C  C145  1  0.51433378  0.18561387  0.91494494  1
  C  C146  1  0.07831943  0.96620419  0.90801830  1
  C  C147  1  0.58577833  0.96028353  0.91507125  1
  C  C148  1  0.39842567  0.82736137  0.91331374  1
  C  C149  1  0.89675057  0.82926254  0.91006789  1
  C  C150  1  0.48974578  0.16941669  0.59511804  1
  C  C151  1  0.98927550  0.18016399  0.58843316  1
  C  C152  1  0.10022685  0.01688312  0.58811372  1
  C  C153  1  0.59488131  0.01384917  0.59687350  1
  C  C154  1  0.41368051  0.80990178  0.60063229  1
  C  C155  1  0.90699771  0.80050284  0.58935276  1
  C  C156  1  0.48988605  0.79860095  0.08974201  1
  C  C157  1  0.98910945  0.80977622  0.09549647  1
  C  C158  1  0.40854154  0.01683376  0.09124851  1
  C  C159  1  0.91392986  0.01811023  0.10111803  1
  C  C160  1  0.09580316  0.17751692  0.09744262  1
  C  C161  1  0.60084564  0.18328132  0.08870663  1
  C  C162  1  0.34812269  0.16280770  0.73863111  1
  C  C163  1  0.84930015  0.16659874  0.74308839  1
  C  C164  1  0.24192594  0.29774978  0.74098515  1
  C  C165  1  0.73972882  0.30574660  0.73755846  1
  C  C166  1  0.41940426  0.53054275  0.74107045  1
  C  C167  1  0.91151378  0.51544063  0.73852295  1
  C  C168  1  0.35133825  0.53555711  0.24454709  1
  C  C169  1  0.84743692  0.53249566  0.24021413  1
  C  C170  1  0.41231424  0.31084797  0.24016286  1
  C  C171  1  0.91903449  0.30842080  0.24124575  1
  C  C172  1  0.24075963  0.17434079  0.23725102  1
  C  C173  1  0.74211441  0.18735982  0.24285452  1
  C  C174  1  0.32121115  0.51566157  0.92467654  1
  C  C175  1  0.82032139  0.51384250  0.92336673  1
  C  C176  1  0.42739799  0.36106739  0.92548641  1
  C  C177  1  0.93431281  0.35653805  0.92250834  1
  C  C178  1  0.24857102  0.14820016  0.92146156  1
  C  C179  1  0.74333032  0.13066061  0.92463315  1
  C  C180  1  0.32185493  0.12816913  0.42301999  1
  C  C181  1  0.81787128  0.12507689  0.42445598  1
  C  C182  1  0.24329835  0.35594491  0.42458255  1
  C  C183  1  0.74030541  0.35127708  0.42291041  1
  C  C184  1  0.43569156  0.51445847  0.42256734  1
  C  C185  1  0.92351159  0.49378631  0.42489948  1
  C  C186  1  0.18174015  0.50998008  0.07070071  1
  C  C187  1  0.68237829  0.49568949  0.07492574  1
  C  C188  1  0.07187174  0.63812363  0.07311071  1
  C  C189  1  0.56788695  0.64299195  0.07412199  1
  C  C190  1  0.25359685  0.87018267  0.07596478  1
  C  C191  1  0.74665085  0.84806613  0.07065399  1
  C  C192  1  0.18185939  0.86773458  0.57407174  1
  C  C193  1  0.68081695  0.85539282  0.57054653  1
  C  C194  1  0.24661764  0.64462056  0.56994969  1
  C  C195  1  0.75211862  0.63563309  0.57255604  1
  C  C196  1  0.06775085  0.49258598  0.57368445  1
  C  C197  1  0.57336532  0.50280278  0.56963804  1
  C  C198  1  0.15890231  0.83801609  0.25593055  1
  C  C199  1  0.66134564  0.84734091  0.26289786  1
  C  C200  1  0.27002588  0.68417162  0.26163460  1
  C  C201  1  0.77076427  0.68857418  0.25632230  1
  C  C202  1  0.07568825  0.45733037  0.25471078  1
  C  C203  1  0.58185466  0.47230310  0.26325697  1
  C  C204  1  0.16325619  0.48010673  0.76301411  1
  C  C205  1  0.65858306  0.47963410  0.75509495  1
  C  C206  1  0.07995554  0.68352293  0.75945538  1
  C  C207  1  0.57591056  0.69462538  0.75421680  1
  C  C208  1  0.27227116  0.85181787  0.75311319  1
  C  C209  1  0.76754438  0.85531885  0.75954783  1
