# generated using pymatgen
data_Cu7Ni17C13
_symmetry_space_group_name_H-M   'P 1'
_cell_length_a   4.72056545
_cell_length_b   5.71514741
_cell_length_c   15.22233231
_cell_angle_alpha   90.19778874
_cell_angle_beta   90.03088959
_cell_angle_gamma   89.07563668
_symmetry_Int_Tables_number   1
_chemical_formula_structural   Cu7Ni17C13
_chemical_formula_sum   'Cu7 Ni17 C13'
_cell_volume   410.62321460
_cell_formula_units_Z   1
loop_
 _symmetry_equiv_pos_site_id
 _symmetry_equiv_pos_as_xyz
  1  'x, y, z'
loop_
 _atom_site_type_symbol
 _atom_site_label
 _atom_site_symmetry_multiplicity
 _atom_site_fract_x
 _atom_site_fract_y
 _atom_site_fract_z
 _atom_site_occupancy
  C  C0  1  0.93660200  0.64741900  0.62922700  1
  C  C1  1  0.02283500  0.15829400  0.40858900  1
  C  C2  1  0.00304100  0.82571100  0.24308000  1
  C  C3  1  0.98186800  0.15776700  0.08190400  1
  C  C4  1  0.01044400  0.15779100  0.75048800  1
  C  C5  1  0.45418100  0.90948100  0.56973600  1
  C  C6  1  0.95381000  0.83167500  0.91629500  1
  C  C7  1  0.45220500  0.32387700  0.92405600  1
  C  C8  1  0.48697200  0.38711700  0.58283200  1
  C  C9  1  0.47350000  0.35114300  0.25335400  1
  C  C10  1  0.46888400  0.62246500  0.09363100  1
  C  C11  1  0.48341400  0.62578600  0.41076200  1
  C  C12  1  0.47077900  0.63758100  0.76967300  1
  Ni  Ni13  1  0.21095400  0.11117000  0.29723000  1
  Ni  Ni14  1  0.26036500  0.15071800  0.62777400  1
  Ni  Ni15  1  0.16390800  0.09927800  0.97161100  1
  Ni  Ni16  1  0.19980700  0.87649000  0.13627800  1
  Ni  Ni17  1  0.26234800  0.89703200  0.45858000  1
  Ni  Ni18  1  0.17346700  0.86563600  0.80709100  1
  Ni  Ni19  1  0.25862500  0.41419700  0.47576500  1
  Ni  Ni20  1  0.25144500  0.39259500  0.14888400  1
  Ni  Ni21  1  0.26444900  0.59340800  0.30941400  1
  Ni  Ni22  1  0.32127700  0.66719500  0.65111100  1
  Ni  Ni23  1  0.24364900  0.36811700  0.81492700  1
  Ni  Ni24  1  0.67765500  0.36812600  0.03181300  1
  Ni  Ni25  1  0.70029100  0.60176000  0.19393800  1
  Ni  Ni26  1  0.70534900  0.37207400  0.35830000  1
  Ni  Ni27  1  0.69036900  0.64850500  0.52522100  1
  Ni  Ni28  1  0.68064400  0.59884600  0.87343700  1
  Ni  Ni29  1  0.74376900  0.40917400  0.69603000  1
  Cu  Cu30  1  0.21637800  0.60233700  0.98959700  1
  Cu  Cu31  1  0.73412400  0.11885000  0.19211600  1
  Cu  Cu32  1  0.76708400  0.14019900  0.51945900  1
  Cu  Cu33  1  0.76441300  0.85360200  0.35435700  1
  Cu  Cu34  1  0.70862200  0.85755300  0.02954500  1
  Cu  Cu35  1  0.70809600  0.09223500  0.85431700  1
  Cu  Cu36  1  0.76104800  0.91955600  0.68291300  1
