# generated using pymatgen
data_CuNiC
_symmetry_space_group_name_H-M   'P 1'
_cell_length_a   4.72787200
_cell_length_b   7.46090300
_cell_length_c   7.99922300
_cell_angle_alpha   90.00000000
_cell_angle_beta   90.00000000
_cell_angle_gamma   90.00000000
_symmetry_Int_Tables_number   1
_chemical_formula_structural   CuNiC
_chemical_formula_sum   'Cu4 Ni4 C4'
_cell_volume   282.16614706
_cell_formula_units_Z   4
loop_
 _symmetry_equiv_pos_site_id
 _symmetry_equiv_pos_as_xyz
  1  'x, y, z'
loop_
 _atom_site_type_symbol
 _atom_site_label
 _atom_site_symmetry_multiplicity
 _atom_site_fract_x
 _atom_site_fract_y
 _atom_site_fract_z
 _atom_site_occupancy
  C  C0  1  0.25000000  0.51266600  0.20520800  1
  C  C1  1  0.75000000  0.48733400  0.79479200  1
  C  C2  1  0.25000000  0.01266600  0.29479200  1
  C  C3  1  0.75000000  0.98733400  0.70520800  1
  Ni  Ni4  1  0.25000000  0.18923100  0.91183300  1
  Ni  Ni5  1  0.75000000  0.31076900  0.41183300  1
  Ni  Ni6  1  0.25000000  0.68923100  0.58816700  1
  Ni  Ni7  1  0.75000000  0.81076900  0.08816700  1
  Cu  Cu8  1  0.75000000  0.20676100  0.08266300  1
  Cu  Cu9  1  0.25000000  0.29323900  0.58266300  1
  Cu  Cu10  1  0.75000000  0.70676100  0.41733700  1
  Cu  Cu11  1  0.25000000  0.79323900  0.91733700  1
