# generated using pymatgen
data_Cu(NiC7)2
_symmetry_space_group_name_H-M   'P 1'
_cell_length_a   8.62673921
_cell_length_b   8.66516673
_cell_length_c   22.32099933
_cell_angle_alpha   89.85027341
_cell_angle_beta   90.00000000
_cell_angle_gamma   119.85340897
_symmetry_Int_Tables_number   1
_chemical_formula_structural   Cu(NiC7)2
_chemical_formula_sum   'Cu6 Ni12 C84'
_cell_volume   1447.12321849
_cell_formula_units_Z   6
loop_
 _symmetry_equiv_pos_site_id
 _symmetry_equiv_pos_as_xyz
  1  'x, y, z'
loop_
 _atom_site_type_symbol
 _atom_site_label
 _atom_site_symmetry_multiplicity
 _atom_site_fract_x
 _atom_site_fract_y
 _atom_site_fract_z
 _atom_site_occupancy
  C  C0  1  0.99302867  0.00467123  0.64084416  1
  C  C1  1  0.01164257  0.00467123  0.14084416  1
  C  C2  1  0.65969567  0.33800423  0.97417716  1
  C  C3  1  0.67830957  0.33800423  0.47417716  1
  C  C4  1  0.32636167  0.67133823  0.30751116  1
  C  C5  1  0.34497557  0.67133823  0.80751116  1
  C  C6  1  0.99873151  0.00289432  0.35446548  1
  C  C7  1  0.00416281  0.00289432  0.85446548  1
  C  C8  1  0.66539851  0.33622732  0.68779848  1
  C  C9  1  0.67082981  0.33622732  0.18779848  1
  C  C10  1  0.33206451  0.66956132  0.02113248  1
  C  C11  1  0.33749581  0.66956132  0.52113248  1
  Ni  Ni12  1  0.29348702  0.01741470  0.25128667  1
  Ni  Ni13  1  0.98862441  0.27798912  0.25098008  1
  Ni  Ni14  1  0.28936471  0.27798912  0.75098008  1
  Ni  Ni15  1  0.72392768  0.01741470  0.75128667  1
  Ni  Ni16  1  0.96015402  0.35074770  0.58461967  1
  Ni  Ni17  1  0.65529141  0.61132212  0.58431308  1
  Ni  Ni18  1  0.95603171  0.61132212  0.08431308  1
  Ni  Ni19  1  0.39059468  0.35074770  0.08461967  1
  Ni  Ni20  1  0.62682002  0.68408170  0.91795367  1
  Ni  Ni21  1  0.32195741  0.94465612  0.91764708  1
  Ni  Ni22  1  0.62269771  0.94465612  0.41764708  1
  Ni  Ni23  1  0.05726068  0.68408170  0.41795367  1
  Cu  Cu24  1  0.71644377  0.70884794  0.25048764  1
  Cu  Cu25  1  0.99240417  0.70884794  0.75048764  1
  Cu  Cu26  1  0.38311077  0.04218094  0.58382064  1
  Cu  Cu27  1  0.65907117  0.04218094  0.08382064  1
  Cu  Cu28  1  0.04977677  0.37551494  0.91715464  1
  Cu  Cu29  1  0.32573717  0.37551494  0.41715464  1
  C  C30  1  0.20418681  0.03703443  0.30648993  1
  C  C31  1  0.82289118  0.78717267  0.30427409  1
  C  C32  1  0.96253608  0.16719842  0.30653955  1
  C  C33  1  0.20466234  0.16719842  0.80653955  1
  C  C34  1  0.96428149  0.78717267  0.80427409  1
  C  C35  1  0.83284762  0.03703443  0.80648993  1
  C  C36  1  0.80222663  0.97154033  0.69474004  1
  C  C37  1  0.16704848  0.19339090  0.69493258  1
  C  C38  1  0.03114966  0.82308819  0.69664064  1
  C  C39  1  0.79193853  0.82308819  0.19664064  1
  C  C40  1  0.02634242  0.19339090  0.19493258  1
  C  C41  1  0.16931370  0.97154033  0.19474004  1
  C  C42  1  0.87085381  0.37036743  0.63982293  1
  C  C43  1  0.48955818  0.12050567  0.63760709  1
  C  C44  1  0.62920308  0.50053142  0.63987255  1
  C  C45  1  0.87132934  0.50053142  0.13987255  1
  C  C46  1  0.63094849  0.12050567  0.13760709  1
  C  C47  1  0.49951462  0.37036743  0.13982293  1
  C  C48  1  0.46889363  0.30487333  0.02807304  1
  C  C49  1  0.83371548  0.52672390  0.02826558  1
  C  C50  1  0.69781666  0.15642119  0.02997364  1
  C  C51  1  0.45860553  0.15642119  0.52997364  1
  C  C52  1  0.69300942  0.52672390  0.52826558  1
  C  C53  1  0.83598070  0.30487333  0.52807304  1
  C  C54  1  0.53751981  0.70370143  0.97315693  1
  C  C55  1  0.15622418  0.45383967  0.97094109  1
  C  C56  1  0.29586908  0.83386542  0.97320655  1
  C  C57  1  0.53799534  0.83386542  0.47320655  1
  C  C58  1  0.29761449  0.45383967  0.47094109  1
  C  C59  1  0.16618062  0.70370143  0.47315693  1
  C  C60  1  0.13555963  0.63820733  0.36140704  1
  C  C61  1  0.50038148  0.86005790  0.36159958  1
  C  C62  1  0.36448266  0.48975519  0.36330764  1
  C  C63  1  0.12527153  0.48975519  0.86330764  1
  C  C64  1  0.35967542  0.86005790  0.86159958  1
  C  C65  1  0.50264670  0.63820733  0.86140704  1
  C  C66  1  0.02680341  0.83751405  0.40595608  1
  C  C67  1  0.80803632  0.97516399  0.40667829  1
  C  C68  1  0.17269457  0.19809670  0.40911212  1
  C  C69  1  0.02540213  0.19809670  0.90911212  1
  C  C70  1  0.16712768  0.97516399  0.90667829  1
  C  C71  1  0.81071065  0.83751405  0.90595608  1
  C  C72  1  0.97359851  0.17537655  0.59159970  1
  C  C73  1  0.20133067  0.02505120  0.59155525  1
  C  C74  1  0.82940759  0.79755524  0.59341770  1
  C  C75  1  0.96814765  0.79755524  0.09341770  1
  C  C76  1  0.82372053  0.02505120  0.09155525  1
  C  C77  1  0.20177804  0.17537655  0.09159970  1
  C  C78  1  0.69347041  0.17084705  0.73928908  1
  C  C79  1  0.47470332  0.30849699  0.74001129  1
  C  C80  1  0.83936157  0.53142970  0.74244512  1
  C  C81  1  0.69206913  0.53142970  0.24244512  1
  C  C82  1  0.83379468  0.30849699  0.24001129  1
  C  C83  1  0.47737765  0.17084705  0.23928908  1
  C  C84  1  0.64026551  0.50870955  0.92493270  1
  C  C85  1  0.86799767  0.35838420  0.92488825  1
  C  C86  1  0.49607459  0.13088824  0.92675070  1
  C  C87  1  0.63481465  0.13088824  0.42675070  1
  C  C88  1  0.49038753  0.35838420  0.42488825  1
  C  C89  1  0.86844504  0.50870955  0.42493270  1
  C  C90  1  0.36013641  0.50418105  0.07262308  1
  C  C91  1  0.14136932  0.64183099  0.07334529  1
  C  C92  1  0.50602757  0.86476370  0.07577912  1
  C  C93  1  0.35873513  0.86476370  0.57577912  1
  C  C94  1  0.50046068  0.64183099  0.57334529  1
  C  C95  1  0.14404365  0.50418105  0.57262308  1
  C  C96  1  0.30693151  0.84204355  0.25826670  1
  C  C97  1  0.53466367  0.69171820  0.25822225  1
  C  C98  1  0.16274059  0.46422224  0.26008470  1
  C  C99  1  0.30148065  0.46422224  0.76008470  1
  C  C100  1  0.15705353  0.69171820  0.75822225  1
  C  C101  1  0.53511104  0.84204355  0.75826670  1
