# generated using pymatgen
data_Cu3NiC2
_symmetry_space_group_name_H-M   'P 1'
_cell_length_a   6.00436614
_cell_length_b   6.00436614
_cell_length_c   8.62865096
_cell_angle_alpha   75.48971200
_cell_angle_beta   75.48971200
_cell_angle_gamma   64.35387760
_symmetry_Int_Tables_number   1
_chemical_formula_structural   Cu3NiC2
_chemical_formula_sum   'Cu6 Ni2 C4'
_cell_volume   267.86836379
_cell_formula_units_Z   2
loop_
 _symmetry_equiv_pos_site_id
 _symmetry_equiv_pos_as_xyz
  1  'x, y, z'
loop_
 _atom_site_type_symbol
 _atom_site_label
 _atom_site_symmetry_multiplicity
 _atom_site_fract_x
 _atom_site_fract_y
 _atom_site_fract_z
 _atom_site_occupancy
  C  C0  1  0.83308000  0.43121600  0.39105700  1
  C  C1  1  0.56878400  0.16692000  0.10894300  1
  C  C2  1  0.43121600  0.83308000  0.89105700  1
  C  C3  1  0.16692000  0.56878400  0.60894300  1
  Ni  Ni4  1  0.08867400  0.91132600  0.25000000  1
  Ni  Ni5  1  0.91132600  0.08867400  0.75000000  1
  Cu  Cu6  1  0.35854500  0.64145500  0.25000000  1
  Cu  Cu7  1  0.64145500  0.35854500  0.75000000  1
  Cu  Cu8  1  0.82166000  0.91722000  0.38539000  1
  Cu  Cu9  1  0.08278000  0.17834000  0.11461000  1
  Cu  Cu10  1  0.17834000  0.08278000  0.61461000  1
  Cu  Cu11  1  0.91722000  0.82166000  0.88539000  1
