# generated using pymatgen
data_Cu4NiC
_symmetry_space_group_name_H-M   'P 1'
_cell_length_a   6.02692400
_cell_length_b   6.17717100
_cell_length_c   14.83520900
_cell_angle_alpha   90.00000000
_cell_angle_beta   90.00000000
_cell_angle_gamma   90.00000000
_symmetry_Int_Tables_number   1
_chemical_formula_structural   Cu4NiC
_chemical_formula_sum   'Cu16 Ni4 C4'
_cell_volume   552.30504209
_cell_formula_units_Z   4
loop_
 _symmetry_equiv_pos_site_id
 _symmetry_equiv_pos_as_xyz
  1  'x, y, z'
loop_
 _atom_site_type_symbol
 _atom_site_label
 _atom_site_symmetry_multiplicity
 _atom_site_fract_x
 _atom_site_fract_y
 _atom_site_fract_z
 _atom_site_occupancy
  C  C0  1  0.47970800  0.25000000  0.62811200  1
  C  C1  1  0.97970800  0.25000000  0.87188800  1
  C  C2  1  0.52029200  0.75000000  0.37188800  1
  C  C3  1  0.02029200  0.75000000  0.12811200  1
  Ni  Ni4  1  0.46695200  0.75000000  0.88149500  1
  Ni  Ni5  1  0.96695200  0.75000000  0.61850500  1
  Ni  Ni6  1  0.53304800  0.25000000  0.11850500  1
  Ni  Ni7  1  0.03304800  0.25000000  0.38149500  1
  Cu  Cu8  1  0.51571000  0.51115000  0.81513100  1
  Cu  Cu9  1  0.01571000  0.98885000  0.68486900  1
  Cu  Cu10  1  0.48429000  0.01115000  0.18486900  1
  Cu  Cu11  1  0.98429000  0.48885000  0.31513100  1
  Cu  Cu12  1  0.48429000  0.48885000  0.18486900  1
  Cu  Cu13  1  0.98429000  0.01115000  0.31513100  1
  Cu  Cu14  1  0.51571000  0.98885000  0.81513100  1
  Cu  Cu15  1  0.01571000  0.51115000  0.68486900  1
  Cu  Cu16  1  0.81708900  0.25000000  0.08053300  1
  Cu  Cu17  1  0.31708900  0.25000000  0.41946700  1
  Cu  Cu18  1  0.18291100  0.75000000  0.91946700  1
  Cu  Cu19  1  0.68291100  0.75000000  0.58053300  1
  Cu  Cu20  1  0.84690200  0.25000000  0.47601500  1
  Cu  Cu21  1  0.34690200  0.25000000  0.02398500  1
  Cu  Cu22  1  0.15309800  0.75000000  0.52398500  1
  Cu  Cu23  1  0.65309800  0.75000000  0.97601500  1
