# generated using pymatgen
data_Cu17Ni4C9
_symmetry_space_group_name_H-M   'P 1'
_cell_length_a   3.90496500
_cell_length_b   15.48829100
_cell_length_c   23.02619300
_cell_angle_alpha   90.00000000
_cell_angle_beta   90.00000000
_cell_angle_gamma   90.00000000
_symmetry_Int_Tables_number   1
_chemical_formula_structural   Cu17Ni4C9
_chemical_formula_sum   'Cu34 Ni8 C18'
_cell_volume   1392.65257306
_cell_formula_units_Z   2
loop_
 _symmetry_equiv_pos_site_id
 _symmetry_equiv_pos_as_xyz
  1  'x, y, z'
loop_
 _atom_site_type_symbol
 _atom_site_label
 _atom_site_symmetry_multiplicity
 _atom_site_fract_x
 _atom_site_fract_y
 _atom_site_fract_z
 _atom_site_occupancy
  C  C0  1  0.50000000  0.06704600  0.86410200  1
  C  C1  1  0.50000000  0.93295400  0.13589800  1
  C  C2  1  0.50000000  0.56704600  0.63589800  1
  C  C3  1  0.50000000  0.43295400  0.36410200  1
  C  C4  1  0.50000000  0.26933800  0.61010000  1
  C  C5  1  0.50000000  0.73066200  0.38990000  1
  C  C6  1  0.50000000  0.76933800  0.88990000  1
  C  C7  1  0.50000000  0.23066200  0.11010000  1
  C  C8  1  0.00000000  0.16759300  0.73907200  1
  C  C9  1  0.00000000  0.83240700  0.26092800  1
  C  C10  1  0.00000000  0.66759300  0.76092800  1
  C  C11  1  0.00000000  0.33240700  0.23907200  1
  C  C12  1  0.00000000  0.50000000  0.50000000  1
  C  C13  1  0.00000000  0.00000000  0.00000000  1
  C  C14  1  0.00000000  0.05126200  0.57795400  1
  C  C15  1  0.00000000  0.94873800  0.42204600  1
  C  C16  1  0.00000000  0.55126200  0.92204600  1
  C  C17  1  0.00000000  0.44873800  0.07795400  1
  Ni  Ni18  1  0.50000000  0.29492500  0.93617400  1
  Ni  Ni19  1  0.50000000  0.70507500  0.06382600  1
  Ni  Ni20  1  0.50000000  0.79492500  0.56382600  1
  Ni  Ni21  1  0.50000000  0.20507500  0.43617400  1
  Ni  Ni22  1  0.50000000  0.40816500  0.78110300  1
  Ni  Ni23  1  0.50000000  0.59183500  0.21889700  1
  Ni  Ni24  1  0.50000000  0.90816500  0.71889700  1
  Ni  Ni25  1  0.50000000  0.09183500  0.28110300  1
  Cu  Cu26  1  0.50000000  0.06738200  0.06675600  1
  Cu  Cu27  1  0.50000000  0.93261800  0.93324400  1
  Cu  Cu28  1  0.50000000  0.56738200  0.43324400  1
  Cu  Cu29  1  0.50000000  0.43261800  0.56675600  1
  Cu  Cu30  1  0.50000000  0.50000000  0.00000000  1
  Cu  Cu31  1  0.50000000  0.00000000  0.50000000  1
  Cu  Cu32  1  0.00000000  0.21293200  0.54040600  1
  Cu  Cu33  1  0.00000000  0.78706800  0.45959400  1
  Cu  Cu34  1  0.00000000  0.71293200  0.95959400  1
  Cu  Cu35  1  0.00000000  0.28706800  0.04040600  1
  Cu  Cu36  1  0.00000000  0.02089400  0.79001800  1
  Cu  Cu37  1  0.00000000  0.97910600  0.20998200  1
  Cu  Cu38  1  0.00000000  0.52089400  0.70998200  1
  Cu  Cu39  1  0.00000000  0.47910600  0.29001800  1
  Cu  Cu40  1  0.00000000  0.30849500  0.68208500  1
  Cu  Cu41  1  0.50000000  0.10410500  0.65689500  1
  Cu  Cu42  1  0.50000000  0.60410500  0.84310500  1
  Cu  Cu43  1  0.50000000  0.39589500  0.15689500  1
  Cu  Cu44  1  0.50000000  0.21929600  0.80632100  1
  Cu  Cu45  1  0.50000000  0.78070400  0.19367900  1
  Cu  Cu46  1  0.50000000  0.71929600  0.69367900  1
  Cu  Cu47  1  0.50000000  0.28070400  0.30632100  1
  Cu  Cu48  1  0.00000000  0.13152100  0.92904300  1
  Cu  Cu49  1  0.00000000  0.86847900  0.07095700  1
  Cu  Cu50  1  0.00000000  0.63152100  0.57095700  1
  Cu  Cu51  1  0.00000000  0.36847900  0.42904300  1
  Cu  Cu52  1  0.00000000  0.10208000  0.37265200  1
  Cu  Cu53  1  0.00000000  0.89792000  0.62734800  1
  Cu  Cu54  1  0.00000000  0.60208000  0.12734800  1
  Cu  Cu55  1  0.00000000  0.39792000  0.87265200  1
  Cu  Cu56  1  0.00000000  0.19150500  0.18208500  1
  Cu  Cu57  1  0.00000000  0.80849500  0.81791500  1
  Cu  Cu58  1  0.00000000  0.69150500  0.31791500  1
  Cu  Cu59  1  0.50000000  0.89589500  0.34310500  1
