# generated using pymatgen
data_CuNi5C31
_symmetry_space_group_name_H-M   'P 1'
_cell_length_a   8.94172935
_cell_length_b   8.92485197
_cell_length_c   23.29776784
_cell_angle_alpha   90.09971981
_cell_angle_beta   89.90840755
_cell_angle_gamma   119.87953963
_symmetry_Int_Tables_number   1
_chemical_formula_structural   CuNi5C31
_chemical_formula_sum   'Cu3 Ni15 C93'
_cell_volume   1612.10215760
_cell_formula_units_Z   3
loop_
 _symmetry_equiv_pos_site_id
 _symmetry_equiv_pos_as_xyz
  1  'x, y, z'
loop_
 _atom_site_type_symbol
 _atom_site_label
 _atom_site_symmetry_multiplicity
 _atom_site_fract_x
 _atom_site_fract_y
 _atom_site_fract_z
 _atom_site_occupancy
  C  C0  1  0.00395106  0.36424144  0.75123349  1
  C  C1  1  0.66773981  0.96470557  0.58392874  1
  C  C2  1  0.03715190  0.33325136  0.08403568  1
  C  C3  1  0.00905527  0.99256383  0.50360939  1
  C  C4  1  0.00802766  0.99325043  0.00276619  1
  C  C5  1  0.65549397  0.32468629  0.83410130  1
  C  C6  1  0.68093841  0.33784428  0.33321078  1
  C  C7  1  0.34676143  0.67145973  0.16756852  1
  C  C8  1  0.33359616  0.66825670  0.66687664  1
  C  C9  1  0.98567473  0.99300220  0.35161897  1
  C  C10  1  0.00561193  0.00312751  0.85109909  1
  C  C11  1  0.66186236  0.33711874  0.68599450  1
  C  C12  1  0.66898359  0.33715791  0.18636350  1
  C  C13  1  0.66494880  0.32912248  0.98180834  1
  C  C14  1  0.67373692  0.33659758  0.48157662  1
  C  C15  1  0.00686553  0.99788598  0.64812808  1
  C  C16  1  0.99401254  0.99433998  0.14812348  1
  C  C17  1  0.33295979  0.67143674  0.01852841  1
  C  C18  1  0.32604101  0.66600288  0.51831252  1
  C  C19  1  0.33065178  0.66523032  0.31630182  1
  C  C20  1  0.33538178  0.67612949  0.81683116  1
  Ni  Ni21  1  0.70011517  0.70489840  0.24913773  1
  Ni  Ni22  1  0.00376688  0.29684195  0.24779477  1
  Ni  Ni23  1  0.29319744  0.29658713  0.74990366  1
  Ni  Ni24  1  0.00134365  0.70602648  0.74937573  1
  Ni  Ni25  1  0.70527522  0.99664357  0.74736214  1
  Ni  Ni26  1  0.96301155  0.33442200  0.58533864  1
  Ni  Ni27  1  0.37363129  0.04255908  0.58244749  1
  Ni  Ni28  1  0.66484662  0.62827708  0.58252597  1
  Ni  Ni29  1  0.95896825  0.62796597  0.08299307  1
  Ni  Ni30  1  0.66425469  0.03771070  0.08417285  1
  Ni  Ni31  1  0.37307054  0.33355005  0.08380032  1
  Ni  Ni32  1  0.03858509  0.37188799  0.91691082  1
  Ni  Ni33  1  0.33298983  0.96187389  0.91727218  1
  Ni  Ni34  1  0.62350177  0.95896504  0.41804467  1
  Ni  Ni35  1  0.04059200  0.66816835  0.41598335  1
  Cu  Cu36  1  0.29244155  -0.00035858  0.24984022  1
  Cu  Cu37  1  0.62889221  0.66712883  0.91665064  1
  Cu  Cu38  1  0.33285120  0.36884610  0.41662009  1
  C  C39  1  0.20669837  0.02049067  0.30128198  1
  C  C40  1  0.81524372  0.79355667  0.30285932  1
  C  C41  1  0.98359928  0.17864555  0.29976269  1
  C  C42  1  0.20574568  0.18208787  0.80337890  1
  C  C43  1  0.97923187  0.79471969  0.80307239  1
  C  C44  1  0.82736667  0.02537288  0.79892996  1
  C  C45  1  0.78164874  0.97479495  0.69087451  1
  C  C46  1  0.17953041  0.21999541  0.69653345  1
  C  C47  1  0.02840616  0.80997523  0.69472490  1
  C  C48  1  0.78165348  0.80997129  0.19477991  1
  C  C49  1  0.02892253  0.22113602  0.19142138  1
  C  C50  1  0.19238975  0.97739098  0.19716757  1
  C  C51  1  0.87434553  0.35266467  0.64044472  1
  C  C52  1  0.48603809  0.13544295  0.63624536  1
  C  C53  1  0.64846726  0.51999622  0.63667919  1
  C  C54  1  0.86623594  0.51414220  0.13665345  1
  C  C55  1  0.64759429  0.13087481  0.13795507  1
  C  C56  1  0.48231888  0.35116707  0.13757458  1
  C  C57  1  0.46399202  0.31609037  0.02990692  1
  C  C58  1  0.85021770  0.53667953  0.02925440  1
  C  C59  1  0.68588443  0.15121794  0.03055151  1
  C  C60  1  0.46739518  0.15063540  0.52885502  1
  C  C61  1  0.68199963  0.53599309  0.52901993  1
  C  C62  1  0.84687511  0.31369407  0.53258499  1
  C  C63  1  0.55327352  0.69606057  0.96877129  1
  C  C64  1  0.14698247  0.44864045  0.97162118  1
  C  C65  1  0.30196906  0.85294769  0.97115739  1
  C  C66  1  0.55274718  0.85459678  0.47379851  1
  C  C67  1  0.30194220  0.44398672  0.46866919  1
  C  C68  1  0.14797986  0.70053070  0.47045063  1
  C  C69  1  0.11473220  0.63068269  0.36229866  1
  C  C70  1  0.51247150  0.87566163  0.36516366  1
  C  C71  1  0.36380228  0.47473754  0.36484068  1
  C  C72  1  0.11816616  0.47783185  0.86204283  1
  C  C73  1  0.37161761  0.89001876  0.86311758  1
  C  C74  1  0.52355987  0.63701377  0.86474216  1
  C  C75  1  0.02069080  0.83073840  0.40774606  1
  C  C76  1  0.80929297  0.98465042  0.40979200  1
  C  C77  1  0.17918130  0.19333941  0.40944978  1
  C  C78  1  0.01218407  0.18636981  0.90970679  1
  C  C79  1  0.17018764  0.98105119  0.90966935  1
  C  C80  1  0.80381571  0.82139632  0.91014968  1
  C  C81  1  0.96623226  0.16309428  0.58716336  1
  C  C82  1  0.19499347  0.02548610  0.58534562  1
  C  C83  1  0.82637413  0.80992471  0.58537890  1
  C  C84  1  0.97830969  0.80783222  0.08666434  1
  C  C85  1  0.83592289  0.03504606  0.08645813  1
  C  C86  1  0.19119405  0.17149519  0.08702319  1
  C  C87  1  0.69824252  0.16904418  0.74472409  1
  C  C88  1  0.47270709  0.31195801  0.74458162  1
  C  C89  1  0.83577214  0.52282848  0.74563067  1
  C  C90  1  0.68560652  0.52352948  0.24528569  1
  C  C91  1  0.83404400  0.30646292  0.24516090  1
  C  C92  1  0.46556647  0.15966959  0.24645637  1
  C  C93  1  0.65043865  0.51270008  0.92243004  1
  C  C94  1  0.85621017  0.35268018  0.92352756  1
  C  C95  1  0.49109482  0.14743222  0.92417073  1
  C  C96  1  0.64673531  0.14318791  0.42372279  1
  C  C97  1  0.48714475  0.34766136  0.42299325  1
  C  C98  1  0.85539219  0.50925815  0.42320834  1
  C  C99  1  0.35287468  0.49589703  0.08007676  1
  C  C100  1  0.13293209  0.63013995  0.08023488  1
  C  C101  1  0.50396731  0.85859456  0.08023624  1
  C  C102  1  0.36997986  0.86737491  0.58037301  1
  C  C103  1  0.50214019  0.64675528  0.57941078  1
  C  C104  1  0.14127395  0.49550376  0.58042991  1
  C  C105  1  0.31544648  0.84710669  0.25454005  1
  C  C106  1  0.52032401  0.68454844  0.25606820  1
  C  C107  1  0.16102673  0.47808806  0.25515641  1
  C  C108  1  0.31002315  0.47568598  0.75799789  1
  C  C109  1  0.15385753  0.67144309  0.75499350  1
  C  C110  1  0.52562842  0.83984142  0.75533173  1
