# generated using pymatgen
data_Cu8NiC32
_symmetry_space_group_name_H-M   'P 1'
_cell_length_a   5.60620171
_cell_length_b   11.20497858
_cell_length_c   11.15406998
_cell_angle_alpha   53.92381534
_cell_angle_beta   53.79577510
_cell_angle_gamma   53.82007990
_symmetry_Int_Tables_number   1
_chemical_formula_structural   Cu8NiC32
_chemical_formula_sum   'Cu8 Ni1 C32'
_cell_volume   424.19635159
_cell_formula_units_Z   1
loop_
 _symmetry_equiv_pos_site_id
 _symmetry_equiv_pos_as_xyz
  1  'x, y, z'
loop_
 _atom_site_type_symbol
 _atom_site_label
 _atom_site_symmetry_multiplicity
 _atom_site_fract_x
 _atom_site_fract_y
 _atom_site_fract_z
 _atom_site_occupancy
  Ni  Ni0  1  0.00603200  0.99770500  0.00209900  1
  C  C1  1  0.34889400  0.17770900  0.18486000  1
  C  C2  1  0.12993900  0.07320200  0.58578800  1
  C  C3  1  0.14442200  0.58152500  0.06537900  1
  C  C4  1  0.13745400  0.56933000  0.57260800  1
  C  C5  1  0.85596600  0.42755600  0.42801700  1
  C  C6  1  0.85620100  0.42238800  0.93090200  1
  C  C7  1  0.87047200  0.92573400  0.41759000  1
  C  C8  1  0.81540400  0.91910500  0.90628300  1
  Cu  Cu9  1  0.17363100  0.08352700  0.08450600  1
  Cu  Cu10  1  0.34478900  0.67026800  0.17928800  1
  Cu  Cu11  1  0.35349500  0.17762100  0.66649000  1
  Cu  Cu12  1  0.64568000  0.32630500  0.32722600  1
  Cu  Cu13  1  0.35098700  0.66979900  0.67221000  1
  Cu  Cu14  1  0.64787300  0.33015400  0.82219600  1
  Cu  Cu15  1  0.65049300  0.82158900  0.32731700  1
  Cu  Cu16  1  0.64383000  0.81393000  0.81552000  1
  C  C17  1  0.07074100  0.37831800  0.21622200  1
  C  C18  1  0.43540400  0.03716400  0.37499700  1
  C  C19  1  0.75036900  0.21456500  0.03271500  1
  C  C20  1  0.22961300  0.28286200  0.47223600  1
  C  C21  1  0.56087100  0.47105600  0.11492100  1
  C  C22  1  0.05480300  0.38092200  0.71958800  1
  C  C23  1  0.05193100  0.88351300  0.21774700  1
  C  C24  1  0.95869000  0.11550400  0.29108000  1
  C  C25  1  0.42138100  0.02678800  0.87770300  1
  C  C26  1  0.44102800  0.52327400  0.38503700  1
  C  C27  1  0.77107700  0.21962400  0.52653800  1
  C  C28  1  0.75333300  0.71312200  0.02754400  1
  C  C29  1  0.23024700  0.28982300  0.97746800  1
  C  C30  1  0.22825200  0.77938100  0.47081900  1
  C  C31  1  0.56305200  0.47239700  0.61384900  1
  C  C32  1  0.58371700  0.97743700  0.11415600  1
  C  C33  1  0.05895900  0.87331000  0.71298400  1
  C  C34  1  0.94040400  0.11103400  0.78784200  1
  C  C35  1  0.94180000  0.61453600  0.28085100  1
  C  C36  1  0.44105200  0.52855800  0.88269300  1
  C  C37  1  0.77023100  0.71696800  0.52517000  1
  C  C38  1  0.20920900  0.78807800  0.97154100  1
  C  C39  1  0.56043200  0.96989700  0.60965700  1
  C  C40  1  0.95025000  0.60871300  0.77861300  1
