# generated using pymatgen
data_Cu2Ni3C34
_symmetry_space_group_name_H-M   'P 1'
_cell_length_a   8.87282973
_cell_length_b   8.87418480
_cell_length_c   22.35789971
_cell_angle_alpha   89.81502745
_cell_angle_beta   90.36583617
_cell_angle_gamma   120.02062905
_symmetry_Int_Tables_number   1
_chemical_formula_structural   Cu2Ni3C34
_chemical_formula_sum   'Cu6 Ni9 C102'
_cell_volume   1524.23904620
_cell_formula_units_Z   3
loop_
 _symmetry_equiv_pos_site_id
 _symmetry_equiv_pos_as_xyz
  1  'x, y, z'
loop_
 _atom_site_type_symbol
 _atom_site_label
 _atom_site_symmetry_multiplicity
 _atom_site_fract_x
 _atom_site_fract_y
 _atom_site_fract_z
 _atom_site_occupancy
  C  C0  1  0.00032803  0.63663512  0.24974686  1
  C  C1  1  0.36823229  0.99745917  0.75245246  1
  C  C2  1  0.02974304  0.69986981  0.58111555  1
  C  C3  1  0.66161634  0.96589581  0.58519108  1
  C  C4  1  0.29678245  0.96581407  0.08025541  1
  C  C5  1  0.03889206  0.33789212  0.08295951  1
  C  C6  1  0.96506179  0.66606100  0.91786172  1
  C  C7  1  0.96488351  0.29921879  0.41366510  1
  C  C8  1  0.33491069  0.02950951  0.41711217  1
  C  C9  1  0.99735410  0.99250991  0.49989948  1
  C  C10  1  0.99536583  0.00058121  0.99655966  1
  C  C11  1  0.66719014  0.32876124  0.83697383  1
  C  C12  1  0.66279796  0.33137537  0.32954134  1
  C  C13  1  0.34708615  0.66471297  0.16758616  1
  C  C14  1  0.33887799  0.65450109  0.67005975  1
  C  C15  1  0.98976639  0.99479545  0.34817985  1
  C  C16  1  -0.00010946  0.00277191  0.65196757  1
  C  C17  1  0.99776241  0.00000095  0.14629507  1
  C  C18  1  0.66691109  0.33305837  0.69137366  1
  C  C19  1  0.66617941  0.34118531  0.47791687  1
  C  C20  1  0.34051798  0.66911257  0.51899781  1
  Ni  Ni21  1  0.99945921  0.30590334  0.24848511  1
  Ni  Ni22  1  0.70576015  0.98856036  0.75727296  1
  Ni  Ni23  1  0.36957298  0.04133190  0.58356275  1
  Ni  Ni24  1  0.66530741  0.62662365  0.58556536  1
  Ni  Ni25  1  0.94856373  0.61193504  0.07874403  1
  Ni  Ni26  1  0.39296433  0.34723406  0.08157858  1
  Ni  Ni27  1  0.33846392  0.95965129  0.91704982  1
  Ni  Ni28  1  0.62169330  0.95140365  0.41246318  1
  Ni  Ni29  1  0.04505224  0.66790951  0.41315443  1
  Cu  Cu30  1  0.00623557  0.00949358  0.85469945  1
  Cu  Cu31  1  0.66932404  0.33570879  0.18270518  1
  Cu  Cu32  1  0.65179058  0.32610211  0.98088261  1
  Cu  Cu33  1  0.33038067  0.66241396  0.01732865  1
  Cu  Cu34  1  0.33012320  0.66412753  0.31361416  1
  Cu  Cu35  1  0.34299194  0.67322761  0.81827490  1
  C  C36  1  0.30899708  0.00482820  0.24936424  1
  C  C37  1  0.69070040  0.69363892  0.24850487  1
  C  C38  1  0.28621716  0.29932180  0.75723352  1
  C  C39  1  0.00695446  0.71034256  0.75726690  1
  C  C40  1  0.95914819  0.33247958  0.58354371  1
  C  C41  1  0.65938569  0.04798749  0.08052577  1
  C  C42  1  0.61819437  0.66679829  0.91763381  1
  C  C43  1  0.04845672  0.37820631  0.91585614  1
  C  C44  1  0.33357555  0.38107357  0.41179829  1
  C  C45  1  0.22490013  0.03302155  0.30533335  1
  C  C46  1  0.81392696  0.77458849  0.30331563  1
  C  C47  1  0.96495035  0.18777566  0.30805832  1
  C  C48  1  0.20137711  0.16787562  0.80973038  1
  C  C49  1  0.97876955  0.80254048  0.81124355  1
  C  C50  1  0.84351935  0.02607425  0.81183377  1
  C  C51  1  0.77993169  0.96095306  0.69371616  1
  C  C52  1  0.18087942  0.22193916  0.69916134  1
  C  C53  1  0.04292475  0.82148218  0.69923259  1
  C  C54  1  0.78061002  0.81344901  0.19440409  1
  C  C55  1  0.03213559  0.21630176  0.19012164  1
  C  C56  1  0.18352077  0.96487406  0.19465317  1
  C  C57  1  0.87255954  0.36281291  0.63769502  1
  C  C58  1  0.49251904  0.12398525  0.64272772  1
  C  C59  1  0.64301094  0.50848574  0.64318104  1
  C  C60  1  0.87034085  0.49327084  0.13995117  1
  C  C61  1  0.62301940  0.12556614  0.13745175  1
  C  C62  1  0.50857268  0.36991923  0.14178915  1
  C  C63  1  0.46770449  0.29118193  0.02453446  1
  C  C64  1  0.82932510  0.52051005  0.01905927  1
  C  C65  1  0.70213525  0.16939103  0.02566394  1
  C  C66  1  0.45693783  0.15077233  0.52254167  1
  C  C67  1  0.70802245  0.54581620  0.52681082  1
  C  C68  1  0.84965553  0.30086361  0.52574915  1
  C  C69  1  0.53311182  0.69899821  0.97311463  1
  C  C70  1  0.15897727  0.45594371  0.97451548  1
  C  C71  1  0.29320562  0.82813674  0.97591241  1
  C  C72  1  0.54824012  0.84771137  0.47528188  1
  C  C73  1  0.29802495  0.45375653  0.46871856  1
  C  C74  1  0.15402779  0.69792374  0.47505958  1
  C  C75  1  0.13618727  0.63191246  0.35512355  1
  C  C76  1  0.48811965  0.85295362  0.35682037  1
  C  C77  1  0.36155293  0.49710525  0.35687158  1
  C  C78  1  0.13673199  0.50405817  0.86211689  1
  C  C79  1  0.36587469  0.86856639  0.85754862  1
  C  C80  1  0.50268150  0.63193483  0.86131805  1
  C  C81  1  0.03742809  0.84618238  0.40883142  1
  C  C82  1  0.81947145  0.98497063  0.41071113  1
  C  C83  1  0.17267537  0.19746085  0.40716078  1
  C  C84  1  0.03098400  0.19501803  0.90963465  1
  C  C85  1  0.15429523  0.97090473  0.90861028  1
  C  C86  1  0.80626021  0.82849333  0.91148946  1
  C  C87  1  0.97195033  0.16787214  0.58900334  1
  C  C88  1  0.17609501  0.01426928  0.58804725  1
  C  C89  1  0.83783567  0.82018974  0.58877812  1
  C  C90  1  0.98061151  0.80943829  0.08563483  1
  C  C91  1  0.82463545  0.03211144  0.08725046  1
  C  C92  1  0.19534365  0.17323903  0.08846451  1
  C  C93  1  0.67833404  0.15791270  0.75303753  1
  C  C94  1  0.46494296  0.30961347  0.75149267  1
  C  C95  1  0.84517474  0.53143143  0.75169341  1
  C  C96  1  0.68417318  0.51647551  0.24164367  1
  C  C97  1  0.82437570  0.32624490  0.23996884  1
  C  C98  1  0.48713426  0.16943436  0.24027501  1
  C  C99  1  0.64357955  0.50405790  0.92316091  1
  C  C100  1  0.86765800  0.36550301  0.92135093  1
  C  C101  1  0.51380747  0.15375195  0.92506408  1
  C  C102  1  0.63620474  0.14226917  0.41550824  1
  C  C103  1  0.49341912  0.35785652  0.41575887  1
  C  C104  1  0.85768233  0.49011547  0.41514779  1
  C  C105  1  0.36165492  0.51528219  0.07261599  1
  C  C106  1  0.14846738  0.63529209  0.07311624  1
  C  C107  1  0.49417932  0.86539017  0.07367298  1
  C  C108  1  0.34892872  0.84747611  0.58145553  1
  C  C109  1  0.49692586  0.65032784  0.58327078  1
  C  C110  1  0.13778565  0.49693780  0.57955744  1
  C  C111  1  0.31570994  0.83334862  0.25538702  1
  C  C112  1  0.51347995  0.68181297  0.25763001  1
  C  C113  1  0.17467674  0.50109231  0.25633563  1
  C  C114  1  0.30163302  0.47919754  0.76486566  1
  C  C115  1  0.17460186  0.69551386  0.76238583  1
  C  C116  1  0.50710411  0.81576886  0.76214164  1
