# generated using pymatgen
data_CuNiC15
_symmetry_space_group_name_H-M   'P 1'
_cell_length_a   8.84362192
_cell_length_b   8.84362163
_cell_length_c   22.71997871
_cell_angle_alpha   90.00000000
_cell_angle_beta   90.00000000
_cell_angle_gamma   120.00000108
_symmetry_Int_Tables_number   1
_chemical_formula_structural   CuNiC15
_chemical_formula_sum   'Cu6 Ni6 C90'
_cell_volume   1538.85913790
_cell_formula_units_Z   6
loop_
 _symmetry_equiv_pos_site_id
 _symmetry_equiv_pos_as_xyz
  1  'x, y, z'
loop_
 _atom_site_type_symbol
 _atom_site_label
 _atom_site_symmetry_multiplicity
 _atom_site_fract_x
 _atom_site_fract_y
 _atom_site_fract_z
 _atom_site_occupancy
  Ni  Ni0  1  0.00000000  0.00000000  0.35798465  1
  Ni  Ni1  1  0.00000000  0.00000000  0.85798465  1
  Ni  Ni2  1  0.66666700  0.33333300  0.69131765  1
  Ni  Ni3  1  0.66666700  0.33333300  0.19131765  1
  Ni  Ni4  1  0.33333300  0.66666700  0.02465165  1
  Ni  Ni5  1  0.33333300  0.66666700  0.52465165  1
  Cu  Cu6  1  0.00000000  -0.00000000  0.64307973  1
  Cu  Cu7  1  0.00000000  -0.00000000  0.14307973  1
  Cu  Cu8  1  0.66666700  0.33333300  0.97641273  1
  Cu  Cu9  1  0.66666700  0.33333300  0.47641273  1
  Cu  Cu10  1  0.33333300  0.66666700  0.30974673  1
  Cu  Cu11  1  0.33333300  0.66666700  0.80974673  1
  C  C12  1  0.28092093  0.99556713  0.25011494  1
  C  C13  1  0.71464620  0.71907907  0.25011494  1
  C  C14  1  0.00443287  0.28535380  0.25011494  1
  C  C15  1  0.28092093  0.28535380  0.75011494  1
  C  C16  1  0.00443287  0.71907907  0.75011494  1
  C  C17  1  0.71464620  0.99556713  0.75011494  1
  C  C18  1  0.94758793  0.32890013  0.58344794  1
  C  C19  1  0.38131320  0.05241207  0.58344794  1
  C  C20  1  0.67109987  0.61868680  0.58344794  1
  C  C21  1  0.94758793  0.61868680  0.08344794  1
  C  C22  1  0.67109987  0.05241207  0.08344794  1
  C  C23  1  0.38131320  0.32890013  0.08344794  1
  C  C24  1  0.61425393  0.66223413  0.91678194  1
  C  C25  1  0.04797920  0.38574607  0.91678194  1
  C  C26  1  0.33776587  0.95202080  0.91678194  1
  C  C27  1  0.61425393  0.95202080  0.41678194  1
  C  C28  1  0.33776587  0.38574607  0.41678194  1
  C  C29  1  0.04797920  0.66223413  0.41678194  1
  C  C30  1  0.19812866  0.02458572  0.30427810  1
  C  C31  1  0.82645707  0.80187134  0.30427810  1
  C  C32  1  0.97541428  0.17354293  0.30427810  1
  C  C33  1  0.19812866  0.17354293  0.80427810  1
  C  C34  1  0.97541428  0.80187134  0.80427810  1
  C  C35  1  0.82645707  0.02458572  0.80427810  1
  C  C36  1  0.80176907  0.96528703  0.69513117  1
  C  C37  1  0.16351796  0.19823093  0.69513117  1
  C  C38  1  0.03471297  0.83648204  0.69513117  1
  C  C39  1  0.80176907  0.83648204  0.19513117  1
  C  C40  1  0.03471297  0.19823093  0.19513117  1
  C  C41  1  0.16351796  0.96528703  0.19513117  1
  C  C42  1  0.86479566  0.35791872  0.63761110  1
  C  C43  1  0.49312407  0.13520434  0.63761110  1
  C  C44  1  0.64208128  0.50687593  0.63761110  1
  C  C45  1  0.86479566  0.50687593  0.13761110  1
  C  C46  1  0.64208128  0.13520434  0.13761110  1
  C  C47  1  0.49312407  0.35791872  0.13761110  1
  C  C48  1  0.46843607  0.29862003  0.02846417  1
  C  C49  1  0.83018496  0.53156393  0.02846417  1
  C  C50  1  0.70137997  0.16981504  0.02846417  1
  C  C51  1  0.46843607  0.16981504  0.52846417  1
  C  C52  1  0.70137997  0.53156393  0.52846417  1
  C  C53  1  0.83018496  0.29862003  0.52846417  1
  C  C54  1  0.53146166  0.69125272  0.97094510  1
  C  C55  1  0.15979007  0.46853834  0.97094510  1
  C  C56  1  0.30874728  0.84020993  0.97094510  1
  C  C57  1  0.53146166  0.84020993  0.47094510  1
  C  C58  1  0.30874728  0.46853834  0.47094510  1
  C  C59  1  0.15979007  0.69125272  0.47094510  1
  C  C60  1  0.13510207  0.63195403  0.36179817  1
  C  C61  1  0.49685096  0.86489793  0.36179817  1
  C  C62  1  0.36804597  0.50314904  0.36179817  1
  C  C63  1  0.13510207  0.50314904  0.86179817  1
  C  C64  1  0.36804597  0.86489793  0.86179817  1
  C  C65  1  0.49685096  0.63195403  0.86179817  1
  C  C66  1  0.02137346  0.81762518  0.40657226  1
  C  C67  1  0.79625172  0.97862654  0.40657226  1
  C  C68  1  0.18237482  0.20374828  0.40657226  1
  C  C69  1  0.02137346  0.20374828  0.90657226  1
  C  C70  1  0.18237482  0.97862654  0.90657226  1
  C  C71  1  0.79625172  0.81762518  0.90657226  1
  C  C72  1  0.96380269  0.16229907  0.59354873  1
  C  C73  1  0.19849638  0.03619731  0.59354873  1
  C  C74  1  0.83770093  0.80150362  0.59354873  1
  C  C75  1  0.96380269  0.80150362  0.09354873  1
  C  C76  1  0.83770093  0.03619731  0.09354873  1
  C  C77  1  0.19849638  0.16229907  0.09354873  1
  C  C78  1  0.68804046  0.15095818  0.73990526  1
  C  C79  1  0.46291872  0.31195954  0.73990526  1
  C  C80  1  0.84904182  0.53708128  0.73990526  1
  C  C81  1  0.68804046  0.53708128  0.23990526  1
  C  C82  1  0.84904182  0.31195954  0.23990526  1
  C  C83  1  0.46291872  0.15095818  0.23990526  1
  C  C84  1  0.63046969  0.49563207  0.92688173  1
  C  C85  1  0.86516338  0.36953031  0.92688173  1
  C  C86  1  0.50436793  0.13483662  0.92688173  1
  C  C87  1  0.63046969  0.13483662  0.42688173  1
  C  C88  1  0.50436793  0.36953031  0.42688173  1
  C  C89  1  0.86516338  0.49563207  0.42688173  1
  C  C90  1  0.35470646  0.48429218  0.07323926  1
  C  C91  1  0.12958472  0.64529354  0.07323926  1
  C  C92  1  0.51570782  0.87041528  0.07323926  1
  C  C93  1  0.35470646  0.87041528  0.57323926  1
  C  C94  1  0.51570782  0.64529354  0.57323926  1
  C  C95  1  0.12958472  0.48429218  0.57323926  1
  C  C96  1  0.29713569  0.82896607  0.26021573  1
  C  C97  1  0.53182938  0.70286431  0.26021573  1
  C  C98  1  0.17103393  0.46817062  0.26021573  1
  C  C99  1  0.29713569  0.46817062  0.76021573  1
  C  C100  1  0.17103393  0.70286431  0.76021573  1
  C  C101  1  0.53182938  0.82896607  0.76021573  1
