# generated using pymatgen
data_Cu2NiC10
_symmetry_space_group_name_H-M   'P 1'
_cell_length_a   6.69955749
_cell_length_b   6.66799808
_cell_length_c   4.52725129
_cell_angle_alpha   89.78093741
_cell_angle_beta   89.56288135
_cell_angle_gamma   59.84206180
_symmetry_Int_Tables_number   1
_chemical_formula_structural   Cu2NiC10
_chemical_formula_sum   'Cu2 Ni1 C10'
_cell_volume   174.86415781
_cell_formula_units_Z   1
loop_
 _symmetry_equiv_pos_site_id
 _symmetry_equiv_pos_as_xyz
  1  'x, y, z'
loop_
 _atom_site_type_symbol
 _atom_site_label
 _atom_site_symmetry_multiplicity
 _atom_site_fract_x
 _atom_site_fract_y
 _atom_site_fract_z
 _atom_site_occupancy
  C  C0  1  0.49944400  0.65281900  0.97942100  1
  C  C1  1  0.88144300  0.60594500  0.51528000  1
  C  C2  1  0.48739100  0.39404700  0.51528000  1
  C  C3  1  0.15226900  0.34717700  0.97942100  1
  Ni  Ni4  1  0.53672700  0.99999500  0.31545700  1
  Cu  Cu5  1  0.83851000  0.99999800  0.95876500  1
  Cu  Cu6  1  0.14655200  0.00003200  0.49780700  1
  C  C7  1  0.79834500  0.73752900  0.02347600  1
  C  C8  1  0.46125500  0.75119900  0.47238600  1
  C  C9  1  0.53587500  0.26247000  0.02347900  1
  C  C10  1  0.21245900  0.24879500  0.47239100  1
  C  C11  1  0.84537800  0.99999400  0.49128700  1
  C  C12  1  0.12518600  0.00000100  0.97155500  1
