# generated using pymatgen
data_Cu13Ni10
_symmetry_space_group_name_H-M   'P 1'
_cell_length_a   14.65835616
_cell_length_b   14.65835616
_cell_length_c   14.65835616
_cell_angle_alpha   131.11797207
_cell_angle_beta   131.11797207
_cell_angle_gamma   71.62571311
_symmetry_Int_Tables_number   1
_chemical_formula_structural   Cu13Ni10
_chemical_formula_sum   'Cu104 Ni80'
_cell_volume   1748.99913326
_cell_formula_units_Z   8
loop_
 _symmetry_equiv_pos_site_id
 _symmetry_equiv_pos_as_xyz
  1  'x, y, z'
loop_
 _atom_site_type_symbol
 _atom_site_label
 _atom_site_symmetry_multiplicity
 _atom_site_fract_x
 _atom_site_fract_y
 _atom_site_fract_z
 _atom_site_occupancy
  Ni  Ni0  1  0.57616300  0.93524000  0.86795300  1
  Ni  Ni1  1  0.06728700  0.70820900  0.13204700  1
  Ni  Ni2  1  0.45820900  0.82616300  0.14092200  1
  Ni  Ni3  1  0.68524000  0.31728700  0.85907800  1
  Ni  Ni4  1  0.95820900  0.81728700  0.63204700  1
  Ni  Ni5  1  0.56728700  0.43524000  0.35907800  1
  Ni  Ni6  1  0.07616300  0.20820900  0.64092200  1
  Ni  Ni7  1  0.18524000  0.32616300  0.36795300  1
  Ni  Ni8  1  0.63287700  0.86905600  0.95955900  1
  Ni  Ni9  1  0.90949700  0.67331700  0.04044100  1
  Ni  Ni10  1  0.42331700  0.88287600  0.26382000  1
  Ni  Ni11  1  0.61905600  0.15949700  0.73618000  1
  Ni  Ni12  1  0.92331700  0.65949700  0.54044100  1
  Ni  Ni13  1  0.40949700  0.36905600  0.23618000  1
  Ni  Ni14  1  0.13287700  0.17331700  0.76382000  1
  Ni  Ni15  1  0.11905600  0.38287600  0.45955900  1
  Ni  Ni16  1  0.52863200  0.72473500  0.81283700  1
  Ni  Ni17  1  0.91189900  0.71579500  0.18716300  1
  Ni  Ni18  1  0.46579500  0.77863200  0.30389600  1
  Ni  Ni19  1  0.47473500  0.16189900  0.69610400  1
  Ni  Ni20  1  0.96579500  0.66189900  0.68716300  1
  Ni  Ni21  1  0.41189900  0.22473500  0.19610400  1
  Ni  Ni22  1  0.02863200  0.21579500  0.80389600  1
  Ni  Ni23  1  0.97473500  0.27863200  0.31283700  1
  Ni  Ni24  1  0.35006800  0.72605100  0.69379800  1
  Ni  Ni25  1  0.03225300  0.65627000  0.30620200  1
  Ni  Ni26  1  0.40627000  0.60006800  0.12401700  1
  Ni  Ni27  1  0.47605100  0.28225300  0.87598300  1
  Ni  Ni28  1  0.90627000  0.78225300  0.80620200  1
  Ni  Ni29  1  0.53225300  0.22605100  0.37598300  1
  Ni  Ni30  1  0.85006800  0.15627000  0.62401700  1
  Ni  Ni31  1  0.97605100  0.10006800  0.19379800  1
  Ni  Ni32  1  0.31068600  0.87219800  0.74603200  1
  Ni  Ni33  1  0.12616600  0.56465400  0.25396800  1
  Ni  Ni34  1  0.31465400  0.56068600  0.93848800  1
  Ni  Ni35  1  0.62219800  0.37616600  0.06151200  1
  Ni  Ni36  1  0.81465400  0.87616600  0.75396800  1
  Ni  Ni37  1  0.62616600  0.37219800  0.56151200  1
  Ni  Ni38  1  0.81068600  0.06465400  0.43848800  1
  Ni  Ni39  1  0.12219800  0.06068600  0.24603200  1
  Ni  Ni40  1  0.39886100  0.93660000  0.75030200  1
  Ni  Ni41  1  0.18629700  0.64855900  0.24969800  1
  Ni  Ni42  1  0.39855900  0.64886100  0.96226200  1
  Ni  Ni43  1  0.68660000  0.43629700  0.03773800  1
  Ni  Ni44  1  0.89855900  0.93629700  0.74969800  1
  Ni  Ni45  1  0.68629700  0.43660000  0.53773800  1
  Ni  Ni46  1  0.89886100  0.14855900  0.46226200  1
  Ni  Ni47  1  0.18660000  0.14886100  0.25030200  1
  Ni  Ni48  1  0.58754600  0.77614600  0.77523900  1
  Ni  Ni49  1  0.00090700  0.81230600  0.22476100  1
  Ni  Ni50  1  0.56230600  0.83754600  0.31139900  1
  Ni  Ni51  1  0.52614600  0.25090700  0.68860100  1
  Ni  Ni52  1  0.06230600  0.75090700  0.72476100  1
  Ni  Ni53  1  0.50090700  0.27614600  0.18860100  1
  Ni  Ni54  1  0.08754600  0.31230600  0.81139900  1
  Ni  Ni55  1  0.02614600  0.33754600  0.27523900  1
  Ni  Ni56  1  0.43355600  0.69097100  0.63187500  1
  Ni  Ni57  1  0.05909600  0.80168100  0.36812500  1
  Ni  Ni58  1  0.55168100  0.68355600  0.24258400  1
  Ni  Ni59  1  0.44097100  0.30909600  0.75741600  1
  Ni  Ni60  1  0.05168100  0.80909600  0.86812500  1
  Ni  Ni61  1  0.55909600  0.19097100  0.25741600  1
  Ni  Ni62  1  0.93355600  0.30168100  0.74258400  1
  Ni  Ni63  1  0.94097100  0.18355600  0.13187500  1
  Ni  Ni64  1  0.31505200  0.77792900  0.59280600  1
  Ni  Ni65  1  0.18512400  0.72224600  0.40719400  1
  Ni  Ni66  1  0.47224600  0.56505200  0.03712200  1
  Ni  Ni67  1  0.52792900  0.43512400  0.96287800  1
  Ni  Ni68  1  0.97224600  0.93512400  0.90719400  1
  Ni  Ni69  1  0.68512400  0.27792900  0.46287800  1
  Ni  Ni70  1  0.81505200  0.22224600  0.53712200  1
  Ni  Ni71  1  0.02792900  0.06505200  0.09280600  1
  Ni  Ni72  1  0.46355900  0.82269000  0.66604400  1
  Ni  Ni73  1  0.15664500  0.79751400  0.33395600  1
  Ni  Ni74  1  0.54751400  0.71355900  0.14086900  1
  Ni  Ni75  1  0.57269000  0.40664500  0.85913100  1
  Ni  Ni76  1  0.04751400  0.90664500  0.83395600  1
  Ni  Ni77  1  0.65664500  0.32269000  0.35913100  1
  Ni  Ni78  1  0.96355900  0.29751400  0.64086900  1
  Ni  Ni79  1  0.07269000  0.21355900  0.16604400  1
  Cu  Cu80  1  0.58686100  0.97152200  0.98529100  1
  Cu  Cu81  1  0.98623100  0.60157000  0.01470900  1
  Cu  Cu82  1  0.35157000  0.83686100  0.11533900  1
  Cu  Cu83  1  0.72152200  0.23623100  0.88466100  1
  Cu  Cu84  1  0.85157000  0.73623100  0.51470900  1
  Cu  Cu85  1  0.48623100  0.47152200  0.38466100  1
  Cu  Cu86  1  0.08686100  0.10157000  0.61533900  1
  Cu  Cu87  1  0.22152200  0.33686100  0.48529100  1
  Cu  Cu88  1  0.55296900  0.82611500  0.94631500  1
  Cu  Cu89  1  0.87980000  0.60665400  0.05368500  1
  Cu  Cu90  1  0.35665400  0.80296900  0.22685400  1
  Cu  Cu91  1  0.57611500  0.12980000  0.77314600  1
  Cu  Cu92  1  0.85665400  0.62980000  0.55368500  1
  Cu  Cu93  1  0.37980000  0.32611500  0.27314600  1
  Cu  Cu94  1  0.05296900  0.10665400  0.72685400  1
  Cu  Cu95  1  0.07611500  0.30296900  0.44631500  1
  Cu  Cu96  1  0.36833800  0.82707100  0.82327500  1
  Cu  Cu97  1  0.00379500  0.54506300  0.17672500  1
  Cu  Cu98  1  0.29506300  0.61833800  0.04126700  1
  Cu  Cu99  1  0.57707100  0.25379500  0.95873300  1
  Cu  Cu100  1  0.79506300  0.75379500  0.67672500  1
  Cu  Cu101  1  0.50379500  0.32707100  0.45873300  1
  Cu  Cu102  1  0.86833800  0.04506300  0.54126700  1
  Cu  Cu103  1  0.07707100  0.11833800  0.32327500  1
  Cu  Cu104  1  0.40305600  0.97213700  0.86277200  1
  Cu  Cu105  1  0.10936400  0.54028400  0.13722800  1
  Cu  Cu106  1  0.29028400  0.65305600  0.93092000  1
  Cu  Cu107  1  0.72213700  0.35936400  0.06908000  1
  Cu  Cu108  1  0.79028400  0.85936400  0.63722800  1
  Cu  Cu109  1  0.60936400  0.47213700  0.56908000  1
  Cu  Cu110  1  0.90305600  0.04028400  0.43092000  1
  Cu  Cu111  1  0.22213700  0.15305600  0.36277200  1
  Cu  Cu112  1  0.64320700  0.01650600  0.92539100  1
  Cu  Cu113  1  0.09111600  0.71781600  0.07460900  1
  Cu  Cu114  1  0.46781600  0.89320700  0.12670100  1
  Cu  Cu115  1  0.76650600  0.34111600  0.87329900  1
  Cu  Cu116  1  0.96781600  0.84111600  0.57460900  1
  Cu  Cu117  1  0.59111600  0.51650600  0.37329900  1
  Cu  Cu118  1  0.14320700  0.21781600  0.62670100  1
  Cu  Cu119  1  0.26650600  0.39320700  0.42539100  1
  Cu  Cu120  1  0.73177800  0.90124300  0.08025500  1
  Cu  Cu121  1  0.82098700  0.65152200  0.91974500  1
  Cu  Cu122  1  0.40152200  0.98177800  0.33053500  1
  Cu  Cu123  1  0.65124300  0.07098700  0.66946500  1
  Cu  Cu124  1  0.90152200  0.57098700  0.41974500  1
  Cu  Cu125  1  0.66194100  0.73327500  0.75490300  1
  Cu  Cu126  1  0.32098700  0.40124300  0.16946500  1
  Cu  Cu127  1  0.15124300  0.48177800  0.58025500  1
  Cu  Cu128  1  0.55952600  0.64748200  0.82851500  1
  Cu  Cu129  1  0.81896700  0.73101100  0.17148500  1
  Cu  Cu130  1  0.48101100  0.80952600  0.41204400  1
  Cu  Cu131  1  0.39748200  0.06896700  0.58795600  1
  Cu  Cu132  1  0.98101100  0.56896700  0.67148500  1
  Cu  Cu133  1  0.31896700  0.14748200  0.08795600  1
  Cu  Cu134  1  0.05952600  0.23101100  0.91204400  1
  Cu  Cu135  1  0.89748200  0.30952600  0.32851500  1
  Cu  Cu136  1  0.28519800  0.64970300  0.64642500  1
  Cu  Cu137  1  0.00327800  0.63877300  0.35357500  1
  Cu  Cu138  1  0.38877300  0.53519800  0.13549500  1
  Cu  Cu139  1  0.39970300  0.25327800  0.86450500  1
  Cu  Cu140  1  0.88877300  0.75327800  0.85357500  1
  Cu  Cu141  1  0.50327800  0.14970300  0.36450500  1
  Cu  Cu142  1  0.78519800  0.13877300  0.63549500  1
  Cu  Cu143  1  0.89970300  0.03519800  0.14642500  1
  Cu  Cu144  1  0.22674700  0.90825100  0.74849000  1
  Cu  Cu145  1  0.15976100  0.47825700  0.25151000  1
  Cu  Cu146  1  0.22825700  0.47674700  0.81849500  1
  Cu  Cu147  1  0.65825100  0.40976100  0.18150500  1
  Cu  Cu148  1  0.72825700  0.90976100  0.75151000  1
  Cu  Cu149  1  0.65976100  0.40825100  0.68150500  1
  Cu  Cu150  1  0.72674700  0.97825700  0.31849500  1
  Cu  Cu151  1  0.15825100  0.97674700  0.24849000  1
  Cu  Cu152  1  0.36937000  0.01911400  0.74413600  1
  Cu  Cu153  1  0.27497800  0.62523300  0.25586400  1
  Cu  Cu154  1  0.37523300  0.61937000  0.85025600  1
  Cu  Cu155  1  0.76911400  0.52497800  0.14974400  1
  Cu  Cu156  1  0.87523300  0.02497800  0.75586400  1
  Cu  Cu157  1  0.77497800  0.51911400  0.64974400  1
  Cu  Cu158  1  0.86937000  0.12523300  0.35025600  1
  Cu  Cu159  1  0.26911400  0.11937000  0.24413600  1
  Cu  Cu160  1  0.07685500  0.21737300  0.08981400  1
  Cu  Cu161  1  0.96737300  0.37755800  0.64051700  1
  Cu  Cu162  1  0.73704100  0.32685500  0.35948300  1
  Cu  Cu163  1  0.12755800  0.98704100  0.91018600  1
  Cu  Cu164  1  0.57685500  0.48704100  0.85948300  1
  Cu  Cu165  1  0.62755800  0.71737300  0.14051700  1
  Cu  Cu166  1  0.23704100  0.87755800  0.41018600  1
  Cu  Cu167  1  0.46737300  0.82685500  0.58981400  1
  Cu  Cu168  1  0.83360500  0.16161100  0.02614100  1
  Cu  Cu169  1  0.91161100  0.38547100  0.82800700  1
  Cu  Cu170  1  0.55746400  0.08360500  0.17199300  1
  Cu  Cu171  1  0.13547100  0.80746400  0.97385900  1
  Cu  Cu172  1  0.33360500  0.30746400  0.67199300  1
  Cu  Cu173  1  0.63547100  0.66161100  0.32800700  1
  Cu  Cu174  1  0.05746400  0.88547100  0.47385900  1
  Cu  Cu175  1  0.41161100  0.58360500  0.52614100  1
  Cu  Cu176  1  0.98327500  0.41194100  0.25490300  1
  Cu  Cu177  1  0.16194100  0.40703800  0.92866600  1
  Cu  Cu178  1  0.47837200  0.23327500  0.07133400  1
  Cu  Cu179  1  0.15703800  0.72837200  0.74509700  1
  Cu  Cu180  1  0.48327500  0.22837200  0.57133400  1
  Cu  Cu181  1  0.65703800  0.91194100  0.42866600  1
  Cu  Cu182  1  0.97837200  0.90703800  0.24509700  1
  Cu  Cu183  1  0.23177800  0.15152200  0.83053500  1
