# generated using pymatgen
data_Cu3NiC15
_symmetry_space_group_name_H-M   'P 1'
_cell_length_a   5.73475285
_cell_length_b   5.39511972
_cell_length_c   11.84435815
_cell_angle_alpha   89.63231076
_cell_angle_beta   90.19516639
_cell_angle_gamma   124.77656612
_symmetry_Int_Tables_number   1
_chemical_formula_structural   Cu3NiC15
_chemical_formula_sum   'Cu3 Ni1 C15'
_cell_volume   300.99815821
_cell_formula_units_Z   1
loop_
 _symmetry_equiv_pos_site_id
 _symmetry_equiv_pos_as_xyz
  1  'x, y, z'
loop_
 _atom_site_type_symbol
 _atom_site_label
 _atom_site_symmetry_multiplicity
 _atom_site_fract_x
 _atom_site_fract_y
 _atom_site_fract_z
 _atom_site_occupancy
  Ni  Ni0  1  0.00011824  0.50087122  0.08144933  1
  Cu  Cu1  1  0.00150282  0.50046808  0.81741126  1
  Cu  Cu2  1  0.50106573  0.49899158  0.20589694  1
  Cu  Cu3  1  0.49937711  0.00018172  0.50575733  1
  C  C4  1  0.00087469  0.49971735  0.32008566  1
  C  C5  1  0.49885311  0.49823172  0.66573037  1
  C  C6  1  0.50044136  0.00177361  0.01116402  1
  C  C7  1  0.44737996  0.74070202  0.08898675  1
  C  C8  1  0.25090524  0.72395391  0.39433531  1
  C  C9  1  0.24453876  0.42410637  0.73585757  1
  C  C10  1  0.75102916  0.57104307  0.73738817  1
  C  C11  1  0.40083784  0.21991484  0.58821315  1
  C  C12  1  0.55026284  0.26424397  0.08583952  1
  C  C13  1  0.59890559  0.77806331  0.58741643  1
  C  C14  1  0.91531026  0.66136954  0.23637389  1
  C  C15  1  0.78893919  0.16134218  0.94782675  1
  C  C16  1  0.21533985  0.84125583  0.94550362  1
  C  C17  1  0.08941642  0.33601528  0.24065793  1
  C  C18  1  0.74490182  0.27775438  0.39299600  1
