# generated using pymatgen
data_CuNi3C17
_symmetry_space_group_name_H-M   'P 1'
_cell_length_a   9.21383910
_cell_length_b   9.21383877
_cell_length_c   22.88364529
_cell_angle_alpha   90.00000000
_cell_angle_beta   90.00000000
_cell_angle_gamma   120.00000117
_symmetry_Int_Tables_number   1
_chemical_formula_structural   CuNi3C17
_chemical_formula_sum   'Cu6 Ni18 C102'
_cell_volume   1682.43024257
_cell_formula_units_Z   6
loop_
 _symmetry_equiv_pos_site_id
 _symmetry_equiv_pos_as_xyz
  1  'x, y, z'
loop_
 _atom_site_type_symbol
 _atom_site_label
 _atom_site_symmetry_multiplicity
 _atom_site_fract_x
 _atom_site_fract_y
 _atom_site_fract_z
 _atom_site_occupancy
  C  C0  1  0.63377609  0.99995831  0.24993910  1
  C  C1  1  0.36618223  0.36622391  0.24993910  1
  C  C2  1  0.00004169  0.63381777  0.24993910  1
  C  C3  1  0.63351691  0.63357169  0.75055434  1
  C  C4  1  0.00005479  0.36648309  0.75055434  1
  C  C5  1  0.36642831  0.99994521  0.75055434  1
  C  C6  1  0.30071432  0.33340596  0.58336129  1
  C  C7  1  0.03269264  0.69928568  0.58336129  1
  C  C8  1  0.66659404  0.96730736  0.58336129  1
  C  C9  1  0.30011990  0.96640876  0.08287650  1
  C  C10  1  0.66628986  0.69988010  0.08287650  1
  C  C11  1  0.03359124  0.33371014  0.08287650  1
  C  C12  1  0.96639185  0.66665482  0.91670488  1
  C  C13  1  0.70026197  0.03360815  0.91670488  1
  C  C14  1  0.33334518  0.29973803  0.91670488  1
  C  C15  1  0.96687264  0.30055363  0.41655533  1
  C  C16  1  0.33367999  0.03312736  0.41655533  1
  C  C17  1  0.69944637  0.66632001  0.41655533  1
  C  C18  1  0.00000000  0.00000000  0.50004182  1
  C  C19  1  0.00000000  0.00000000  0.99957086  1
  C  C20  1  0.66666700  0.33333300  0.83376208  1
  C  C21  1  0.66666700  0.33333300  0.33298507  1
  C  C22  1  0.33333300  0.66666700  0.16658059  1
  C  C23  1  0.33333300  0.66666700  0.66706315  1
  C  C24  1  0.00000000  0.00000000  0.35063009  1
  C  C25  1  0.00000000  0.00000000  0.64952346  1
  C  C26  1  0.00000000  0.00000000  0.14841833  1
  C  C27  1  0.66666700  0.33333300  0.68535021  1
  C  C28  1  0.66666700  0.33333300  0.48158940  1
  C  C29  1  0.33333300  0.66666700  0.51794196  1
  Ni  Ni30  1  0.29741615  0.00009591  0.24980938  1
  Ni  Ni31  1  0.70267976  0.70258385  0.24980938  1
  Ni  Ni32  1  0.99990409  0.29732024  0.24980938  1
  Ni  Ni33  1  0.29211805  0.29475728  0.75181106  1
  Ni  Ni34  1  0.00263924  0.70788195  0.75181106  1
  Ni  Ni35  1  0.70524272  0.99736076  0.75181106  1
  Ni  Ni36  1  0.96135428  0.33329481  0.58349241  1
  Ni  Ni37  1  0.37194152  0.03864572  0.58349241  1
  Ni  Ni38  1  0.66670519  0.62805848  0.58349241  1
  Ni  Ni39  1  0.95863231  0.62317508  0.08237846  1
  Ni  Ni40  1  0.66454377  0.04136769  0.08237846  1
  Ni  Ni41  1  0.37682492  0.33545623  0.08237846  1
  Ni  Ni42  1  0.62572699  0.66663958  0.91672238  1
  Ni  Ni43  1  0.04091159  0.37427301  0.91672238  1
  Ni  Ni44  1  0.33336042  0.95908841  0.91672238  1
  Ni  Ni45  1  0.62579374  0.95866412  0.41578589  1
  Ni  Ni46  1  0.33286938  0.37420626  0.41578589  1
  Ni  Ni47  1  0.04133588  0.66713062  0.41578589  1
  Cu  Cu48  1  0.00000000  0.00000000  0.85190125  1
  Cu  Cu49  1  0.66666700  0.33333300  0.18401976  1
  Cu  Cu50  1  0.66666700  0.33333300  0.98144083  1
  Cu  Cu51  1  0.33333300  0.66666700  0.01780761  1
  Cu  Cu52  1  0.33333300  0.66666700  0.31527942  1
  Cu  Cu53  1  0.33333300  0.66666700  0.81594784  1
  C  C54  1  0.21164354  0.03592705  0.30690469  1
  C  C55  1  0.82428351  0.78835646  0.30690469  1
  C  C56  1  0.96407295  0.17571649  0.30690469  1
  C  C57  1  0.21034668  0.17255001  0.80900504  1
  C  C58  1  0.96220334  0.78965332  0.80900504  1
  C  C59  1  0.82744999  0.03779666  0.80900504  1
  C  C60  1  0.78917552  0.96292082  0.69382309  1
  C  C61  1  0.17374530  0.21082448  0.69382309  1
  C  C62  1  0.03707918  0.82625470  0.69382309  1
  C  C63  1  0.78950039  0.82501114  0.19291044  1
  C  C64  1  0.03551075  0.21049961  0.19291044  1
  C  C65  1  0.17498886  0.96448925  0.19291044  1
  C  C66  1  0.87486518  0.36741983  0.64064662  1
  C  C67  1  0.49255565  0.12513482  0.64064662  1
  C  C68  1  0.63258017  0.50744435  0.64064662  1
  C  C69  1  0.87897462  0.50526862  0.14103186  1
  C  C70  1  0.62629500  0.12102538  0.14103186  1
  C  C71  1  0.49473138  0.37370500  0.14103186  1
  C  C72  1  0.45660329  0.29507884  0.02478385  1
  C  C73  1  0.83847656  0.54339671  0.02478385  1
  C  C74  1  0.70492116  0.16152344  0.02478385  1
  C  C75  1  0.45796435  0.15914402  0.52599915  1
  C  C76  1  0.70118067  0.54203565  0.52599915  1
  C  C77  1  0.84085598  0.29881933  0.52599915  1
  C  C78  1  0.54527179  0.70617731  0.97476882  1
  C  C79  1  0.16090452  0.45472821  0.97476882  1
  C  C80  1  0.29382269  0.83909548  0.97476882  1
  C  C81  1  0.54210175  0.84040641  0.47339817  1
  C  C82  1  0.29830366  0.45789825  0.47339817  1
  C  C83  1  0.15959359  0.70169634  0.47339817  1
  C  C84  1  0.12271118  0.62827172  0.35799826  1
  C  C85  1  0.50555954  0.87728882  0.35799826  1
  C  C86  1  0.37172828  0.49444046  0.35799826  1
  C  C87  1  0.12104671  0.49392748  0.85873227  1
  C  C88  1  0.37287978  0.87895329  0.85873227  1
  C  C89  1  0.50607252  0.62712022  0.85873227  1
  C  C90  1  0.02365527  0.83487514  0.41084238  1
  C  C91  1  0.81121987  0.97634473  0.41084238  1
  C  C92  1  0.16512486  0.18878013  0.41084238  1
  C  C93  1  0.02360650  0.18760390  0.91120473  1
  C  C94  1  0.16399741  0.97639350  0.91120473  1
  C  C95  1  0.81239610  0.83600259  0.91120473  1
  C  C96  1  0.97731363  0.16501412  0.58877383  1
  C  C97  1  0.18770050  0.02268637  0.58877383  1
  C  C98  1  0.83498588  0.81229950  0.58877383  1
  C  C99  1  0.97704595  0.80914869  0.08870037  1
  C  C100  1  0.83210274  0.02295405  0.08870037  1
  C  C101  1  0.19085131  0.16789726  0.08870037  1
  C  C102  1  0.68832683  0.16530224  0.74539616  1
  C  C103  1  0.47697641  0.31167317  0.74539616  1
  C  C104  1  0.83469776  0.52302359  0.74539616  1
  C  C105  1  0.68851191  0.51798638  0.24404587  1
  C  C106  1  0.82947548  0.31148809  0.24404587  1
  C  C107  1  0.48201362  0.17052452  0.24404587  1
  C  C108  1  0.64307339  0.49731351  0.92222987  1
  C  C109  1  0.85424112  0.35692661  0.92222987  1
  C  C110  1  0.50268649  0.14575888  0.92222987  1
  C  C111  1  0.64323007  0.14399260  0.42138200  1
  C  C112  1  0.50076353  0.35676993  0.42138200  1
  C  C113  1  0.85600740  0.49923647  0.42138200  1
  C  C114  1  0.35867189  0.50460805  0.07734513  1
  C  C115  1  0.14593517  0.64132811  0.07734513  1
  C  C116  1  0.49539195  0.85406483  0.07734513  1
  C  C117  1  0.35583047  0.85493933  0.57828843  1
  C  C118  1  0.49910786  0.64416953  0.57828843  1
  C  C119  1  0.14506067  0.50089214  0.57828843  1
  C  C120  1  0.31162793  0.82989226  0.25551360  1
  C  C121  1  0.51826334  0.68837207  0.25551360  1
  C  C122  1  0.17010774  0.48173666  0.25551360  1
  C  C123  1  0.30857502  0.48072749  0.75633310  1
  C  C124  1  0.17215147  0.69142498  0.75633310  1
  C  C125  1  0.51927251  0.82784853  0.75633310  1
