# generated using pymatgen
data_Cu4NiC8
_symmetry_space_group_name_H-M   'P 1'
_cell_length_a   5.56743919
_cell_length_b   5.95599507
_cell_length_c   5.87423872
_cell_angle_alpha   109.69350332
_cell_angle_beta   91.49263614
_cell_angle_gamma   89.16230583
_symmetry_Int_Tables_number   1
_chemical_formula_structural   Cu4NiC8
_chemical_formula_sum   'Cu4 Ni1 C8'
_cell_volume   183.32851217
_cell_formula_units_Z   1
loop_
 _symmetry_equiv_pos_site_id
 _symmetry_equiv_pos_as_xyz
  1  'x, y, z'
loop_
 _atom_site_type_symbol
 _atom_site_label
 _atom_site_symmetry_multiplicity
 _atom_site_fract_x
 _atom_site_fract_y
 _atom_site_fract_z
 _atom_site_occupancy
  Ni  Ni0  1  0.00982800  0.50213400  0.00568700  1
  Cu  Cu1  1  0.50207100  0.78656700  0.28362300  1
  Cu  Cu2  1  0.00244900  0.24900200  0.25064400  1
  Cu  Cu3  1  0.51553600  0.21126200  0.72107100  1
  Cu  Cu4  1  0.01612400  0.74927700  0.75483200  1
  C  C5  1  0.16940600  0.90428800  0.13985500  1
  C  C6  1  0.65600800  0.14958000  0.35151800  1
  C  C7  1  0.85326800  0.09692800  0.86149500  1
  C  C8  1  0.36225100  0.84811700  0.65359300  1
  C  C9  1  0.86004900  0.66013200  0.38828600  1
  C  C10  1  0.39172000  0.35505600  0.15203900  1
  C  C11  1  0.15409000  0.33327500  0.61959500  1
  C  C12  1  0.62624800  0.64247600  0.85347600  1
