# generated using pymatgen
data_Cu12NiC6
_symmetry_space_group_name_H-M   'P 1'
_cell_length_a   8.83469027
_cell_length_b   8.83468999
_cell_length_c   22.20954347
_cell_angle_alpha   89.71824903
_cell_angle_beta   90.28175095
_cell_angle_gamma   120.01283978
_symmetry_Int_Tables_number   1
_chemical_formula_structural   Cu12NiC6
_chemical_formula_sum   'Cu72 Ni6 C36'
_cell_volume   1501.03113722
_cell_formula_units_Z   6
loop_
 _symmetry_equiv_pos_site_id
 _symmetry_equiv_pos_as_xyz
  1  'x, y, z'
loop_
 _atom_site_type_symbol
 _atom_site_label
 _atom_site_symmetry_multiplicity
 _atom_site_fract_x
 _atom_site_fract_y
 _atom_site_fract_z
 _atom_site_occupancy
  C  C0  1  0.99717957  0.62919025  0.25377710  1
  C  C1  1  0.37080975  0.00282043  0.75377710  1
  C  C2  1  0.66384657  0.96252325  0.58711010  1
  C  C3  1  0.03747675  0.33615343  0.08711010  1
  C  C4  1  0.33051257  0.29585725  0.92044410  1
  C  C5  1  0.70414275  0.66948743  0.42044410  1
  C  C6  1  0.02215780  0.99926257  0.50062547  1
  C  C7  1  0.00073743  0.97784220  0.00062547  1
  C  C8  1  0.68882480  0.33259557  0.83395847  1
  C  C9  1  0.66740443  0.31117520  0.33395847  1
  C  C10  1  0.35549080  0.66592957  0.16729247  1
  C  C11  1  0.33407043  0.64450920  0.66729247  1
  C  C12  1  0.97867109  0.99129112  0.35487344  1
  C  C13  1  0.00870888  0.02132891  0.85487344  1
  C  C14  1  0.99804359  0.00013459  0.64575325  1
  C  C15  1  0.99986541  0.00195641  0.14575325  1
  C  C16  1  0.64533809  0.32462412  0.68820644  1
  C  C17  1  0.67537588  0.35466191  0.18820644  1
  C  C18  1  0.66471059  0.33346759  0.97908625  1
  C  C19  1  0.66653241  0.33528941  0.47908625  1
  C  C20  1  0.31200409  0.65795812  0.02154044  1
  C  C21  1  0.34204188  0.68799591  0.52154044  1
  C  C22  1  0.33137659  0.66680159  0.31242025  1
  C  C23  1  0.33319841  0.66862341  0.81242025  1
  C  C24  1  0.70490354  0.71563857  0.24990931  1
  C  C25  1  0.99823418  0.28670963  0.24863063  1
  C  C26  1  0.28436143  0.29509646  0.74990931  1
  C  C27  1  0.71329037  0.00176582  0.74863063  1
  C  C28  1  0.37157054  0.04897157  0.58324231  1
  C  C29  1  0.66490118  0.62004263  0.58196363  1
  C  C30  1  0.95102843  0.62842946  0.08324231  1
  C  C31  1  0.37995737  0.33509882  0.08196363  1
  C  C32  1  0.03823654  0.38230557  0.91657631  1
  C  C33  1  0.33156718  0.95337663  0.91529763  1
  C  C34  1  0.61769443  0.96176346  0.41657631  1
  C  C35  1  0.04662337  0.66843282  0.41529763  1
  Ni  Ni36  1  0.29036738  0.00486426  0.25026001  1
  Ni  Ni37  1  0.99513574  0.70963262  0.75026001  1
  Ni  Ni38  1  0.95703438  0.33819726  0.58359301  1
  Ni  Ni39  1  0.66180274  0.04296562  0.08359301  1
  Ni  Ni40  1  0.62370038  0.67153126  0.91692701  1
  Ni  Ni41  1  0.32846874  0.37629962  0.41692701  1
  Cu  Cu42  1  0.20867713  0.02373137  0.30509256  1
  Cu  Cu43  1  0.82759712  0.79415100  0.31092287  1
  Cu  Cu44  1  0.98008043  0.16078649  0.30613729  1
  Cu  Cu45  1  0.20584900  0.17240288  0.81092287  1
  Cu  Cu46  1  0.97626863  0.79132287  0.80509256  1
  Cu  Cu47  1  0.83921351  0.01991957  0.80613729  1
  Cu  Cu48  1  0.79954794  0.97378704  0.68748202  1
  Cu  Cu49  1  0.16034070  0.18396106  0.69319438  1
  Cu  Cu50  1  0.02152979  0.81823807  0.69570278  1
  Cu  Cu51  1  0.81603894  0.83965930  0.19319438  1
  Cu  Cu52  1  0.02621296  0.20045206  0.18748202  1
  Cu  Cu53  1  0.18176193  0.97847021  0.19570278  1
  Cu  Cu54  1  0.87534413  0.35706437  0.63842556  1
  Cu  Cu55  1  0.49426412  0.12748400  0.64425587  1
  Cu  Cu56  1  0.64674743  0.49411949  0.63947029  1
  Cu  Cu57  1  0.87251600  0.50573588  0.14425587  1
  Cu  Cu58  1  0.64293563  0.12465587  0.13842556  1
  Cu  Cu59  1  0.50588051  0.35325257  0.13947029  1
  Cu  Cu60  1  0.46621494  0.30712004  0.02081502  1
  Cu  Cu61  1  0.82700770  0.51729406  0.02652738  1
  Cu  Cu62  1  0.68819679  0.15157107  0.02903578  1
  Cu  Cu63  1  0.48270594  0.17299230  0.52652738  1
  Cu  Cu64  1  0.69287996  0.53378506  0.52081502  1
  Cu  Cu65  1  0.84842893  0.31180321  0.52903578  1
  Cu  Cu66  1  0.54201013  0.69039837  0.97175956  1
  Cu  Cu67  1  0.16093012  0.46081800  0.97758987  1
  Cu  Cu68  1  0.31341343  0.82745349  0.97280429  1
  Cu  Cu69  1  0.53918200  0.83906988  0.47758987  1
  Cu  Cu70  1  0.30960163  0.45798987  0.47175956  1
  Cu  Cu71  1  0.17254651  0.68658657  0.47280429  1
  Cu  Cu72  1  0.13288094  0.64045404  0.35414902  1
  Cu  Cu73  1  0.49367370  0.85062806  0.35986138  1
  Cu  Cu74  1  0.35486279  0.48490507  0.36236978  1
  Cu  Cu75  1  0.14937194  0.50632630  0.85986138  1
  Cu  Cu76  1  0.35954596  0.86711906  0.85414902  1
  Cu  Cu77  1  0.51509493  0.64513721  0.86236978  1
  Cu  Cu78  1  0.02847541  0.84473378  0.41102480  1
  Cu  Cu79  1  0.81034692  0.97348853  0.41028881  1
  Cu  Cu80  1  0.17730685  0.19966338  0.41126931  1
  Cu  Cu81  1  0.02651147  0.18965308  0.91028881  1
  Cu  Cu82  1  0.15526622  0.97152459  0.91102480  1
  Cu  Cu83  1  0.80033662  0.82269315  0.91126931  1
  Cu  Cu84  1  0.96783664  0.17363549  0.58625540  1
  Cu  Cu85  1  0.17927552  0.02641314  0.58961096  1
  Cu  Cu86  1  0.83303330  0.81862456  0.58918961  1
  Cu  Cu87  1  0.97358686  0.82072448  0.08961096  1
  Cu  Cu88  1  0.82636451  0.03216336  0.08625540  1
  Cu  Cu89  1  0.18137544  0.16696670  0.08918961  1
  Cu  Cu90  1  0.69514241  0.17806678  0.74435780  1
  Cu  Cu91  1  0.47701392  0.30682153  0.74362181  1
  Cu  Cu92  1  0.84397385  0.53299638  0.74460231  1
  Cu  Cu93  1  0.69317847  0.52298608  0.24362181  1
  Cu  Cu94  1  0.82193322  0.30485759  0.24435780  1
  Cu  Cu95  1  0.46700362  0.15602615  0.24460231  1
  Cu  Cu96  1  0.63450364  0.50696849  0.91958840  1
  Cu  Cu97  1  0.84594252  0.35974614  0.92294396  1
  Cu  Cu98  1  0.49970030  0.15195756  0.92252261  1
  Cu  Cu99  1  0.64025386  0.15405748  0.42294396  1
  Cu  Cu100  1  0.49303151  0.36549636  0.41958840  1
  Cu  Cu101  1  0.84804244  0.50029970  0.42252261  1
  Cu  Cu102  1  0.36180841  0.51140078  0.07769180  1
  Cu  Cu103  1  0.14367992  0.64015553  0.07695581  1
  Cu  Cu104  1  0.51063985  0.86633038  0.07793631  1
  Cu  Cu105  1  0.35984447  0.85632008  0.57695581  1
  Cu  Cu106  1  0.48859922  0.63819159  0.57769180  1
  Cu  Cu107  1  0.13366962  0.48936015  0.57793631  1
  Cu  Cu108  1  0.30116964  0.84030249  0.25292240  1
  Cu  Cu109  1  0.51260852  0.69308014  0.25627796  1
  Cu  Cu110  1  0.16636630  0.48529156  0.25585661  1
  Cu  Cu111  1  0.30691986  0.48739148  0.75627796  1
  Cu  Cu112  1  0.15969751  0.69883036  0.75292240  1
  Cu  Cu113  1  0.51470844  0.83363370  0.75585661  1
