# generated using pymatgen
data_Cu5Ni7C58
_symmetry_space_group_name_H-M   'P 1'
_cell_length_a   17.61410221
_cell_length_b   8.82094674
_cell_length_c   22.74290306
_cell_angle_alpha   90.03702688
_cell_angle_beta   89.92098058
_cell_angle_gamma   120.05504571
_symmetry_Int_Tables_number   1
_chemical_formula_structural   Cu5Ni7C58
_chemical_formula_sum   'Cu15 Ni21 C174'
_cell_volume   3058.51538661
_cell_formula_units_Z   3
loop_
 _symmetry_equiv_pos_site_id
 _symmetry_equiv_pos_as_xyz
  1  'x, y, z'
loop_
 _atom_site_type_symbol
 _atom_site_label
 _atom_site_symmetry_multiplicity
 _atom_site_fract_x
 _atom_site_fract_y
 _atom_site_fract_z
 _atom_site_occupancy
  C  C0  1  0.99964704  0.00140865  0.49703427  1
  C  C1  1  0.50021731  0.00331587  0.99371639  1
  C  C2  1  0.33508394  0.32896534  0.83195375  1
  C  C3  1  0.82841888  0.33103729  0.83474469  1
  C  C4  1  0.32953326  0.32712673  0.33985599  1
  C  C5  1  0.83378834  0.34122803  0.33725372  1
  C  C6  1  0.49931707  0.99122668  0.36026265  1
  C  C7  1  0.99902901  0.00449945  0.85760820  1
  C  C8  1  0.49682363  0.00239813  0.64081575  1
  C  C9  1  0.99577627  0.99161582  0.14127078  1
  C  C10  1  0.32768112  0.33722533  0.69001082  1
  C  C11  1  0.83095778  0.31507435  0.68904716  1
  C  C12  1  0.32623850  0.33660624  0.19244852  1
  C  C13  1  0.82828681  0.31771886  0.19168245  1
  C  C14  1  0.32997398  0.33446605  0.97247117  1
  C  C15  1  0.83537317  0.32197630  0.47511388  1
  C  C16  1  0.17356665  0.67418690  0.02114402  1
  C  C17  1  0.67258985  0.66904839  0.02040746  1
  C  C18  1  0.16729665  0.66870839  0.52404811  1
  C  C19  1  0.67574972  0.67242859  0.52197678  1
  C  C20  1  0.17134206  0.69019061  0.31199281  1
  C  C21  1  0.67706713  0.67744064  0.30785068  1
  C  C22  1  0.17633114  0.67609593  0.80601816  1
  C  C23  1  0.66990154  0.64985372  0.80946627  1
  C  C24  1  0.99821645  0.97157210  0.35654732  1
  C  C25  1  0.49800029  0.02552009  0.85510898  1
  C  C26  1  0.99549271  0.02559423  0.64875611  1
  C  C27  1  0.49811270  0.98829125  0.15436859  1
  C  C28  1  0.83142953  0.32920182  0.98030104  1
  C  C29  1  0.32975915  0.33063052  0.48084051  1
  Ni  Ni30  1  0.13440511  0.99861455  0.25336774  1
  Ni  Ni31  1  0.63497504  0.99153179  0.24839829  1
  Ni  Ni32  1  0.35875635  0.72413689  0.24826424  1
  Ni  Ni33  1  0.86322594  0.71757900  0.25154232  1
  Ni  Ni34  1  0.13611777  0.27753262  0.74816334  1
  Ni  Ni35  1  0.63854324  0.26849263  0.75286779  1
  Ni  Ni36  1  0.36409101  0.01077083  0.75114701  1
  Ni  Ni37  1  0.85840489  0.99632743  0.74826731  1
  Ni  Ni38  1  0.97807807  0.32409110  0.58453111  1
  Ni  Ni39  1  0.68808085  0.04438571  0.58158073  1
  Ni  Ni40  1  0.33467919  0.61241784  0.57713860  1
  Ni  Ni41  1  0.83343608  0.05662183  0.07786222  1
  Ni  Ni42  1  0.18816841  0.33216595  0.08256401  1
  Ni  Ni43  1  0.31984506  0.68631990  0.91286068  1
  Ni  Ni44  1  0.81262410  0.64891661  0.91816855  1
  Ni  Ni45  1  0.52604941  0.37578908  0.91638478  1
  Ni  Ni46  1  0.16304491  0.94631720  0.91596106  1
  Ni  Ni47  1  0.31119145  0.97331966  0.42089139  1
  Ni  Ni48  1  0.82041895  0.95600064  0.41347074  1
  Ni  Ni49  1  0.66663646  0.38057625  0.41665193  1
  Ni  Ni50  1  0.02506651  0.67556547  0.41649711  1
  Cu  Cu51  1  0.00168064  0.28421586  0.25146605  1
  Cu  Cu52  1  0.50012935  0.28168039  0.24779847  1
  Cu  Cu53  1  -0.00010492  0.71831287  0.74817275  1
  Cu  Cu54  1  0.50095416  0.71852289  0.75175313  1
  Cu  Cu55  1  0.47418653  0.33580227  0.58073209  1
  Cu  Cu56  1  0.18762532  0.04918485  0.58259200  1
  Cu  Cu57  1  0.83906887  0.62737109  0.58451382  1
  Cu  Cu58  1  0.47769852  0.62898766  0.08407648  1
  Cu  Cu59  1  0.97406655  0.61278189  0.08088576  1
  Cu  Cu60  1  0.33951939  0.04912605  0.08434228  1
  Cu  Cu61  1  0.68628153  0.32441232  0.08295897  1
  Cu  Cu62  1  0.01951052  0.38222060  0.91773427  1
  Cu  Cu63  1  0.66792087  0.96090637  0.91696879  1
  Cu  Cu64  1  0.16743148  0.37485284  0.41688702  1
  Cu  Cu65  1  0.51986098  0.65559432  0.41799368  1
  C  C66  1  0.09544817  0.04062352  0.30989340  1
  C  C67  1  0.59714218  0.03405635  0.30766390  1
  C  C68  1  0.41978095  0.80707157  0.30642796  1
  C  C69  1  0.91873439  0.80325829  0.30883029  1
  C  C70  1  0.48220435  0.17477487  0.30128167  1
  C  C71  1  0.98195898  0.17517817  0.30354132  1
  C  C72  1  0.09836303  0.16312007  0.80861364  1
  C  C73  1  0.59567272  0.15172032  0.81021278  1
  C  C74  1  0.48208377  0.78891997  0.80399869  1
  C  C75  1  0.98521184  0.79556406  0.80266005  1
  C  C76  1  0.41701742  0.03348508  0.80972672  1
  C  C77  1  0.91896914  0.03077927  0.80718937  1
  C  C78  1  0.40161534  0.97041922  0.69146348  1
  C  C79  1  0.90018269  0.96137395  0.69163395  1
  C  C80  1  0.08360654  0.18793224  0.69008116  1
  C  C81  1  0.58087748  0.18573043  0.69308228  1
  C  C82  1  0.01424330  0.82358593  0.69555006  1
  C  C83  1  0.51266737  0.81821502  0.69708731  1
  C  C84  1  0.40036270  0.83693680  0.19004167  1
  C  C85  1  0.90198992  0.83251369  0.19133112  1
  C  C86  1  0.01219396  0.20564419  0.19651665  1
  C  C87  1  0.51343344  0.20138549  0.19462450  1
  C  C88  1  0.08120709  0.97611189  0.19237644  1
  C  C89  1  0.58404715  0.97770049  0.18906498  1
  C  C90  1  0.43498574  0.35921822  0.63518501  1
  C  C91  1  0.93112882  0.36269961  0.64109949  1
  C  C92  1  0.24380014  0.13053853  0.63663367  1
  C  C93  1  0.75037090  0.13343238  0.64022585  1
  C  C94  1  0.32135975  0.49466728  0.63793613  1
  C  C95  1  0.81964545  0.51616795  0.63705542  1
  C  C96  1  0.43746065  0.51633718  0.13668173  1
  C  C97  1  0.93511176  0.51055033  0.13507444  1
  C  C98  1  0.32344485  0.12829645  0.13667084  1
  C  C99  1  0.82042594  0.14707329  0.13824665  1
  C  C100  1  0.25245496  0.36609801  0.14009258  1
  C  C101  1  0.74180293  0.35715349  0.13660684  1
  C  C102  1  0.23957541  0.30548506  0.02754673  1
  C  C103  1  0.72842481  0.30113085  0.03051780  1
  C  C104  1  0.42215474  0.54407712  0.03128568  1
  C  C105  1  0.91960935  0.53410790  0.02869947  1
  C  C106  1  0.35121495  0.15331275  0.03070510  1
  C  C107  1  0.84606132  0.18059988  0.02369578  1
  C  C108  1  0.23032759  0.15825581  0.53047014  1
  C  C109  1  0.73508586  0.17104976  0.52585222  1
  C  C110  1  0.34756154  0.51162152  0.52364376  1
  C  C111  1  0.84939972  0.54769927  0.53047008  1
  C  C112  1  0.41958542  0.30496711  0.52868889  1
  C  C113  1  0.91463556  0.30093137  0.52749433  1
  C  C114  1  0.26598103  0.69982586  0.97213230  1
  C  C115  1  0.76604025  0.69201550  0.97447724  1
  C  C116  1  0.07595158  0.46329855  0.97091582  1
  C  C117  1  0.58477264  0.47820822  0.97483134  1
  C  C118  1  0.15150047  0.83170438  0.97545532  1
  C  C119  1  0.65478377  0.84740587  0.97065396  1
  C  C120  1  0.26557202  0.83834023  0.47501119  1
  C  C121  1  0.76657888  0.83252922  0.47199609  1
  C  C122  1  0.15378847  0.45776782  0.47026099  1
  C  C123  1  0.65051306  0.47136612  0.47487280  1
  C  C124  1  0.08580707  0.69424441  0.47351506  1
  C  C125  1  0.57562751  0.68866879  0.47068957  1
  C  C126  1  0.06860454  0.63218496  0.35906447  1
  C  C127  1  0.55881116  0.63121275  0.36404376  1
  C  C128  1  0.25030871  0.87485625  0.36109148  1
  C  C129  1  0.75130904  0.86335505  0.35854574  1
  C  C130  1  0.18414953  0.48649791  0.36392308  1
  C  C131  1  0.67685335  0.50182011  0.35947451  1
  C  C132  1  0.05856635  0.48721001  0.86458932  1
  C  C133  1  0.56757002  0.50564337  0.85990583  1
  C  C134  1  0.17849215  0.85399287  0.85949713  1
  C  C135  1  0.68426323  0.88275339  0.86455211  1
  C  C136  1  0.25041027  0.63576736  0.85879480  1
  C  C137  1  0.74906958  0.62494137  0.86129043  1
  C  C138  1  0.01779386  0.84863449  0.41173854  1
  C  C139  1  0.51257978  0.81822058  0.41228662  1
  C  C140  1  0.40434399  0.98331434  0.40427455  1
  C  C141  1  0.91628246  0.98542257  0.40580025  1
  C  C142  1  0.08829288  0.20229770  0.41045428  1
  C  C143  1  0.58053794  0.18960708  0.40625496  1
  C  C144  1  0.01260864  0.20680530  0.91227584  1
  C  C145  1  0.51685744  0.18669844  0.91219609  1
  C  C146  1  0.08052880  0.97416170  0.90771508  1
  C  C147  1  0.58837030  0.97354504  0.91242121  1
  C  C148  1  0.41645559  0.84720411  0.90621945  1
  C  C149  1  0.90501055  0.82666467  0.90557505  1
  C  C150  1  0.48478407  0.17846834  0.58757226  1
  C  C151  1  0.98658235  0.15072718  0.58932659  1
  C  C152  1  0.09962125  0.02496882  0.59070454  1
  C  C153  1  0.59329519  0.02250089  0.59400806  1
  C  C154  1  0.41831261  0.80407280  0.59315478  1
  C  C155  1  0.91597899  0.80303634  0.59154732  1
  C  C156  1  0.48581163  0.80437104  0.09058210  1
  C  C157  1  0.98494214  0.79142123  0.08767684  1
  C  C158  1  0.41682826  0.02685160  0.09120669  1
  C  C159  1  0.91645828  0.02902627  0.09267386  1
  C  C160  1  0.09389134  0.16374907  0.09340082  1
  C  C161  1  0.59731732  0.17103341  0.09086496  1
  C  C162  1  0.34836988  0.17730148  0.73941976  1
  C  C163  1  0.84970233  0.17588003  0.74495303  1
  C  C164  1  0.23854495  0.31048979  0.74291571  1
  C  C165  1  0.74114595  0.31504406  0.74225020  1
  C  C166  1  0.42162957  0.53355512  0.74319015  1
  C  C167  1  0.91993897  0.54066503  0.74365998  1
  C  C168  1  0.35135717  0.52543674  0.24218520  1
  C  C169  1  0.84828343  0.52027661  0.23858155  1
  C  C170  1  0.42069955  0.30221282  0.23952498  1
  C  C171  1  0.92152393  0.30913155  0.24257273  1
  C  C172  1  0.23877093  0.16572834  0.24156014  1
  C  C173  1  0.73740904  0.16526815  0.24213893  1
  C  C174  1  0.32259812  0.50273743  0.92465917  1
  C  C175  1  0.82188420  0.47963394  0.93061831  1
  C  C176  1  0.42880983  0.35741228  0.92865893  1
  C  C177  1  0.93148105  0.35960115  0.92610803  1
  C  C178  1  0.25239016  0.14001899  0.92438638  1
  C  C179  1  0.74740455  0.13675488  0.92612817  1
  C  C180  1  0.32255387  0.16506611  0.43001423  1
  C  C181  1  0.82039390  0.14095664  0.42126038  1
  C  C182  1  0.24742824  0.35788823  0.42495011  1
  C  C183  1  0.75368813  0.36512239  0.42444967  1
  C  C184  1  0.43132176  0.50335553  0.42520816  1
  C  C185  1  0.92764857  0.50034915  0.42504661  1
  C  C186  1  0.17742581  0.50360369  0.07251618  1
  C  C187  1  0.67913951  0.48668626  0.07644270  1
  C  C188  1  0.06292004  0.63414039  0.07391546  1
  C  C189  1  0.56512181  0.64667513  0.07575820  1
  C  C190  1  0.25787520  0.87164226  0.07707478  1
  C  C191  1  0.74659892  0.86084511  0.07125087  1
  C  C192  1  0.18265939  0.87602306  0.57756341  1
  C  C193  1  0.67634410  0.84991688  0.57173462  1
  C  C194  1  0.24933766  0.63597766  0.57099256  1
  C  C195  1  0.75725227  0.64459345  0.57705799  1
  C  C196  1  0.07245455  0.49982609  0.57264649  1
  C  C197  1  0.56277491  0.49201553  0.57418497  1
  C  C198  1  0.15157035  0.83177327  0.25847787  1
  C  C199  1  0.64767082  0.82319839  0.26018292  1
  C  C200  1  0.25900990  0.67959503  0.26127741  1
  C  C201  1  0.76288087  0.68843167  0.25711195  1
  C  C202  1  0.07854264  0.45972567  0.25717494  1
  C  C203  1  0.57625966  0.45849055  0.25561526  1
  C  C204  1  0.14818535  0.47141979  0.76050249  1
  C  C205  1  0.65040113  0.46846695  0.75874555  1
  C  C206  1  0.07654465  0.69345760  0.75806247  1
  C  C207  1  0.57854578  0.69710993  0.75827551  1
  C  C208  1  0.26336794  0.83754566  0.75732407  1
  C  C209  1  0.75934795  0.83620264  0.76244216  1
