# generated using pymatgen
data_Cu3Ni4C35
_symmetry_space_group_name_H-M   'P 1'
_cell_length_a   8.94837020
_cell_length_b   9.00012747
_cell_length_c   21.82498877
_cell_angle_alpha   89.86674493
_cell_angle_beta   89.84434476
_cell_angle_gamma   120.10316209
_symmetry_Int_Tables_number   1
_chemical_formula_structural   Cu3Ni4C35
_chemical_formula_sum   'Cu9 Ni12 C105'
_cell_volume   1520.61514939
_cell_formula_units_Z   3
loop_
 _symmetry_equiv_pos_site_id
 _symmetry_equiv_pos_as_xyz
  1  'x, y, z'
loop_
 _atom_site_type_symbol
 _atom_site_label
 _atom_site_symmetry_multiplicity
 _atom_site_fract_x
 _atom_site_fract_y
 _atom_site_fract_z
 _atom_site_occupancy
  C  C0  1  0.64274714  0.00982356  0.24200123  1
  C  C1  1  0.36755124  0.35653937  0.24296501  1
  C  C2  1  0.99036377  0.63182754  0.24297121  1
  C  C3  1  0.62590775  0.61372032  0.74773085  1
  C  C4  1  0.98584001  0.37329037  0.75237500  1
  C  C5  1  0.38701824  0.00672145  0.74604755  1
  C  C6  1  0.31033632  0.33718222  0.58675509  1
  C  C7  1  0.02697062  0.69260298  0.58350448  1
  C  C8  1  0.66355223  0.97640890  0.59101589  1
  C  C9  1  0.31400224  0.97225393  0.08226777  1
  C  C10  1  0.65763535  0.68632056  0.08215861  1
  C  C11  1  0.02722938  0.34170758  0.08216353  1
  C  C12  1  0.96308832  0.66653001  0.91656163  1
  C  C13  1  0.70368697  0.03842499  0.91628318  1
  C  C14  1  0.33429160  0.29840753  0.91772134  1
  C  C15  1  0.96436655  0.28592195  0.41585743  1
  C  C16  1  0.31983446  0.03800526  0.41818105  1
  C  C17  1  0.71343025  0.67554336  0.41444798  1
  C  C18  1  0.00438486  0.00100621  0.50075629  1
  C  C19  1  0.99993964  0.00060668  0.99876846  1
  C  C20  1  0.67018601  0.33210232  0.83252601  1
  C  C21  1  0.66688784  0.33353828  0.33024706  1
  C  C22  1  0.33316952  0.66663287  0.16010439  1
  C  C23  1  0.34033103  0.67274039  0.66806633  1
  C  C24  1  0.00242119  0.00003771  0.35585351  1
  C  C25  1  0.66505685  0.33328635  0.68473483  1
  C  C26  1  0.66646175  0.33301774  0.17371161  1
  Ni  Ni27  1  0.01330239  0.72102712  0.75547693  1
  Ni  Ni28  1  0.71431074  0.98809973  0.75406872  1
  Ni  Ni29  1  0.36866086  0.03310272  0.58276813  1
  Ni  Ni30  1  0.66319634  0.63675941  0.58337781  1
  Ni  Ni31  1  0.97117504  0.63384597  0.08124766  1
  Ni  Ni32  1  0.66203645  0.02847762  0.08106001  1
  Ni  Ni33  1  0.36618036  0.33817511  0.08152340  1
  Ni  Ni34  1  0.61917490  0.66295372  0.91472198  1
  Ni  Ni35  1  0.04498965  0.38078494  0.91450788  1
  Ni  Ni36  1  0.33752564  0.96102470  0.91550172  1
  Ni  Ni37  1  0.34741253  0.39167219  0.41981862  1
  Ni  Ni38  1  0.03972750  0.64886339  0.41946958  1
  Cu  Cu39  1  0.99642314  0.99710500  0.85697606  1
  Cu  Cu40  1  0.99836197  0.98315877  0.64937610  1
  Cu  Cu41  1  0.99901101  0.99861712  0.14238897  1
  Cu  Cu42  1  0.66730845  0.33396046  0.98120188  1
  Cu  Cu43  1  0.66448067  0.34684206  0.48265290  1
  Cu  Cu44  1  0.33246101  0.66681653  0.01387532  1
  Cu  Cu45  1  0.33367174  0.66993523  0.51904623  1
  Cu  Cu46  1  0.32809630  0.65861521  0.31572227  1
  Cu  Cu47  1  0.33767361  0.67770316  0.81550619  1
  C  C48  1  0.29395404  0.98722961  0.25163202  1
  C  C49  1  0.69529386  0.70809705  0.25158348  1
  C  C50  1  0.01122900  0.30326084  0.25124974  1
  C  C51  1  0.26982446  0.28142827  0.75238832  1
  C  C52  1  0.96689247  0.33457698  0.58090680  1
  C  C53  1  0.60565297  0.95641830  0.41762927  1
  C  C54  1  0.21956833  0.00774610  0.31124310  1
  C  C55  1  0.79062201  0.78338456  0.31072512  1
  C  C56  1  0.99185006  0.20898290  0.31085028  1
  C  C57  1  0.18549790  0.17408033  0.81133291  1
  C  C58  1  0.98939709  0.81763846  0.81482164  1
  C  C59  1  0.83306340  0.01878276  0.81486895  1
  C  C60  1  0.80618615  0.96354240  0.69053128  1
  C  C61  1  0.16313871  0.19317785  0.69240972  1
  C  C62  1  0.04230326  0.83172317  0.69058113  1
  C  C63  1  0.79169332  0.82555749  0.19307878  1
  C  C64  1  0.03228043  0.20795065  0.19314469  1
  C  C65  1  0.17640341  0.96501075  0.19350351  1
  C  C66  1  0.90464879  0.37726481  0.63948386  1
  C  C67  1  0.48179642  0.08575637  0.64356268  1
  C  C68  1  0.60568621  0.52205722  0.64401980  1
  C  C69  1  0.92210203  0.53146056  0.14469105  1
  C  C70  1  0.60759689  0.07812168  0.14406600  1
  C  C71  1  0.46958333  0.39175301  0.14456310  1
  C  C72  1  0.46442262  0.29206009  0.02570492  1
  C  C73  1  0.82751243  0.53602729  0.02540422  1
  C  C74  1  0.70950909  0.17341445  0.02537908  1
  C  C75  1  0.46890714  0.17452391  0.52473247  1
  C  C76  1  0.71078201  0.54390729  0.52558154  1
  C  C77  1  0.83930411  0.30049624  0.52562961  1
  C  C78  1  0.53160917  0.70302752  0.97287147  1
  C  C79  1  0.16989622  0.46785054  0.97313023  1
  C  C80  1  0.29488323  0.83055131  0.97291859  1
  C  C81  1  0.51938503  0.84736981  0.47513503  1
  C  C82  1  0.32787003  0.49115108  0.47822390  1
  C  C83  1  0.16286971  0.67785968  0.47757431  1
  C  C84  1  0.12805443  0.61995958  0.35571806  1
  C  C85  1  0.49671911  0.86930216  0.35788957  1
  C  C86  1  0.37943260  0.50771338  0.35561556  1
  C  C87  1  0.13158068  0.50880953  0.85416733  1
  C  C88  1  0.38369528  0.88017493  0.85508470  1
  C  C89  1  0.49090508  0.61974597  0.85452715  1
  C  C90  1  0.01001174  0.81066355  0.42151416  1
  C  C91  1  0.78671957  0.97932401  0.41749122  1
  C  C92  1  0.18123262  0.20197817  0.42262100  1
  C  C93  1  0.02302421  0.18546679  0.91158747  1
  C  C94  1  0.16601762  0.98704087  0.91176773  1
  C  C95  1  0.81640079  0.83641324  0.91290203  1
  C  C96  1  0.98123872  0.16909825  0.58444599  1
  C  C97  1  0.17895027  0.02744004  0.58885394  1
  C  C98  1  0.84576761  0.82633080  0.58827807  1
  C  C99  1  0.98173756  0.82479863  0.08827433  1
  C  C100  1  0.84318350  0.01787603  0.08841853  1
  C  C101  1  0.17500603  0.15601628  0.08876284  1
  C  C102  1  0.68910195  0.15282042  0.75397701  1
  C  C103  1  0.45009488  0.30174109  0.75168575  1
  C  C104  1  0.84396022  0.53339487  0.75512641  1
  C  C105  1  0.67027102  0.52758496  0.24660565  1
  C  C106  1  0.85526328  0.32910117  0.24663288  1
  C  C107  1  0.47537440  0.14397092  0.24656731  1
  C  C108  1  0.63954810  0.49029282  0.92234433  1
  C  C109  1  0.85113447  0.36161348  0.92217945  1
  C  C110  1  0.51220696  0.15310328  0.92333867  1
  C  C111  1  0.61764704  0.13529900  0.42020313  1
  C  C112  1  0.52656439  0.37693378  0.42236711  1
  C  C113  1  0.84858849  0.46605199  0.42363525  1
  C  C114  1  0.33839383  0.50245677  0.06865198  1
  C  C115  1  0.16388793  0.66045546  0.06861270  1
  C  C116  1  0.49711467  0.83620743  0.06830519  1
  C  C117  1  0.33158387  0.83506475  0.57183201  1
  C  C118  1  0.50048743  0.67249924  0.57245467  1
  C  C119  1  0.15386721  0.49358414  0.57330960  1
  C  C120  1  0.29975921  0.81296048  0.25312153  1
  C  C121  1  0.51541482  0.70472869  0.25244759  1
  C  C122  1  0.18749979  0.48338021  0.25164247  1
  C  C123  1  0.28051089  0.45991016  0.75295731  1
  C  C124  1  0.19416006  0.70881554  0.75670688  1
  C  C125  1  0.52280088  0.80489520  0.75615716  1
