# generated using pymatgen
data_CuNi5C51
_symmetry_space_group_name_H-M   'P 1'
_cell_length_a   8.83465244
_cell_length_b   8.87519226
_cell_length_c   22.50643820
_cell_angle_alpha   90.03352625
_cell_angle_beta   90.24220521
_cell_angle_gamma   119.81407164
_symmetry_Int_Tables_number   1
_chemical_formula_structural   CuNi5C51
_chemical_formula_sum   'Cu2 Ni10 C102'
_cell_volume   1531.12024802
_cell_formula_units_Z   2
loop_
 _symmetry_equiv_pos_site_id
 _symmetry_equiv_pos_as_xyz
  1  'x, y, z'
loop_
 _atom_site_type_symbol
 _atom_site_label
 _atom_site_symmetry_multiplicity
 _atom_site_fract_x
 _atom_site_fract_y
 _atom_site_fract_z
 _atom_site_occupancy
  C  C0  1  0.30284650  0.33778304  0.57743857  1
  C  C1  1  0.67195175  0.97138459  0.59307118  1
  C  C2  1  0.29804622  0.97026231  0.09258187  1
  C  C3  1  0.02944230  0.33360915  0.08329121  1
  C  C4  1  0.33054196  0.04674708  0.40679557  1
  C  C5  1  0.68717488  0.65252478  0.41541492  1
  C  C6  1  0.01129185  0.01645395  0.49681724  1
  C  C7  1  0.98655142  0.98924972  0.99544211  1
  C  C8  1  0.67220474  0.31747089  0.82822819  1
  C  C9  1  0.64670045  0.31859902  0.32699281  1
  C  C10  1  0.34410526  0.67932338  0.16621834  1
  C  C11  1  0.32842347  0.67323872  0.66587046  1
  Ni  Ni12  1  0.01852293  0.02035647  0.34894846  1
  Ni  Ni13  1  0.99549122  0.00359859  0.84987384  1
  Ni  Ni14  1  0.98883939  0.98858699  0.65552973  1
  Ni  Ni15  1  0.00157932  0.98762932  0.15447820  1
  Ni  Ni16  1  0.67014210  0.33006969  0.68746726  1
  Ni  Ni17  1  0.65618295  0.32751332  0.18687083  1
  Ni  Ni18  1  0.66761061  0.33484438  0.97982848  1
  Ni  Ni19  1  0.66540958  0.33465251  0.48136104  1
  Ni  Ni20  1  0.33869104  0.66704062  0.01470216  1
  Ni  Ni21  1  0.32307516  0.65850129  0.51637836  1
  Cu  Cu22  1  0.33186417  0.65959055  0.31158966  1
  Cu  Cu23  1  0.34208674  0.67320633  0.81182330  1
  C  C24  1  0.30063577  0.00939181  0.24984435  1
  C  C25  1  0.71997282  0.01787713  0.74862196  1
  C  C26  1  0.32838654  0.36482426  0.42249336  1
  C  C27  1  0.71261908  0.70902865  0.25170590  1
  C  C28  1  0.99472498  0.29072301  0.24808930  1
  C  C29  1  0.29354979  0.29136760  0.75006312  1
  C  C30  1  0.99714748  0.70791442  0.75165813  1
  C  C31  1  0.96008995  0.33724676  0.58356055  1
  C  C32  1  0.37038384  0.03795357  0.58246321  1
  C  C33  1  0.67247473  0.62931514  0.58294934  1
  C  C34  1  0.95533856  0.62466783  0.08225794  1
  C  C35  1  0.66848290  0.04057629  0.08253837  1
  C  C36  1  0.37456188  0.33725200  0.08191480  1
  C  C37  1  0.62855734  0.66596077  0.91826618  1
  C  C38  1  0.04010808  0.37160957  0.91918810  1
  C  C39  1  0.33082519  0.95969582  0.91838031  1
  C  C40  1  0.62647853  0.95713743  0.41822822  1
  C  C41  1  0.03976107  0.66329777  0.41745837  1
  C  C42  1  0.20962403  0.01891221  0.31026978  1
  C  C43  1  0.80483744  0.78881651  0.30725191  1
  C  C44  1  0.97082906  0.18592061  0.30090849  1
  C  C45  1  0.21344034  0.18538661  0.80234042  1
  C  C46  1  0.98263004  0.79172843  0.80509035  1
  C  C47  1  0.82508501  0.02529302  0.80646116  1
  C  C48  1  0.77074876  0.96272467  0.68647520  1
  C  C49  1  0.19042353  0.22137083  0.69499707  1
  C  C50  1  0.03943000  0.81531933  0.69793283  1
  C  C51  1  0.78607088  0.81900908  0.19936641  1
  C  C52  1  0.02604654  0.21890557  0.19360050  1
  C  C53  1  0.19159652  0.96355507  0.18794938  1
  C  C54  1  0.87512559  0.35396712  0.63663024  1
  C  C55  1  0.48362929  0.12358040  0.63407777  1
  C  C56  1  0.64594353  0.51678210  0.63420577  1
  C  C57  1  0.87638938  0.51758114  0.13532620  1
  C  C58  1  0.64025595  0.12201316  0.13518520  1
  C  C59  1  0.47803296  0.36054529  0.13574723  1
  C  C60  1  0.45584600  0.30833877  0.02919553  1
  C  C61  1  0.85327022  0.53917690  0.02832447  1
  C  C62  1  0.69708609  0.14908126  0.02898806  1
  C  C63  1  0.44719558  0.14090574  0.52721085  1
  C  C64  1  0.68751291  0.54839301  0.52719304  1
  C  C65  1  0.85211495  0.30988599  0.52978034  1
  C  C66  1  0.54392707  0.68990676  0.97025140  1
  C  C67  1  0.14057370  0.45497278  0.97415707  1
  C  C68  1  0.30948368  0.85722221  0.97234963  1
  C  C69  1  0.54697049  0.85394219  0.47227900  1
  C  C70  1  0.31463682  0.45768649  0.48160144  1
  C  C71  1  0.15505253  0.70225118  0.46900856  1
  C  C72  1  0.12964391  0.64587125  0.36315750  1
  C  C73  1  0.50743358  0.87118889  0.36511161  1
  C  C74  1  0.35382018  0.50166790  0.36474102  1
  C  C75  1  0.13380154  0.48452405  0.86665298  1
  C  C76  1  0.35072977  0.86260380  0.86539827  1
  C  C77  1  0.51423675  0.64762016  0.86399530  1
  C  C78  1  0.00824378  0.81148515  0.41025588  1
  C  C79  1  0.79335568  0.96273120  0.40850026  1
  C  C80  1  0.16023199  0.17341409  0.41574564  1
  C  C81  1  0.02858861  0.20097130  0.91365590  1
  C  C82  1  0.17456525  0.97467968  0.90925803  1
  C  C83  1  0.80155464  0.81885876  0.91138423  1
  C  C84  1  0.98506723  0.18067790  0.58725485  1
  C  C85  1  0.19603537  0.02325035  0.58941675  1
  C  C86  1  0.82953850  0.80490159  0.58715643  1
  C  C87  1  0.97685904  0.80175652  0.08597713  1
  C  C88  1  0.82717667  0.02329967  0.08965652  1
  C  C89  1  0.19430240  0.17974736  0.08647548  1
  C  C90  1  0.67205323  0.16946810  0.74550017  1
  C  C91  1  0.47332988  0.32921927  0.74349339  1
  C  C92  1  0.84600182  0.53557893  0.74406690  1
  C  C93  1  0.69134582  0.53608971  0.24444728  1
  C  C94  1  0.85218819  0.32733594  0.24215311  1
  C  C95  1  0.49640140  0.16979642  0.24590801  1
  C  C96  1  0.63498612  0.50362183  0.91997882  1
  C  C97  1  0.86590063  0.35695495  0.92129169  1
  C  C98  1  0.49120213  0.13012993  0.92043102  1
  C  C99  1  0.64340650  0.13047274  0.42199007  1
  C  C100  1  0.51008885  0.35525563  0.41867688  1
  C  C101  1  0.87134435  0.50188542  0.42212170  1
  C  C102  1  0.34877701  0.49117133  0.07594752  1
  C  C103  1  0.13713459  0.64626097  0.07760499  1
  C  C104  1  0.50818843  0.86587395  0.07581812  1
  C  C105  1  0.35591497  0.86309560  0.57677707  1
  C  C106  1  0.51442164  0.65359767  0.58022310  1
  C  C107  1  0.13739878  0.49409701  0.57978345  1
  C  C108  1  0.31752167  0.82335863  0.26197981  1
  C  C109  1  0.52751444  0.68766309  0.25643996  1
  C  C110  1  0.16261653  0.46990002  0.25604479  1
  C  C111  1  0.30429895  0.47074206  0.75885298  1
  C  C112  1  0.15813989  0.68233049  0.75982959  1
  C  C113  1  0.51128987  0.82696576  0.76266113  1
