# generated using pymatgen
data_Cu4Ni3C2
_symmetry_space_group_name_H-M   'P 1'
_cell_length_a   6.50174507
_cell_length_b   6.50174507
_cell_length_c   15.69538581
_cell_angle_alpha   85.40695851
_cell_angle_beta   85.40695851
_cell_angle_gamma   41.79319831
_symmetry_Int_Tables_number   1
_chemical_formula_structural   Cu4Ni3C2
_chemical_formula_sum   'Cu8 Ni6 C4'
_cell_volume   440.54897968
_cell_formula_units_Z   2
loop_
 _symmetry_equiv_pos_site_id
 _symmetry_equiv_pos_as_xyz
  1  'x, y, z'
loop_
 _atom_site_type_symbol
 _atom_site_label
 _atom_site_symmetry_multiplicity
 _atom_site_fract_x
 _atom_site_fract_y
 _atom_site_fract_z
 _atom_site_occupancy
  C  C0  1  0.84219300  0.84219300  0.59014100  1
  C  C1  1  0.15780700  0.15780700  0.40985900  1
  C  C2  1  0.94110500  0.94110500  0.86540000  1
  C  C3  1  0.05889500  0.05889500  0.13460000  1
  Ni  Ni4  1  0.66226200  0.66226200  0.79455600  1
  Ni  Ni5  1  0.33773800  0.33773800  0.20544400  1
  Ni  Ni6  1  0.10656900  0.10656900  0.65417100  1
  Ni  Ni7  1  0.89343100  0.89343100  0.34582900  1
  Ni  Ni8  1  0.21951500  0.21951500  0.93118000  1
  Ni  Ni9  1  0.78048500  0.78048500  0.06882000  1
  Cu  Cu10  1  0.28023900  0.28023900  0.75421200  1
  Cu  Cu11  1  0.56043700  0.56043700  0.55720500  1
  Cu  Cu12  1  0.59889700  0.59889700  0.97023300  1
  Cu  Cu13  1  0.40110300  0.40110300  0.02976700  1
  Cu  Cu14  1  0.52354900  0.52354900  0.29563900  1
  Cu  Cu15  1  0.47645100  0.47645100  0.70436100  1
  Cu  Cu16  1  0.43956300  0.43956300  0.44279500  1
  Cu  Cu17  1  0.71976100  0.71976100  0.24578800  1
