# generated using pymatgen
data_CuNi2C33
_symmetry_space_group_name_H-M   'P 1'
_cell_length_a   8.72914760
_cell_length_b   8.73647549
_cell_length_c   22.70514793
_cell_angle_alpha   89.68676914
_cell_angle_beta   90.16827077
_cell_angle_gamma   119.94515700
_symmetry_Int_Tables_number   1
_chemical_formula_structural   CuNi2C33
_chemical_formula_sum   'Cu3 Ni6 C99'
_cell_volume   1500.36286183
_cell_formula_units_Z   3
loop_
 _symmetry_equiv_pos_site_id
 _symmetry_equiv_pos_as_xyz
  1  'x, y, z'
loop_
 _atom_site_type_symbol
 _atom_site_label
 _atom_site_symmetry_multiplicity
 _atom_site_fract_x
 _atom_site_fract_y
 _atom_site_fract_z
 _atom_site_occupancy
  Ni  Ni0  1  -0.00002001  0.99503641  0.50552095  1
  Ni  Ni1  1  0.00503373  0.99753616  0.00021352  1
  Ni  Ni2  1  0.66685388  0.33044845  0.83205850  1
  Ni  Ni3  1  0.66750721  0.33153057  0.33624881  1
  Ni  Ni4  1  0.33100331  0.66502692  0.16784983  1
  Ni  Ni5  1  0.33803022  0.66585006  0.66492979  1
  Cu  Cu6  1  0.99776204  0.99912014  0.64731390  1
  Cu  Cu7  1  0.00344412  0.00019972  0.14059432  1
  Cu  Cu8  1  0.33260772  0.66744538  0.32043147  1
  C  C9  1  0.00325149  0.00224269  0.36130133  1
  C  C10  1  0.00305563  0.01287901  0.85290711  1
  C  C11  1  0.64609158  0.32133433  0.68531226  1
  C  C12  1  0.66971926  0.34484154  0.18411256  1
  C  C13  1  0.66367189  0.33863244  0.97552040  1
  C  C14  1  0.66238907  0.33531683  0.48040013  1
  C  C15  1  0.32652149  0.65978502  0.01754358  1
  C  C16  1  0.34226526  0.67302223  0.51702664  1
  C  C17  1  0.34069959  0.67002967  0.81720390  1
  C  C18  1  0.29588383  0.30055291  0.75189307  1
  C  C19  1  0.70237211  0.00114790  0.75182450  1
  C  C20  1  0.38455474  0.03980373  0.57992503  1
  C  C21  1  0.65472583  0.61163674  0.58101861  1
  C  C22  1  0.95413254  0.60867771  0.07840736  1
  C  C23  1  0.39100133  0.34740576  0.07889238  1
  C  C24  1  0.62413363  0.67236413  0.91761145  1
  C  C25  1  0.04508993  0.37943324  0.91630966  1
  C  C26  1  0.33027658  0.95249170  0.91732135  1
  C  C27  1  0.63285479  0.96921360  0.41797203  1
  C  C28  1  0.33485536  0.37110471  0.41847581  1
  C  C29  1  0.03532486  0.66403514  0.41889046  1
  C  C30  1  0.30073193  0.01177651  0.24976625  1
  C  C31  1  0.71149121  0.70244019  0.24951527  1
  C  C32  1  0.98840964  0.28774666  0.24944085  1
  C  C33  1  0.00121895  0.70139818  0.75359280  1
  C  C34  1  0.95538327  0.34637327  0.58167560  1
  C  C35  1  0.65262712  0.04663307  0.07994540  1
  C  C36  1  0.21015459  0.02915504  0.30368653  1
  C  C37  1  0.81843095  0.78854546  0.30330476  1
  C  C38  1  0.97108418  0.17958739  0.30354933  1
  C  C39  1  0.19943829  0.17308718  0.80595541  1
  C  C40  1  0.97529696  0.79330627  0.80490172  1
  C  C41  1  0.83110597  0.02733231  0.80544738  1
  C  C42  1  0.75808931  0.95220683  0.69608333  1
  C  C43  1  0.19384207  0.23937916  0.69572269  1
  C  C44  1  0.03930851  0.80081742  0.69922228  1
  C  C45  1  0.78995963  0.79928502  0.19598580  1
  C  C46  1  0.00745994  0.20860832  0.19625964  1
  C  C47  1  0.20139159  0.99175704  0.19660459  1
  C  C48  1  0.86846647  0.36072876  0.63659880  1
  C  C49  1  0.49419791  0.13115842  0.63890090  1
  C  C50  1  0.63694543  0.49802321  0.63836853  1
  C  C51  1  0.86384566  0.49960490  0.13690321  1
  C  C52  1  0.63667210  0.13142331  0.13520250  1
  C  C53  1  0.50162921  0.36324810  0.13659407  1
  C  C54  1  0.49153379  0.33239336  0.02527643  1
  C  C55  1  0.84101410  0.50439590  0.02513453  1
  C  C56  1  0.66777334  0.15152168  0.02706058  1
  C  C57  1  0.49244608  0.15418827  0.52820123  1
  C  C58  1  0.66577276  0.50980279  0.52794719  1
  C  C59  1  0.85149291  0.33386264  0.52907927  1
  C  C60  1  0.53273393  0.69678709  0.97229978  1
  C  C61  1  0.16257076  0.46491492  0.97216434  1
  C  C62  1  0.30279542  0.83385834  0.97258899  1
  C  C63  1  0.53730259  0.83817100  0.47106097  1
  C  C64  1  0.30220406  0.46511164  0.47102226  1
  C  C65  1  0.16506118  0.69874361  0.47142457  1
  C  C66  1  0.08885381  0.62005126  0.36180527  1
  C  C67  1  0.53072670  0.91241330  0.36176306  1
  C  C68  1  0.37878433  0.46885774  0.36129169  1
  C  C69  1  0.13334766  0.49627408  0.86275872  1
  C  C70  1  0.36054408  0.86491276  0.86372048  1
  C  C71  1  0.50620545  0.63990619  0.86331239  1
  C  C72  1  0.02144122  0.83772867  0.41112182  1
  C  C73  1  0.81761604  0.97860445  0.41095169  1
  C  C74  1  0.16179818  0.18359583  0.41157863  1
  C  C75  1  0.02878088  0.19409943  0.90902426  1
  C  C76  1  0.16427074  0.97117251  0.90878798  1
  C  C77  1  0.80881775  0.83587268  0.90902118  1
  C  C78  1  0.97413603  0.18918719  0.58216766  1
  C  C79  1  0.20556511  0.02528447  0.58050650  1
  C  C80  1  0.81691193  0.79247988  0.58099718  1
  C  C81  1  0.96840341  0.78772066  0.07780108  1
  C  C82  1  0.80978103  0.02772934  0.08099646  1
  C  C83  1  0.21008667  0.18530262  0.07818833  1
  C  C84  1  0.68947350  0.17246063  0.74621693  1
  C  C85  1  0.48277987  0.31450167  0.74613711  1
  C  C86  1  0.83956752  0.52367352  0.74871344  1
  C  C87  1  0.70321023  0.52252327  0.24515783  1
  C  C88  1  0.81818325  0.29556734  0.24543617  1
  C  C89  1  0.47818560  0.18074190  0.24547904  1
  C  C90  1  0.64270199  0.50427226  0.92396259  1
  C  C91  1  0.85878736  0.35498936  0.92402027  1
  C  C92  1  0.49652003  0.13765918  0.92518216  1
  C  C93  1  0.67204051  0.15663444  0.43230617  1
  C  C94  1  0.48530571  0.33065799  0.43119287  1
  C  C95  1  0.84719833  0.51381078  0.43285733  1
  C  C96  1  0.38464495  0.52154951  0.07505378  1
  C  C97  1  0.13752391  0.61962886  0.07479121  1
  C  C98  1  0.48832948  0.87051006  0.07697443  1
  C  C99  1  0.37693923  0.85820548  0.57561471  1
  C  C100  1  0.47944979  0.61798142  0.57553949  1
  C  C101  1  0.13130651  0.51133338  0.57757683  1
  C  C102  1  0.33178282  0.86168515  0.25402923  1
  C  C103  1  0.52919473  0.66787356  0.25365880  1
  C  C104  1  0.13796631  0.46905894  0.25373481  1
  C  C105  1  0.32662990  0.48688410  0.76671440  1
  C  C106  1  0.15639570  0.67593406  0.76461774  1
  C  C107  1  0.51483685  0.84515196  0.76771982  1
