# generated using pymatgen
data_CuNi11C7
_symmetry_space_group_name_H-M   'P 1'
_cell_length_a   11.85199288
_cell_length_b   6.38943321
_cell_length_c   2.95817422
_cell_angle_alpha   89.82786583
_cell_angle_beta   88.83371315
_cell_angle_gamma   108.13145848
_symmetry_Int_Tables_number   1
_chemical_formula_structural   CuNi11C7
_chemical_formula_sum   'Cu1 Ni11 C7'
_cell_volume   212.83733189
_cell_formula_units_Z   1
loop_
 _symmetry_equiv_pos_site_id
 _symmetry_equiv_pos_as_xyz
  1  'x, y, z'
loop_
 _atom_site_type_symbol
 _atom_site_label
 _atom_site_symmetry_multiplicity
 _atom_site_fract_x
 _atom_site_fract_y
 _atom_site_fract_z
 _atom_site_occupancy
  C  C0  1  0.82937100  0.65898800  0.95484400  1
  C  C1  1  0.05917800  0.00457800  0.01134100  1
  C  C2  1  0.33884900  0.16841400  0.50814400  1
  C  C3  1  0.04447700  0.48884300  0.47963100  1
  C  C4  1  0.62407300  0.34163600  0.97749000  1
  C  C5  1  0.33227500  0.66505900  0.99758800  1
  C  C6  1  0.61583300  0.84630600  0.47666100  1
  Ni  Ni7  1  0.16479500  0.04871000  0.51763600  1
  Ni  Ni8  1  0.02670000  0.28414200  0.98246600  1
  Ni  Ni9  1  0.32875900  0.35621800  0.00472900  1
  Ni  Ni10  1  0.00496500  0.66408400  0.97734300  1
  Ni  Ni11  1  0.63573400  0.04933700  0.97476800  1
  Ni  Ni12  1  0.51715400  0.29587100  0.48670000  1
  Ni  Ni13  1  0.22174100  0.61021400  0.50270900  1
  Ni  Ni14  1  0.44214800  0.72055900  0.48882300  1
  Ni  Ni15  1  0.74727600  0.42898500  0.46722400  1
  Ni  Ni16  1  0.65547400  0.67596200  0.97345800  1
  Ni  Ni17  1  0.34879300  0.98094500  0.00369100  1
  Cu  Cu18  1  0.89365000  0.88823000  0.44392000  1
