# generated using pymatgen
data_CuNi2C
_symmetry_space_group_name_H-M   'P 1'
_cell_length_a   4.02522156
_cell_length_b   4.02522156
_cell_length_c   7.48202500
_cell_angle_alpha   90.00000000
_cell_angle_beta   90.00000000
_cell_angle_gamma   119.99999277
_symmetry_Int_Tables_number   1
_chemical_formula_structural   CuNi2C
_chemical_formula_sum   'Cu2 Ni4 C2'
_cell_volume   104.98551882
_cell_formula_units_Z   2
loop_
 _symmetry_equiv_pos_site_id
 _symmetry_equiv_pos_as_xyz
  1  'x, y, z'
loop_
 _atom_site_type_symbol
 _atom_site_label
 _atom_site_symmetry_multiplicity
 _atom_site_fract_x
 _atom_site_fract_y
 _atom_site_fract_z
 _atom_site_occupancy
  C  C0  1  0.33333300  0.66666700  0.90814600  1
  C  C1  1  0.66666700  0.33333300  0.09185400  1
  Ni  Ni2  1  0.66666700  0.33333300  0.43514500  1
  Ni  Ni3  1  0.33333300  0.66666700  0.56485500  1
  Ni  Ni4  1  0.00000000  0.00000000  0.72641400  1
  Ni  Ni5  1  0.00000000  0.00000000  0.27358600  1
  Cu  Cu6  1  0.33333300  0.66666700  0.25133500  1
  Cu  Cu7  1  0.66666700  0.33333300  0.74866500  1
