# generated using pymatgen
data_Cu2Ni3C8
_symmetry_space_group_name_H-M   'P 1'
_cell_length_a   9.81067352
_cell_length_b   9.81067352
_cell_length_c   9.81067352
_cell_angle_alpha   109.47122063
_cell_angle_beta   109.47122063
_cell_angle_gamma   109.47122063
_symmetry_Int_Tables_number   1
_chemical_formula_structural   Cu2Ni3C8
_chemical_formula_sum   'Cu8 Ni12 C32'
_cell_volume   726.89985166
_cell_formula_units_Z   4
loop_
 _symmetry_equiv_pos_site_id
 _symmetry_equiv_pos_as_xyz
  1  'x, y, z'
loop_
 _atom_site_type_symbol
 _atom_site_label
 _atom_site_symmetry_multiplicity
 _atom_site_fract_x
 _atom_site_fract_y
 _atom_site_fract_z
 _atom_site_occupancy
  Ni  Ni0  1  0.99435800  0.25000000  0.24435800  1
  Ni  Ni1  1  0.75564200  0.25000000  0.00564200  1
  Ni  Ni2  1  0.75000000  0.49435800  0.74435800  1
  Ni  Ni3  1  0.00564200  0.75564200  0.25000000  1
  Ni  Ni4  1  0.25000000  0.00564200  0.75564200  1
  Ni  Ni5  1  0.49435800  0.74435800  0.75000000  1
  Ni  Ni6  1  0.50564200  0.75000000  0.25564200  1
  Ni  Ni7  1  0.24435800  0.99435800  0.25000000  1
  Ni  Ni8  1  0.25564200  0.50564200  0.75000000  1
  Ni  Ni9  1  0.25000000  0.24435800  0.99435800  1
  Ni  Ni10  1  0.75000000  0.25564200  0.50564200  1
  Ni  Ni11  1  0.74435800  0.75000000  0.49435800  1
  Cu  Cu12  1  0.50000000  0.00000000  0.09224800  1
  Cu  Cu13  1  0.59224800  0.50000000  0.00000000  1
  Cu  Cu14  1  0.90775200  0.90775200  0.90775200  1
  Cu  Cu15  1  0.00000000  0.59224800  0.50000000  1
  Cu  Cu16  1  0.40775200  0.40775200  0.40775200  1
  Cu  Cu17  1  0.00000000  0.09224800  0.50000000  1
  Cu  Cu18  1  0.09224800  0.50000000  0.00000000  1
  Cu  Cu19  1  0.50000000  0.00000000  0.59224800  1
  C  C20  1  0.50000000  0.00000000  0.93070100  1
  C  C21  1  0.43070100  0.50000000  0.00000000  1
  C  C22  1  0.06929900  0.06929900  0.06929900  1
  C  C23  1  0.00000000  0.43070100  0.50000000  1
  C  C24  1  0.56929900  0.56929900  0.56929900  1
  C  C25  1  0.00000000  0.93070100  0.50000000  1
  C  C26  1  0.93070100  0.50000000  0.00000000  1
  C  C27  1  0.50000000  0.00000000  0.43070100  1
  C  C28  1  0.24553900  0.65551300  0.16367600  1
  C  C29  1  0.16367600  0.24553900  0.65551300  1
  C  C30  1  0.41813700  0.40997400  0.25446100  1
  C  C31  1  0.50816300  0.84448700  0.09002600  1
  C  C32  1  0.33632400  0.99183700  0.08186300  1
  C  C33  1  0.65551300  0.16367600  0.24553900  1
  C  C34  1  0.59002600  0.34448700  0.00816300  1
  C  C35  1  0.83632400  0.58186300  0.49183700  1
  C  C36  1  0.90997400  0.91813700  0.75446100  1
  C  C37  1  0.49183700  0.83632400  0.58186300  1
  C  C38  1  0.34448700  0.00816300  0.59002600  1
  C  C39  1  0.15551300  0.74553900  0.66367600  1
  C  C40  1  0.66367600  0.15551300  0.74553900  1
  C  C41  1  0.08186300  0.33632400  0.99183700  1
  C  C42  1  0.84448700  0.09002600  0.50816300  1
  C  C43  1  0.40997400  0.25446100  0.41813700  1
  C  C44  1  0.09002600  0.50816300  0.84448700  1
  C  C45  1  0.99183700  0.08186300  0.33632400  1
  C  C46  1  0.25446100  0.41813700  0.40997400  1
  C  C47  1  0.00816300  0.59002600  0.34448700  1
  C  C48  1  0.91813700  0.75446100  0.90997400  1
  C  C49  1  0.75446100  0.90997400  0.91813700  1
  C  C50  1  0.58186300  0.49183700  0.83632400  1
  C  C51  1  0.74553900  0.66367600  0.15551300  1
