# generated using pymatgen
data_Cu21Ni8C193
_symmetry_space_group_name_H-M   'P 1'
_cell_length_a   17.88883298
_cell_length_b   8.96324646
_cell_length_c   22.84290271
_cell_angle_alpha   89.91021128
_cell_angle_beta   89.63096907
_cell_angle_gamma   120.16552807
_symmetry_Int_Tables_number   1
_chemical_formula_structural   Cu21Ni8C193
_chemical_formula_sum   'Cu21 Ni8 C193'
_cell_volume   3166.55290319
_cell_formula_units_Z   1
loop_
 _symmetry_equiv_pos_site_id
 _symmetry_equiv_pos_as_xyz
  1  'x, y, z'
loop_
 _atom_site_type_symbol
 _atom_site_label
 _atom_site_symmetry_multiplicity
 _atom_site_fract_x
 _atom_site_fract_y
 _atom_site_fract_z
 _atom_site_occupancy
  C  C0  1  0.32072086  0.01864970  0.24134454  1
  C  C1  1  0.81815729  0.01705085  0.24228552  1
  C  C2  1  0.99524561  0.63253342  0.24261262  1
  C  C3  1  0.32526624  0.62188611  0.74536721  1
  C  C4  1  0.81875020  0.62036589  0.74347295  1
  C  C5  1  0.49266170  0.35941489  0.74188062  1
  C  C6  1  0.99229487  0.98696793  0.49021175  1
  C  C7  1  0.49271032  0.99156389  0.49243548  1
  C  C8  1  0.99274135  0.99461567  0.98735568  1
  C  C9  1  0.49271400  0.99737376  0.98724374  1
  C  C10  1  0.32713595  0.33481605  0.82545300  1
  C  C11  1  0.82622317  0.32107798  0.82653282  1
  C  C12  1  0.32884811  0.33359411  0.32886589  1
  C  C13  1  0.81800934  0.31694920  0.33188160  1
  C  C14  1  0.16826242  0.66957646  0.16063016  1
  C  C15  1  0.65796894  0.66429382  0.16230542  1
  C  C16  1  0.16063250  0.65482943  0.66439352  1
  C  C17  1  0.66430029  0.66615826  0.66390316  1
  C  C18  1  0.00020065  0.01148936  0.64310114  1
  C  C19  1  0.50245648  0.99950410  0.64544128  1
  C  C20  1  0.00112624  0.99035818  0.14138698  1
  C  C21  1  0.50057841  0.98878428  0.14261948  1
  C  C22  1  0.34487377  0.34547791  0.97720631  1
  C  C23  1  0.84327285  0.34503097  0.97762896  1
  C  C24  1  0.34431638  0.34175399  0.47978658  1
  C  C25  1  0.84363995  0.34125579  0.47834625  1
  C  C26  1  0.16896323  0.67056113  0.01950472  1
  C  C27  1  0.66935446  0.66855984  0.01896843  1
  C  C28  1  0.16946379  0.67255580  0.52107546  1
  C  C29  1  0.66897585  0.66947979  0.52090327  1
  C  C30  1  0.16652337  0.68045577  0.31475697  1
  C  C31  1  0.66109703  0.67832864  0.31372536  1
  C  C32  1  0.16280393  0.64427975  0.81267617  1
  C  C33  1  0.66232950  0.64944023  0.81099543  1
  Ni  Ni34  1  0.00208573  0.99231901  0.35864022  1
  Ni  Ni35  1  0.50259901  0.99146913  0.35777742  1
  Ni  Ni36  1  -0.00000623  0.01107673  0.85751738  1
  Ni  Ni37  1  0.50126236  0.99780331  0.85419009  1
  Ni  Ni38  1  0.33905851  0.36200544  0.68346205  1
  Ni  Ni39  1  0.83196590  0.34373776  0.68010490  1
  Ni  Ni40  1  0.33265622  0.31964064  0.17986251  1
  Ni  Ni41  1  0.82711586  0.31522595  0.17788167  1
  Cu  Cu42  1  0.14761164  0.01736476  0.25310181  1
  Cu  Cu43  1  0.64692458  0.01695849  0.25299368  1
  Cu  Cu44  1  0.14503623  0.27421724  0.75340122  1
  Cu  Cu45  1  0.64849681  0.27666532  0.75249756  1
  Cu  Cu46  1  0.50118373  0.71501632  0.75479352  1
  Cu  Cu47  1  0.48003460  0.33195540  0.58794081  1
  Cu  Cu48  1  0.97799449  0.34083535  0.58697187  1
  Cu  Cu49  1  0.33410384  0.62465267  0.58521448  1
  Cu  Cu50  1  0.83391342  0.62221469  0.58598537  1
  Cu  Cu51  1  0.47838069  0.61387918  0.08657105  1
  Cu  Cu52  1  0.97822701  0.61294213  0.08802776  1
  Cu  Cu53  1  0.33314422  0.04481356  0.08627269  1
  Cu  Cu54  1  0.83268257  0.04296188  0.08572703  1
  Cu  Cu55  1  0.31476846  0.66692367  0.91670185  1
  Cu  Cu56  1  0.81494435  0.66941341  0.91468355  1
  Cu  Cu57  1  0.02298983  0.37025473  0.91897376  1
  Cu  Cu58  1  0.52409650  0.36719968  0.91708002  1
  Cu  Cu59  1  0.31680586  0.96692433  0.41718067  1
  Cu  Cu60  1  0.81477433  0.96225458  0.41601047  1
  Cu  Cu61  1  0.02265667  0.67392542  0.41824077  1
  Cu  Cu62  1  0.52174314  0.67572284  0.41967721  1
  C  C63  1  0.35409898  0.70579202  0.25063237  1
  C  C64  1  0.85310193  0.70742688  0.24990333  1
  C  C65  1  0.00341117  0.29032422  0.25167654  1
  C  C66  1  0.50307709  0.28985039  0.25177600  1
  C  C67  1  0.00309790  0.71622556  0.75186373  1
  C  C68  1  0.35177032  0.99738897  0.75016070  1
  C  C69  1  0.85553831  0.00373911  0.75030693  1
  C  C70  1  0.18865269  0.04486045  0.58427060  1
  C  C71  1  0.68897872  0.04405772  0.58291181  1
  C  C72  1  0.18829811  0.33427462  0.08400785  1
  C  C73  1  0.68758828  0.33338646  0.08360262  1
  C  C74  1  0.16849012  0.95580986  0.91663749  1
  C  C75  1  0.66911946  0.95679217  0.91765993  1
  C  C76  1  0.16819920  0.38213531  0.41735070  1
  C  C77  1  0.66811707  0.38243256  0.41691105  1
  C  C78  1  0.09557630  0.01977625  0.30845404  1
  C  C79  1  0.59923560  0.02825932  0.30932408  1
  C  C80  1  0.40272203  0.78848391  0.30281158  1
  C  C81  1  0.90455817  0.78881769  0.30158258  1
  C  C82  1  0.48957978  0.18473898  0.30370953  1
  C  C83  1  0.99004844  0.18535698  0.30344029  1
  C  C84  1  0.09612654  0.16889056  0.80980884  1
  C  C85  1  0.60011871  0.17898330  0.81012769  1
  C  C86  1  0.47588441  0.79408208  0.80732421  1
  C  C87  1  0.98964628  0.79395495  0.80372007  1
  C  C88  1  0.40247774  0.02501635  0.80265881  1
  C  C89  1  0.90459835  0.02023066  0.80270929  1
  C  C90  1  0.39308807  0.96391146  0.69685176  1
  C  C91  1  0.89781922  0.97223583  0.69605769  1
  C  C92  1  0.08268910  0.18543086  0.69327315  1
  C  C93  1  0.58440064  0.19491168  0.69287377  1
  C  C94  1  0.01290143  0.81996818  0.69736102  1
  C  C95  1  0.51186027  0.83443045  0.69384651  1
  C  C96  1  0.39515038  0.82171327  0.19647850  1
  C  C97  1  0.89513342  0.82177496  0.19587082  1
  C  C98  1  0.01196414  0.20679169  0.19721561  1
  C  C99  1  0.51288063  0.20666814  0.19746872  1
  C  C100  1  0.08322789  0.97651647  0.19335371  1
  C  C101  1  0.58505965  0.98398725  0.19299177  1
  C  C102  1  0.44164232  0.36122441  0.64660597  1
  C  C103  1  0.93585060  0.36442187  0.64398977  1
  C  C104  1  0.23829145  0.11553486  0.63681715  1
  C  C105  1  0.73699792  0.11223513  0.63658762  1
  C  C106  1  0.30950068  0.52186968  0.64550555  1
  C  C107  1  0.81136657  0.52304194  0.64691418  1
  C  C108  1  0.43624051  0.50842427  0.14444463  1
  C  C109  1  0.93868732  0.51763287  0.14887318  1
  C  C110  1  0.31026657  0.09744350  0.14753515  1
  C  C111  1  0.81279031  0.09983338  0.14725009  1
  C  C112  1  0.23643159  0.36076243  0.13790309  1
  C  C113  1  0.73693746  0.36349558  0.13722160  1
  C  C114  1  0.22628007  0.30613702  0.03133044  1
  C  C115  1  0.72669868  0.30606919  0.03106963  1
  C  C116  1  0.41801454  0.53103430  0.02671594  1
  C  C117  1  0.91618066  0.52574785  0.02977455  1
  C  C118  1  0.34454074  0.17092178  0.02953268  1
  C  C119  1  0.84465436  0.16991428  0.02919099  1
  C  C120  1  0.22694389  0.14737271  0.53024214  1
  C  C121  1  0.73054340  0.14814999  0.52984174  1
  C  C122  1  0.34398896  0.51857069  0.52806728  1
  C  C123  1  0.84511310  0.51810551  0.52869917  1
  C  C124  1  0.41754845  0.30564111  0.52861871  1
  C  C125  1  0.91802072  0.30424224  0.52646585  1
  C  C126  1  0.25798056  0.67928542  0.97225194  1
  C  C127  1  0.76119667  0.68619583  0.97143249  1
  C  C128  1  0.08044273  0.48750447  0.97381346  1
  C  C129  1  0.58225349  0.48647620  0.97197846  1
  C  C130  1  0.16121947  0.85126668  0.97089313  1
  C  C131  1  0.66246934  0.85239913  0.97150799  1
  C  C132  1  0.26145427  0.83816225  0.47180886  1
  C  C133  1  0.76121925  0.83669548  0.47159738  1
  C  C134  1  0.16066194  0.47102485  0.47035802  1
  C  C135  1  0.66137487  0.47173065  0.47037329  1
  C  C136  1  0.08201725  0.67456867  0.47187821  1
  C  C137  1  0.58184791  0.67637293  0.47293464  1
  C  C138  1  0.06751558  0.63933180  0.35772230  1
  C  C139  1  0.56711011  0.64005950  0.35966619  1
  C  C140  1  0.25174159  0.86266243  0.35829443  1
  C  C141  1  0.75063758  0.85925104  0.35743181  1
  C  C142  1  0.18024649  0.49236920  0.36365563  1
  C  C143  1  0.68093507  0.49165461  0.36360686  1
  C  C144  1  0.06786948  0.49641508  0.85986208  1
  C  C145  1  0.56675443  0.49287616  0.85742542  1
  C  C146  1  0.18122487  0.87292790  0.86409108  1
  C  C147  1  0.68224781  0.87557587  0.86491216  1
  C  C148  1  0.25077829  0.64170428  0.85840318  1
  C  C149  1  0.75302303  0.64584396  0.85702002  1
  C  C150  1  0.01334896  0.83909383  0.41802151  1
  C  C151  1  0.51304307  0.84139274  0.41911887  1
  C  C152  1  0.40978290  0.99100875  0.40953567  1
  C  C153  1  0.90902413  0.98993537  0.40932552  1
  C  C154  1  0.08970567  0.21521740  0.41406150  1
  C  C155  1  0.59001481  0.21533875  0.41456140  1
  C  C156  1  0.01343361  0.18669015  0.91927535  1
  C  C157  1  0.51395483  0.18343880  0.91590208  1
  C  C158  1  0.09014252  0.96585342  0.91531335  1
  C  C159  1  0.59172357  0.96941807  0.91690236  1
  C  C160  1  0.40695195  0.83225434  0.91535689  1
  C  C161  1  0.91016814  0.82862399  0.91070047  1
  C  C162  1  0.49038441  0.16004353  0.58979716  1
  C  C163  1  0.98840891  0.16441005  0.59090029  1
  C  C164  1  0.09853950  0.01990580  0.58892513  1
  C  C165  1  0.60063375  0.02540280  0.58596275  1
  C  C166  1  0.42173243  0.81747082  0.58936516  1
  C  C167  1  0.92257889  0.81556521  0.59180807  1
  C  C168  1  0.48868698  0.81225770  0.09175674  1
  C  C169  1  0.98819241  0.81111673  0.09122192  1
  C  C170  1  0.42203366  0.02887666  0.09348380  1
  C  C171  1  0.92223360  0.02818622  0.09300962  1
  C  C172  1  0.09788980  0.17674650  0.08982277  1
  C  C173  1  0.59803923  0.17730122  0.08934220  1
  C  C174  1  0.33869033  0.14358593  0.74030227  1
  C  C175  1  0.84285058  0.14958162  0.74173197  1
  C  C176  1  0.24363549  0.32163701  0.74660335  1
  C  C177  1  0.74786120  0.32249558  0.74624277  1
  C  C178  1  0.42450082  0.51432473  0.74823489  1
  C  C179  1  0.92936844  0.53898407  0.74633744  1
  C  C180  1  0.34073918  0.53353340  0.24212258  1
  C  C181  1  0.84366683  0.53650656  0.24207554  1
  C  C182  1  0.42945588  0.31996979  0.24643813  1
  C  C183  1  0.93005484  0.32342710  0.24728186  1
  C  C184  1  0.24697539  0.16819186  0.24743120  1
  C  C185  1  0.74693021  0.16925099  0.24666141  1
  C  C186  1  0.31139022  0.47966686  0.92587723  1
  C  C187  1  0.81286727  0.48308000  0.92664451  1
  C  C188  1  0.42897038  0.36214053  0.92283071  1
  C  C189  1  0.92795406  0.36432509  0.92274311  1
  C  C190  1  0.24785286  0.12858058  0.92307248  1
  C  C191  1  0.74907748  0.13039049  0.92395775  1
  C  C192  1  0.31171455  0.14421305  0.42523730  1
  C  C193  1  0.81163312  0.14284179  0.42445729  1
  C  C194  1  0.24741222  0.36860021  0.42143166  1
  C  C195  1  0.74772398  0.36836330  0.42197174  1
  C  C196  1  0.42729010  0.49166668  0.42244135  1
  C  C197  1  0.92759930  0.49086415  0.42140483  1
  C  C198  1  0.17420644  0.48532315  0.07703868  1
  C  C199  1  0.67468989  0.48596029  0.07629694  1
  C  C200  1  0.07536321  0.64757659  0.07574392  1
  C  C201  1  0.57606855  0.64963603  0.07392917  1
  C  C202  1  0.25281876  0.84807270  0.07195639  1
  C  C203  1  0.75268491  0.84673038  0.07204215  1
  C  C204  1  0.17490739  0.86440451  0.57641249  1
  C  C205  1  0.67546077  0.86428508  0.57581845  1
  C  C206  1  0.25214583  0.65590438  0.57017448  1
  C  C207  1  0.75336094  0.65700322  0.57096901  1
  C  C208  1  0.07561381  0.50181387  0.57362602  1
  C  C209  1  0.57605882  0.50100920  0.57304668  1
  C  C210  1  0.15238462  0.82409080  0.25661567  1
  C  C211  1  0.65467393  0.82821505  0.25652632  1
  C  C212  1  0.26615282  0.69831844  0.25315133  1
  C  C213  1  0.76597917  0.69557224  0.25274442  1
  C  C214  1  0.08557525  0.46781907  0.25437914  1
  C  C215  1  0.58655979  0.46515377  0.25551195  1
  C  C216  1  0.15264567  0.47877785  0.75694470  1
  C  C217  1  0.65521124  0.48069259  0.75557095  1
  C  C218  1  0.08663432  0.70883254  0.75547855  1
  C  C219  1  0.59370689  0.70698799  0.75781986  1
  C  C220  1  0.26442502  0.83111441  0.75429204  1
  C  C221  1  0.76930063  0.83532053  0.75202312  1
