# generated using pymatgen
data_Cu4Ni9C98
_symmetry_space_group_name_H-M   'P 1'
_cell_length_a   18.10131714
_cell_length_b   9.10298516
_cell_length_c   22.93784872
_cell_angle_alpha   89.81895812
_cell_angle_beta   90.83851168
_cell_angle_gamma   120.29048442
_symmetry_Int_Tables_number   1
_chemical_formula_structural   Cu4Ni9C98
_chemical_formula_sum   'Cu8 Ni18 C196'
_cell_volume   3263.22440824
_cell_formula_units_Z   2
loop_
 _symmetry_equiv_pos_site_id
 _symmetry_equiv_pos_as_xyz
  1  'x, y, z'
loop_
 _atom_site_type_symbol
 _atom_site_label
 _atom_site_symmetry_multiplicity
 _atom_site_fract_x
 _atom_site_fract_y
 _atom_site_fract_z
 _atom_site_occupancy
  Ni  Ni0  1  0.32378648  0.01588710  0.23771862  1
  Ni  Ni1  1  0.81995981  0.00973498  0.23891163  1
  Ni  Ni2  1  0.99646104  0.64080062  0.23904819  1
  Ni  Ni3  1  0.33264511  0.63302802  0.74378096  1
  Ni  Ni4  1  0.82034474  0.62569279  0.73975303  1
  Ni  Ni5  1  0.49436805  0.35018945  0.73782852  1
  Ni  Ni6  1  0.98516927  0.97437752  0.49301071  1
  Ni  Ni7  1  0.48577434  0.98143858  0.49591180  1
  Ni  Ni8  1  0.98638312  0.99244079  0.99075591  1
  Ni  Ni9  1  0.48769651  0.99669585  0.99123304  1
  Ni  Ni10  1  0.32705457  0.34372307  0.82272552  1
  Ni  Ni11  1  0.81758832  0.31445779  0.82738369  1
  Ni  Ni12  1  0.32161096  0.32307381  0.33022263  1
  Ni  Ni13  1  0.80612464  0.29925199  0.33343094  1
  Ni  Ni14  1  0.16808569  0.67771277  0.15960854  1
  Ni  Ni15  1  0.65180944  0.66723974  0.16196148  1
  Ni  Ni16  1  0.15727130  0.64053854  0.66467026  1
  Ni  Ni17  1  0.66001463  0.65715967  0.66458470  1
  Cu  Cu18  1  0.00024395  0.99940912  0.36141141  1
  Cu  Cu19  1  0.50106086  0.99681966  0.36150220  1
  Cu  Cu20  1  0.00042764  0.00339331  0.86068074  1
  Cu  Cu21  1  0.49867780  0.99479305  0.85934382  1
  Cu  Cu22  1  0.33479339  0.34310149  0.67772929  1
  Cu  Cu23  1  0.83468911  0.33677233  0.67925489  1
  Cu  Cu24  1  0.33488485  0.33275877  0.17915416  1
  Cu  Cu25  1  0.82986863  0.32401690  0.17679707  1
  C  C26  1  0.00176624  0.01183718  0.64344389  1
  C  C27  1  0.50363163  0.99687794  0.64624333  1
  C  C28  1  0.00260070  0.99290884  0.14153600  1
  C  C29  1  0.50215308  0.99151708  0.14270972  1
  C  C30  1  0.34537148  0.34448940  0.97869500  1
  C  C31  1  0.84382269  0.34342278  0.97990778  1
  C  C32  1  0.34510605  0.34344483  0.48243955  1
  C  C33  1  0.84375908  0.34237697  0.48054734  1
  C  C34  1  0.16860021  0.66758749  0.01946974  1
  C  C35  1  0.66939422  0.66841872  0.01877048  1
  C  C36  1  0.16916466  0.67318429  0.52031169  1
  C  C37  1  0.66900530  0.67065894  0.52082903  1
  C  C38  1  0.16431949  0.68196655  0.31607184  1
  C  C39  1  0.65879079  0.67930097  0.31550611  1
  C  C40  1  0.16201523  0.64176465  0.81415069  1
  C  C41  1  0.66056984  0.64532712  0.81253895  1
  C  C42  1  0.14838554  0.00650776  0.25322076  1
  C  C43  1  0.64741615  0.00622172  0.25341662  1
  C  C44  1  0.14655547  0.28801600  0.75336407  1
  C  C45  1  0.64815036  0.28712019  0.75340489  1
  C  C46  1  0.50314849  0.71004434  0.75307056  1
  C  C47  1  0.48796642  0.32972535  0.58651483  1
  C  C48  1  0.98588546  0.33969474  0.58457968  1
  C  C49  1  0.33593328  0.63449205  0.58492965  1
  C  C50  1  0.83565517  0.63081432  0.58563964  1
  C  C51  1  0.48579911  0.62998541  0.08406808  1
  C  C52  1  0.98587797  0.63007754  0.08650424  1
  C  C53  1  0.33430255  0.03909029  0.08586171  1
  C  C54  1  0.83439063  0.03631496  0.08538305  1
  C  C55  1  0.30831169  0.64921670  0.91993742  1
  C  C56  1  0.80847779  0.65072635  0.91821804  1
  C  C57  1  0.02031520  0.37803749  0.91956757  1
  C  C58  1  0.52138514  0.37699179  0.91831419  1
  C  C59  1  0.30961748  0.97302568  0.42026863  1
  C  C60  1  0.80758532  0.96833297  0.41928312  1
  C  C61  1  0.01906337  0.66076182  0.41909886  1
  C  C62  1  0.51901763  0.66310458  0.42102931  1
  C  C63  1  0.35122853  0.71357752  0.24853017  1
  C  C64  1  0.85164878  0.71449728  0.24746787  1
  C  C65  1  0.00766835  0.29815351  0.24953014  1
  C  C66  1  0.50826357  0.29720076  0.25035465  1
  C  C67  1  0.00811164  0.71909818  0.75037351  1
  C  C68  1  0.34936010  0.98546647  0.74805388  1
  C  C69  1  0.85305521  0.98974597  0.74742326  1
  C  C70  1  0.18120190  0.03303024  0.58161121  1
  C  C71  1  0.68279747  0.03399672  0.58071596  1
  C  C72  1  0.18150064  0.33159069  0.08232517  1
  C  C73  1  0.68023637  0.33070139  0.08148171  1
  C  C74  1  0.17507005  0.95642622  0.91816983  1
  C  C75  1  0.67598137  0.95844980  0.91908474  1
  C  C76  1  0.17536392  0.39695638  0.41817751  1
  C  C77  1  0.67444856  0.39567524  0.41818019  1
  C  C78  1  0.09562095  0.99838138  0.30775330  1
  C  C79  1  0.60271945  0.01373084  0.31021793  1
  C  C80  1  0.39859842  0.79308380  0.30177488  1
  C  C81  1  0.90055648  0.79458498  0.30030984  1
  C  C82  1  0.49448448  0.19512402  0.30217824  1
  C  C83  1  0.99301016  0.19563635  0.30143778  1
  C  C84  1  0.10022802  0.19051745  0.80979373  1
  C  C85  1  0.59957540  0.19632990  0.81019274  1
  C  C86  1  0.47254504  0.78153254  0.80421956  1
  C  C87  1  0.99441076  0.79329997  0.80219447  1
  C  C88  1  0.39834417  0.01508104  0.80193922  1
  C  C89  1  0.90081455  0.00632689  0.80082483  1
  C  C90  1  0.39469559  0.96104754  0.69632193  1
  C  C91  1  0.90050161  0.97271928  0.69438103  1
  C  C92  1  0.08520806  0.18523081  0.69291350  1
  C  C93  1  0.58632484  0.19002940  0.69311679  1
  C  C94  1  0.01548226  0.82180963  0.69673027  1
  C  C95  1  0.51238916  0.83122786  0.69282734  1
  C  C96  1  0.39700857  0.82638304  0.19555145  1
  C  C97  1  0.89824644  0.82730919  0.19452713  1
  C  C98  1  0.01391251  0.21049689  0.19612368  1
  C  C99  1  0.51608236  0.21093229  0.19687288  1
  C  C100  1  0.08602774  0.98223861  0.19259707  1
  C  C101  1  0.58671613  0.98762486  0.19309857  1
  C  C102  1  0.45850872  0.37067912  0.64564774  1
  C  C103  1  0.95457800  0.38253158  0.64187321  1
  C  C104  1  0.22979898  0.09106645  0.63550079  1
  C  C105  1  0.73123746  0.09272490  0.63502360  1
  C  C106  1  0.31013540  0.54217297  0.64598955  1
  C  C107  1  0.81129256  0.53884322  0.64685120  1
  C  C108  1  0.45466999  0.52750425  0.14234609  1
  C  C109  1  0.95657297  0.54127193  0.14795867  1
  C  C110  1  0.30960666  0.08171669  0.14708916  1
  C  C111  1  0.81267349  0.08181844  0.14714660  1
  C  C112  1  0.22931202  0.36740928  0.13657749  1
  C  C113  1  0.72855222  0.36936688  0.13593900  1
  C  C114  1  0.22109651  0.30155717  0.03176522  1
  C  C115  1  0.72153507  0.30103530  0.03165664  1
  C  C116  1  0.41832124  0.53144385  0.02736119  1
  C  C117  1  0.91610469  0.52354416  0.03221070  1
  C  C118  1  0.34484534  0.17531999  0.03266481  1
  C  C119  1  0.84442398  0.17260523  0.03260738  1
  C  C120  1  0.22298475  0.14356127  0.53083442  1
  C  C121  1  0.72654404  0.14384457  0.53010069  1
  C  C122  1  0.34446129  0.51515375  0.53159577  1
  C  C123  1  0.84550096  0.51422411  0.53191710  1
  C  C124  1  0.41735269  0.30504271  0.53102085  1
  C  C125  1  0.91827866  0.30360918  0.52718257  1
  C  C126  1  0.24858409  0.65167215  0.97267743  1
  C  C127  1  0.75180999  0.65879515  0.97202761  1
  C  C128  1  0.07524493  0.50251576  0.97349738  1
  C  C129  1  0.57770555  0.50627408  0.97093635  1
  C  C130  1  0.17278305  0.85848713  0.97163908  1
  C  C131  1  0.67448254  0.86299169  0.97262748  1
  C  C132  1  0.25129710  0.84747260  0.47195468  1
  C  C133  1  0.75112748  0.84518548  0.47202924  1
  C  C134  1  0.17279981  0.48858078  0.47041099  1
  C  C135  1  0.67299268  0.48794658  0.47088689  1
  C  C136  1  0.07722323  0.64954466  0.47085243  1
  C  C137  1  0.57739546  0.65087859  0.47241752  1
  C  C138  1  0.06605338  0.63949974  0.35699287  1
  C  C139  1  0.56506446  0.64094422  0.35896074  1
  C  C140  1  0.25007827  0.86596862  0.35829704  1
  C  C141  1  0.74890771  0.86181673  0.35769850  1
  C  C142  1  0.18188486  0.49955470  0.36378136  1
  C  C143  1  0.68160176  0.49762985  0.36410874  1
  C  C144  1  0.06735591  0.49474759  0.85935123  1
  C  C145  1  0.56636931  0.48968002  0.85693645  1
  C  C146  1  0.18258239  0.87024329  0.86493574  1
  C  C147  1  0.68413231  0.87362165  0.86621053  1
  C  C148  1  0.24977807  0.63703606  0.85874501  1
  C  C149  1  0.75242507  0.64191697  0.85753434  1
  C  C150  1  0.01076745  0.82394014  0.42362009  1
  C  C151  1  0.51057126  0.82572135  0.42587058  1
  C  C152  1  0.40231475  0.99947331  0.41927040  1
  C  C153  1  0.90089174  0.99633402  0.41884718  1
  C  C154  1  0.09795585  0.23113536  0.41685208  1
  C  C155  1  0.59808287  0.23023801  0.41770911  1
  C  C156  1  0.01125405  0.19798575  0.92465884  1
  C  C157  1  0.51205892  0.19724349  0.92452911  1
  C  C158  1  0.09851271  0.96831944  0.91850265  1
  C  C159  1  0.59997037  0.97291008  0.91953744  1
  C  C160  1  0.39979522  0.81111270  0.92315761  1
  C  C161  1  0.90270755  0.80698447  0.92047898  1
  C  C162  1  0.49182993  0.15339981  0.58956692  1
  C  C163  1  0.98974216  0.15903271  0.59047213  1
  C  C164  1  0.09422823  0.01620112  0.58700692  1
  C  C165  1  0.59695397  0.02015167  0.58490043  1
  C  C166  1  0.42528365  0.82023147  0.58917461  1
  C  C167  1  0.92543529  0.81856467  0.59191293  1
  C  C168  1  0.49010675  0.82004801  0.09113708  1
  C  C169  1  0.99038214  0.82049045  0.09028995  1
  C  C170  1  0.42413710  0.03070219  0.09414209  1
  C  C171  1  0.92497409  0.02967069  0.09261455  1
  C  C172  1  0.09342590  0.17358578  0.08869157  1
  C  C173  1  0.59296547  0.17262082  0.08781423  1
  C  C174  1  0.33461753  0.12664988  0.73749795  1
  C  C175  1  0.83822344  0.13112158  0.73998327  1
  C  C176  1  0.24403393  0.33897260  0.74717677  1
  C  C177  1  0.74589378  0.33405844  0.74919617  1
  C  C178  1  0.43192892  0.51185156  0.74477995  1
  C  C179  1  0.93621054  0.54361686  0.74416303  1
  C  C180  1  0.33567058  0.54212273  0.24115491  1
  C  C181  1  0.84271090  0.54640933  0.24008682  1
  C  C182  1  0.43642753  0.32903917  0.24409512  1
  C  C183  1  0.93663377  0.33405832  0.24374393  1
  C  C184  1  0.24637869  0.15313671  0.25043979  1
  C  C185  1  0.74611097  0.15308066  0.24840943  1
  C  C186  1  0.30616152  0.46541092  0.92796675  1
  C  C187  1  0.80676520  0.46672917  0.92904591  1
  C  C188  1  0.42578762  0.36631501  0.92327901  1
  C  C189  1  0.92531190  0.36845069  0.92427108  1
  C  C190  1  0.25401032  0.12736491  0.92279441  1
  C  C191  1  0.75546591  0.13057887  0.92338056  1
  C  C192  1  0.30568055  0.14954907  0.42732092  1
  C  C193  1  0.80460761  0.14708054  0.42587206  1
  C  C194  1  0.25391717  0.38421822  0.42071031  1
  C  C195  1  0.75383349  0.38332642  0.42120172  1
  C  C196  1  0.42455992  0.48267812  0.42462883  1
  C  C197  1  0.92388775  0.48177267  0.42282288  1
  C  C198  1  0.16310066  0.47426901  0.07328108  1
  C  C199  1  0.66216695  0.47281596  0.07146737  1
  C  C200  1  0.08262399  0.67106058  0.07262414  1
  C  C201  1  0.58354686  0.67602569  0.07005532  1
  C  C202  1  0.25895769  0.84348518  0.06812313  1
  C  C203  1  0.75948180  0.84196912  0.06831599  1
  C  C204  1  0.16282666  0.85309004  0.57157448  1
  C  C205  1  0.66526977  0.85437489  0.57164922  1
  C  C206  1  0.25927051  0.67400302  0.56543877  1
  C  C207  1  0.76004528  0.67274774  0.56654384  1
  C  C208  1  0.08336571  0.49046476  0.56958918  1
  C  C209  1  0.58339766  0.49101999  0.57042765  1
  C  C210  1  0.14896834  0.81156356  0.25499301  1
  C  C211  1  0.65077575  0.81585327  0.25564505  1
  C  C212  1  0.26575116  0.71078363  0.24956188  1
  C  C213  1  0.76623533  0.70450686  0.24829713  1
  C  C214  1  0.09089539  0.46879130  0.25446804  1
  C  C215  1  0.59203619  0.46793468  0.25574351  1
  C  C216  1  0.14824196  0.48345674  0.75637161  1
  C  C217  1  0.65081373  0.48480753  0.75425298  1
  C  C218  1  0.09195445  0.71762329  0.75560763  1
  C  C219  1  0.59891985  0.71995036  0.76144691  1
  C  C220  1  0.26428401  0.81892464  0.75152697  1
  C  C221  1  0.76968139  0.82199869  0.74720819  1
