# generated using pymatgen
data_Cu2NiC24
_symmetry_space_group_name_H-M   'P 1'
_cell_length_a   8.74714113
_cell_length_b   8.74714086
_cell_length_c   22.80585222
_cell_angle_alpha   90.00000000
_cell_angle_beta   90.00000000
_cell_angle_gamma   120.00000107
_symmetry_Int_Tables_number   1
_chemical_formula_structural   Cu2NiC24
_chemical_formula_sum   'Cu8 Ni4 C96'
_cell_volume   1511.15560579
_cell_formula_units_Z   4
loop_
 _symmetry_equiv_pos_site_id
 _symmetry_equiv_pos_as_xyz
  1  'x, y, z'
loop_
 _atom_site_type_symbol
 _atom_site_label
 _atom_site_symmetry_multiplicity
 _atom_site_fract_x
 _atom_site_fract_y
 _atom_site_fract_z
 _atom_site_occupancy
  C  C0  1  -0.00000000  0.00000000  0.49403598  1
  C  C1  1  -0.00000000  0.00000000  0.99403598  1
  C  C2  1  0.66666700  0.33333300  0.82333789  1
  C  C3  1  0.66666700  0.33333300  0.32333789  1
  C  C4  1  0.33333300  0.66666700  0.16706058  1
  C  C5  1  0.33333300  0.66666700  0.66706058  1
  Ni  Ni6  1  -0.00000000  0.00000000  0.35397615  1
  Ni  Ni7  1  -0.00000000  0.00000000  0.85397615  1
  Ni  Ni8  1  0.66666700  0.33333300  0.68677868  1
  Ni  Ni9  1  0.66666700  0.33333300  0.18677868  1
  Cu  Cu10  1  -0.00000000  0.00000000  0.64899319  1
  Cu  Cu11  1  -0.00000000  0.00000000  0.14899319  1
  Cu  Cu12  1  0.66666700  0.33333300  0.97841097  1
  Cu  Cu13  1  0.66666700  0.33333300  0.47841097  1
  Cu  Cu14  1  0.33333300  0.66666700  0.02061171  1
  Cu  Cu15  1  0.33333300  0.66666700  0.52061171  1
  Cu  Cu16  1  0.33333300  0.66666700  0.30887148  1
  Cu  Cu17  1  0.33333300  0.66666700  0.80887148  1
  C  C18  1  0.29254238  0.00845092  0.25310392  1
  C  C19  1  0.71590854  0.70745762  0.25310392  1
  C  C20  1  0.99154908  0.28409146  0.25310392  1
  C  C21  1  0.29254238  0.28409146  0.75310392  1
  C  C22  1  0.99154908  0.70745762  0.75310392  1
  C  C23  1  0.71590854  0.00845092  0.75310392  1
  C  C24  1  0.95245987  0.33163037  0.58492070  1
  C  C25  1  0.37917150  0.04754013  0.58492070  1
  C  C26  1  0.66836963  0.62082850  0.58492070  1
  C  C27  1  0.95245987  0.62082850  0.08492070  1
  C  C28  1  0.66836963  0.04754013  0.08492070  1
  C  C29  1  0.37917150  0.33163037  0.08492070  1
  C  C30  1  0.62490263  0.67075305  0.91600377  1
  C  C31  1  0.04584942  0.37509737  0.91600377  1
  C  C32  1  0.32924695  0.95415058  0.91600377  1
  C  C33  1  0.62490263  0.95415058  0.41600377  1
  C  C34  1  0.32924695  0.37509737  0.41600377  1
  C  C35  1  0.04584942  0.67075305  0.41600377  1
  C  C36  1  0.20409164  0.02556746  0.30653623  1
  C  C37  1  0.82147582  0.79590836  0.30653623  1
  C  C38  1  0.97443254  0.17852418  0.30653623  1
  C  C39  1  0.20409164  0.17852418  0.80653623  1
  C  C40  1  0.97443254  0.79590836  0.80653623  1
  C  C41  1  0.82147582  0.02556746  0.80653623  1
  C  C42  1  0.80055462  0.97138767  0.69574960  1
  C  C43  1  0.17083304  0.19944538  0.69574960  1
  C  C44  1  0.02861233  0.82916696  0.69574960  1
  C  C45  1  0.80055462  0.82916696  0.19574960  1
  C  C46  1  0.02861233  0.19944538  0.19574960  1
  C  C47  1  0.17083304  0.97138767  0.19574960  1
  C  C48  1  0.87855029  0.36806360  0.63861480  1
  C  C49  1  0.48951431  0.12144971  0.63861480  1
  C  C50  1  0.63193640  0.51048569  0.63861480  1
  C  C51  1  0.87855029  0.51048569  0.13861480  1
  C  C52  1  0.63193640  0.12144971  0.13861480  1
  C  C53  1  0.48951431  0.36806360  0.13861480  1
  C  C54  1  0.46714635  0.30653699  0.02824925  1
  C  C55  1  0.83939164  0.53285365  0.02824925  1
  C  C56  1  0.69346301  0.16060836  0.02824925  1
  C  C57  1  0.46714635  0.16060836  0.52824925  1
  C  C58  1  0.69346301  0.53285365  0.52824925  1
  C  C59  1  0.83939164  0.30653699  0.52824925  1
  C  C60  1  0.52607991  0.68489677  0.97116623  1
  C  C61  1  0.15881586  0.47392009  0.97116623  1
  C  C62  1  0.31510323  0.84118414  0.97116623  1
  C  C63  1  0.52607991  0.84118414  0.47116623  1
  C  C64  1  0.31510323  0.47392009  0.47116623  1
  C  C65  1  0.15881586  0.68489677  0.47116623  1
  C  C66  1  0.13268345  0.63635560  0.36192896  1
  C  C67  1  0.50367115  0.86731655  0.36192896  1
  C  C68  1  0.36364440  0.49632885  0.36192896  1
  C  C69  1  0.13268345  0.49632885  0.86192896  1
  C  C70  1  0.36364440  0.86731655  0.86192896  1
  C  C71  1  0.50367115  0.63635560  0.86192896  1
  C  C72  1  0.02581608  0.83028031  0.41329525  1
  C  C73  1  0.80446423  0.97418392  0.41329525  1
  C  C74  1  0.16971969  0.19553577  0.41329525  1
  C  C75  1  0.02581608  0.19553577  0.91329525  1
  C  C76  1  0.16971969  0.97418392  0.91329525  1
  C  C77  1  0.80446423  0.83028031  0.91329525  1
  C  C78  1  0.97567456  0.16669018  0.58879165  1
  C  C79  1  0.19101562  0.02432544  0.58879165  1
  C  C80  1  0.83330982  0.80898438  0.58879165  1
  C  C81  1  0.97567456  0.80898438  0.08879165  1
  C  C82  1  0.83330982  0.02432544  0.08879165  1
  C  C83  1  0.19101562  0.16669018  0.08879165  1
  C  C84  1  0.68416758  0.15964164  0.74268934  1
  C  C85  1  0.47547506  0.31583242  0.74268934  1
  C  C86  1  0.84035836  0.52452494  0.74268934  1
  C  C87  1  0.68416758  0.52452494  0.24268934  1
  C  C88  1  0.84035836  0.31583242  0.24268934  1
  C  C89  1  0.47547506  0.15964164  0.24268934  1
  C  C90  1  0.63362682  0.49694668  0.92479002  1
  C  C91  1  0.86332086  0.36637318  0.92479002  1
  C  C92  1  0.50305332  0.13667914  0.92479002  1
  C  C93  1  0.63362682  0.13667914  0.42479002  1
  C  C94  1  0.50305332  0.36637318  0.42479002  1
  C  C95  1  0.86332086  0.49694668  0.42479002  1
  C  C96  1  0.35222517  0.49382826  0.07311801  1
  C  C97  1  0.14160208  0.64777483  0.07311801  1
  C  C98  1  0.50617174  0.85839792  0.07311801  1
  C  C99  1  0.35222517  0.85839792  0.57311801  1
  C  C100  1  0.50617174  0.64777483  0.57311801  1
  C  C101  1  0.14160208  0.49382826  0.57311801  1
  C  C102  1  0.30134764  0.82947202  0.25701673  1
  C  C103  1  0.52812337  0.69865236  0.25701673  1
  C  C104  1  0.17052798  0.47187663  0.25701673  1
  C  C105  1  0.30134764  0.47187663  0.75701673  1
  C  C106  1  0.17052798  0.69865236  0.75701673  1
  C  C107  1  0.52812337  0.82947202  0.75701673  1
