# generated using pymatgen
data_CuNi5C32
_symmetry_space_group_name_H-M   'P 1'
_cell_length_a   9.03943697
_cell_length_b   9.02289696
_cell_length_c   22.91241974
_cell_angle_alpha   90.08233584
_cell_angle_beta   90.26914519
_cell_angle_gamma   119.87643802
_symmetry_Int_Tables_number   1
_chemical_formula_structural   CuNi5C32
_chemical_formula_sum   'Cu3 Ni15 C96'
_cell_volume   1620.38959826
_cell_formula_units_Z   3
loop_
 _symmetry_equiv_pos_site_id
 _symmetry_equiv_pos_as_xyz
  1  'x, y, z'
loop_
 _atom_site_type_symbol
 _atom_site_label
 _atom_site_symmetry_multiplicity
 _atom_site_fract_x
 _atom_site_fract_y
 _atom_site_fract_z
 _atom_site_occupancy
  C  C0  1  0.63348700  0.62582478  0.74678735  1
  C  C1  1  0.99344482  0.36420003  0.74965889  1
  C  C2  1  0.37527225  0.00748963  0.74707770  1
  C  C3  1  0.66153316  0.68933720  0.08370185  1
  C  C4  1  0.02706857  0.34173924  0.08345365  1
  C  C5  1  0.32623290  0.02926895  0.41734286  1
  C  C6  1  0.99152968  0.99743369  0.49618309  1
  C  C7  1  0.00605090  0.99681233  0.99503765  1
  C  C8  1  0.66611015  0.33289763  0.83401685  1
  C  C9  1  0.68479559  0.33731040  0.33029555  1
  C  C10  1  0.33103267  0.67256295  0.16758438  1
  C  C11  1  0.33972059  0.67132985  0.66271189  1
  C  C12  1  0.99870431  0.00090743  0.85599821  1
  C  C13  1  0.00209960  0.99057809  0.64542183  1
  C  C14  1  0.00780524  0.01389098  0.14361921  1
  C  C15  1  0.66722435  0.33464201  0.97777072  1
  C  C16  1  0.66001810  0.34084659  0.47747238  1
  C  C17  1  0.33268355  0.67040212  0.01783688  1
  C  C18  1  0.34521118  0.67888544  0.51848836  1
  C  C19  1  0.32177352  0.65404270  0.31645666  1
  C  C20  1  0.33459693  0.66664898  0.81521048  1
  C  C21  1  0.99083591  0.00417568  0.35644574  1
  C  C22  1  0.65752669  0.32988199  0.68402724  1
  C  C23  1  0.67479844  0.33299029  0.18206051  1
  Ni  Ni24  1  0.99659077  0.29586109  0.25153503  1
  Ni  Ni25  1  0.28424554  0.28653246  0.75073391  1
  Ni  Ni26  1  0.00119119  0.71069694  0.75152811  1
  Ni  Ni27  1  0.71325865  0.99905710  0.74962333  1
  Ni  Ni28  1  0.37472968  0.04179989  0.58357530  1
  Ni  Ni29  1  0.66489413  0.62626374  0.58477841  1
  Ni  Ni30  1  0.96016565  0.62666029  0.08293618  1
  Ni  Ni31  1  0.65932060  0.04136602  0.08301923  1
  Ni  Ni32  1  0.38293295  0.33527988  0.08333668  1
  Ni  Ni33  1  0.62498642  0.66659438  0.91722617  1
  Ni  Ni34  1  0.04199080  0.37672716  0.91676225  1
  Ni  Ni35  1  0.33403237  0.95937777  0.91612454  1
  Ni  Ni36  1  0.62459757  0.95812312  0.41526020  1
  Ni  Ni37  1  0.33028136  0.37825119  0.41872273  1
  Ni  Ni38  1  0.04013779  0.66214146  0.41810629  1
  Cu  Cu39  1  0.29029989  0.99826039  0.25056717  1
  Cu  Cu40  1  0.70713023  0.70992844  0.24958739  1
  Cu  Cu41  1  0.96060614  0.33422204  0.58269362  1
  C  C42  1  0.21270857  0.01717002  0.30439919  1
  C  C43  1  0.81247819  0.78661424  0.30200770  1
  C  C44  1  0.97619227  0.17895975  0.30607719  1
  C  C45  1  0.18749234  0.16335629  0.80660477  1
  C  C46  1  0.97135263  0.80725197  0.80636841  1
  C  C47  1  0.83460321  0.02571767  0.80662444  1
  C  C48  1  0.80495022  0.96400453  0.69334648  1
  C  C49  1  0.15863752  0.19603139  0.69370727  1
  C  C50  1  0.03683707  0.83648927  0.69374436  1
  C  C51  1  0.79268831  0.81511744  0.19577909  1
  C  C52  1  0.02445421  0.19570457  0.19180650  1
  C  C53  1  0.17825993  0.97557575  0.19786782  1
  C  C54  1  0.89298191  0.36391877  0.63807211  1
  C  C55  1  0.48047161  0.10425387  0.64417966  1
  C  C56  1  0.63312688  0.52424743  0.64530482  1
  C  C57  1  0.89490206  0.50767602  0.13942773  1
  C  C58  1  0.62080595  0.10730727  0.14216347  1
  C  C59  1  0.49793527  0.38452192  0.14118440  1
  C  C60  1  0.47173649  0.30221328  0.02644459  1
  C  C61  1  0.83065234  0.53563741  0.02671971  1
  C  C62  1  0.70708743  0.17095892  0.02729717  1
  C  C63  1  0.47300194  0.16426227  0.52638014  1
  C  C64  1  0.69319239  0.52605609  0.52847584  1
  C  C65  1  0.84811722  0.30926738  0.53199101  1
  C  C66  1  0.53166370  0.69190651  0.97420332  1
  C  C67  1  0.16153212  0.46763586  0.97420691  1
  C  C68  1  0.30787202  0.83453020  0.97172202  1
  C  C69  1  0.52290900  0.83843691  0.47237029  1
  C  C70  1  0.30983872  0.47750498  0.47391954  1
  C  C71  1  0.16705032  0.69173136  0.47295482  1
  C  C72  1  0.13485415  0.63071387  0.35987049  1
  C  C73  1  0.49241093  0.86295525  0.35934888  1
  C  C74  1  0.36319019  0.50089732  0.36046441  1
  C  C75  1  0.13681391  0.49728695  0.85873604  1
  C  C76  1  0.36028451  0.86481949  0.85807824  1
  C  C77  1  0.50372917  0.63976183  0.85888210  1
  C  C78  1  0.03627350  0.83651000  0.40996869  1
  C  C79  1  0.80555374  0.96868747  0.41670247  1
  C  C80  1  0.17969304  0.18401203  0.41473087  1
  C  C81  1  0.02561680  0.18933844  0.90937915  1
  C  C82  1  0.16301788  0.97444971  0.90951687  1
  C  C83  1  0.81135059  0.83673812  0.90954699  1
  C  C84  1  0.97479639  0.17658242  0.58737270  1
  C  C85  1  0.18480247  0.02791203  0.58967824  1
  C  C86  1  0.83718801  0.81874721  0.58933715  1
  C  C87  1  0.97163429  0.81397846  0.09258727  1
  C  C88  1  0.83581430  0.01976998  0.09191608  1
  C  C89  1  0.18630264  0.16462219  0.09089820  1
  C  C90  1  0.69649953  0.16935761  0.74693798  1
  C  C91  1  0.47281596  0.30770694  0.74981206  1
  C  C92  1  0.83645430  0.52222225  0.74620265  1
  C  C93  1  0.68193541  0.53544226  0.24427371  1
  C  C94  1  0.83314605  0.32201095  0.24713117  1
  C  C95  1  0.45974773  0.15242396  0.24453793  1
  C  C96  1  0.63997506  0.49473653  0.92367002  1
  C  C97  1  0.85552119  0.36074703  0.92399956  1
  C  C98  1  0.50530371  0.14437604  0.92427645  1
  C  C99  1  0.62847264  0.14106884  0.42531603  1
  C  C100  1  0.50786673  0.36555513  0.42398336  1
  C  C101  1  0.85587010  0.48821334  0.42615550  1
  C  C102  1  0.34690991  0.49563757  0.07320638  1
  C  C103  1  0.14937728  0.64775017  0.07181004  1
  C  C104  1  0.50678910  0.84352800  0.07304276  1
  C  C105  1  0.34284289  0.84714755  0.57352628  1
  C  C106  1  0.49685916  0.64748654  0.57393189  1
  C  C107  1  0.13290096  0.48596638  0.57543088  1
  C  C108  1  0.30488100  0.84008281  0.25293771  1
  C  C109  1  0.53766709  0.70172096  0.25387770  1
  C  C110  1  0.17978883  0.48645469  0.25538372  1
  C  C111  1  0.29957378  0.47663915  0.75709256  1
  C  C112  1  0.17713749  0.69943112  0.75668760  1
  C  C113  1  0.52382498  0.82514276  0.75696696  1
