# generated using pymatgen
data_Cu24Ni6C5
_symmetry_space_group_name_H-M   'P 1'
_cell_length_a   8.70077330
_cell_length_b   8.70077302
_cell_length_c   22.55711334
_cell_angle_alpha   90.00000000
_cell_angle_beta   90.00000000
_cell_angle_gamma   120.00000105
_symmetry_Int_Tables_number   1
_chemical_formula_structural   Cu24Ni6C5
_chemical_formula_sum   'Cu72 Ni18 C15'
_cell_volume   1478.86946292
_cell_formula_units_Z   3
loop_
 _symmetry_equiv_pos_site_id
 _symmetry_equiv_pos_as_xyz
  1  'x, y, z'
loop_
 _atom_site_type_symbol
 _atom_site_label
 _atom_site_symmetry_multiplicity
 _atom_site_fract_x
 _atom_site_fract_y
 _atom_site_fract_z
 _atom_site_occupancy
  C  C0  1  0.00000000  0.00000000  0.00288496  1
  C  C1  1  0.66666700  0.33333300  0.83582493  1
  C  C2  1  0.66666700  0.33333300  0.32560756  1
  C  C3  1  0.00000000  0.00000000  0.34670820  1
  C  C4  1  0.00000000  0.00000000  0.85561248  1
  C  C5  1  0.00000000  0.00000000  0.15610925  1
  C  C6  1  0.66666700  0.33333300  0.68548773  1
  C  C7  1  0.66666700  0.33333300  0.19037987  1
  C  C8  1  0.66666700  0.33333300  0.98297687  1
  C  C9  1  0.66666700  0.33333300  0.47888842  1
  C  C10  1  0.33333300  0.66666700  0.30359720  1
  C  C11  1  0.33333300  0.66666700  0.81268007  1
  C  C12  1  0.00000000  0.00000000  0.64721440  1
  C  C13  1  0.33333300  0.66666700  0.02487923  1
  C  C14  1  0.33333300  0.66666700  0.51490023  1
  Ni  Ni15  1  0.29325614  0.00197241  0.25077116  1
  Ni  Ni16  1  0.70871627  0.70674386  0.25077116  1
  Ni  Ni17  1  0.99802759  0.29128373  0.25077116  1
  Ni  Ni18  1  0.29333749  0.29167153  0.75210311  1
  Ni  Ni19  1  0.99833404  0.70666251  0.75210311  1
  Ni  Ni20  1  0.70832847  0.00166596  0.75210311  1
  Ni  Ni21  1  0.95583471  0.33560927  0.58367101  1
  Ni  Ni22  1  0.37977556  0.04416529  0.58367101  1
  Ni  Ni23  1  0.66439073  0.62022444  0.58367101  1
  Ni  Ni24  1  0.94979961  0.62527508  0.08285488  1
  Ni  Ni25  1  0.67547647  0.05020039  0.08285488  1
  Ni  Ni26  1  0.37472492  0.32452353  0.08285488  1
  Ni  Ni27  1  0.62287038  0.66475368  0.91557271  1
  Ni  Ni28  1  0.04188231  0.37712962  0.91557271  1
  Ni  Ni29  1  0.33524632  0.95811769  0.91557271  1
  Ni  Ni30  1  0.62857696  0.96258322  0.41312291  1
  Ni  Ni31  1  0.33400526  0.37142304  0.41312291  1
  Ni  Ni32  1  0.03741678  0.66599474  0.41312291  1
  Cu  Cu33  1  0.21403264  0.03376285  0.30433865  1
  Cu  Cu34  1  0.81973021  0.78596736  0.30433865  1
  Cu  Cu35  1  0.96623715  0.18026979  0.30433865  1
  Cu  Cu36  1  0.20776901  0.17584944  0.80277144  1
  Cu  Cu37  1  0.96808043  0.79223099  0.80277144  1
  Cu  Cu38  1  0.82415056  0.03191957  0.80277144  1
  Cu  Cu39  1  0.80362627  0.97897729  0.69609326  1
  Cu  Cu40  1  0.17535103  0.19637373  0.69609326  1
  Cu  Cu41  1  0.02102271  0.82464897  0.69609326  1
  Cu  Cu42  1  0.78831163  0.81331094  0.19680020  1
  Cu  Cu43  1  0.02499931  0.21168837  0.19680020  1
  Cu  Cu44  1  0.18668906  0.97500069  0.19680020  1
  Cu  Cu45  1  0.88099189  0.36531962  0.63695923  1
  Cu  Cu46  1  0.48432873  0.11900811  0.63695923  1
  Cu  Cu47  1  0.63468038  0.51567127  0.63695923  1
  Cu  Cu48  1  0.88210305  0.51524904  0.13488927  1
  Cu  Cu49  1  0.63314700  0.11789695  0.13488927  1
  Cu  Cu50  1  0.48475096  0.36685300  0.13488927  1
  Cu  Cu51  1  0.45426807  0.30436206  0.02833441  1
  Cu  Cu52  1  0.85009500  0.54573193  0.02833441  1
  Cu  Cu53  1  0.69563794  0.14990500  0.02833441  1
  Cu  Cu54  1  0.45092165  0.15233672  0.53078392  1
  Cu  Cu55  1  0.70141607  0.54907835  0.53078392  1
  Cu  Cu56  1  0.84766328  0.29858393  0.53078392  1
  Cu  Cu57  1  0.53264499  0.68975241  0.96998898  1
  Cu  Cu58  1  0.15710642  0.46735501  0.96998898  1
  Cu  Cu59  1  0.31024759  0.84289358  0.96998898  1
  Cu  Cu60  1  0.52996959  0.84190962  0.47152490  1
  Cu  Cu61  1  0.31193903  0.47003041  0.47152490  1
  Cu  Cu62  1  0.15809038  0.68806097  0.47152490  1
  Cu  Cu63  1  0.12712019  0.63529234  0.36469587  1
  Cu  Cu64  1  0.50817115  0.87287981  0.36469587  1
  Cu  Cu65  1  0.36470766  0.49182885  0.36469587  1
  Cu  Cu66  1  0.12471935  0.48534928  0.86288866  1
  Cu  Cu67  1  0.36062894  0.87528065  0.86288866  1
  Cu  Cu68  1  0.51465072  0.63937106  0.86288866  1
  Cu  Cu69  1  0.02962757  0.82768798  0.41248242  1
  Cu  Cu70  1  0.79806041  0.97037243  0.41248242  1
  Cu  Cu71  1  0.17231202  0.20193959  0.41248242  1
  Cu  Cu72  1  0.02980539  0.20195970  0.91253574  1
  Cu  Cu73  1  0.17215430  0.97019461  0.91253574  1
  Cu  Cu74  1  0.79804030  0.82784570  0.91253574  1
  Cu  Cu75  1  0.98084801  0.17527983  0.59411271  1
  Cu  Cu76  1  0.19443182  0.01915199  0.59411271  1
  Cu  Cu77  1  0.82472017  0.80556818  0.59411271  1
  Cu  Cu78  1  0.98414850  0.80729900  0.08839894  1
  Cu  Cu79  1  0.82315050  0.01585150  0.08839894  1
  Cu  Cu80  1  0.19270100  0.17684950  0.08839894  1
  Cu  Cu81  1  0.69414628  0.16056675  0.74153600  1
  Cu  Cu82  1  0.46642147  0.30585372  0.74153600  1
  Cu  Cu83  1  0.83943325  0.53357853  0.74153600  1
  Cu  Cu84  1  0.69055045  0.52824463  0.24419993  1
  Cu  Cu85  1  0.83769518  0.30944955  0.24419993  1
  Cu  Cu86  1  0.47175537  0.16230482  0.24419993  1
  Cu  Cu87  1  0.64055680  0.50680524  0.92376736  1
  Cu  Cu88  1  0.86624944  0.35944320  0.92376736  1
  Cu  Cu89  1  0.49319476  0.13375056  0.92376736  1
  Cu  Cu90  1  0.63938104  0.13244678  0.42608462  1
  Cu  Cu91  1  0.49306674  0.36061896  0.42608462  1
  Cu  Cu92  1  0.86755322  0.50693326  0.42608462  1
  Cu  Cu93  1  0.35592586  0.49402274  0.07139514  1
  Cu  Cu94  1  0.13809588  0.64407414  0.07139514  1
  Cu  Cu95  1  0.50597726  0.86190412  0.07139514  1
  Cu  Cu96  1  0.35083747  0.86106433  0.57473688  1
  Cu  Cu97  1  0.51022586  0.64916253  0.57473688  1
  Cu  Cu98  1  0.13893567  0.48977414  0.57473688  1
  Cu  Cu99  1  0.30989205  0.84437021  0.25857063  1
  Cu  Cu100  1  0.53447716  0.69010795  0.25857063  1
  Cu  Cu101  1  0.15562979  0.46552284  0.25857063  1
  Cu  Cu102  1  0.30266111  0.46232722  0.75498658  1
  Cu  Cu103  1  0.15966512  0.69733889  0.75498658  1
  Cu  Cu104  1  0.53767278  0.84033488  0.75498658  1
