# generated using pymatgen
data_Cu2Ni6C
_symmetry_space_group_name_H-M   'P 1'
_cell_length_a   9.52538200
_cell_length_b   8.55129000
_cell_length_c   13.12484666
_cell_angle_alpha   83.50832519
_cell_angle_beta   90.00000000
_cell_angle_gamma   90.00000000
_symmetry_Int_Tables_number   1
_chemical_formula_structural   Cu2Ni6C
_chemical_formula_sum   'Cu8 Ni24 C4'
_cell_volume   1062.22065140
_cell_formula_units_Z   4
loop_
 _symmetry_equiv_pos_site_id
 _symmetry_equiv_pos_as_xyz
  1  'x, y, z'
loop_
 _atom_site_type_symbol
 _atom_site_label
 _atom_site_symmetry_multiplicity
 _atom_site_fract_x
 _atom_site_fract_y
 _atom_site_fract_z
 _atom_site_occupancy
  C  C0  1  0.43370400  0.67693400  0.75457800  1
  C  C1  1  0.93370400  0.82306600  0.24542200  1
  C  C2  1  0.56629600  0.32306600  0.24542200  1
  C  C3  1  0.06629600  0.17693400  0.75457800  1
  Ni  Ni4  1  0.66777500  0.66295300  0.80593100  1
  Ni  Ni5  1  0.22577300  0.29948100  0.32864600  1
  Ni  Ni6  1  0.27422700  0.79948100  0.32864600  1
  Ni  Ni7  1  0.77422700  0.70051900  0.67135400  1
  Ni  Ni8  1  0.99980800  0.22008700  0.58585200  1
  Ni  Ni9  1  0.49980800  0.27991300  0.41414800  1
  Ni  Ni10  1  0.00019200  0.77991300  0.41414800  1
  Ni  Ni11  1  0.72577300  0.20051900  0.67135400  1
  Ni  Ni12  1  0.13490400  0.13738000  0.92644900  1
  Ni  Ni13  1  0.63490400  0.36262000  0.07355100  1
  Ni  Ni14  1  0.86509600  0.86262000  0.07355100  1
  Ni  Ni15  1  0.36509600  0.63738000  0.92644900  1
  Ni  Ni16  1  0.34767000  0.14193200  0.91794900  1
  Ni  Ni17  1  0.84767000  0.35806800  0.08205100  1
  Ni  Ni18  1  0.65233000  0.85806800  0.08205100  1
  Ni  Ni19  1  0.15233000  0.64193200  0.91794900  1
  Ni  Ni20  1  0.29596500  0.18923000  0.70350900  1
  Ni  Ni21  1  0.79596500  0.31077000  0.29649100  1
  Ni  Ni22  1  0.70403500  0.81077000  0.29649100  1
  Ni  Ni23  1  0.20403500  0.68923000  0.70350900  1
  Ni  Ni24  1  0.33222500  0.33704700  0.19406900  1
  Ni  Ni25  1  0.83222500  0.16295300  0.80593100  1
  Ni  Ni26  1  0.50019200  0.72008700  0.58585200  1
  Ni  Ni27  1  0.16777500  0.83704700  0.19406900  1
  Cu  Cu28  1  0.10316400  0.66752800  0.80340200  1
  Cu  Cu29  1  0.60316400  0.83247200  0.19659800  1
  Cu  Cu30  1  0.89683600  0.33247200  0.19659800  1
  Cu  Cu31  1  0.39683600  0.16752800  0.80340200  1
  Cu  Cu32  1  0.33014100  0.27659700  0.42141700  1
  Cu  Cu33  1  0.83014100  0.22340300  0.57858300  1
  Cu  Cu34  1  0.66985900  0.72340300  0.57858300  1
  Cu  Cu35  1  0.16985900  0.77659700  0.42141700  1
