# generated using pymatgen
data_Cu4NiC2
_symmetry_space_group_name_H-M   'P 1'
_cell_length_a   3.71712300
_cell_length_b   10.73029900
_cell_length_c   14.25628000
_cell_angle_alpha   90.00000000
_cell_angle_beta   90.00000000
_cell_angle_gamma   90.00000000
_symmetry_Int_Tables_number   1
_chemical_formula_structural   Cu4NiC2
_chemical_formula_sum   'Cu24 Ni6 C12'
_cell_volume   568.62372032
_cell_formula_units_Z   6
loop_
 _symmetry_equiv_pos_site_id
 _symmetry_equiv_pos_as_xyz
  1  'x, y, z'
loop_
 _atom_site_type_symbol
 _atom_site_label
 _atom_site_symmetry_multiplicity
 _atom_site_fract_x
 _atom_site_fract_y
 _atom_site_fract_z
 _atom_site_occupancy
  Ni  Ni0  1  0.50000000  0.37678900  0.22589100  1
  Ni  Ni1  1  0.50000000  0.62321100  0.77410900  1
  Ni  Ni2  1  0.00000000  0.87678900  0.27410900  1
  Ni  Ni3  1  0.00000000  0.12321100  0.72589100  1
  Ni  Ni4  1  0.50000000  0.50000000  0.50000000  1
  Ni  Ni5  1  0.00000000  0.00000000  0.00000000  1
  Cu  Cu6  1  0.00000000  0.07773900  0.44509800  1
  Cu  Cu7  1  0.50000000  0.57773900  0.05490200  1
  Cu  Cu8  1  0.00000000  0.59331600  0.94676200  1
  Cu  Cu9  1  0.00000000  0.40668400  0.05323800  1
  Cu  Cu10  1  0.50000000  0.09331600  0.55323800  1
  Cu  Cu11  1  0.50000000  0.42226100  0.94509800  1
  Cu  Cu12  1  0.00000000  0.26130200  0.53667300  1
  Cu  Cu13  1  0.00000000  0.73869800  0.46332700  1
  Cu  Cu14  1  0.50000000  0.76130200  0.96332700  1
  Cu  Cu15  1  0.50000000  0.23869800  0.03667300  1
  Cu  Cu16  1  0.00000000  0.43083700  0.67397800  1
  Cu  Cu17  1  0.00000000  0.56916300  0.32602200  1
  Cu  Cu18  1  0.50000000  0.93083700  0.82602200  1
  Cu  Cu19  1  0.50000000  0.06916300  0.17397800  1
  Cu  Cu20  1  0.00000000  0.82268300  0.71088800  1
  Cu  Cu21  1  0.00000000  0.17731700  0.28911200  1
  Cu  Cu22  1  0.50000000  0.32268300  0.78911200  1
  Cu  Cu23  1  0.50000000  0.67731700  0.21088800  1
  Cu  Cu24  1  0.50000000  0.23546100  0.42104700  1
  Cu  Cu25  1  0.50000000  0.76453900  0.57895300  1
  Cu  Cu26  1  0.00000000  0.73546100  0.07895300  1
  Cu  Cu27  1  0.00000000  0.26453900  0.92104700  1
  Cu  Cu28  1  0.50000000  0.90668400  0.44676200  1
  Cu  Cu29  1  0.00000000  0.92226100  0.55490200  1
  C  C30  1  0.50000000  0.84984000  0.11427100  1
  C  C31  1  0.50000000  0.15016000  0.88572900  1
  C  C32  1  0.00000000  0.34984000  0.38572900  1
  C  C33  1  0.00000000  0.65016000  0.61427100  1
  C  C34  1  0.50000000  0.70414600  0.36808300  1
  C  C35  1  0.50000000  0.29585400  0.63191700  1
  C  C36  1  0.50000000  0.07006400  0.33504000  1
  C  C37  1  0.50000000  0.92993600  0.66496000  1
  C  C38  1  0.00000000  0.57006400  0.16496000  1
  C  C39  1  0.00000000  0.42993600  0.83504000  1
  C  C40  1  0.00000000  0.20414600  0.13191700  1
  C  C41  1  0.00000000  0.79585400  0.86808300  1
