# generated using pymatgen
data_Cu3Ni3C32
_symmetry_space_group_name_H-M   'P 1'
_cell_length_a   9.02209178
_cell_length_b   9.00988239
_cell_length_c   22.74260415
_cell_angle_alpha   89.10429107
_cell_angle_beta   90.84197252
_cell_angle_gamma   120.64826209
_symmetry_Int_Tables_number   1
_chemical_formula_structural   Cu3Ni3C32
_chemical_formula_sum   'Cu9 Ni9 C96'
_cell_volume   1590.21799525
_cell_formula_units_Z   3
loop_
 _symmetry_equiv_pos_site_id
 _symmetry_equiv_pos_as_xyz
  1  'x, y, z'
loop_
 _atom_site_type_symbol
 _atom_site_label
 _atom_site_symmetry_multiplicity
 _atom_site_fract_x
 _atom_site_fract_y
 _atom_site_fract_z
 _atom_site_occupancy
  C  C0  1  0.37216811  0.35158830  0.24469915  1
  C  C1  1  0.64346454  0.62649917  0.74562144  1
  C  C2  1  0.02862085  0.68316122  0.58917030  1
  C  C3  1  0.32004751  0.96532144  0.07838067  1
  C  C4  1  0.70437909  0.02588590  0.90734223  1
  C  C5  1  0.98478637  0.30208720  0.42138190  1
  C  C6  1  0.01095767  0.01433972  0.49814514  1
  C  C7  1  0.01055250  0.00129191  0.98817594  1
  C  C8  1  0.67899489  0.33430983  0.81965548  1
  C  C9  1  0.64988699  0.32010063  0.32766278  1
  C  C10  1  0.34736866  0.66823978  0.15357787  1
  C  C11  1  0.33254969  0.65110788  0.65560643  1
  C  C12  1  0.98185877  0.99528574  0.64812086  1
  C  C13  1  0.00930163  0.00113570  0.14177124  1
  C  C14  1  0.65143991  0.31575451  0.98058112  1
  C  C15  1  0.66069681  0.34081972  0.48595158  1
  C  C16  1  0.34175792  0.67209232  0.31349691  1
  C  C17  1  0.32970165  0.68197396  0.81001322  1
  C  C18  1  0.02675843  0.00810772  0.35078734  1
  C  C19  1  0.00817674  0.99366693  0.84616374  1
  C  C20  1  0.69571978  0.34223671  0.68615205  1
  C  C21  1  0.63622859  0.30513433  0.17992461  1
  C  C22  1  0.34598606  0.67322979  0.01767992  1
  C  C23  1  0.33850286  0.62527382  0.52343548  1
  Ni  Ni24  1  0.29737834  0.00183605  0.25145517  1
  Ni  Ni25  1  0.99352286  0.70907878  0.75077413  1
  Ni  Ni26  1  0.71344052  0.01293147  0.75670031  1
  Ni  Ni27  1  0.96225127  0.33522336  0.58288902  1
  Ni  Ni28  1  0.66022085  0.62616153  0.59099878  1
  Ni  Ni29  1  0.66578793  0.03627784  0.08621220  1
  Ni  Ni30  1  0.38135242  0.35189804  0.08618524  1
  Ni  Ni31  1  0.31453507  0.95028490  0.92019139  1
  Ni  Ni32  1  0.33058466  0.36474348  0.41653726  1
  Cu  Cu33  1  0.71474032  0.71601659  0.25294147  1
  Cu  Cu34  1  0.99788332  0.29076291  0.25086492  1
  Cu  Cu35  1  0.28807946  0.29196323  0.75162379  1
  Cu  Cu36  1  0.37282437  0.04180876  0.58510795  1
  Cu  Cu37  1  0.94915610  0.61825314  0.08639192  1
  Cu  Cu38  1  0.62393508  0.66184788  0.91763309  1
  Cu  Cu39  1  0.04284619  0.38076776  0.91882280  1
  Cu  Cu40  1  0.62453890  0.95896261  0.41803488  1
  Cu  Cu41  1  0.04233759  0.66677858  0.41745105  1
  C  C42  1  0.20680529  0.03367217  0.30465155  1
  C  C43  1  0.80861672  0.80179301  0.30640428  1
  C  C44  1  0.97165117  0.19349251  0.30578681  1
  C  C45  1  0.21060000  0.19484344  0.80507194  1
  C  C46  1  0.96574205  0.79429578  0.80625724  1
  C  C47  1  0.81731945  0.02917870  0.81588627  1
  C  C48  1  0.80684565  0.97015619  0.69814685  1
  C  C49  1  0.17716952  0.21003824  0.69791410  1
  C  C50  1  0.03546517  0.83414427  0.68994196  1
  C  C51  1  0.79218646  0.82081053  0.19876296  1
  C  C52  1  0.02729754  0.20275665  0.19993772  1
  C  C53  1  0.17049926  0.97141432  0.19161603  1
  C  C54  1  0.87147714  0.36616346  0.63582604  1
  C  C55  1  0.47505011  0.12198445  0.63682531  1
  C  C56  1  0.63619641  0.51255075  0.64755198  1
  C  C57  1  0.86844850  0.52224711  0.13962758  1
  C  C58  1  0.63851551  0.12668663  0.14026425  1
  C  C59  1  0.47788189  0.37335813  0.14757666  1
  C  C60  1  0.47798988  0.30430999  0.03064599  1
  C  C61  1  0.84518440  0.54128380  0.03202049  1
  C  C62  1  0.69970814  0.16474287  0.02490677  1
  C  C63  1  0.46521884  0.15924390  0.52977434  1
  C  C64  1  0.69274099  0.52413352  0.53133915  1
  C  C65  1  0.83512772  0.30054252  0.52049311  1
  C  C66  1  0.53766816  0.67957572  0.96861829  1
  C  C67  1  0.14340946  0.46098006  0.97135655  1
  C  C68  1  0.30869079  0.85067732  0.97933914  1
  C  C69  1  0.53829121  0.85871925  0.46913260  1
  C  C70  1  0.29239224  0.45928498  0.46688960  1
  C  C71  1  0.14086810  0.69234272  0.47106354  1
  C  C72  1  0.13592208  0.64360369  0.36519951  1
  C  C73  1  0.51173335  0.86866004  0.36214951  1
  C  C74  1  0.35920382  0.49510701  0.35643568  1
  C  C75  1  0.13042076  0.48520566  0.86446611  1
  C  C76  1  0.35860885  0.85652243  0.86277023  1
  C  C77  1  0.51950090  0.63242098  0.86246553  1
  C  C78  1  0.00613035  0.80550226  0.40722763  1
  C  C79  1  0.79551775  0.98000160  0.40900112  1
  C  C80  1  0.15398150  0.17983747  0.41112403  1
  C  C81  1  0.00671588  0.20271263  0.91376814  1
  C  C82  1  0.16627034  0.99454615  0.91136870  1
  C  C83  1  0.79482656  0.81935956  0.91367889  1
  C  C84  1  0.98437731  0.16294634  0.58978628  1
  C  C85  1  0.20198088  0.03291320  0.58423642  1
  C  C86  1  0.85356781  0.81300183  0.58981763  1
  C  C87  1  0.96444448  0.79984482  0.08908731  1
  C  C88  1  0.84243129  0.02305722  0.09398295  1
  C  C89  1  0.19063488  0.15459684  0.09090814  1
  C  C90  1  0.66436223  0.15551138  0.74426471  1
  C  C91  1  0.46085732  0.31907064  0.74463784  1
  C  C92  1  0.82724284  0.52147571  0.74603916  1
  C  C93  1  0.68603681  0.54152972  0.24836371  1
  C  C94  1  0.85999254  0.32723397  0.24077593  1
  C  C95  1  0.48686081  0.17135210  0.24728613  1
  C  C96  1  0.64443620  0.50612482  0.92463431  1
  C  C97  1  0.86709494  0.36994011  0.92093474  1
  C  C98  1  0.51078089  0.14552029  0.92378771  1
  C  C99  1  0.64315269  0.13492978  0.41670236  1
  C  C100  1  0.50883250  0.35216189  0.42296339  1
  C  C101  1  0.87092703  0.49484161  0.41849798  1
  C  C102  1  0.33260642  0.49430822  0.07340816  1
  C  C103  1  0.12658720  0.65622661  0.08090733  1
  C  C104  1  0.49683553  0.85162112  0.07776734  1
  C  C105  1  0.34643230  0.87157065  0.57351708  1
  C  C106  1  0.51631829  0.67487804  0.58016828  1
  C  C107  1  0.14207410  0.51363684  0.57506235  1
  C  C108  1  0.30724698  0.82114313  0.25976686  1
  C  C109  1  0.53132080  0.69530156  0.25590989  1
  C  C110  1  0.17084406  0.46481089  0.25481030  1
  C  C111  1  0.30616643  0.47025287  0.75556150  1
  C  C112  1  0.17211952  0.69152829  0.75832467  1
  C  C113  1  0.52422376  0.81552599  0.76049258  1
