# generated using pymatgen
data_Cu2Ni2C35
_symmetry_space_group_name_H-M   'P 1'
_cell_length_a   8.75220807
_cell_length_b   8.77662492
_cell_length_c   21.64419707
_cell_angle_alpha   90.74723067
_cell_angle_beta   90.21206053
_cell_angle_gamma   120.02829986
_symmetry_Int_Tables_number   1
_chemical_formula_structural   Cu2Ni2C35
_chemical_formula_sum   'Cu6 Ni6 C105'
_cell_volume   1439.21647752
_cell_formula_units_Z   3
loop_
 _symmetry_equiv_pos_site_id
 _symmetry_equiv_pos_as_xyz
  1  'x, y, z'
loop_
 _atom_site_type_symbol
 _atom_site_label
 _atom_site_symmetry_multiplicity
 _atom_site_fract_x
 _atom_site_fract_y
 _atom_site_fract_z
 _atom_site_occupancy
  C  C0  1  0.64734559  0.01765244  0.25344445  1
  C  C1  1  0.99727092  0.63322726  0.24273389  1
  C  C2  1  0.64182520  0.63676174  0.74311551  1
  C  C3  1  0.99058758  0.35274437  0.74605122  1
  C  C4  1  0.31250364  0.34883716  0.58611921  1
  C  C5  1  0.66349171  0.96556709  0.57721943  1
  C  C6  1  0.30480151  0.96295793  0.08046716  1
  C  C7  1  0.69327490  0.02169780  0.91030223  1
  C  C8  1  0.97026101  0.29548150  0.41296590  1
  C  C9  1  0.98306181  0.96480024  0.49508334  1
  C  C10  1  0.00820318  0.98843591  0.99604056  1
  C  C11  1  0.62579661  0.30828741  0.82995349  1
  C  C12  1  0.63176788  0.32031194  0.33145805  1
  C  C13  1  0.31541620  0.63006112  0.16170051  1
  C  C14  1  0.32287710  0.67503102  0.66301666  1
  Ni  Ni15  1  0.99194944  0.00291415  0.64850339  1
  Ni  Ni16  1  0.00526476  0.00009316  0.14929580  1
  Ni  Ni17  1  0.66645696  0.34414143  0.98114182  1
  Ni  Ni18  1  0.67102777  0.33261239  0.48287919  1
  Ni  Ni19  1  0.33509583  0.67397865  0.31385811  1
  Ni  Ni20  1  0.34116009  0.67803071  0.81443250  1
  Cu  Cu21  1  0.00279198  0.00495143  0.34736352  1
  Cu  Cu22  1  0.02141559  0.01231736  0.84992502  1
  Cu  Cu23  1  0.66413241  0.32856730  0.68163270  1
  Cu  Cu24  1  0.66920251  0.33334783  0.18109188  1
  Cu  Cu25  1  0.31776020  0.66760732  0.01606048  1
  Cu  Cu26  1  0.33889825  0.66794343  0.51440799  1
  C  C27  1  0.29218377  0.99539338  0.25004862  1
  C  C28  1  0.01401006  0.29884191  0.25179856  1
  C  C29  1  0.29252071  0.30095592  0.74950327  1
  C  C30  1  0.70039085  0.99333620  0.75291629  1
  C  C31  1  0.96073866  0.32972031  0.58446737  1
  C  C32  1  0.68145585  0.63053034  0.58489014  1
  C  C33  1  0.95157380  0.63245324  0.08593016  1
  C  C34  1  0.34269857  0.97038560  0.92064687  1
  C  C35  1  0.62359321  0.96768251  0.41828058  1
  C  C36  1  0.69985778  0.70867270  0.25016872  1
  C  C37  1  0.01313671  0.71770820  0.75051987  1
  C  C38  1  0.36449630  0.04021913  0.58229214  1
  C  C39  1  0.68163884  0.04023219  0.08264758  1
  C  C40  1  0.37057530  0.32958131  0.08288917  1
  C  C41  1  0.61889524  0.65400696  0.91718937  1
  C  C42  1  0.03282569  0.37837881  0.91557387  1
  C  C43  1  0.34753342  0.37840224  0.41732143  1
  C  C44  1  0.03434814  0.66082667  0.41625637  1
  C  C45  1  0.21042713  0.01905114  0.30795309  1
  C  C46  1  0.80553664  0.78225333  0.30703982  1
  C  C47  1  0.97037143  0.19349352  0.31169499  1
  C  C48  1  0.21782166  0.19682347  0.80714430  1
  C  C49  1  0.97716197  0.78878936  0.80675946  1
  C  C50  1  0.80914042  0.01835953  0.81178188  1
  C  C51  1  0.79213117  0.96191051  0.69532808  1
  C  C52  1  0.17163128  0.20725044  0.69086594  1
  C  C53  1  0.03399999  0.82602580  0.69545755  1
  C  C54  1  0.78899999  0.82512062  0.19630197  1
  C  C55  1  0.03197831  0.19387554  0.19665647  1
  C  C56  1  0.17297638  0.96228067  0.19113487  1
  C  C57  1  0.88563578  0.35319552  0.64485772  1
  C  C58  1  0.47100404  0.11072249  0.63914752  1
  C  C59  1  0.64310648  0.52449791  0.64415441  1
  C  C60  1  0.87861019  0.53865561  0.14673557  1
  C  C61  1  0.64599157  0.11397475  0.13930961  1
  C  C62  1  0.46851333  0.35336256  0.14050451  1
  C  C63  1  0.46048631  0.29804290  0.02887624  1
  C  C64  1  0.82963984  0.52697276  0.03024496  1
  C  C65  1  0.69743719  0.14866226  0.02749669  1
  C  C66  1  0.45516159  0.15717983  0.52862488  1
  C  C67  1  0.69544671  0.52577841  0.52892566  1
  C  C68  1  0.83654818  0.29870081  0.52756482  1
  C  C69  1  0.53415473  0.68116882  0.97097876  1
  C  C70  1  0.13937379  0.45509182  0.97133696  1
  C  C71  1  0.32526547  0.87853561  0.98201681  1
  C  C72  1  0.54664028  0.87052873  0.47813980  1
  C  C73  1  0.31656087  0.44803621  0.47585870  1
  C  C74  1  0.13701184  0.68172251  0.47216234  1
  C  C75  1  0.12132370  0.63344723  0.35974823  1
  C  C76  1  0.50653830  0.86743367  0.36023944  1
  C  C77  1  0.36172601  0.49178214  0.36432551  1
  C  C78  1  0.12193804  0.48137287  0.85882122  1
  C  C79  1  0.37430669  0.86664398  0.86689467  1
  C  C80  1  0.51306241  0.63055954  0.85875462  1
  C  C81  1  0.00679101  0.81055811  0.41033629  1
  C  C82  1  0.81260385  0.99667028  0.41318532  1
  C  C83  1  0.19353885  0.19893650  0.41083562  1
  C  C84  1  0.99621038  0.19436774  0.91186903  1
  C  C85  1  0.18307423  0.99383778  0.91273164  1
  C  C86  1  0.79727399  0.80958663  0.91250505  1
  C  C87  1  0.97015121  0.15383367  0.58809144  1
  C  C88  1  0.19171713  0.03557887  0.58769737  1
  C  C89  1  0.85284385  0.81547783  0.59044315  1
  C  C90  1  0.96955325  0.82116044  0.08905756  1
  C  C91  1  0.84912752  0.03659998  0.08886390  1
  C  C92  1  0.19375707  0.16119850  0.08623693  1
  C  C93  1  0.68007634  0.15570855  0.74619485  1
  C  C94  1  0.48308109  0.33912602  0.74322878  1
  C  C95  1  0.86240335  0.53567150  0.74387004  1
  C  C96  1  0.66973653  0.52961882  0.24276997  1
  C  C97  1  0.85509484  0.32960612  0.24367007  1
  C  C98  1  0.48161896  0.15059214  0.24337283  1
  C  C99  1  0.63164693  0.49087645  0.92204077  1
  C  C100  1  0.85683591  0.37065554  0.92027896  1
  C  C101  1  0.52026540  0.15536403  0.92485948  1
  C  C102  1  0.63855583  0.15522494  0.42241816  1
  C  C103  1  0.51370295  0.37152876  0.42150463  1
  C  C104  1  0.85862127  0.49153157  0.41991166  1
  C  C105  1  0.34568251  0.48056744  0.07462674  1
  C  C106  1  0.14103734  0.66080463  0.08042446  1
  C  C107  1  0.53013300  0.85880736  0.07670098  1
  C  C108  1  0.33536086  0.86113781  0.57445660  1
  C  C109  1  0.52227228  0.66259495  0.57833519  1
  C  C110  1  0.14920389  0.48506367  0.57720667  1
  C  C111  1  0.30550977  0.82142083  0.25529053  1
  C  C112  1  0.52581962  0.70340194  0.25521579  1
  C  C113  1  0.18587135  0.48367697  0.25836552  1
  C  C114  1  0.29805098  0.48533050  0.75554400  1
  C  C115  1  0.17756821  0.70449677  0.75652842  1
  C  C116  1  0.51690226  0.81982874  0.75722221  1
