# generated using pymatgen
data_Cu4(NiC13)5
_symmetry_space_group_name_H-M   'P 1'
_cell_length_a   17.87709377
_cell_length_b   8.91733804
_cell_length_c   23.06800849
_cell_angle_alpha   89.99914177
_cell_angle_beta   89.97164498
_cell_angle_gamma   119.98766296
_symmetry_Int_Tables_number   1
_chemical_formula_structural   Cu4(NiC13)5
_chemical_formula_sum   'Cu12 Ni15 C195'
_cell_volume   3185.12723954
_cell_formula_units_Z   3
loop_
 _symmetry_equiv_pos_site_id
 _symmetry_equiv_pos_as_xyz
  1  'x, y, z'
loop_
 _atom_site_type_symbol
 _atom_site_label
 _atom_site_symmetry_multiplicity
 _atom_site_fract_x
 _atom_site_fract_y
 _atom_site_fract_z
 _atom_site_occupancy
  C  C0  1  0.99975872  0.62905340  0.25430370  1
  C  C1  1  0.49755414  0.62953465  0.25125226  1
  C  C2  1  0.99756839  0.36830994  0.75083594  1
  C  C3  1  0.50148198  0.36276921  0.75286657  1
  C  C4  1  0.66392123  0.30463889  0.91766344  1
  C  C5  1  0.16564724  0.02253149  0.42690117  1
  C  C6  1  0.99947395  0.99456160  0.50619600  1
  C  C7  1  0.50637080  0.99946604  0.50353442  1
  C  C8  1  0.00480453  0.01072598  0.99848010  1
  C  C9  1  0.50095986  0.00939806  0.99977379  1
  C  C10  1  0.32948378  0.32303687  0.83797952  1
  C  C11  1  0.83347550  0.33444294  0.82261542  1
  C  C12  1  0.34309359  0.34620666  0.32799037  1
  C  C13  1  0.82534267  0.33065365  0.34032960  1
  C  C14  1  0.18263567  0.66200484  0.16478797  1
  C  C15  1  0.66991435  0.65279786  0.16247648  1
  C  C16  1  0.17130235  0.68974628  0.66563422  1
  C  C17  1  0.68073366  0.69011969  0.67140692  1
  C  C18  1  0.99693018  0.98944074  0.35701203  1
  C  C19  1  0.50204324  0.01205070  0.85375281  1
  C  C20  1  0.32470923  0.33306380  0.67936860  1
  C  C21  1  0.82370440  0.31163242  0.69165621  1
  C  C22  1  0.33082033  0.34723060  0.18744645  1
  C  C23  1  0.82273145  0.31494277  0.17794419  1
  C  C24  1  0.82953524  0.31857123  0.98688420  1
  C  C25  1  0.33165217  0.34533007  0.48973467  1
  C  C26  1  0.17033784  0.66579295  0.31453193  1
  C  C27  1  0.66563555  0.64593683  0.31441157  1
  C  C28  1  0.16745701  0.68683922  0.81407997  1
  C  C29  1  0.66807392  0.66146490  0.81057629  1
  Ni  Ni30  1  0.35606527  0.71821617  0.25062586  1
  Ni  Ni31  1  0.49858634  0.29662121  0.24921650  1
  Ni  Ni32  1  0.64330440  0.28833989  0.75046289  1
  Ni  Ni33  1  0.00091807  0.70133762  0.74888359  1
  Ni  Ni34  1  0.85727728  0.99555397  0.75082591  1
  Ni  Ni35  1  0.18151904  0.04012788  0.58228102  1
  Ni  Ni36  1  0.68968737  0.03783825  0.58133258  1
  Ni  Ni37  1  0.33318317  0.63505434  0.58381462  1
  Ni  Ni38  1  0.83065698  0.03209371  0.08263063  1
  Ni  Ni39  1  0.19007489  0.34164773  0.08222023  1
  Ni  Ni40  1  0.68135415  0.32587929  0.08196688  1
  Ni  Ni41  1  0.51941774  0.37952569  0.91638085  1
  Ni  Ni42  1  0.16286804  0.95922002  0.91795637  1
  Ni  Ni43  1  0.66402145  0.36730463  0.41781122  1
  Ni  Ni44  1  0.02044693  0.65753176  0.41507473  1
  Cu  Cu45  1  0.50058467  0.01378801  0.35056806  1
  Cu  Cu46  1  0.00050137  0.98552216  0.84993468  1
  Cu  Cu47  1  0.00174859  0.98795536  0.65038166  1
  Cu  Cu48  1  0.50689782  0.99849865  0.64445676  1
  Cu  Cu49  1  0.00196110  0.01427022  0.14197701  1
  Cu  Cu50  1  0.50098113  0.01451500  0.14902898  1
  Cu  Cu51  1  0.32812670  0.32289634  0.97911671  1
  Cu  Cu52  1  0.82908643  0.33560219  0.48080001  1
  Cu  Cu53  1  0.16497475  0.66494250  0.01586739  1
  Cu  Cu54  1  0.66688589  0.65791704  0.02109828  1
  Cu  Cu55  1  0.16615661  0.67682520  0.52344503  1
  Cu  Cu56  1  0.66393852  0.66179359  0.51786421  1
  C  C57  1  0.14233364  0.99916653  0.25019154  1
  C  C58  1  0.64870851  0.00263811  0.25142781  1
  C  C59  1  0.85730050  0.71329944  0.24849103  1
  C  C60  1  0.99918460  0.29098175  0.25109990  1
  C  C61  1  0.14893338  0.29497729  0.75149238  1
  C  C62  1  0.49749434  0.70450237  0.75102063  1
  C  C63  1  0.35555775  -0.00004225  0.74821263  1
  C  C64  1  0.48066926  0.33413323  0.58434933  1
  C  C65  1  0.97754508  0.32872845  0.58283209  1
  C  C66  1  0.83336249  0.62753098  0.58296701  1
  C  C67  1  0.47818046  0.62811435  0.08323909  1
  C  C68  1  0.98174762  0.62731822  0.08576617  1
  C  C69  1  0.33226185  0.03871221  0.08343105  1
  C  C70  1  0.31294519  0.66713241  0.91614801  1
  C  C71  1  0.81495335  0.66911108  0.91759355  1
  C  C72  1  0.01865919  0.36972537  0.91523424  1
  C  C73  1  0.66681824  0.95566112  0.91702889  1
  C  C74  1  0.31443508  0.96037222  0.41701083  1
  C  C75  1  0.81205952  0.95835906  0.41577317  1
  C  C76  1  0.16754205  0.37499578  0.41657584  1
  C  C77  1  0.51840626  0.66740961  0.41481869  1
  C  C78  1  0.10201680  0.02264170  0.30312398  1
  C  C79  1  0.60931342  0.03043545  0.30421910  1
  C  C80  1  0.42179391  0.79876550  0.30739653  1
  C  C81  1  0.91200452  0.79866541  0.30030664  1
  C  C82  1  0.48107971  0.18144335  0.30796189  1
  C  C83  1  0.98921731  0.18448311  0.30223346  1
  C  C84  1  0.10958447  0.18785870  0.80419670  1
  C  C85  1  0.59910335  0.17549937  0.80976151  1
  C  C86  1  0.48410540  0.78646251  0.80219089  1
  C  C87  1  0.98310751  0.78088034  0.80780722  1
  C  C88  1  0.40864593  0.02290852  0.80045456  1
  C  C89  1  0.92390891  0.04654499  0.80749135  1
  C  C90  1  0.39416942  0.97428092  0.69514124  1
  C  C91  1  0.90158693  0.96992693  0.69118589  1
  C  C92  1  0.09374426  0.21937424  0.69899174  1
  C  C93  1  0.57466208  0.19876378  0.69529514  1
  C  C94  1  0.02677830  0.82827942  0.69233363  1
  C  C95  1  0.50831448  0.80475676  0.69691501  1
  C  C96  1  0.40103154  0.83017262  0.19138038  1
  C  C97  1  0.89967956  0.81856270  0.19562239  1
  C  C98  1  0.01235839  0.21257729  0.19740951  1
  C  C99  1  0.52367912  0.22152139  0.19260608  1
  C  C100  1  0.08372576  0.96493092  0.19880879  1
  C  C101  1  0.59329915  0.96794397  0.19919829  1
  C  C102  1  0.44190377  0.35722731  0.63764443  1
  C  C103  1  0.94103603  0.35836635  0.63500341  1
  C  C104  1  0.24211114  0.13244778  0.63804735  1
  C  C105  1  0.74709440  0.12075936  0.63782017  1
  C  C106  1  0.31906208  0.51709894  0.64062519  1
  C  C107  1  0.82445405  0.52592839  0.63391723  1
  C  C108  1  0.44119313  0.52489030  0.13661405  1
  C  C109  1  0.94310429  0.52749350  0.13971046  1
  C  C110  1  0.32269531  0.12126573  0.13535333  1
  C  C111  1  0.81890397  0.11919967  0.14139895  1
  C  C112  1  0.24555368  0.37114589  0.14025881  1
  C  C113  1  0.74113029  0.35486576  0.13910502  1
  C  C114  1  0.23210494  0.30942550  0.02443275  1
  C  C115  1  0.72555391  0.30537787  0.02245769  1
  C  C116  1  0.42467562  0.54466009  0.03119894  1
  C  C117  1  0.92885862  0.54628897  0.03417036  1
  C  C118  1  0.34652064  0.14255422  0.02986985  1
  C  C119  1  0.85076054  0.15577422  0.02640775  1
  C  C120  1  0.22373462  0.14481961  0.52109580  1
  C  C121  1  0.73033956  0.15145362  0.52173896  1
  C  C122  1  0.35220515  0.55230458  0.52609082  1
  C  C123  1  0.84855197  0.55530063  0.52820921  1
  C  C124  1  0.42870502  0.31594536  0.53214830  1
  C  C125  1  0.92561790  0.30657651  0.52927490  1
  C  C126  1  0.27519113  0.69555456  0.97065813  1
  C  C127  1  0.77700862  0.69786257  0.97119468  1
  C  C128  1  0.07273440  0.44828051  0.96915222  1
  C  C129  1  0.58575675  0.46484674  0.97222279  1
  C  C130  1  0.14731446  0.84079431  0.97724446  1
  C  C131  1  0.65670924  0.85536299  0.97095996  1
  C  C132  1  0.27494713  0.85469636  0.46980712  1
  C  C133  1  0.77459512  0.85352741  0.46912894  1
  C  C134  1  0.15423287  0.45229910  0.46909798  1
  C  C135  1  0.64850556  0.45695969  0.47579603  1
  C  C136  1  0.08872583  0.70832590  0.46924817  1
  C  C137  1  0.57235798  0.69511716  0.46771944  1
  C  C138  1  0.06145760  0.63553122  0.35444286  1
  C  C139  1  0.56153415  0.65177966  0.36213554  1
  C  C140  1  0.25919154  0.87625357  0.36543574  1
  C  C141  1  0.75906310  0.87764071  0.36427919  1
  C  C142  1  0.17915056  0.48020730  0.36431749  1
  C  C143  1  0.67860970  0.48633461  0.36095788  1
  C  C144  1  0.06261824  0.47292374  0.86332263  1
  C  C145  1  0.56063763  0.48747601  0.85734990  1
  C  C146  1  0.17735823  0.86797799  0.86216702  1
  C  C147  1  0.67834618  0.87382903  0.86580967  1
  C  C148  1  0.25836603  0.64003203  0.86552759  1
  C  C149  1  0.76014804  0.64195583  0.86662204  1
  C  C150  1  0.01393843  0.83769508  0.40979954  1
  C  C151  1  0.50908101  0.82411881  0.41161730  1
  C  C152  1  0.40010238  0.97372472  0.41239235  1
  C  C153  1  0.89980418  0.97767466  0.41007266  1
  C  C154  1  0.08945724  0.19811289  0.40993325  1
  C  C155  1  0.57735814  0.17191887  0.41325338  1
  C  C156  1  0.00918077  0.19462462  0.91232695  1
  C  C157  1  0.51109323  0.18606991  0.91374422  1
  C  C158  1  0.07676586  0.98248127  0.91377932  1
  C  C159  1  0.58808679  0.97354488  0.91354188  1
  C  C160  1  0.39947022  0.82020468  0.91089098  1
  C  C161  1  0.90128249  0.82689236  0.91329619  1
  C  C162  1  0.48874199  0.17715542  0.58677995  1
  C  C163  1  0.98649943  0.17193308  0.58639977  1
  C  C164  1  0.08603279  0.02985645  0.58614722  1
  C  C165  1  0.59294907  0.01792651  0.58484257  1
  C  C166  1  0.41631865  0.83192004  0.59042570  1
  C  C167  1  0.90964271  0.80678216  0.58526706  1
  C  C168  1  0.48623961  0.80179994  0.08810929  1
  C  C169  1  0.99193908  0.80413497  0.09078593  1
  C  C170  1  0.40870554  0.01330987  0.08606338  1
  C  C171  1  0.91508356  0.00213255  0.08772794  1
  C  C172  1  0.09399153  0.16351286  0.08720307  1
  C  C173  1  0.58601680  0.14355294  0.08623055  1
  C  C174  1  0.35038267  0.16172001  0.74420216  1
  C  C175  1  0.85328733  0.17279066  0.74620299  1
  C  C176  1  0.23478611  0.31014368  0.74581734  1
  C  C177  1  0.73728715  0.30903327  0.74565804  1
  C  C178  1  0.42218038  0.52526187  0.74552434  1
  C  C179  1  0.91792720  0.51163696  0.74145195  1
  C  C180  1  0.34840557  0.52783079  0.24619364  1
  C  C181  1  0.85215473  0.54193356  0.24448209  1
  C  C182  1  0.41367328  0.31831474  0.24267998  1
  C  C183  1  0.92303396  0.31457260  0.24573000  1
  C  C184  1  0.22777615  0.15028816  0.24343067  1
  C  C185  1  0.73485408  0.16021460  0.24592855  1
  C  C186  1  0.32139100  0.50989286  0.92194612  1
  C  C187  1  0.82291698  0.51190412  0.92333134  1
  C  C188  1  0.42498857  0.36621710  0.92637571  1
  C  C189  1  0.93439698  0.36047143  0.92149207  1
  C  C190  1  0.25006842  0.15021654  0.92104067  1
  C  C191  1  0.74313233  0.13539248  0.92143093  1
  C  C192  1  0.32202807  0.13299126  0.42169192  1
  C  C193  1  0.82333267  0.13410946  0.42112022  1
  C  C194  1  0.24363204  0.34988010  0.42034757  1
  C  C195  1  0.75162209  0.35223578  0.42099678  1
  C  C196  1  0.43330905  0.50808929  0.42021182  1
  C  C197  1  0.92597001  0.48647820  0.42530699  1
  C  C198  1  0.17616775  0.51265569  0.07462955  1
  C  C199  1  0.67059613  0.49816150  0.08084775  1
  C  C200  1  0.06962228  0.64683249  0.08093832  1
  C  C201  1  0.56565116  0.64927529  0.07711253  1
  C  C202  1  0.25253936  0.86432337  0.07783544  1
  C  C203  1  0.74119996  0.84567521  0.07608900  1
  C  C204  1  0.17005997  0.84506614  0.58122160  1
  C  C205  1  0.67731856  0.83931348  0.57398352  1
  C  C206  1  0.24246589  0.63934825  0.57560344  1
  C  C207  1  0.75340406  0.64099294  0.57672142  1
  C  C208  1  0.06611400  0.48319500  0.57570721  1
  C  C209  1  0.56893769  0.49177723  0.57979916  1
  C  C210  1  0.14772669  0.83814303  0.25454245  1
  C  C211  1  0.65709433  0.84747410  0.25825078  1
  C  C212  1  0.26068567  0.69925596  0.25736750  1
  C  C213  1  0.77199825  0.69754992  0.25367360  1
  C  C214  1  0.07774067  0.46644082  0.25451753  1
  C  C215  1  0.58225719  0.49585774  0.25535825  1
  C  C216  1  0.15693307  0.46656154  0.75831810  1
  C  C217  1  0.64645730  0.47521337  0.75319719  1
  C  C218  1  0.08545605  0.67273575  0.75507426  1
  C  C219  1  0.57648302  0.69082707  0.75510605  1
  C  C220  1  0.26879792  0.84606578  0.75404491  1
  C  C221  1  0.76249177  0.82753420  0.75779368  1
