# generated using pymatgen
data_Cu3NiC12
_symmetry_space_group_name_H-M   'P 1'
_cell_length_a   8.41049924
_cell_length_b   6.09842513
_cell_length_c   6.36962775
_cell_angle_alpha   58.51767587
_cell_angle_beta   112.25141426
_cell_angle_gamma   88.35866050
_symmetry_Int_Tables_number   1
_chemical_formula_structural   Cu3NiC12
_chemical_formula_sum   'Cu3 Ni1 C12'
_cell_volume   247.02939902
_cell_formula_units_Z   1
loop_
 _symmetry_equiv_pos_site_id
 _symmetry_equiv_pos_as_xyz
  1  'x, y, z'
loop_
 _atom_site_type_symbol
 _atom_site_label
 _atom_site_symmetry_multiplicity
 _atom_site_fract_x
 _atom_site_fract_y
 _atom_site_fract_z
 _atom_site_occupancy
  C  C0  1  0.26188259  0.37130621  0.94528819  1
  C  C1  1  0.11921130  0.01395722  0.30619273  1
  C  C2  1  0.11921130  0.01395722  0.79906135  1
  C  C3  1  0.71431657  0.16027586  0.77702036  1
  Ni  Ni4  1  0.88559602  0.66227201  0.61166201  1
  Cu  Cu5  1  0.53642449  0.73668401  0.67148515  1
  Cu  Cu6  1  0.53642449  0.73668401  0.12825534  1
  Cu  Cu7  1  0.64273327  0.21667390  0.21302968  1
  C  C8  1  0.42229145  0.86366619  0.27931263  1
  C  C9  1  0.38726903  0.91159692  0.73783606  1
  C  C10  1  0.72523041  0.90192060  0.20637389  1
  C  C11  1  0.72523041  0.90192060  0.61693592  1
  C  C12  1  0.48876925  0.39754301  0.27082090  1
  C  C13  1  0.48876925  0.39754301  0.82040434  1
  C  C14  1  0.98864297  0.28854127  0.85005085  1
  C  C15  1  0.72883021  0.50878898  0.11002062  1
