# generated using pymatgen
data_Cu2NiC12
_symmetry_space_group_name_H-M   'P 1'
_cell_length_a   3.94259718
_cell_length_b   3.94366342
_cell_length_c   16.86309670
_cell_angle_alpha   94.92155303
_cell_angle_beta   85.13503402
_cell_angle_gamma   90.09094893
_symmetry_Int_Tables_number   1
_chemical_formula_structural   Cu2NiC12
_chemical_formula_sum   'Cu2 Ni1 C12'
_cell_volume   260.28002898
_cell_formula_units_Z   1
loop_
 _symmetry_equiv_pos_site_id
 _symmetry_equiv_pos_as_xyz
  1  'x, y, z'
loop_
 _atom_site_type_symbol
 _atom_site_label
 _atom_site_symmetry_multiplicity
 _atom_site_fract_x
 _atom_site_fract_y
 _atom_site_fract_z
 _atom_site_occupancy
  C  C0  1  0.49657800  0.00014900  0.04367200  1
  C  C1  1  0.21343500  0.28802000  0.81815500  1
  C  C2  1  0.84550400  0.65527700  0.44158300  1
  C  C3  1  0.28805600  0.21183900  0.60602100  1
  Ni  Ni4  1  0.91842800  0.58095800  0.24513300  1
  Cu  Cu5  1  0.38868600  0.11121200  0.32546200  1
  Cu  Cu6  1  0.75386400  0.74670900  0.70051600  1
  C  C7  1  0.97392000  0.52310700  0.10176200  1
  C  C8  1  0.69347000  0.80806400  0.88236100  1
  C  C9  1  0.89857500  0.10087900  0.29670600  1
  C  C10  1  0.39873500  0.60112000  0.29674200  1
  C  C11  1  0.25122300  0.75000800  0.70957500  1
  C  C12  1  0.75118200  0.25026500  0.70945800  1
  C  C13  1  0.34731500  0.15270700  0.43913100  1
  C  C14  1  0.79769500  0.70302400  0.57816800  1
