# generated using pymatgen
data_Cu2NiC16
_symmetry_space_group_name_H-M   'P 1'
_cell_length_a   9.31824027
_cell_length_b   5.87745742
_cell_length_c   5.82464288
_cell_angle_alpha   68.86336898
_cell_angle_beta   111.00796229
_cell_angle_gamma   94.98096245
_symmetry_Int_Tables_number   1
_chemical_formula_structural   Cu2NiC16
_chemical_formula_sum   'Cu2 Ni1 C16'
_cell_volume   277.43252790
_cell_formula_units_Z   1
loop_
 _symmetry_equiv_pos_site_id
 _symmetry_equiv_pos_as_xyz
  1  'x, y, z'
loop_
 _atom_site_type_symbol
 _atom_site_label
 _atom_site_symmetry_multiplicity
 _atom_site_fract_x
 _atom_site_fract_y
 _atom_site_fract_z
 _atom_site_occupancy
  C  C0  1  0.20940561  0.08831272  0.65372913  1
  C  C1  1  0.15546553  0.52595970  0.21276422  1
  C  C2  1  0.45291925  0.49397438  0.79454917  1
  C  C3  1  0.33560224  0.02652751  0.25638250  1
  C  C4  1  0.57263259  0.00122974  0.75224228  1
  C  C5  1  0.77445323  0.55204829  0.93783328  1
  C  C6  1  0.75047465  0.03349527  0.35100335  1
  C  C7  1  0.83113723  0.47068620  0.57224214  1
  Ni  Ni8  1  0.12867699  0.64122076  0.71401564  1
  Cu  Cu9  1  0.48973133  0.55477609  0.29324316  1
  Cu  Cu10  1  0.98896817  0.01019041  0.98680935  1
  C  C11  1  0.10050790  0.28755761  0.82446391  1
  C  C12  1  0.11650925  0.83106379  0.35203286  1
  C  C13  1  0.32864741  0.71712250  0.94875369  1
  C  C14  1  0.38245451  0.30307562  0.48610606  1
  C  C15  1  0.57235594  0.75707507  0.50537153  1
  C  C16  1  0.64461067  0.43506317  0.21432340  1
  C  C17  1  0.96860786  0.77867967  0.79663247  1
  C  C18  1  0.80197464  0.14417151  0.94912887  1
