# generated using pymatgen
data_Cu12NiC24
_symmetry_space_group_name_H-M   'P 1'
_cell_length_a   4.81750352
_cell_length_b   5.73364844
_cell_length_c   15.31489943
_cell_angle_alpha   91.18520959
_cell_angle_beta   90.00540690
_cell_angle_gamma   89.88930892
_symmetry_Int_Tables_number   1
_chemical_formula_structural   Cu12NiC24
_chemical_formula_sum   'Cu12 Ni1 C24'
_cell_volume   422.93489128
_cell_formula_units_Z   1
loop_
 _symmetry_equiv_pos_site_id
 _symmetry_equiv_pos_as_xyz
  1  'x, y, z'
loop_
 _atom_site_type_symbol
 _atom_site_label
 _atom_site_symmetry_multiplicity
 _atom_site_fract_x
 _atom_site_fract_y
 _atom_site_fract_z
 _atom_site_occupancy
  Ni  Ni0  1  0.97266900  0.40689300  0.25529600  1
  Cu  Cu1  1  0.98351600  0.13944000  0.42297400  1
  Cu  Cu2  1  0.00188100  0.87454500  0.23751800  1
  Cu  Cu3  1  0.03414000  0.16865700  0.07079700  1
  Cu  Cu4  1  0.03922400  0.17075300  0.74301600  1
  Cu  Cu5  1  0.01552400  0.81757300  0.58447500  1
  Cu  Cu6  1  0.04727400  0.85271700  0.90640900  1
  Cu  Cu7  1  0.49978500  0.35256500  0.59399200  1
  Cu  Cu8  1  0.51251400  0.33346100  0.91880200  1
  Cu  Cu9  1  0.47323700  0.33239400  0.25413400  1
  Cu  Cu10  1  0.50882300  0.64527000  0.09024300  1
  Cu  Cu11  1  0.50191200  0.65192700  0.42729500  1
  Cu  Cu12  1  0.48887300  0.63577000  0.75185000  1
  C  C13  1  0.18824200  0.13313800  0.30262900  1
  C  C14  1  0.22680400  0.11507700  0.63673200  1
  C  C15  1  0.24477100  0.10872300  0.96342300  1
  C  C16  1  0.22776400  0.89907300  0.13406400  1
  C  C17  1  0.20504700  0.86334200  0.47531900  1
  C  C18  1  0.25183600  0.88303300  0.79982200  1
  C  C19  1  0.24562200  0.39141700  0.15468800  1
  C  C20  1  0.28259500  0.59657300  0.64651000  1
  C  C21  1  0.29358100  0.39684700  0.81289200  1
  C  C22  1  0.72983600  0.38161200  0.02716800  1
  C  C23  1  0.72343000  0.63040100  0.19876600  1
  C  C24  1  0.70793100  0.37887500  0.35718000  1
  C  C25  1  0.72275300  0.59512400  0.53210700  1
  C  C26  1  0.72166000  0.38469400  0.69475700  1
  C  C27  1  0.23249600  0.62553700  0.31602700  1
  C  C28  1  0.26701900  0.36698000  0.48478300  1
  C  C29  1  0.28542000  0.61498900  0.98084400  1
  C  C30  1  0.74702900  0.62769600  0.85958000  1
  C  C31  1  0.76515000  0.14656500  0.18372700  1
  C  C32  1  0.73289600  0.10651900  0.53290600  1
  C  C33  1  0.75061600  0.88277200  0.34816800  1
  C  C34  1  0.79343600  0.88132000  0.01263200  1
  C  C35  1  0.80051500  0.13406400  0.84903000  1
  C  C36  1  0.77417600  0.86652000  0.69361000  1
