# generated using pymatgen
data_Cu(NiC11)3
_symmetry_space_group_name_H-M   'P 1'
_cell_length_a   9.22353964
_cell_length_b   8.51218503
_cell_length_c   8.55627095
_cell_angle_alpha   59.58656645
_cell_angle_beta   62.99052934
_cell_angle_gamma   63.50322783
_symmetry_Int_Tables_number   1
_chemical_formula_structural   Cu(NiC11)3
_chemical_formula_sum   'Cu1 Ni3 C33'
_cell_volume   495.28285131
_cell_formula_units_Z   1
loop_
 _symmetry_equiv_pos_site_id
 _symmetry_equiv_pos_as_xyz
  1  'x, y, z'
loop_
 _atom_site_type_symbol
 _atom_site_label
 _atom_site_symmetry_multiplicity
 _atom_site_fract_x
 _atom_site_fract_y
 _atom_site_fract_z
 _atom_site_occupancy
  C  C0  1  0.32776000  0.84454700  0.61444900  1
  Ni  Ni1  1  0.05398900  0.64350600  0.64736500  1
  Ni  Ni2  1  0.45450400  0.85523500  0.85865600  1
  Ni  Ni3  1  0.95745800  0.36089400  0.33403100  1
  Cu  Cu4  1  0.52583300  0.16663600  0.16734100  1
  C  C5  1  0.92706800  0.01299500  0.02723100  1
  C  C6  1  0.55436600  0.42746600  0.48051800  1
  C  C7  1  0.25322400  0.26167100  0.53351300  1
  C  C8  1  0.24138500  0.96607500  0.25835900  1
  C  C9  1  0.24956700  0.53972600  0.95891300  1
  C  C10  1  0.75939100  0.46068100  0.03004700  1
  C  C11  1  0.76179500  0.03026800  0.74392600  1
  C  C12  1  0.73967100  0.74269600  0.46744800  1
  C  C13  1  0.08650400  0.13882500  0.25338200  1
  C  C14  1  0.07294300  0.54257400  0.10674100  1
  C  C15  1  0.10259700  0.28925200  0.48237700  1
  C  C16  1  0.28589600  0.05507800  0.68779700  1
  C  C17  1  0.41872800  0.28344700  0.36682100  1
  C  C18  1  0.20932800  0.40403000  0.62079800  1
  C  C19  1  0.32186700  0.94546400  0.06805500  1
  C  C20  1  0.18308800  0.78139700  0.41318400  1
  C  C21  1  0.60797900  0.63371600  0.00846600  1
  C  C22  1  0.22838300  0.62030300  0.75360400  1
  C  C23  1  0.73819400  0.29480100  0.01989500  1
  C  C24  1  0.60531100  0.01932500  0.73069600  1
  C  C25  1  0.37028500  0.96550800  0.33090400  1
  C  C26  1  0.30388400  0.70141700  0.93374900  1
  C  C27  1  0.77586600  0.39241200  0.23101800  1
  C  C28  1  0.38290700  0.34881500  0.99240600  1
  C  C29  1  0.78493800  0.22712100  0.58370100  1
  C  C30  1  0.72676500  0.03045300  0.93979700  1
  C  C31  1  0.75869900  0.59009300  0.40585400  1
  C  C32  1  0.56820800  0.76347600  0.62643700  1
  C  C33  1  0.72696700  0.94005000  0.29583500  1
  C  C34  1  0.89213400  0.68859900  0.52978000  1
  C  C35  1  0.93011300  0.49948300  0.88481900  1
  C  C36  1  0.92669300  0.87571900  0.70583900  1
