# generated using pymatgen
data_Cu2NiC10
_symmetry_space_group_name_H-M   'P 1'
_cell_length_a   5.23975706
_cell_length_b   5.20576752
_cell_length_c   7.98709908
_cell_angle_alpha   104.90028731
_cell_angle_beta   105.05293597
_cell_angle_gamma   102.09830993
_symmetry_Int_Tables_number   1
_chemical_formula_structural   Cu2NiC10
_chemical_formula_sum   'Cu2 Ni1 C10'
_cell_volume   194.19336397
_cell_formula_units_Z   1
loop_
 _symmetry_equiv_pos_site_id
 _symmetry_equiv_pos_as_xyz
  1  'x, y, z'
loop_
 _atom_site_type_symbol
 _atom_site_label
 _atom_site_symmetry_multiplicity
 _atom_site_fract_x
 _atom_site_fract_y
 _atom_site_fract_z
 _atom_site_occupancy
  C  C0  1  0.15459414  0.90459414  0.30918727  1
  C  C1  1  0.82388515  0.07388515  0.64777130  1
  Ni  Ni2  1  0.48118825  0.23118825  0.96237651  1
  Cu  Cu3  1  0.32137255  0.57137255  0.64274510  1
  Cu  Cu4  1  0.67552662  0.42552662  0.35105325  1
  C  C5  1  0.35424281  0.11486501  0.15363723  1
  C  C6  1  0.58877345  0.93358541  0.81345979  1
  C  C7  1  0.79939442  0.53877222  0.15363723  1
  C  C8  1  0.46982702  0.70428952  0.42115770  1
  C  C9  1  0.51452387  0.28260451  0.55517856  1
  C  C10  1  0.22468634  0.37987439  0.81345979  1
  C  C11  1  0.04065469  0.77257505  0.55517856  1
  C  C12  1  0.95133069  0.21686719  0.42115770  1
