# generated using pymatgen
data_Cu2Ni4C21
_symmetry_space_group_name_H-M   'P 1'
_cell_length_a   7.36308877
_cell_length_b   7.36308877
_cell_length_c   7.36308877
_cell_angle_alpha   60.00000000
_cell_angle_beta   60.00000000
_cell_angle_gamma   60.00000000
_symmetry_Int_Tables_number   1
_chemical_formula_structural   Cu2Ni4C21
_chemical_formula_sum   'Cu2 Ni4 C21'
_cell_volume   282.27025229
_cell_formula_units_Z   1
loop_
 _symmetry_equiv_pos_site_id
 _symmetry_equiv_pos_as_xyz
  1  'x, y, z'
loop_
 _atom_site_type_symbol
 _atom_site_label
 _atom_site_symmetry_multiplicity
 _atom_site_fract_x
 _atom_site_fract_y
 _atom_site_fract_z
 _atom_site_occupancy
  C  C0  1  0.00000000  0.00000000  0.00000000  1
  C  C1  1  0.40076200  0.79127400  0.79127400  1
  C  C2  1  0.01669000  0.79127400  0.40076200  1
  C  C3  1  0.01669000  0.40076200  0.79127400  1
  C  C4  1  0.79127400  0.79127400  0.01669000  1
  C  C5  1  0.79127400  0.01669000  0.79127400  1
  C  C6  1  0.79127400  0.40076200  0.01669000  1
  C  C7  1  0.79127400  0.01669000  0.40076200  1
  C  C8  1  0.40076200  0.01669000  0.79127400  1
  C  C9  1  0.79127400  0.79127400  0.40076200  1
  C  C10  1  0.79127400  0.40076200  0.79127400  1
  C  C11  1  0.40076200  0.79127400  0.01669000  1
  C  C12  1  0.01669000  0.79127400  0.79127400  1
  Ni  Ni13  1  0.34070100  0.88643300  0.88643300  1
  Ni  Ni14  1  0.88643300  0.34070100  0.88643300  1
  Ni  Ni15  1  0.88643300  0.88643300  0.34070100  1
  Ni  Ni16  1  0.88643300  0.88643300  0.88643300  1
  Cu  Cu17  1  0.25000000  0.25000000  0.25000000  1
  Cu  Cu18  1  0.50000000  0.50000000  0.50000000  1
  C  C19  1  0.16888300  0.16888300  0.49335100  1
  C  C20  1  0.16888300  0.49335100  0.16888300  1
  C  C21  1  0.49335100  0.16888300  0.16888300  1
  C  C22  1  0.16888300  0.16888300  0.16888300  1
  C  C23  1  0.58117600  0.58117600  0.58117600  1
  C  C24  1  0.58117600  0.58117600  0.25647200  1
  C  C25  1  0.58117600  0.25647200  0.58117600  1
  C  C26  1  0.25647200  0.58117600  0.58117600  1
