# generated using pymatgen
data_Cu2Ni2C9
_symmetry_space_group_name_H-M   'P 1'
_cell_length_a   6.33687361
_cell_length_b   6.33687388
_cell_length_c   6.59501332
_cell_angle_alpha   58.66775727
_cell_angle_beta   58.66776098
_cell_angle_gamma   90.10935821
_symmetry_Int_Tables_number   1
_chemical_formula_structural   Cu2Ni2C9
_chemical_formula_sum   'Cu2 Ni2 C9'
_cell_volume   179.25715367
_cell_formula_units_Z   1
loop_
 _symmetry_equiv_pos_site_id
 _symmetry_equiv_pos_as_xyz
  1  'x, y, z'
loop_
 _atom_site_type_symbol
 _atom_site_label
 _atom_site_symmetry_multiplicity
 _atom_site_fract_x
 _atom_site_fract_y
 _atom_site_fract_z
 _atom_site_occupancy
  C  C0  1  0.35263000  0.64737000  0.75000000  1
  Ni  Ni1  1  0.99365600  0.49451400  0.50599800  1
  Ni  Ni2  1  0.50548600  0.00634500  0.99400200  1
  Cu  Cu3  1  0.99475500  0.00535800  0.50627900  1
  Cu  Cu4  1  0.99464200  0.00524500  0.99372100  1
  C  C5  1  0.74531700  0.77095200  0.99163900  1
  C  C6  1  0.23348600  0.76671000  0.47567100  1
  C  C7  1  0.76097500  0.23911300  0.95975800  1
  C  C8  1  0.75851200  0.76060300  0.49031100  1
  C  C9  1  0.22904800  0.25468300  0.50836100  1
  C  C10  1  0.23329000  0.76651400  0.02432900  1
  C  C11  1  0.76088700  0.23902500  0.54024200  1
  C  C12  1  0.23939700  0.24148800  0.00968900  1
