# generated using pymatgen
data_CuNi2C17
_symmetry_space_group_name_H-M   'P 1'
_cell_length_a   9.52512062
_cell_length_b   9.50057308
_cell_length_c   23.94861284
_cell_angle_alpha   88.86057036
_cell_angle_beta   90.00000000
_cell_angle_gamma   120.08550813
_symmetry_Int_Tables_number   1
_chemical_formula_structural   CuNi2C17
_chemical_formula_sum   'Cu6 Ni12 C102'
_cell_volume   1874.74288972
_cell_formula_units_Z   6
loop_
 _symmetry_equiv_pos_site_id
 _symmetry_equiv_pos_as_xyz
  1  'x, y, z'
loop_
 _atom_site_type_symbol
 _atom_site_label
 _atom_site_symmetry_multiplicity
 _atom_site_fract_x
 _atom_site_fract_y
 _atom_site_fract_z
 _atom_site_occupancy
  C  C0  1  0.35314742  0.34510077  0.24459050  1
  C  C1  1  0.00379609  0.63175300  0.24132871  1
  C  C2  1  0.62795691  0.63175300  0.74132871  1
  C  C3  1  0.99195335  0.34510077  0.74459050  1
  C  C4  1  0.01981442  0.67843377  0.57792350  1
  C  C5  1  0.67046309  0.96508600  0.57466171  1
  C  C6  1  0.29462391  0.96508600  0.07466171  1
  C  C7  1  0.65862035  0.67843377  0.07792350  1
  C  C8  1  0.68648042  0.01176777  0.91125750  1
  C  C9  1  0.33712909  0.29842000  0.90799571  1
  C  C10  1  0.96128991  0.29842000  0.40799571  1
  C  C11  1  0.32528635  0.01176777  0.41125750  1
  C  C12  1  0.96441910  0.97290817  0.49037489  1
  C  C13  1  0.00848906  0.97290817  0.99037489  1
  C  C14  1  0.63108610  0.30624117  0.82370789  1
  C  C15  1  0.67515606  0.30624117  0.32370789  1
  C  C16  1  0.29775210  0.63957517  0.15704189  1
  C  C17  1  0.34182206  0.63957517  0.65704189  1
  C  C18  1  0.98421063  0.99055863  0.34788679  1
  C  C19  1  0.00634800  0.99055863  0.84788679  1
  C  C20  1  0.65087763  0.32389163  0.68121979  1
  C  C21  1  0.67301500  0.32389163  0.18121979  1
  C  C22  1  0.31754363  0.65722563  0.01455379  1
  C  C23  1  0.33968100  0.65722563  0.51455379  1
  C  C24  1  0.01770253  0.02112611  0.65246018  1
  C  C25  1  0.00342357  0.02112611  0.15246018  1
  C  C26  1  0.68436953  0.35445911  0.98579318  1
  C  C27  1  0.67009057  0.35445911  0.48579318  1
  C  C28  1  0.35103553  0.68779311  0.31912718  1
  C  C29  1  0.33675657  0.68779311  0.81912718  1
  Ni  Ni30  1  0.30258581  0.00871027  0.25202825  1
  Ni  Ni31  1  0.00395895  0.31706246  0.25703960  1
  Ni  Ni32  1  0.31310351  0.31706246  0.75703960  1
  Ni  Ni33  1  0.70612447  0.00871027  0.75202825  1
  Ni  Ni34  1  0.96925281  0.34204327  0.58536125  1
  Ni  Ni35  1  0.67062595  0.65039546  0.59037260  1
  Ni  Ni36  1  0.97977051  0.65039546  0.09037260  1
  Ni  Ni37  1  0.37279147  0.34204327  0.08536125  1
  Ni  Ni38  1  0.63591881  0.67537727  0.91869525  1
  Ni  Ni39  1  0.33729195  0.98372946  0.92370660  1
  Ni  Ni40  1  0.64643651  0.98372946  0.42370660  1
  Ni  Ni41  1  0.03945747  0.67537727  0.41869525  1
  Cu  Cu42  1  0.69490335  0.68223248  0.24752994  1
  Cu  Cu43  1  0.98732914  0.68223248  0.74752994  1
  Cu  Cu44  1  0.36157035  0.01556548  0.58086294  1
  Cu  Cu45  1  0.65399614  0.01556548  0.08086294  1
  Cu  Cu46  1  0.02823635  0.34889948  0.91419694  1
  Cu  Cu47  1  0.32066214  0.34889948  0.41419694  1
  C  C48  1  0.21171336  0.01599572  0.30442007  1
  C  C49  1  0.79361633  0.77883552  0.29477606  1
  C  C50  1  0.99196360  0.22470964  0.31196716  1
  C  C51  1  0.23274604  0.22470964  0.81196716  1
  C  C52  1  0.98521919  0.77883552  0.79477606  1
  C  C53  1  0.80428236  0.01599572  0.80442007  1
  C  C54  1  0.79450341  0.99407545  0.69912937  1
  C  C55  1  0.20793998  0.22074377  0.70643542  1
  C  C56  1  0.00926793  0.77347860  0.69402523  1
  C  C57  1  0.76421067  0.77347860  0.19402523  1
  C  C58  1  0.01280379  0.22074377  0.20643542  1
  C  C59  1  0.19957204  0.99407545  0.19912937  1
  C  C60  1  0.87838036  0.34932872  0.63775307  1
  C  C61  1  0.46028333  0.11216852  0.62810906  1
  C  C62  1  0.65863060  0.55804264  0.64530016  1
  C  C63  1  0.89941304  0.55804264  0.14530016  1
  C  C64  1  0.65188619  0.11216852  0.12810906  1
  C  C65  1  0.47094936  0.34932872  0.13775307  1
  C  C66  1  0.46117041  0.32740845  0.03246237  1
  C  C67  1  0.87460698  0.55407677  0.03976842  1
  C  C68  1  0.67593493  0.10681160  0.02735823  1
  C  C69  1  0.43087767  0.10681160  0.52735823  1
  C  C70  1  0.67947079  0.55407677  0.53976842  1
  C  C71  1  0.86623904  0.32740845  0.53246237  1
  C  C72  1  0.54504636  0.68266272  0.97108707  1
  C  C73  1  0.12694933  0.44550252  0.96144306  1
  C  C74  1  0.32529660  0.89137664  0.97863416  1
  C  C75  1  0.56607904  0.89137664  0.47863416  1
  C  C76  1  0.31855219  0.44550252  0.46144306  1
  C  C77  1  0.13761536  0.68266272  0.47108707  1
  C  C78  1  0.12783641  0.66074245  0.36579637  1
  C  C79  1  0.54127298  0.88741077  0.37310242  1
  C  C80  1  0.34260093  0.44014560  0.36069223  1
  C  C81  1  0.09754367  0.44014560  0.86069223  1
  C  C82  1  0.34613679  0.88741077  0.87310242  1
  C  C83  1  0.53290504  0.66074245  0.86579637  1
  C  C84  1  0.02945278  0.83303088  0.41504170  1
  C  C85  1  0.82181767  0.01488786  0.41877661  1
  C  C86  1  0.16619927  0.19019883  0.41483407  1
  C  C87  1  0.02399956  0.19019883  0.91483407  1
  C  C88  1  0.19307019  0.01488786  0.91877661  1
  C  C89  1  0.80357811  0.83303088  0.91504170  1
  C  C90  1  0.98301079  0.18485682  0.58586663  1
  C  C91  1  0.19004985  0.98023959  0.58517552  1
  C  C92  1  0.83342699  0.81949542  0.58631332  1
  C  C93  1  0.98606843  0.81949542  0.08631332  1
  C  C94  1  0.79018975  0.98023959  0.08517552  1
  C  C95  1  0.20184603  0.18485682  0.08586663  1
  C  C96  1  0.69611978  0.16636388  0.74837470  1
  C  C97  1  0.48848467  0.34822086  0.75210961  1
  C  C98  1  0.83286627  0.52353183  0.74816707  1
  C  C99  1  0.69066656  0.52353183  0.24816707  1
  C  C100  1  0.85973719  0.34822086  0.25210961  1
  C  C101  1  0.47024511  0.16636388  0.24837470  1
  C  C102  1  0.64967779  0.51818982  0.91919963  1
  C  C103  1  0.85671685  0.31357259  0.91850852  1
  C  C104  1  0.50009399  0.15282842  0.91964632  1
  C  C105  1  0.65273543  0.15282842  0.41964632  1
  C  C106  1  0.45685675  0.31357259  0.41850852  1
  C  C107  1  0.86851303  0.51818982  0.41919963  1
  C  C108  1  0.36278578  0.49969788  0.08170870  1
  C  C109  1  0.15515067  0.68155486  0.08544361  1
  C  C110  1  0.49953227  0.85686583  0.08150107  1
  C  C111  1  0.35733256  0.85686583  0.58150107  1
  C  C112  1  0.52640319  0.68155486  0.58544361  1
  C  C113  1  0.13691111  0.49969788  0.58170870  1
  C  C114  1  0.31634379  0.85152382  0.25253363  1
  C  C115  1  0.52338285  0.64690659  0.25184252  1
  C  C116  1  0.16675999  0.48616242  0.25298032  1
  C  C117  1  0.31940143  0.48616242  0.75298032  1
  C  C118  1  0.12352275  0.64690659  0.75184252  1
  C  C119  1  0.53517903  0.85152382  0.75253363  1
