# generated using pymatgen
data_Cu(NiC9)2
_symmetry_space_group_name_H-M   'P 1'
_cell_length_a   9.00799218
_cell_length_b   9.01010429
_cell_length_c   22.02073636
_cell_angle_alpha   89.92313845
_cell_angle_beta   90.11808828
_cell_angle_gamma   120.09628965
_symmetry_Int_Tables_number   1
_chemical_formula_structural   Cu(NiC9)2
_chemical_formula_sum   'Cu6 Ni12 C108'
_cell_volume   1546.31202345
_cell_formula_units_Z   6
loop_
 _symmetry_equiv_pos_site_id
 _symmetry_equiv_pos_as_xyz
  1  'x, y, z'
loop_
 _atom_site_type_symbol
 _atom_site_label
 _atom_site_symmetry_multiplicity
 _atom_site_fract_x
 _atom_site_fract_y
 _atom_site_fract_z
 _atom_site_occupancy
  C  C0  1  0.63579474  0.01012552  0.24462789  1
  C  C1  1  0.37508874  0.36282932  0.24428448  1
  C  C2  1  0.98877452  0.62679128  0.24434207  1
  C  C3  1  0.62936231  0.61989624  0.74692537  1
  C  C4  1  0.98932106  0.36952833  0.74887075  1
  C  C5  1  0.38095425  0.00879160  0.74579911  1
  C  C6  1  0.30546103  0.33460845  0.58619558  1
  C  C7  1  0.03206693  0.69826243  0.58384597  1
  C  C8  1  0.66334150  0.97068266  0.58660082  1
  C  C9  1  0.30856182  0.96871932  0.08419571  1
  C  C10  1  0.66022171  0.69164025  0.08418092  1
  C  C11  1  0.03135937  0.33945538  0.08412410  1
  C  C12  1  0.96418341  0.66509779  0.91718377  1
  C  C13  1  0.70172735  0.03740108  0.91725047  1
  C  C14  1  0.33400496  0.29780374  0.91687621  1
  C  C15  1  0.96340682  0.28898543  0.41447789  1
  C  C16  1  0.32212951  0.03456708  0.41450718  1
  C  C17  1  0.71189332  0.67532337  0.41279603  1
  C  C18  1  0.00343949  0.00049966  0.49704641  1
  C  C19  1  0.00105072  0.00109679  0.99833545  1
  C  C20  1  0.66869261  0.33333045  0.83061961  1
  C  C21  1  0.66749122  0.33401497  0.32953440  1
  C  C22  1  0.33439539  0.66766065  0.16360331  1
  C  C23  1  0.33673620  0.67007450  0.66807903  1
  C  C24  1  0.99266815  0.99518424  0.85347851  1
  C  C25  1  0.99659427  0.98863413  0.64811957  1
  C  C26  1  0.99978490  0.99897977  0.14376663  1
  C  C27  1  0.66704653  0.33353273  0.98219509  1
  C  C28  1  0.66154539  0.34143996  0.48206882  1
  C  C29  1  0.33310770  0.66626083  0.01805447  1
  C  C30  1  0.33142049  0.66716649  0.51890684  1
  C  C31  1  0.32771080  0.65917321  0.31596939  1
  C  C32  1  0.33474847  0.67262995  0.81551895  1
  C  C33  1  0.00521500  0.00028505  0.35096634  1
  C  C34  1  0.66587425  0.33151300  0.68342742  1
  C  C35  1  0.66646188  0.33307334  0.17601561  1
  Ni  Ni36  1  0.00201086  0.70847428  0.75150551  1
  Ni  Ni37  1  0.70815144  0.99744847  0.75025027  1
  Ni  Ni38  1  0.37480230  0.04068998  0.58452186  1
  Ni  Ni39  1  0.66409168  0.62660692  0.58529041  1
  Ni  Ni40  1  0.96087193  0.62494701  0.08462522  1
  Ni  Ni41  1  0.66453574  0.03933839  0.08460303  1
  Ni  Ni42  1  0.37503865  0.33551222  0.08444611  1
  Ni  Ni43  1  0.62205029  0.66474426  0.91633193  1
  Ni  Ni44  1  0.04296679  0.37692811  0.91598001  1
  Ni  Ni45  1  0.33416609  0.95918967  0.91695185  1
  Ni  Ni46  1  0.33436053  0.37673839  0.41772107  1
  Ni  Ni47  1  0.03891950  0.66206027  0.41738162  1
  Cu  Cu48  1  0.29263554  0.99831079  0.25147284  1
  Cu  Cu49  1  0.70726614  0.71017129  0.25187851  1
  Cu  Cu50  1  0.00156966  0.29153413  0.25190162  1
  Cu  Cu51  1  0.28318519  0.28734625  0.75095751  1
  Cu  Cu52  1  0.95924510  0.33478898  0.58301644  1
  Cu  Cu53  1  0.61811472  0.95595552  0.41687659  1
  C  C54  1  0.21414559  0.02505663  0.30899388  1
  C  C55  1  0.81291383  0.79087615  0.30936317  1
  C  C56  1  0.97611096  0.18617949  0.30939081  1
  C  C57  1  0.19244083  0.17539513  0.80764415  1
  C  C58  1  0.98067634  0.81146763  0.80946255  1
  C  C59  1  0.83128158  0.02105598  0.80949572  1
  C  C60  1  0.80705182  0.97091919  0.69066044  1
  C  C61  1  0.17174799  0.19983857  0.69293353  1
  C  C62  1  0.03251340  0.83374885  0.69088043  1
  C  C63  1  0.79882633  0.82613475  0.19474897  1
  C  C64  1  0.02908067  0.20364206  0.19486982  1
  C  C65  1  0.17500338  0.97165527  0.19467532  1
  C  C66  1  0.89152173  0.37439605  0.63995723  1
  C  C67  1  0.49284895  0.11011566  0.64385576  1
  C  C68  1  0.62029921  0.50821885  0.64400268  1
  C  C69  1  0.89147070  0.51209429  0.14513024  1
  C  C70  1  0.62094819  0.10866300  0.14495252  1
  C  C71  1  0.48843521  0.37977766  0.14492760  1
  C  C72  1  0.46534242  0.29712642  0.02547867  1
  C  C73  1  0.83216122  0.53484071  0.02549274  1
  C  C74  1  0.70305215  0.16833396  0.02558158  1
  C  C75  1  0.47329639  0.16945755  0.52492575  1
  C  C76  1  0.70012756  0.53355978  0.52522939  1
  C  C77  1  0.84194282  0.30530413  0.52638322  1
  C  C78  1  0.53322552  0.69968207  0.97502648  1
  C  C79  1  0.16665775  0.46801960  0.97491674  1
  C  C80  1  0.30020869  0.83378226  0.97512575  1
  C  C81  1  0.52954525  0.84292006  0.47337254  1
  C  C82  1  0.31388503  0.47843468  0.47551916  1
  C  C83  1  0.16443815  0.68898197  0.47530917  1
  C  C84  1  0.13943538  0.63515679  0.35792388  1
  C  C85  1  0.50326577  0.86739017  0.35967761  1
  C  C86  1  0.36771537  0.50373236  0.35774817  1
  C  C87  1  0.13566878  0.50200686  0.85671791  1
  C  C88  1  0.36737659  0.86631127  0.85756990  1
  C  C89  1  0.49850773  0.63365853  0.85689634  1
  C  C90  1  0.01838471  0.82924674  0.41497556  1
  C  C91  1  0.79618744  0.97412545  0.41399576  1
  C  C92  1  0.16520994  0.19041693  0.41527857  1
  C  C93  1  0.02510712  0.18700623  0.91119457  1
  C  C94  1  0.16412884  0.97905086  0.91108649  1
  C  C95  1  0.81355165  0.83728918  0.91160184  1
  C  C96  1  0.97789451  0.17185670  0.58673571  1
  C  C97  1  0.18520057  0.02792543  0.58745344  1
  C  C98  1  0.84027050  0.81806276  0.58765023  1
  C  C99  1  0.97701478  0.81734367  0.09070904  1
  C  C100  1  0.84062958  0.02303688  0.09086440  1
  C  C101  1  0.18243831  0.15946852  0.09078495  1
  C  C102  1  0.69139184  0.16661094  0.74951251  1
  C  C103  1  0.46070379  0.30505564  0.74950889  1
  C  C104  1  0.83146513  0.52382364  0.74891250  1
  C  C105  1  0.68312863  0.52916227  0.24753622  1
  C  C106  1  0.84627508  0.31794294  0.24742042  1
  C  C107  1  0.47361093  0.15580146  0.24682297  1
  C  C108  1  0.64087076  0.49394280  0.92196308  1
  C  C109  1  0.85363001  0.35957870  0.92196246  1
  C  C110  1  0.50732951  0.14757103  0.92204739  1
  C  C111  1  0.63262047  0.13459312  0.42124648  1
  C  C112  1  0.51133444  0.36421976  0.42188472  1
  C  C113  1  0.85325482  0.48304322  0.42161379  1
  C  C114  1  0.34660714  0.50004055  0.07485090  1
  C  C115  1  0.15380769  0.65349223  0.07508227  1
  C  C116  1  0.49999367  0.84626839  0.07494880  1
  C  C117  1  0.34601859  0.84610455  0.57429426  1
  C  C118  1  0.49902537  0.65445539  0.57458566  1
  C  C119  1  0.14372212  0.49428630  0.57482860  1
  C  C120  1  0.30483203  0.82928878  0.25440033  1
  C  C121  1  0.52641463  0.69922943  0.25404184  1
  C  C122  1  0.17262986  0.47427826  0.25481488  1
  C  C123  1  0.29643786  0.46632895  0.75379940  1
  C  C124  1  0.17865691  0.69753558  0.75424608  1
  C  C125  1  0.52143252  0.81873840  0.75400261  1
