# generated using pymatgen
data_Cu3Ni3C31
_symmetry_space_group_name_H-M   'P 1'
_cell_length_a   9.10188701
_cell_length_b   9.08693896
_cell_length_c   23.01029470
_cell_angle_alpha   89.69376925
_cell_angle_beta   90.71668862
_cell_angle_gamma   120.20599947
_symmetry_Int_Tables_number   1
_chemical_formula_structural   Cu3Ni3C31
_chemical_formula_sum   'Cu9 Ni9 C93'
_cell_volume   1644.60790825
_cell_formula_units_Z   3
loop_
 _symmetry_equiv_pos_site_id
 _symmetry_equiv_pos_as_xyz
  1  'x, y, z'
loop_
 _atom_site_type_symbol
 _atom_site_label
 _atom_site_symmetry_multiplicity
 _atom_site_fract_x
 _atom_site_fract_y
 _atom_site_fract_z
 _atom_site_occupancy
  C  C0  1  0.97243402  0.34356837  0.74597778  1
  C  C1  1  0.63857020  0.97504199  0.58054107  1
  C  C2  1  0.32627448  0.01944671  0.40549215  1
  C  C3  1  0.98246934  0.00570486  0.49517475  1
  C  C4  1  0.97711067  0.00169264  0.99305469  1
  C  C5  1  0.65625744  0.31151524  0.82991509  1
  C  C6  1  0.66098226  0.32423121  0.32219758  1
  C  C7  1  0.32694669  0.68706603  0.16350473  1
  C  C8  1  0.30463912  0.66869786  0.65617176  1
  C  C9  1  0.99466277  0.00288548  0.35002806  1
  C  C10  1  0.99042927  0.99567278  0.86107021  1
  C  C11  1  0.66212165  0.33013838  0.68695351  1
  C  C12  1  0.66752927  0.32260291  0.18057444  1
  C  C13  1  0.32645525  0.65813085  0.51891773  1
  C  C14  1  0.99030356  0.99939387  0.64499944  1
  C  C15  1  0.00053995  0.99246352  0.14419260  1
  C  C16  1  0.69948501  0.34808024  0.97891942  1
  C  C17  1  0.65859728  0.31332260  0.48389445  1
  C  C18  1  0.33718880  0.66341679  0.02045319  1
  C  C19  1  0.33956254  0.68348861  0.31159676  1
  C  C20  1  0.34578502  0.66567589  0.81536580  1
  Ni  Ni21  1  0.29565840  0.00854670  0.25522861  1
  Ni  Ni22  1  0.70006913  0.99300487  0.75215293  1
  Ni  Ni23  1  0.96467858  0.33310359  0.59033142  1
  Ni  Ni24  1  0.35717138  0.03372039  0.58613522  1
  Ni  Ni25  1  0.97202600  0.63047112  0.08496245  1
  Ni  Ni26  1  0.66707418  0.03836551  0.08361956  1
  Ni  Ni27  1  0.61877156  0.64776032  0.92156257  1
  Ni  Ni28  1  0.05105751  0.38386048  0.91635470  1
  Ni  Ni29  1  0.63441989  0.96689090  0.42219243  1
  Cu  Cu30  1  0.69817108  0.71070671  0.24840780  1
  Cu  Cu31  1  0.01534235  0.30571437  0.24952887  1
  Cu  Cu32  1  0.28209665  0.29502038  0.75127812  1
  Cu  Cu33  1  0.01552667  0.71833562  0.75148842  1
  Cu  Cu34  1  0.68011818  0.63067365  0.58255875  1
  Cu  Cu35  1  0.36540613  0.32974594  0.08254321  1
  Cu  Cu36  1  0.35078628  0.95454961  0.91777796  1
  Cu  Cu37  1  0.35047005  0.38057999  0.41544867  1
  Cu  Cu38  1  0.03206901  0.65095263  0.41395203  1
  C  C39  1  0.21483515  0.00277522  0.31594215  1
  C  C40  1  0.79221152  0.78461674  0.30151435  1
  C  C41  1  0.99318246  0.20834078  0.30210874  1
  C  C42  1  0.21293528  0.19676260  0.80331171  1
  C  C43  1  0.00952135  0.80233637  0.80344373  1
  C  C44  1  0.82873545  0.02310767  0.80297364  1
  C  C45  1  0.79928275  0.96686336  0.69106923  1
  C  C46  1  0.16868575  0.20374062  0.69845481  1
  C  C47  1  0.02776593  0.82222508  0.69756726  1
  C  C48  1  0.78452206  0.82452904  0.19644520  1
  C  C49  1  0.03183218  0.21739322  0.19727340  1
  C  C50  1  0.15908866  0.98374048  0.19884419  1
  C  C51  1  0.89103046  0.35233444  0.64917732  1
  C  C52  1  0.48602600  0.12959486  0.63647860  1
  C  C53  1  0.66034811  0.53918339  0.63560363  1
  C  C54  1  0.90303036  0.52558255  0.14170948  1
  C  C55  1  0.60901788  0.08727554  0.14046048  1
  C  C56  1  0.46276641  0.36832758  0.13567348  1
  C  C57  1  0.44346905  0.30108010  0.03181072  1
  C  C58  1  0.84052948  0.53396490  0.02682243  1
  C  C59  1  0.69509992  0.17164229  0.02745271  1
  C  C60  1  0.46191402  0.16502880  0.52349536  1
  C  C61  1  0.69693872  0.54262648  0.52997309  1
  C  C62  1  0.82242922  0.30421386  0.53218271  1
  C  C63  1  0.50301872  0.65690756  0.97289967  1
  C  C64  1  0.15946312  0.50657302  0.97058779  1
  C  C65  1  0.34027555  0.85610358  0.97034652  1
  C  C66  1  0.54702593  0.87690268  0.48047675  1
  C  C67  1  0.32771474  0.45231193  0.46781527  1
  C  C68  1  0.13283357  0.67504811  0.46581217  1
  C  C69  1  0.12489642  0.63148300  0.36136180  1
  C  C70  1  0.49435933  0.85331331  0.36373526  1
  C  C71  1  0.35908577  0.48303191  0.36264534  1
  C  C72  1  0.13734260  0.49911964  0.85605342  1
  C  C73  1  0.36702306  0.86443002  0.86464179  1
  C  C74  1  0.49819656  0.63438501  0.86128395  1
  C  C75  1  0.01352561  0.80098999  0.40697431  1
  C  C76  1  0.82212148  0.00541264  0.41468914  1
  C  C77  1  0.21217251  0.20217875  0.41037248  1
  C  C78  1  0.03722864  0.20567684  0.92171413  1
  C  C79  1  0.20027135  0.96843610  0.91356730  1
  C  C80  1  0.80292694  0.80562302  0.92248241  1
  C  C81  1  0.94918658  0.13639120  0.59095411  1
  C  C82  1  0.17322797  0.02817032  0.59401647  1
  C  C83  1  0.84743708  0.80236163  0.58610364  1
  C  C84  1  0.98229712  0.82231021  0.09356738  1
  C  C85  1  0.84588007  0.02905899  0.09462906  1
  C  C86  1  0.18979616  0.17244196  0.09025780  1
  C  C87  1  0.67343897  0.15489997  0.75044973  1
  C  C88  1  0.45710592  0.34021395  0.74286428  1
  C  C89  1  0.86614847  0.54643172  0.74737292  1
  C  C90  1  0.66709367  0.54004010  0.23968498  1
  C  C91  1  0.87724331  0.34178743  0.24419302  1
  C  C92  1  0.48375141  0.16022730  0.24863499  1
  C  C93  1  0.61372134  0.46307989  0.92785276  1
  C  C94  1  0.85772382  0.36837942  0.92319994  1
  C  C95  1  0.50748746  0.12336421  0.92057023  1
  C  C96  1  0.62981661  0.15524155  0.42301160  1
  C  C97  1  0.51658871  0.37842730  0.41885324  1
  C  C98  1  0.86220227  0.49376397  0.41729763  1
  C  C99  1  0.32942165  0.47366769  0.07234182  1
  C  C100  1  0.16455711  0.67259800  0.06961561  1
  C  C101  1  0.51795119  0.84388792  0.06530593  1
  C  C102  1  0.33644216  0.85112266  0.57787354  1
  C  C103  1  0.54469452  0.67067375  0.57541246  1
  C  C104  1  0.15505537  0.46892424  0.57978056  1
  C  C105  1  0.30207676  0.81659390  0.25909662  1
  C  C106  1  0.52458767  0.70184400  0.25399978  1
  C  C107  1  0.18300749  0.47527341  0.25573333  1
  C  C108  1  0.27681046  0.46173515  0.75425281  1
  C  C109  1  0.17217036  0.70047379  0.75215490  1
  C  C110  1  0.50914060  0.81246173  0.75915201  1
