# generated using pymatgen
data_Cu10Ni14C13
_symmetry_space_group_name_H-M   'P 1'
_cell_length_a   4.83102304
_cell_length_b   5.58882395
_cell_length_c   16.28284753
_cell_angle_alpha   81.80160718
_cell_angle_beta   87.45587518
_cell_angle_gamma   90.53777315
_symmetry_Int_Tables_number   1
_chemical_formula_structural   Cu10Ni14C13
_chemical_formula_sum   'Cu10 Ni14 C13'
_cell_volume   434.65585032
_cell_formula_units_Z   1
loop_
 _symmetry_equiv_pos_site_id
 _symmetry_equiv_pos_as_xyz
  1  'x, y, z'
loop_
 _atom_site_type_symbol
 _atom_site_label
 _atom_site_symmetry_multiplicity
 _atom_site_fract_x
 _atom_site_fract_y
 _atom_site_fract_z
 _atom_site_occupancy
  C  C0  1  0.49184000  0.38280300  0.07337800  1
  C  C1  1  0.00356600  0.22308500  0.42048900  1
  C  C2  1  0.04545300  0.97152400  0.25537900  1
  C  C3  1  0.99791700  0.07408700  0.03621500  1
  C  C4  1  0.01240700  0.11161700  0.73296400  1
  C  C5  1  0.00597100  0.83684700  0.57895600  1
  C  C6  1  0.02277700  0.70368000  0.89408400  1
  C  C7  1  0.49068800  0.35853800  0.59165500  1
  C  C8  1  0.46552100  0.21439400  0.89387900  1
  C  C9  1  0.53162400  0.45144600  0.28136200  1
  C  C10  1  0.55134200  0.82654000  0.14937300  1
  C  C11  1  0.51344000  0.72347700  0.43300100  1
  C  C12  1  0.45395300  0.59080700  0.73875100  1
  Ni  Ni13  1  0.21957400  0.22971900  0.31491500  1
  Ni  Ni14  1  0.21070300  0.09935400  0.62993800  1
  Ni  Ni15  1  0.20795700  0.97050200  0.94835700  1
  Ni  Ni16  1  0.25233300  0.03890900  0.12409700  1
  Ni  Ni17  1  0.20399200  0.92697000  0.47356800  1
  Ni  Ni18  1  0.22474200  0.82565300  0.78222400  1
  Ni  Ni19  1  0.37303300  0.52799600  0.17289400  1
  Ni  Ni20  1  0.26165500  0.57924800  0.64168100  1
  Ni  Ni21  1  0.23264300  0.34205300  0.80322900  1
  Ni  Ni22  1  0.68835800  0.21617600  0.98560100  1
  Ni  Ni23  1  0.80456300  0.69764400  0.22664700  1
  Ni  Ni24  1  0.71744000  0.46424100  0.38352900  1
  Ni  Ni25  1  0.71091400  0.63930800  0.53432500  1
  Ni  Ni26  1  0.68829100  0.34427000  0.68967400  1
  Cu  Cu27  1  0.29069900  0.72844200  0.32962000  1
  Cu  Cu28  1  0.25883900  0.42075000  0.49222800  1
  Cu  Cu29  1  0.20885700  0.44731000  0.98715700  1
  Cu  Cu30  1  0.67183500  0.53854500  0.84516700  1
  Cu  Cu31  1  0.76102500  0.15186500  0.14427100  1
  Cu  Cu32  1  0.74421600  0.14777200  0.52977400  1
  Cu  Cu33  1  0.74958000  0.99479400  0.35452500  1
  Cu  Cu34  1  0.73718800  0.70110700  0.04094800  1
  Cu  Cu35  1  0.76777400  0.02354900  0.83566600  1
  Cu  Cu36  1  0.74673300  0.83211900  0.68380900  1
