# generated using pymatgen
data_Cu2Ni4C9
_symmetry_space_group_name_H-M   'P 1'
_cell_length_a   7.71730289
_cell_length_b   7.71730289
_cell_length_c   7.12007211
_cell_angle_alpha   62.51162659
_cell_angle_beta   62.51162659
_cell_angle_gamma   54.03703466
_symmetry_Int_Tables_number   1
_chemical_formula_structural   Cu2Ni4C9
_chemical_formula_sum   'Cu2 Ni4 C9'
_cell_volume   293.56258499
_cell_formula_units_Z   1
loop_
 _symmetry_equiv_pos_site_id
 _symmetry_equiv_pos_as_xyz
  1  'x, y, z'
loop_
 _atom_site_type_symbol
 _atom_site_label
 _atom_site_symmetry_multiplicity
 _atom_site_fract_x
 _atom_site_fract_y
 _atom_site_fract_z
 _atom_site_occupancy
  C  C0  1  0.40344900  0.40344900  0.84348500  1
  Ni  Ni1  1  0.98829900  0.98829900  0.51052300  1
  Ni  Ni2  1  0.94194100  0.47383500  0.04025800  1
  Ni  Ni3  1  0.47383500  0.94194100  0.04025800  1
  Ni  Ni4  1  0.98703400  0.98703400  0.01036100  1
  Cu  Cu5  1  0.36504500  0.36504500  0.38334800  1
  Cu  Cu6  1  0.65980500  0.65980500  0.58833600  1
  C  C7  1  0.24658100  0.24658100  0.77546700  1
  C  C8  1  0.23739900  0.76005300  0.25016500  1
  C  C9  1  0.76005300  0.23739900  0.25016500  1
  C  C10  1  0.24704100  0.24704100  0.22671700  1
  C  C11  1  0.76800600  0.76800600  0.20674500  1
  C  C12  1  0.79736800  0.25891900  0.72012600  1
  C  C13  1  0.25891900  0.79736800  0.72012600  1
  C  C14  1  0.76800300  0.76800300  0.75336300  1
