# generated using pymatgen
data_Cu5NiC31
_symmetry_space_group_name_H-M   'P 1'
_cell_length_a   8.72344477
_cell_length_b   8.70814229
_cell_length_c   22.45904855
_cell_angle_alpha   90.16214491
_cell_angle_beta   89.89626903
_cell_angle_gamma   120.30762485
_symmetry_Int_Tables_number   1
_chemical_formula_structural   Cu5NiC31
_chemical_formula_sum   'Cu15 Ni3 C93'
_cell_volume   1472.91991052
_cell_formula_units_Z   3
loop_
 _symmetry_equiv_pos_site_id
 _symmetry_equiv_pos_as_xyz
  1  'x, y, z'
loop_
 _atom_site_type_symbol
 _atom_site_label
 _atom_site_symmetry_multiplicity
 _atom_site_fract_x
 _atom_site_fract_y
 _atom_site_fract_z
 _atom_site_occupancy
  C  C0  1  0.36239062  0.36253004  0.25108801  1
  C  C1  1  0.02999053  0.69875841  0.58465728  1
  C  C2  1  0.30030193  0.96660665  0.08101967  1
  C  C3  1  0.99331234  0.00397510  0.49953753  1
  C  C4  1  0.99703707  0.00540308  0.99443483  1
  C  C5  1  0.66466589  0.33071650  0.82916868  1
  C  C6  1  0.67608158  0.33063876  0.33324920  1
  C  C7  1  0.33244037  0.66559401  0.16781153  1
  C  C8  1  0.34927225  0.66432834  0.66600203  1
  C  C9  1  0.99547934  0.99749772  0.35169320  1
  C  C10  1  0.00340506  0.00449486  0.85209644  1
  C  C11  1  0.99412783  0.00258327  0.64926183  1
  C  C12  1  0.99204767  0.99833816  0.14946452  1
  C  C13  1  0.66192426  0.33349961  0.68603327  1
  C  C14  1  0.67469388  0.33560861  0.18525633  1
  C  C15  1  0.33170293  0.66134318  0.01645283  1
  C  C16  1  0.34375974  0.66744105  0.51739093  1
  C  C17  1  0.33460153  0.67443673  0.31725712  1
  C  C18  1  0.67151437  0.32966550  0.97403993  1
  C  C19  1  0.66714704  0.34208473  0.48254633  1
  C  C20  1  0.32444314  0.66843205  0.81618643  1
  Ni  Ni21  1  0.66269323  0.62601731  0.58585207  1
  Ni  Ni22  1  0.04660161  0.37427287  0.91835035  1
  Ni  Ni23  1  0.32766366  0.95399608  0.91945112  1
  Cu  Cu24  1  0.29175439  0.99732407  0.24902897  1
  Cu  Cu25  1  0.70716528  0.70768501  0.25013369  1
  Cu  Cu26  1  0.99882380  0.29230932  0.25049215  1
  Cu  Cu27  1  0.29225672  0.29338675  0.75089861  1
  Cu  Cu28  1  0.99950996  0.70753959  0.75039848  1
  Cu  Cu29  1  0.70641111  0.99917652  0.75114879  1
  Cu  Cu30  1  0.95580064  0.33193396  0.58327510  1
  Cu  Cu31  1  0.37771080  0.04399465  0.58363896  1
  Cu  Cu32  1  0.95605334  0.62232557  0.08311822  1
  Cu  Cu33  1  0.66880484  0.04390371  0.08284121  1
  Cu  Cu34  1  0.37817440  0.33703703  0.08379450  1
  Cu  Cu35  1  0.62332780  0.66758701  0.91740794  1
  Cu  Cu36  1  0.62703867  0.96191847  0.41727516  1
  Cu  Cu37  1  0.33246288  0.37199990  0.41649268  1
  Cu  Cu38  1  0.04137150  0.66743737  0.41807502  1
  C  C39  1  0.20816869  0.02970139  0.30126957  1
  C  C40  1  0.81466436  0.78844288  0.30359954  1
  C  C41  1  0.97378282  0.18442221  0.30387921  1
  C  C42  1  0.20974331  0.18600957  0.80397372  1
  C  C43  1  0.97633729  0.79268509  0.80289726  1
  C  C44  1  0.81359701  0.02432770  0.80424003  1
  C  C45  1  0.78033309  0.96579747  0.69679243  1
  C  C46  1  0.18469597  0.21835695  0.69658118  1
  C  C47  1  0.03379887  0.81211160  0.69496114  1
  C  C48  1  0.78651014  0.81350874  0.19607522  1
  C  C49  1  0.03231731  0.21334932  0.19670050  1
  C  C50  1  0.18831529  0.97285549  0.19345660  1
  C  C51  1  0.87563728  0.36251729  0.63604856  1
  C  C52  1  0.48566326  0.12239273  0.63646453  1
  C  C53  1  0.64137151  0.51074831  0.63871512  1
  C  C54  1  0.87437957  0.51628496  0.13649239  1
  C  C55  1  0.63603857  0.12453863  0.13557446  1
  C  C56  1  0.48090714  0.35910898  0.13887423  1
  C  C57  1  0.46676233  0.30683609  0.03086544  1
  C  C58  1  0.84495757  0.53443103  0.02898815  1
  C  C59  1  0.69184723  0.15628646  0.02844196  1
  C  C60  1  0.46660105  0.15577796  0.52892473  1
  C  C61  1  0.69043071  0.52405277  0.52825227  1
  C  C62  1  0.84218682  0.30614041  0.52849640  1
  C  C63  1  0.54549962  0.69353384  0.97117229  1
  C  C64  1  0.15408720  0.45799521  0.97316780  1
  C  C65  1  0.30902796  0.85297424  0.97626122  1
  C  C66  1  0.54474236  0.85408731  0.47044767  1
  C  C67  1  0.30728481  0.45646107  0.46897614  1
  C  C68  1  0.14376140  0.69081431  0.47301380  1
  C  C69  1  0.11899319  0.63454646  0.36511840  1
  C  C70  1  0.51893878  0.88591632  0.36339042  1
  C  C71  1  0.36676938  0.47768630  0.36142689  1
  C  C72  1  0.13437060  0.49830639  0.86193430  1
  C  C73  1  0.36452453  0.86522630  0.86355848  1
  C  C74  1  0.50935571  0.63305470  0.86351763  1
  C  C75  1  0.01665770  0.82221414  0.41135340  1
  C  C76  1  0.80654866  0.98497952  0.41086385  1
  C  C77  1  0.17713051  0.19122337  0.41031577  1
  C  C78  1  0.01141277  0.18825701  0.90832375  1
  C  C79  1  0.17202725  0.98059237  0.90903938  1
  C  C80  1  0.80206536  0.81981973  0.90894559  1
  C  C81  1  0.97372568  0.17336780  0.58723321  1
  C  C82  1  0.19964856  0.02755731  0.58735691  1
  C  C83  1  0.84028896  0.80583233  0.58587902  1
  C  C84  1  0.97669508  0.80355213  0.08711460  1
  C  C85  1  0.82880162  0.02884593  0.08750470  1
  C  C86  1  0.20005778  0.17027057  0.08784611  1
  C  C87  1  0.68213514  0.15488806  0.74439744  1
  C  C88  1  0.47189986  0.31676376  0.74498534  1
  C  C89  1  0.84601302  0.52577534  0.74478940  1
  C  C90  1  0.68197247  0.52413908  0.24427641  1
  C  C91  1  0.84125136  0.31237336  0.24373896  1
  C  C92  1  0.47121178  0.16285087  0.24344574  1
  C  C93  1  0.63774875  0.50037038  0.92392725  1
  C  C94  1  0.85767714  0.36418451  0.92477938  1
  C  C95  1  0.50515513  0.14489243  0.92547270  1
  C  C96  1  0.64618795  0.14448414  0.42522278  1
  C  C97  1  0.49714892  0.35371797  0.42472444  1
  C  C98  1  0.85738759  0.50020540  0.42475612  1
  C  C99  1  0.35964882  0.49451619  0.07704796  1
  C  C100  1  0.13752429  0.64689676  0.07773212  1
  C  C101  1  0.50643048  0.86563541  0.07612000  1
  C  C102  1  0.35052175  0.86230862  0.57530739  1
  C  C103  1  0.50065314  0.64386322  0.57580491  1
  C  C104  1  0.13137259  0.49614188  0.57468775  1
  C  C105  1  0.31147429  0.83958108  0.25589590  1
  C  C106  1  0.52404939  0.68264070  0.25605101  1
  C  C107  1  0.16384860  0.47213855  0.25672177  1
  C  C108  1  0.31291221  0.47785101  0.75896757  1
  C  C109  1  0.16632739  0.69081779  0.75807145  1
  C  C110  1  0.52265525  0.83330928  0.75909532  1
