# generated using pymatgen
data_Cu3NiC16
_symmetry_space_group_name_H-M   'P 1'
_cell_length_a   15.65474295
_cell_length_b   9.05694637
_cell_length_c   8.91433788
_cell_angle_alpha   90.00000000
_cell_angle_beta   124.81111168
_cell_angle_gamma   90.00000000
_symmetry_Int_Tables_number   1
_chemical_formula_structural   Cu3NiC16
_chemical_formula_sum   'Cu12 Ni4 C64'
_cell_volume   1037.72040684
_cell_formula_units_Z   4
loop_
 _symmetry_equiv_pos_site_id
 _symmetry_equiv_pos_as_xyz
  1  'x, y, z'
loop_
 _atom_site_type_symbol
 _atom_site_label
 _atom_site_symmetry_multiplicity
 _atom_site_fract_x
 _atom_site_fract_y
 _atom_site_fract_z
 _atom_site_occupancy
  C  C0  1  0.24918242  0.72596448  0.97831028  1
  C  C1  1  0.74918242  0.77403552  0.47831028  1
  C  C2  1  0.74918242  0.22596448  0.97831028  1
  C  C3  1  0.24918242  0.27403552  0.47831028  1
  C  C4  1  0.50319625  0.10947655  0.74582359  1
  C  C5  1  0.50319625  0.89052345  0.24582359  1
  C  C6  1  0.00319625  0.60947655  0.74582359  1
  C  C7  1  0.00319625  0.39052345  0.24582359  1
  C  C8  1  0.18356559  0.94190759  0.28894467  1
  C  C9  1  0.18356559  0.05809241  0.78894467  1
  C  C10  1  0.68356559  0.44190759  0.28894467  1
  C  C11  1  0.68356559  0.55809241  0.78894467  1
  C  C12  1  0.89437806  0.75750560  0.94056055  1
  C  C13  1  0.89437806  0.24249440  0.44056055  1
  C  C14  1  0.39437806  0.25750560  0.94056055  1
  C  C15  1  0.39437806  0.74249440  0.44056055  1
  Ni  Ni16  1  0.09779085  0.75047581  0.54867505  1
  Ni  Ni17  1  0.09779085  0.24952419  0.04867505  1
  Ni  Ni18  1  0.59779085  0.25047581  0.54867505  1
  Ni  Ni19  1  0.59779085  0.74952419  0.04867505  1
  Cu  Cu20  1  0.00237503  0.95037127  0.76028861  1
  Cu  Cu21  1  0.00237503  0.04962873  0.26028861  1
  Cu  Cu22  1  0.50237503  0.45037127  0.76028861  1
  Cu  Cu23  1  0.50237503  0.54962873  0.26028861  1
  Cu  Cu24  1  0.35199444  0.89971541  0.76085933  1
  Cu  Cu25  1  0.64555258  0.89401892  0.74677658  1
  Cu  Cu26  1  0.64555258  0.10598108  0.24677658  1
  Cu  Cu27  1  0.35199444  0.10028459  0.26085933  1
  Cu  Cu28  1  0.85199444  0.39971541  0.76085933  1
  Cu  Cu29  1  0.14555258  0.39401892  0.74677658  1
  Cu  Cu30  1  0.14555258  0.60598108  0.24677658  1
  Cu  Cu31  1  0.85199444  0.60028459  0.26085933  1
  C  C32  1  0.15248461  0.56201747  0.73971429  1
  C  C33  1  0.84711816  0.57483152  0.75601808  1
  C  C34  1  0.84711816  0.42516848  0.25601808  1
  C  C35  1  0.15248461  0.43798253  0.23971429  1
  C  C36  1  0.65248461  0.06201747  0.73971429  1
  C  C37  1  0.34711816  0.07483152  0.75601808  1
  C  C38  1  0.34711816  0.92516848  0.25601808  1
  C  C39  1  0.65248461  0.93798253  0.23971429  1
  C  C40  1  0.44251800  0.55825633  0.59319105  1
  C  C41  1  0.56815073  0.53911054  0.93669221  1
  C  C42  1  0.56815073  0.46088946  0.43669221  1
  C  C43  1  0.44251800  0.44174367  0.09319105  1
  C  C44  1  0.94251800  0.05825633  0.59319105  1
  C  C45  1  0.06815073  0.03911054  0.93669221  1
  C  C46  1  0.06815073  0.96088946  0.43669221  1
  C  C47  1  0.94251800  0.94174367  0.09319105  1
  C  C48  1  0.25650258  0.84299165  0.74950026  1
  C  C49  1  0.73715851  0.81590596  0.75189712  1
  C  C50  1  0.73715851  0.18409404  0.25189712  1
  C  C51  1  0.25650258  0.15700835  0.24950026  1
  C  C52  1  0.75650258  0.34299165  0.74950026  1
  C  C53  1  0.23715851  0.31590596  0.75189712  1
  C  C54  1  0.23715851  0.68409404  0.25189712  1
  C  C55  1  0.75650258  0.65700835  0.24950026  1
  C  C56  1  0.35098611  0.85808199  0.58736777  1
  C  C57  1  0.64765736  0.84600683  0.91231085  1
  C  C58  1  0.64765736  0.15399317  0.41231085  1
  C  C59  1  0.35098611  0.14191801  0.08736777  1
  C  C60  1  0.85098611  0.35808199  0.58736777  1
  C  C61  1  0.14765736  0.34600683  0.91231085  1
  C  C62  1  0.14765736  0.65399317  0.41231085  1
  C  C63  1  0.85098611  0.64191801  0.08736777  1
  C  C64  1  0.45352423  0.84861412  0.93443870  1
  C  C65  1  0.54242275  0.83357012  0.56846610  1
  C  C66  1  0.54242275  0.16642988  0.06846610  1
  C  C67  1  0.45352423  0.15138588  0.43443870  1
  C  C68  1  0.95352423  0.34861412  0.93443870  1
  C  C69  1  0.04242275  0.33357012  0.56846610  1
  C  C70  1  0.04242275  0.66642988  0.06846610  1
  C  C71  1  0.95352423  0.65138588  0.43443870  1
  C  C72  1  0.07567660  0.84607265  0.74690985  1
  C  C73  1  0.91776511  0.85229323  0.75325505  1
  C  C74  1  0.91776511  0.14770677  0.25325505  1
  C  C75  1  0.07567660  0.15392735  0.24690985  1
  C  C76  1  0.57567660  0.34607265  0.74690985  1
  C  C77  1  0.41776511  0.35229323  0.75325505  1
  C  C78  1  0.41776511  0.64770677  0.25325505  1
  C  C79  1  0.57567660  0.65392735  0.24690985  1
