# generated using pymatgen
data_Cu2Ni2C5
_symmetry_space_group_name_H-M   'P 1'
_cell_length_a   5.20527500
_cell_length_b   5.33470401
_cell_length_c   5.33470401
_cell_angle_alpha   89.99415733
_cell_angle_beta   90.00000000
_cell_angle_gamma   90.00000000
_symmetry_Int_Tables_number   1
_chemical_formula_structural   Cu2Ni2C5
_chemical_formula_sum   'Cu2 Ni2 C5'
_cell_volume   148.13726838
_cell_formula_units_Z   1
loop_
 _symmetry_equiv_pos_site_id
 _symmetry_equiv_pos_as_xyz
  1  'x, y, z'
loop_
 _atom_site_type_symbol
 _atom_site_label
 _atom_site_symmetry_multiplicity
 _atom_site_fract_x
 _atom_site_fract_y
 _atom_site_fract_z
 _atom_site_occupancy
  C  C0  1  0.00000400  0.50000000  0.00000000  1
  Ni  Ni1  1  0.50006500  0.00000000  0.50000000  1
  Ni  Ni2  1  0.50005000  0.50000000  0.00000000  1
  Cu  Cu3  1  0.00002100  0.50000000  0.50000000  1
  Cu  Cu4  1  0.00002100  0.00000000  0.00000000  1
  C  C5  1  0.71609300  0.24509300  0.74509300  1
  C  C6  1  0.28382600  0.75492800  0.74507200  1
  C  C7  1  0.28382600  0.24507200  0.25492800  1
  C  C8  1  0.71609300  0.75490700  0.25490600  1
