# generated using pymatgen
data_Cu6Ni6C13
_symmetry_space_group_name_H-M   'P 1'
_cell_length_a   6.77564861
_cell_length_b   6.77564861
_cell_length_c   18.43071900
_cell_angle_alpha   90.00000000
_cell_angle_beta   90.00000000
_cell_angle_gamma   120.00000596
_symmetry_Int_Tables_number   1
_chemical_formula_structural   Cu6Ni6C13
_chemical_formula_sum   'Cu12 Ni12 C26'
_cell_volume   732.78173141
_cell_formula_units_Z   2
loop_
 _symmetry_equiv_pos_site_id
 _symmetry_equiv_pos_as_xyz
  1  'x, y, z'
loop_
 _atom_site_type_symbol
 _atom_site_label
 _atom_site_symmetry_multiplicity
 _atom_site_fract_x
 _atom_site_fract_y
 _atom_site_fract_z
 _atom_site_occupancy
  C  C0  1  0.00000000  0.00000000  0.75000000  1
  C  C1  1  0.00000000  0.00000000  0.25000000  1
  C  C2  1  0.50000000  0.00000000  0.50000000  1
  C  C3  1  0.50000000  0.50000000  0.50000000  1
  C  C4  1  0.00000000  0.50000000  0.00000000  1
  C  C5  1  0.00000000  0.50000000  0.50000000  1
  C  C6  1  0.50000000  0.00000000  0.00000000  1
  C  C7  1  0.50000000  0.50000000  0.00000000  1
  C  C8  1  0.44648100  0.44648100  0.79246800  1
  C  C9  1  0.55351900  0.00000000  0.79246800  1
  C  C10  1  0.00000000  0.55351900  0.79246800  1
  C  C11  1  0.00000000  0.44648100  0.29246800  1
  C  C12  1  0.55351900  0.00000000  0.70753200  1
  C  C13  1  0.55351900  0.55351900  0.29246800  1
  C  C14  1  0.44648100  0.00000000  0.29246800  1
  C  C15  1  0.55351900  0.55351900  0.20753200  1
  C  C16  1  0.00000000  0.44648100  0.20753200  1
  C  C17  1  0.00000000  0.55351900  0.70753200  1
  C  C18  1  0.44648100  0.44648100  0.70753200  1
  C  C19  1  0.44648100  0.00000000  0.20753200  1
  Ni  Ni20  1  0.65367200  0.65367200  0.90366300  1
  Ni  Ni21  1  0.34632800  0.00000000  0.90366300  1
  Ni  Ni22  1  0.00000000  0.34632800  0.90366300  1
  Ni  Ni23  1  0.00000000  0.65367200  0.40366300  1
  Ni  Ni24  1  0.34632800  0.00000000  0.59633700  1
  Ni  Ni25  1  0.65367200  0.00000000  0.40366300  1
  Ni  Ni26  1  0.00000000  0.65367200  0.09633700  1
  Ni  Ni27  1  0.34632800  0.34632800  0.09633700  1
  Ni  Ni28  1  0.65367200  0.00000000  0.09633700  1
  Ni  Ni29  1  0.65367200  0.65367200  0.59633700  1
  Ni  Ni30  1  0.00000000  0.34632800  0.59633700  1
  Ni  Ni31  1  0.34632800  0.34632800  0.40366300  1
  Cu  Cu32  1  0.74362600  0.74362600  0.84932500  1
  Cu  Cu33  1  0.74362600  0.74362600  0.65067500  1
  Cu  Cu34  1  0.00000000  0.25637400  0.84932500  1
  Cu  Cu35  1  0.00000000  0.74362600  0.34932500  1
  Cu  Cu36  1  0.25637400  0.00000000  0.65067500  1
  Cu  Cu37  1  0.25637400  0.25637400  0.34932500  1
  Cu  Cu38  1  0.74362600  0.00000000  0.34932500  1
  Cu  Cu39  1  0.25637400  0.25637400  0.15067500  1
  Cu  Cu40  1  0.74362600  0.00000000  0.15067500  1
  Cu  Cu41  1  0.00000000  0.25637400  0.65067500  1
  Cu  Cu42  1  0.00000000  0.74362600  0.15067500  1
  Cu  Cu43  1  0.25637400  0.00000000  0.84932500  1
  C  C44  1  0.63980400  0.63980400  0.25000000  1
  C  C45  1  0.00000000  0.36019600  0.25000000  1
  C  C46  1  0.00000000  0.63980400  0.75000000  1
  C  C47  1  0.36019600  0.36019600  0.75000000  1
  C  C48  1  0.36019600  0.00000000  0.25000000  1
  C  C49  1  0.63980400  0.00000000  0.75000000  1
