# generated using pymatgen
data_Cu2NiC16
_symmetry_space_group_name_H-M   'P 1'
_cell_length_a   6.83552004
_cell_length_b   6.62525293
_cell_length_c   11.51136747
_cell_angle_alpha   101.10424957
_cell_angle_beta   102.18049595
_cell_angle_gamma   108.28659809
_symmetry_Int_Tables_number   1
_chemical_formula_structural   Cu2NiC16
_chemical_formula_sum   'Cu2 Ni1 C16'
_cell_volume   464.65507538
_cell_formula_units_Z   1
loop_
 _symmetry_equiv_pos_site_id
 _symmetry_equiv_pos_as_xyz
  1  'x, y, z'
loop_
 _atom_site_type_symbol
 _atom_site_label
 _atom_site_symmetry_multiplicity
 _atom_site_fract_x
 _atom_site_fract_y
 _atom_site_fract_z
 _atom_site_occupancy
  Ni  Ni0  1  0.36304600  0.33020600  0.69425300  1
  Cu  Cu1  1  0.84720500  0.84659300  0.69176500  1
  Cu  Cu2  1  0.59682100  0.09623200  0.19247500  1
  C  C3  1  0.73612200  0.86619400  0.37629100  1
  C  C4  1  0.60609200  0.98520000  0.87697400  1
  C  C5  1  0.26474800  0.89180200  0.87705700  1
  C  C6  1  0.64163700  0.50912100  0.37658700  1
  C  C7  1  0.66776000  0.69545600  0.85056000  1
  C  C8  1  0.18440200  0.16061100  0.85157800  1
  C  C9  1  0.97764000  0.02751800  0.54760900  1
  C  C10  1  0.56598300  0.52623200  0.54616200  1
  C  C11  1  0.25829100  0.82796300  0.04138200  1
  C  C12  1  0.78209300  0.21301900  0.04076100  1
  C  C13  1  0.38347900  0.33080900  0.22871000  1
  C  C14  1  0.84679500  0.89755800  0.22936100  1
  C  C15  1  0.63135100  0.09771300  0.72451300  1
  C  C16  1  0.08508200  0.62939500  0.72533000  1
  C  C17  1  0.46719400  0.93342400  0.35743800  1
  C  C18  1  0.89185300  0.42328600  0.35897100  1
