# generated using pymatgen
data_Cu2NiC6
_symmetry_space_group_name_H-M   'P 1'
_cell_length_a   3.20549978
_cell_length_b   3.22072260
_cell_length_c   12.89042697
_cell_angle_alpha   90.43788617
_cell_angle_beta   90.00000005
_cell_angle_gamma   119.84375748
_symmetry_Int_Tables_number   1
_chemical_formula_structural   Cu2NiC6
_chemical_formula_sum   'Cu2 Ni1 C6'
_cell_volume   115.42815440
_cell_formula_units_Z   1
loop_
 _symmetry_equiv_pos_site_id
 _symmetry_equiv_pos_as_xyz
  1  'x, y, z'
loop_
 _atom_site_type_symbol
 _atom_site_label
 _atom_site_symmetry_multiplicity
 _atom_site_fract_x
 _atom_site_fract_y
 _atom_site_fract_z
 _atom_site_occupancy
  C  C0  1  0.67715957  0.35431814  0.19107356  1
  C  C1  1  0.31615622  0.63231343  0.81271016  1
  Ni  Ni2  1  0.33632744  0.67265588  0.60108094  1
  Cu  Cu3  1  -0.00273941  -0.00547883  0.40836626  1
  Cu  Cu4  1  0.00495421  0.00990841  0.00489006  1
  C  C5  1  0.33712573  0.67425045  0.43732400  1
  C  C6  1  0.66970316  0.33940731  0.65264257  1
  C  C7  1  0.64938881  0.29877861  0.92598886  1
  C  C8  1  0.34525729  0.69051358  0.09092359  1
