# generated using pymatgen
data_Cu3NiC35
_symmetry_space_group_name_H-M   'P 1'
_cell_length_a   17.75131353
_cell_length_b   8.92336335
_cell_length_c   22.33119466
_cell_angle_alpha   90.04588711
_cell_angle_beta   89.73707381
_cell_angle_gamma   120.10781441
_symmetry_Int_Tables_number   1
_chemical_formula_structural   Cu3NiC35
_chemical_formula_sum   'Cu18 Ni6 C210'
_cell_volume   3060.01522309
_cell_formula_units_Z   6
loop_
 _symmetry_equiv_pos_site_id
 _symmetry_equiv_pos_as_xyz
  1  'x, y, z'
loop_
 _atom_site_type_symbol
 _atom_site_label
 _atom_site_symmetry_multiplicity
 _atom_site_fract_x
 _atom_site_fract_y
 _atom_site_fract_z
 _atom_site_occupancy
  C  C0  1  0.81494704  0.00606448  0.24946288  1
  C  C1  1  0.18684812  0.37436540  0.24831023  1
  C  C2  1  0.68680501  0.36387030  0.25066108  1
  C  C3  1  0.99610106  0.62154693  0.25111103  1
  C  C4  1  0.49659893  0.63311561  0.24638743  1
  C  C5  1  0.31589029  0.62403454  0.74978686  1
  C  C6  1  0.99643093  0.35878902  0.74720421  1
  C  C7  1  0.49621531  0.37244417  0.75075498  1
  C  C8  1  0.18901037  0.01391838  0.74736133  1
  C  C9  1  0.68636243  0.99773669  0.74855111  1
  C  C10  1  0.14968182  0.33025367  0.58208268  1
  C  C11  1  0.01579618  0.69493495  0.58407516  1
  C  C12  1  0.48516295  0.66526390  0.91734293  1
  C  C13  1  0.99013714  0.67578026  0.91958134  1
  C  C14  1  0.84988635  0.02719068  0.91571204  1
  C  C15  1  0.48972097  0.30609132  0.41934337  1
  C  C16  1  0.16428604  0.02806058  0.41751245  1
  C  C17  1  0.35064898  0.66920446  0.41496108  1
  C  C18  1  0.99511165  0.99892477  0.49972055  1
  C  C19  1  0.50795704  0.00721776  0.49841541  1
  C  C20  1  0.00676681  0.00770033  0.99885868  1
  C  C21  1  0.50166388  0.00882388  0.00152652  1
  C  C22  1  0.32950545  0.32331439  0.83133696  1
  C  C23  1  0.83093425  0.33376922  0.83160707  1
  C  C24  1  0.33549136  0.33632736  0.33138662  1
  C  C25  1  0.83177687  0.33406224  0.33222380  1
  C  C26  1  0.17151544  0.67138065  0.16432244  1
  C  C27  1  0.66398040  0.66779354  0.16338251  1
  C  C28  1  0.16887959  0.67270224  0.66461138  1
  C  C29  1  0.67058949  0.67156219  0.66434135  1
  Ni  Ni30  1  0.33242055  0.32616056  0.68743590  1
  Ni  Ni31  1  0.83489148  0.32998240  0.68213351  1
  Ni  Ni32  1  0.33690943  0.34092798  0.18181571  1
  Ni  Ni33  1  0.83310473  0.33385049  0.18708412  1
  Ni  Ni34  1  0.16340197  0.66765867  0.01766634  1
  Ni  Ni35  1  0.66285533  0.65973343  0.51714065  1
  Cu  Cu36  1  0.99253143  0.99504563  0.35459887  1
  Cu  Cu37  1  0.50651359  0.99099267  0.35623632  1
  Cu  Cu38  1  0.00484314  0.01961591  0.85653898  1
  Cu  Cu39  1  0.49651595  0.00185499  0.85413186  1
  Cu  Cu40  1  0.99789953  0.02118391  0.64546200  1
  Cu  Cu41  1  0.49687615  0.98699588  0.64958935  1
  Cu  Cu42  1  0.99503784  0.00742030  0.14876333  1
  Cu  Cu43  1  0.49535296  0.96736320  0.14639656  1
  Cu  Cu44  1  0.33734192  0.32331385  0.98101689  1
  Cu  Cu45  1  0.83175720  0.33781421  0.97425660  1
  Cu  Cu46  1  0.32804669  0.32237883  0.47632394  1
  Cu  Cu47  1  0.83707636  0.34069466  0.47742530  1
  Cu  Cu48  1  0.65785513  0.65839353  0.01510779  1
  Cu  Cu49  1  0.16230945  0.67232223  0.51623395  1
  Cu  Cu50  1  0.17108320  0.66329803  0.31703555  1
  Cu  Cu51  1  0.66422977  0.65731630  0.31730425  1
  Cu  Cu52  1  0.16497930  0.67213029  0.81744217  1
  Cu  Cu53  1  0.67257903  0.68057859  0.81740084  1
  C  C54  1  0.64537397  0.99697554  0.24990703  1
  C  C55  1  0.35328567  0.70980103  0.25209855  1
  C  C56  1  0.85402130  0.71010287  0.25057338  1
  C  C57  1  0.00118609  0.29292946  0.25134356  1
  C  C58  1  0.14554314  0.29482048  0.75072779  1
  C  C59  1  0.50099907  0.70935642  0.75182088  1
  C  C60  1  0.35415072  0.99814673  0.75063480  1
  C  C61  1  0.85363315  0.99598549  0.75145982  1
  C  C62  1  0.97707515  0.33486629  0.58327616  1
  C  C63  1  0.18857982  0.03843504  0.58543015  1
  C  C64  1  0.47951665  0.61974976  0.08332930  1
  C  C65  1  0.80884357  0.66661699  0.91825666  1
  C  C66  1  0.02546113  0.38024434  0.91963343  1
  C  C67  1  0.52248549  0.37347600  0.91447291  1
  C  C68  1  0.16875056  0.96340667  0.91883457  1
  C  C69  1  0.66439114  0.95848316  0.91768615  1
  C  C70  1  0.31172826  0.95322069  0.41671233  1
  C  C71  1  0.16234894  0.37339808  0.41851817  1
  C  C72  1  0.66843188  0.37466365  0.41876019  1
  C  C73  1  0.01993532  0.66409010  0.41388126  1
  C  C74  1  0.52403687  0.66868367  0.41983959  1
  C  C75  1  0.14475500  0.00029939  0.24912660  1
  C  C76  1  0.49759149  0.28390419  0.25010251  1
  C  C77  1  0.64438665  0.28883190  0.74929340  1
  C  C78  1  0.99739534  0.70967381  0.75018906  1
  C  C79  1  0.48010167  0.33348157  0.58443395  1
  C  C80  1  0.68711931  0.04105061  0.58385504  1
  C  C81  1  0.33567501  0.62731314  0.58333373  1
  C  C82  1  0.83027863  0.62034746  0.58421752  1
  C  C83  1  0.97939168  0.62601821  0.08445090  1
  C  C84  1  0.33294050  0.04133790  0.08513111  1
  C  C85  1  0.83314084  0.04228810  0.08340552  1
  C  C86  1  0.18730876  0.33275188  0.08401238  1
  C  C87  1  0.68845281  0.33512206  0.08368305  1
  C  C88  1  0.31055370  0.66541931  0.91729262  1
  C  C89  1  0.81006857  0.95530676  0.41787032  1
  C  C90  1  0.10694641  0.03199445  0.30449437  1
  C  C91  1  0.59733791  0.03215394  0.30648531  1
  C  C92  1  0.41673249  0.80544995  0.30901457  1
  C  C93  1  0.91958144  0.80935638  0.30728288  1
  C  C94  1  0.48670245  0.18558965  0.30553270  1
  C  C95  1  0.98800570  0.16047963  0.30688201  1
  C  C96  1  0.09549780  0.16067605  0.80608653  1
  C  C97  1  0.60529169  0.17775695  0.80337289  1
  C  C98  1  0.48759797  0.81022178  0.80887809  1
  C  C99  1  0.98674212  0.78891480  0.80490000  1
  C  C100  1  0.41980663  0.02631608  0.80694759  1
  C  C101  1  0.91650283  0.02783297  0.80900447  1
  C  C102  1  0.40542640  0.96604252  0.69320999  1
  C  C103  1  0.90293452  0.96978067  0.69222584  1
  C  C104  1  0.08203163  0.20169974  0.69088687  1
  C  C105  1  0.58797378  0.20633017  0.69579663  1
  C  C106  1  0.01409184  0.81723996  0.69581992  1
  C  C107  1  0.51880187  0.84483616  0.69365322  1
  C  C108  1  0.40111679  0.83305633  0.19216857  1
  C  C109  1  0.90551592  0.84553517  0.19325578  1
  C  C110  1  0.01897844  0.19453049  0.19298874  1
  C  C111  1  0.51490704  0.20773664  0.19689388  1
  C  C112  1  0.08750391  0.97049056  0.19630535  1
  C  C113  1  0.57912089  0.96359820  0.19253010  1
  C  C114  1  0.43899837  0.35698361  0.63834723  1
  C  C115  1  0.94328066  0.38105104  0.64311810  1
  C  C116  1  0.24391018  0.12300685  0.64392153  1
  C  C117  1  0.73691688  0.12100626  0.63941699  1
  C  C118  1  0.32209421  0.52188496  0.63728254  1
  C  C119  1  0.81761761  0.51501577  0.63782958  1
  C  C120  1  0.44277180  0.51587235  0.14423877  1
  C  C121  1  0.93696503  0.51978310  0.13788987  1
  C  C122  1  0.31852701  0.12121596  0.13753132  1
  C  C123  1  0.82228618  0.12248709  0.13760814  1
  C  C124  1  0.23688657  0.35265712  0.13943410  1
  C  C125  1  0.74001857  0.35940997  0.13801246  1
  C  C126  1  0.22974449  0.30543505  0.03070085  1
  C  C127  1  0.73272307  0.30887263  0.03025501  1
  C  C128  1  0.41677401  0.52625344  0.02366043  1
  C  C129  1  0.92476437  0.54270479  0.02951819  1
  C  C130  1  0.34547950  0.15352653  0.03007735  1
  C  C131  1  0.84723410  0.14960909  0.02897735  1
  C  C132  1  0.23504655  0.16913567  0.52533543  1
  C  C133  1  0.72875971  0.15250874  0.53062147  1
  C  C134  1  0.34916636  0.54868699  0.52856791  1
  C  C135  1  0.84678443  0.53846788  0.53020774  1
  C  C136  1  0.42521975  0.30686075  0.52964049  1
  C  C137  1  0.91323586  0.30724085  0.52590774  1
  C  C138  1  0.27261893  0.69531795  0.97044530  1
  C  C139  1  0.76458632  0.70509434  0.97524372  1
  C  C140  1  0.08267082  0.45994106  0.97636262  1
  C  C141  1  0.58303012  0.46676926  0.97320927  1
  C  C142  1  0.14559301  0.83422668  0.97316092  1
  C  C143  1  0.64722472  0.82802690  0.97324719  1
  C  C144  1  0.26478111  0.82554789  0.47371465  1
  C  C145  1  0.77352077  0.85114866  0.47048329  1
  C  C146  1  0.15137040  0.46517755  0.47753206  1
  C  C147  1  0.64586809  0.45746337  0.47330316  1
  C  C148  1  0.08192497  0.70343199  0.47358815  1
  C  C149  1  0.58256187  0.70694831  0.47605282  1
  C  C150  1  0.06593445  0.63437857  0.35509061  1
  C  C151  1  0.56626146  0.63046774  0.35777587  1
  C  C152  1  0.24560974  0.86741426  0.35960367  1
  C  C153  1  0.75845734  0.87696916  0.36156450  1
  C  C154  1  0.18590471  0.49999562  0.35897532  1
  C  C155  1  0.68345029  0.49854142  0.35642270  1
  C  C156  1  0.06515308  0.50169787  0.85772201  1
  C  C157  1  0.56469375  0.50108691  0.85606602  1
  C  C158  1  0.18324060  0.86804695  0.85654340  1
  C  C159  1  0.68760069  0.87758902  0.85816074  1
  C  C160  1  0.25808586  0.64073752  0.86163490  1
  C  C161  1  0.74731272  0.63024430  0.85900131  1
  C  C162  1  0.01397985  0.84117446  0.40790438  1
  C  C163  1  0.50589622  0.83040390  0.40929038  1
  C  C164  1  0.40835846  0.98165399  0.40962193  1
  C  C165  1  0.89953648  0.97654264  0.40989633  1
  C  C166  1  0.08206815  0.17762398  0.40869774  1
  C  C167  1  0.58006961  0.18755134  0.40498745  1
  C  C168  1  0.00502294  0.18109931  0.90966554  1
  C  C169  1  0.51129934  0.18179551  0.90799813  1
  C  C170  1  0.08014985  0.97330756  0.90490760  1
  C  C171  1  0.57736792  0.97075012  0.90891024  1
  C  C172  1  0.40036050  0.82154023  0.91006882  1
  C  C173  1  0.90681019  0.83095899  0.90910061  1
  C  C174  1  0.48758528  0.17264891  0.58974738  1
  C  C175  1  0.98852253  0.16054617  0.58686962  1
  C  C176  1  0.08857521  0.01284536  0.58905110  1
  C  C177  1  0.59829618  0.02697364  0.58973515  1
  C  C178  1  0.41537192  0.80441627  0.58847489  1
  C  C179  1  0.91374433  0.79246296  0.58875073  1
  C  C180  1  0.48855373  0.81757019  0.08713075  1
  C  C181  1  0.98718559  0.80153812  0.08951368  1
  C  C182  1  0.41496176  0.03435619  0.08830756  1
  C  C183  1  0.91530561  0.02817578  0.08849243  1
  C  C184  1  0.09856950  0.16993664  0.08923498  1
  C  C185  1  0.60021928  0.17914756  0.08817767  1
  C  C186  1  0.34824699  0.17016155  0.74759548  1
  C  C187  1  0.84183993  0.16625026  0.74692574  1
  C  C188  1  0.24034019  0.31667181  0.74596437  1
  C  C189  1  0.73117366  0.30602870  0.74250161  1
  C  C190  1  0.41526762  0.52504937  0.74384557  1
  C  C191  1  0.92126326  0.53334412  0.74544776  1
  C  C192  1  0.34117007  0.51629904  0.24743679  1
  C  C193  1  0.84601341  0.52452778  0.24425771  1
  C  C194  1  0.42166514  0.30898969  0.24515670  1
  C  C195  1  0.91515158  0.30536679  0.24448375  1
  C  C196  1  0.23148312  0.15611487  0.24216558  1
  C  C197  1  0.73925016  0.16703898  0.24369959  1
  C  C198  1  0.32210544  0.51181136  0.92070964  1
  C  C199  1  0.82293385  0.49664968  0.92689826  1
  C  C200  1  0.42693135  0.36159610  0.92510674  1
  C  C201  1  0.92484331  0.35730695  0.92601233  1
  C  C202  1  0.25440166  0.15854421  0.92608154  1
  C  C203  1  0.75384661  0.14643630  0.92741145  1
  C  C204  1  0.32122304  0.14716279  0.42491871  1
  C  C205  1  0.82010070  0.13113930  0.42141511  1
  C  C206  1  0.25273177  0.35975142  0.42477307  1
  C  C207  1  0.75351002  0.34886515  0.42599970  1
  C  C208  1  0.42465140  0.49265749  0.42491610  1
  C  C209  1  0.92436355  0.49224106  0.42507413  1
  C  C210  1  0.17824511  0.48746351  0.07798575  1
  C  C211  1  0.68107309  0.49271323  0.07637637  1
  C  C212  1  0.06653664  0.64526926  0.07928232  1
  C  C213  1  0.57886305  0.64988717  0.07396786  1
  C  C214  1  0.25702666  0.86687420  0.07646696  1
  C  C215  1  0.75714883  0.86676549  0.07776200  1
  C  C216  1  0.17461125  0.84299505  0.57498703  1
  C  C217  1  0.67821485  0.86893358  0.57823107  1
  C  C218  1  0.25651950  0.64301447  0.57800008  1
  C  C219  1  0.75590838  0.64658700  0.57661389  1
  C  C220  1  0.07737072  0.50105139  0.57462029  1
  C  C221  1  0.56726312  0.48730757  0.57889310  1
  C  C222  1  0.15015896  0.84039996  0.25408488  1
  C  C223  1  0.65172653  0.82065188  0.25740399  1
  C  C224  1  0.25651009  0.69197006  0.25666143  1
  C  C225  1  0.75929288  0.69909471  0.25601980  1
  C  C226  1  0.08882899  0.48340096  0.25514210  1
  C  C227  1  0.57933521  0.46444790  0.25470608  1
  C  C228  1  0.15099263  0.48359693  0.75757198  1
  C  C229  1  0.64961722  0.45877534  0.75485111  1
  C  C230  1  0.07915026  0.69371844  0.75459866  1
  C  C231  1  0.58887608  0.69404825  0.75512003  1
  C  C232  1  0.25936151  0.81952181  0.75613681  1
  C  C233  1  0.75650647  0.82162695  0.75616008  1
