# generated using pymatgen
data_Cu2NiC12
_symmetry_space_group_name_H-M   'P 1'
_cell_length_a   6.39245839
_cell_length_b   7.36752271
_cell_length_c   7.36752445
_cell_angle_alpha   115.11951104
_cell_angle_beta   93.82218786
_cell_angle_gamma   93.82218323
_symmetry_Int_Tables_number   1
_chemical_formula_structural   Cu2NiC12
_chemical_formula_sum   'Cu2 Ni1 C12'
_cell_volume   311.73359632
_cell_formula_units_Z   1
loop_
 _symmetry_equiv_pos_site_id
 _symmetry_equiv_pos_as_xyz
  1  'x, y, z'
loop_
 _atom_site_type_symbol
 _atom_site_label
 _atom_site_symmetry_multiplicity
 _atom_site_fract_x
 _atom_site_fract_y
 _atom_site_fract_z
 _atom_site_occupancy
  C  C0  1  0.95465800  0.25792400  0.78492400  1
  C  C1  1  0.95465800  0.78492400  0.25792400  1
  C  C2  1  0.45912700  0.27380200  0.82293700  1
  C  C3  1  0.45912700  0.82293700  0.27380200  1
  C  C4  1  0.28305400  0.55711500  0.55711400  1
  C  C5  1  0.70866500  0.37214600  0.37214700  1
  Ni  Ni6  1  0.58042300  0.87324400  0.87324400  1
  Cu  Cu7  1  0.95329100  0.82353800  0.82353800  1
  Cu  Cu8  1  0.15764100  0.17109400  0.17109400  1
  C  C9  1  0.22904800  0.42613100  0.15414000  1
  C  C10  1  0.72019800  0.61990400  0.85149300  1
  C  C11  1  0.26601800  0.90522800  0.90522800  1
  C  C12  1  0.22904800  0.15414000  0.42613100  1
  C  C13  1  0.72019800  0.85149300  0.61990400  1
  C  C14  1  0.82485000  0.06008600  0.06008600  1
