# generated using pymatgen
data_CuNiC8
_symmetry_space_group_name_H-M   'P 1'
_cell_length_a   5.88137151
_cell_length_b   5.88137067
_cell_length_c   10.18683375
_cell_angle_alpha   106.77865099
_cell_angle_beta   73.22134409
_cell_angle_gamma   119.99999968
_symmetry_Int_Tables_number   1
_chemical_formula_structural   CuNiC8
_chemical_formula_sum   'Cu2 Ni2 C16'
_cell_volume   287.70721949
_cell_formula_units_Z   2
loop_
 _symmetry_equiv_pos_site_id
 _symmetry_equiv_pos_as_xyz
  1  'x, y, z'
loop_
 _atom_site_type_symbol
 _atom_site_label
 _atom_site_symmetry_multiplicity
 _atom_site_fract_x
 _atom_site_fract_y
 _atom_site_fract_z
 _atom_site_occupancy
  C  C0  1  0.87500000  0.12500000  0.37500000  1
  C  C1  1  0.37500000  0.62500000  0.87500000  1
  C  C2  1  0.62500000  0.37500000  0.12500000  1
  C  C3  1  0.12500000  0.87500000  0.62500000  1
  Ni  Ni4  1  0.50000000  0.50000000  0.50000000  1
  Ni  Ni5  1  0.00000000  0.00000000  0.00000000  1
  Cu  Cu6  1  0.75000000  0.25000000  0.75000000  1
  Cu  Cu7  1  0.25000000  0.75000000  0.25000000  1
  C  C8  1  0.36770000  0.10310100  0.36770000  1
  C  C9  1  0.86770000  0.60310100  0.86770000  1
  C  C10  1  0.13230000  0.86770000  0.13230000  1
  C  C11  1  0.63230000  0.36770000  0.63230000  1
  C  C12  1  0.36770000  0.63230000  0.36770000  1
  C  C13  1  0.86770000  0.13230000  0.86770000  1
  C  C14  1  0.89689900  0.63230000  0.36770000  1
  C  C15  1  0.39689900  0.13230000  0.86770000  1
  C  C16  1  0.13230000  0.39689900  0.13230000  1
  C  C17  1  0.63230000  0.89689900  0.63230000  1
  C  C18  1  0.60310100  0.86770000  0.13230000  1
  C  C19  1  0.10310100  0.36770000  0.63230000  1
