# generated using pymatgen
data_CuNiC5
_symmetry_space_group_name_H-M   'P 1'
_cell_length_a   3.15495403
_cell_length_b   5.55334855
_cell_length_c   5.55270709
_cell_angle_alpha   72.18085631
_cell_angle_beta   90.00000000
_cell_angle_gamma   90.00000000
_symmetry_Int_Tables_number   1
_chemical_formula_structural   CuNiC5
_chemical_formula_sum   'Cu1 Ni1 C5'
_cell_volume   92.61942706
_cell_formula_units_Z   1
loop_
 _symmetry_equiv_pos_site_id
 _symmetry_equiv_pos_as_xyz
  1  'x, y, z'
loop_
 _atom_site_type_symbol
 _atom_site_label
 _atom_site_symmetry_multiplicity
 _atom_site_fract_x
 _atom_site_fract_y
 _atom_site_fract_z
 _atom_site_occupancy
  C  C0  1  0.50000000  0.21580089  0.21080923  1
  Ni  Ni1  1  0.00000000  0.90598266  0.90729260  1
  Cu  Cu2  1  0.50000000  0.52091980  0.51920939  1
  C  C3  1  0.00000000  0.34906007  0.34236817  1
  C  C4  1  0.50000000  0.84169925  0.21419109  1
  C  C5  1  0.50000000  0.21338452  0.83800223  1
  C  C6  1  0.00000000  0.66148581  0.66257129  1
