# generated using pymatgen
data_CuNiC
_symmetry_space_group_name_H-M   'P 1'
_cell_length_a   7.11853500
_cell_length_b   7.66893900
_cell_length_c   12.42241000
_cell_angle_alpha   90.00000000
_cell_angle_beta   90.00000000
_cell_angle_gamma   90.00000000
_symmetry_Int_Tables_number   1
_chemical_formula_structural   CuNiC
_chemical_formula_sum   'Cu8 Ni8 C8'
_cell_volume   678.15937048
_cell_formula_units_Z   8
loop_
 _symmetry_equiv_pos_site_id
 _symmetry_equiv_pos_as_xyz
  1  'x, y, z'
loop_
 _atom_site_type_symbol
 _atom_site_label
 _atom_site_symmetry_multiplicity
 _atom_site_fract_x
 _atom_site_fract_y
 _atom_site_fract_z
 _atom_site_occupancy
  C  C0  1  0.33422400  0.74940500  0.75000000  1
  C  C1  1  0.83422400  0.75059500  0.75000000  1
  C  C2  1  0.16577600  0.24940500  0.25000000  1
  C  C3  1  0.66577600  0.25059500  0.25000000  1
  C  C4  1  0.58712500  0.36517900  0.75000000  1
  C  C5  1  0.08712500  0.13482100  0.75000000  1
  C  C6  1  0.91287500  0.86517900  0.25000000  1
  C  C7  1  0.41287500  0.63482100  0.25000000  1
  Ni  Ni8  1  0.58412300  0.62282500  0.87344600  1
  Ni  Ni9  1  0.08412300  0.87717500  0.62655400  1
  Ni  Ni10  1  0.41587700  0.37717500  0.37344600  1
  Ni  Ni11  1  0.58412300  0.62282500  0.62655400  1
  Ni  Ni12  1  0.08412300  0.87717500  0.87344600  1
  Ni  Ni13  1  0.91587700  0.12282500  0.37344600  1
  Ni  Ni14  1  0.41587700  0.37717500  0.12655400  1
  Ni  Ni15  1  0.91587700  0.12282500  0.12655400  1
  Cu  Cu16  1  0.91239900  0.63801200  0.39650400  1
  Cu  Cu17  1  0.08760100  0.36198800  0.89650400  1
  Cu  Cu18  1  0.58760100  0.13801200  0.60349600  1
  Cu  Cu19  1  0.58760100  0.13801200  0.89650400  1
  Cu  Cu20  1  0.41239900  0.86198800  0.39650400  1
  Cu  Cu21  1  0.91239900  0.63801200  0.10349600  1
  Cu  Cu22  1  0.41239900  0.86198800  0.10349600  1
  Cu  Cu23  1  0.08760100  0.36198800  0.60349600  1
