# generated using pymatgen
data_Cu6NiC20
_symmetry_space_group_name_H-M   'P 1'
_cell_length_a   5.93827800
_cell_length_b   8.88914300
_cell_length_c   8.88914300
_cell_angle_alpha   90.00000000
_cell_angle_beta   90.00000000
_cell_angle_gamma   90.00000000
_symmetry_Int_Tables_number   1
_chemical_formula_structural   Cu6NiC20
_chemical_formula_sum   'Cu6 Ni1 C20'
_cell_volume   469.22410081
_cell_formula_units_Z   1
loop_
 _symmetry_equiv_pos_site_id
 _symmetry_equiv_pos_as_xyz
  1  'x, y, z'
loop_
 _atom_site_type_symbol
 _atom_site_label
 _atom_site_symmetry_multiplicity
 _atom_site_fract_x
 _atom_site_fract_y
 _atom_site_fract_z
 _atom_site_occupancy
  C  C0  1  0.16074200  0.70329300  0.12684200  1
  C  C1  1  0.16074200  0.87315800  0.70329300  1
  C  C2  1  0.16074200  0.12684200  0.29670700  1
  C  C3  1  0.16074200  0.29670700  0.87315800  1
  Ni  Ni4  1  0.33138400  0.50000000  0.50000000  1
  Cu  Cu5  1  0.63740700  0.86104700  0.36568100  1
  Cu  Cu6  1  0.63740700  0.36568100  0.13895300  1
  Cu  Cu7  1  0.63740700  0.13895300  0.63431900  1
  Cu  Cu8  1  0.63740700  0.63431900  0.86104700  1
  Cu  Cu9  1  0.62522500  0.00000000  0.00000000  1
  Cu  Cu10  1  0.72866700  0.50000000  0.50000000  1
  C  C11  1  0.02524000  0.50000000  0.50000000  1
  C  C12  1  0.90622800  0.00000000  0.00000000  1
  C  C13  1  0.52879100  0.50000000  0.00000000  1
  C  C14  1  0.52879100  0.00000000  0.50000000  1
  C  C15  1  0.92044700  0.63781300  0.86633800  1
  C  C16  1  0.92044700  0.13366200  0.63781300  1
  C  C17  1  0.92044700  0.86633800  0.36218700  1
  C  C18  1  0.92044700  0.36218700  0.13366200  1
  C  C19  1  0.53921500  0.58153400  0.67893100  1
  C  C20  1  0.53921500  0.41846600  0.32106900  1
  C  C21  1  0.51600700  0.18958800  0.09383000  1
  C  C22  1  0.51600700  0.90617000  0.18958800  1
  C  C23  1  0.51600700  0.09383000  0.81041200  1
  C  C24  1  0.51600700  0.81041200  0.90617000  1
  C  C25  1  0.53921500  0.32106900  0.58153400  1
  C  C26  1  0.53921500  0.67893100  0.41846600  1
