# generated using pymatgen
data_Cu4NiC
_symmetry_space_group_name_H-M   'P 1'
_cell_length_a   8.86878761
_cell_length_b   8.86878731
_cell_length_c   22.86010913
_cell_angle_alpha   90.00000000
_cell_angle_beta   90.00000000
_cell_angle_gamma   120.00000107
_symmetry_Int_Tables_number   1
_chemical_formula_structural   Cu4NiC
_chemical_formula_sum   'Cu72 Ni18 C18'
_cell_volume   1557.17499333
_cell_formula_units_Z   18
loop_
 _symmetry_equiv_pos_site_id
 _symmetry_equiv_pos_as_xyz
  1  'x, y, z'
loop_
 _atom_site_type_symbol
 _atom_site_label
 _atom_site_symmetry_multiplicity
 _atom_site_fract_x
 _atom_site_fract_y
 _atom_site_fract_z
 _atom_site_occupancy
  C  C0  1  -0.00000000  0.00000000  0.50189959  1
  C  C1  1  -0.00000000  0.00000000  0.00189959  1
  C  C2  1  0.66666700  0.33333300  0.83523259  1
  C  C3  1  0.66666700  0.33333300  0.33523259  1
  C  C4  1  0.33333300  0.66666700  0.16856659  1
  C  C5  1  0.33333300  0.66666700  0.66856659  1
  C  C6  1  -0.00000000  0.00000000  0.35434682  1
  C  C7  1  -0.00000000  0.00000000  0.85434682  1
  C  C8  1  0.66666700  0.33333300  0.68767982  1
  C  C9  1  0.66666700  0.33333300  0.18767982  1
  C  C10  1  0.33333300  0.66666700  0.02101382  1
  C  C11  1  0.33333300  0.66666700  0.52101382  1
  C  C12  1  -0.00000000  0.00000000  0.65093193  1
  C  C13  1  -0.00000000  0.00000000  0.15093193  1
  C  C14  1  0.66666700  0.33333300  0.98426493  1
  C  C15  1  0.66666700  0.33333300  0.48426493  1
  C  C16  1  0.33333300  0.66666700  0.31759893  1
  C  C17  1  0.33333300  0.66666700  0.81759893  1
  Ni  Ni18  1  0.28503991  0.97830077  0.25013909  1
  Ni  Ni19  1  0.69326086  0.71496009  0.25013909  1
  Ni  Ni20  1  0.02169923  0.30673914  0.25013909  1
  Ni  Ni21  1  0.28503991  0.30673914  0.75013909  1
  Ni  Ni22  1  0.02169923  0.71496009  0.75013909  1
  Ni  Ni23  1  0.69326086  0.97830077  0.75013909  1
  Ni  Ni24  1  0.95170691  0.31163377  0.58347209  1
  Ni  Ni25  1  0.35992786  0.04829309  0.58347209  1
  Ni  Ni26  1  0.68836623  0.64007214  0.58347209  1
  Ni  Ni27  1  0.95170691  0.64007214  0.08347209  1
  Ni  Ni28  1  0.68836623  0.04829309  0.08347209  1
  Ni  Ni29  1  0.35992786  0.31163377  0.08347209  1
  Ni  Ni30  1  0.61837291  0.64496777  0.91680609  1
  Ni  Ni31  1  0.02659386  0.38162709  0.91680609  1
  Ni  Ni32  1  0.35503223  0.97340614  0.91680609  1
  Ni  Ni33  1  0.61837291  0.97340614  0.41680609  1
  Ni  Ni34  1  0.35503223  0.38162709  0.41680609  1
  Ni  Ni35  1  0.02659386  0.64496777  0.41680609  1
  Cu  Cu36  1  0.20612257  0.00097736  0.30212807  1
  Cu  Cu37  1  0.79485479  0.79387743  0.30212807  1
  Cu  Cu38  1  0.99902264  0.20514521  0.30212807  1
  Cu  Cu39  1  0.20612257  0.20514521  0.80212807  1
  Cu  Cu40  1  0.99902264  0.79387743  0.80212807  1
  Cu  Cu41  1  0.79485479  0.00097736  0.80212807  1
  Cu  Cu42  1  0.77878940  0.95718694  0.69566612  1
  Cu  Cu43  1  0.17839754  0.22121060  0.69566612  1
  Cu  Cu44  1  0.04281306  0.82160246  0.69566612  1
  Cu  Cu45  1  0.77878940  0.82160246  0.19566612  1
  Cu  Cu46  1  0.04281306  0.22121060  0.19566612  1
  Cu  Cu47  1  0.17839754  0.95718694  0.19566612  1
  Cu  Cu48  1  0.87278957  0.33431036  0.63546107  1
  Cu  Cu49  1  0.46152179  0.12721043  0.63546107  1
  Cu  Cu50  1  0.66568964  0.53847821  0.63546107  1
  Cu  Cu51  1  0.87278957  0.53847821  0.13546107  1
  Cu  Cu52  1  0.66568964  0.12721043  0.13546107  1
  Cu  Cu53  1  0.46152179  0.33431036  0.13546107  1
  Cu  Cu54  1  0.44545640  0.29051994  0.02899912  1
  Cu  Cu55  1  0.84506454  0.55454360  0.02899912  1
  Cu  Cu56  1  0.70948006  0.15493546  0.02899912  1
  Cu  Cu57  1  0.44545640  0.15493546  0.52899912  1
  Cu  Cu58  1  0.70948006  0.55454360  0.52899912  1
  Cu  Cu59  1  0.84506454  0.29051994  0.52899912  1
  Cu  Cu60  1  0.53945557  0.66764436  0.96879507  1
  Cu  Cu61  1  0.12818779  0.46054443  0.96879507  1
  Cu  Cu62  1  0.33235564  0.87181221  0.96879507  1
  Cu  Cu63  1  0.53945557  0.87181221  0.46879507  1
  Cu  Cu64  1  0.33235564  0.46054443  0.46879507  1
  Cu  Cu65  1  0.12818779  0.66764436  0.46879507  1
  Cu  Cu66  1  0.11212240  0.62385394  0.36233312  1
  Cu  Cu67  1  0.51173054  0.88787760  0.36233312  1
  Cu  Cu68  1  0.37614606  0.48826946  0.36233312  1
  Cu  Cu69  1  0.11212240  0.48826946  0.86233312  1
  Cu  Cu70  1  0.37614606  0.88787760  0.86233312  1
  Cu  Cu71  1  0.51173054  0.62385394  0.86233312  1
  Cu  Cu72  1  0.99694753  0.79342533  0.41183894  1
  Cu  Cu73  1  0.79647780  0.00305247  0.41183894  1
  Cu  Cu74  1  0.20657467  0.20352220  0.41183894  1
  Cu  Cu75  1  0.99694753  0.20352220  0.91183894  1
  Cu  Cu76  1  0.20657467  0.00305247  0.91183894  1
  Cu  Cu77  1  0.79647780  0.79342533  0.91183894  1
  Cu  Cu78  1  0.96102589  0.14591623  0.58783500  1
  Cu  Cu79  1  0.18489034  0.03897411  0.58783500  1
  Cu  Cu80  1  0.85408377  0.81510966  0.58783500  1
  Cu  Cu81  1  0.96102589  0.81510966  0.08783500  1
  Cu  Cu82  1  0.85408377  0.03897411  0.08783500  1
  Cu  Cu83  1  0.18489034  0.14591623  0.08783500  1
  Cu  Cu84  1  0.66361453  0.12675833  0.74517194  1
  Cu  Cu85  1  0.46314480  0.33638547  0.74517194  1
  Cu  Cu86  1  0.87324167  0.53685520  0.74517194  1
  Cu  Cu87  1  0.66361453  0.53685520  0.24517194  1
  Cu  Cu88  1  0.87324167  0.33638547  0.24517194  1
  Cu  Cu89  1  0.46314480  0.12675833  0.24517194  1
  Cu  Cu90  1  0.62769289  0.47924923  0.92116800  1
  Cu  Cu91  1  0.85155734  0.37230711  0.92116800  1
  Cu  Cu92  1  0.52075077  0.14844266  0.92116800  1
  Cu  Cu93  1  0.62769289  0.14844266  0.42116800  1
  Cu  Cu94  1  0.52075077  0.37230711  0.42116800  1
  Cu  Cu95  1  0.85155734  0.47924923  0.42116800  1
  Cu  Cu96  1  0.33028053  0.46009233  0.07850594  1
  Cu  Cu97  1  0.12981080  0.66971947  0.07850594  1
  Cu  Cu98  1  0.53990767  0.87018920  0.07850594  1
  Cu  Cu99  1  0.33028053  0.87018920  0.57850594  1
  Cu  Cu100  1  0.53990767  0.66971947  0.57850594  1
  Cu  Cu101  1  0.12981080  0.46009233  0.57850594  1
  Cu  Cu102  1  0.29435889  0.81258323  0.25450200  1
  Cu  Cu103  1  0.51822334  0.70564111  0.25450200  1
  Cu  Cu104  1  0.18741677  0.48177666  0.25450200  1
  Cu  Cu105  1  0.29435889  0.48177666  0.75450200  1
  Cu  Cu106  1  0.18741677  0.70564111  0.75450200  1
  Cu  Cu107  1  0.51822334  0.81258323  0.75450200  1
