# generated using pymatgen
data_Cu4NiC12
_symmetry_space_group_name_H-M   'P 1'
_cell_length_a   4.00322800
_cell_length_b   5.54168358
_cell_length_c   10.42141327
_cell_angle_alpha   86.41824934
_cell_angle_beta   90.00000000
_cell_angle_gamma   111.17343245
_symmetry_Int_Tables_number   1
_chemical_formula_structural   Cu4NiC12
_chemical_formula_sum   'Cu4 Ni1 C12'
_cell_volume   215.10309647
_cell_formula_units_Z   1
loop_
 _symmetry_equiv_pos_site_id
 _symmetry_equiv_pos_as_xyz
  1  'x, y, z'
loop_
 _atom_site_type_symbol
 _atom_site_label
 _atom_site_symmetry_multiplicity
 _atom_site_fract_x
 _atom_site_fract_y
 _atom_site_fract_z
 _atom_site_occupancy
  Ni  Ni0  1  0.50001600  0.00003300  0.49998200  1
  Cu  Cu1  1  0.15662500  0.31324900  0.58141900  1
  Cu  Cu2  1  0.13777500  0.27555100  0.94690400  1
  Cu  Cu3  1  0.86222000  0.72444000  0.05310300  1
  Cu  Cu4  1  0.84336800  0.68673700  0.41860600  1
  C  C5  1  0.18841400  0.37682800  0.23932300  1
  C  C6  1  0.81157000  0.62313700  0.76067400  1
  C  C7  1  0.03834600  0.07669200  0.10865200  1
  C  C8  1  0.05897700  0.11795300  0.39937600  1
  C  C9  1  0.32940600  0.65881300  0.42650200  1
  C  C10  1  0.30423700  0.60847700  0.04916000  1
  C  C11  1  0.22608300  0.45216500  0.76425300  1
  C  C12  1  0.77392400  0.54784700  0.23576600  1
  C  C13  1  0.94101800  0.88203600  0.60061100  1
  C  C14  1  0.67059100  0.34118100  0.57349200  1
  C  C15  1  0.96167000  0.92333900  0.89133300  1
  C  C16  1  0.69576300  0.39152300  0.95084300  1
