# generated using pymatgen
data_CuNiC17
_symmetry_space_group_name_H-M   'P 1'
_cell_length_a   8.83519475
_cell_length_b   8.90354694
_cell_length_c   22.16655392
_cell_angle_alpha   89.92844700
_cell_angle_beta   90.00000000
_cell_angle_gamma   119.74637140
_symmetry_Int_Tables_number   1
_chemical_formula_structural   CuNiC17
_chemical_formula_sum   'Cu6 Ni6 C102'
_cell_volume   1513.95099978
_cell_formula_units_Z   6
loop_
 _symmetry_equiv_pos_site_id
 _symmetry_equiv_pos_as_xyz
  1  'x, y, z'
loop_
 _atom_site_type_symbol
 _atom_site_label
 _atom_site_symmetry_multiplicity
 _atom_site_fract_x
 _atom_site_fract_y
 _atom_site_fract_z
 _atom_site_occupancy
  C  C0  1  0.99402952  0.62939357  0.24208388  1
  C  C1  1  0.63536405  0.62939357  0.74208388  1
  C  C2  1  0.65171382  0.96073925  0.57610601  1
  C  C3  1  0.30902643  0.96073925  0.07610601  1
  C  C4  1  0.69740141  0.02736567  0.91031536  1
  C  C5  1  0.32996327  0.02736567  0.41031536  1
  C  C6  1  0.98668157  0.99682838  0.49308045  1
  C  C7  1  0.01014681  0.99682838  0.99308045  1
  C  C8  1  0.65942050  0.31589657  0.82699764  1
  C  C9  1  0.65647707  0.31589657  0.32699764  1
  C  C10  1  0.33177863  0.64813981  0.16027297  1
  C  C11  1  0.31636018  0.64813981  0.66027297  1
  C  C12  1  0.98467352  0.98590465  0.64737300  1
  C  C13  1  0.00123112  0.98590465  0.14737300  1
  C  C14  1  0.67085095  0.34315505  0.98003113  1
  C  C15  1  0.67230510  0.34315505  0.48003113  1
  C  C16  1  0.34937334  0.69449974  0.31406425  1
  C  C17  1  0.34512540  0.69449974  0.81406425  1
  Ni  Ni18  1  0.99817319  0.00960535  0.34937908  1
  Ni  Ni19  1  0.01143217  0.00960535  0.84937908  1
  Ni  Ni20  1  0.66124231  0.32162230  0.68329336  1
  Ni  Ni21  1  0.66038099  0.32162230  0.18329336  1
  Ni  Ni22  1  0.30632040  0.66648007  0.01619844  1
  Ni  Ni23  1  0.36015866  0.66648007  0.51619844  1
  Cu  Cu24  1  0.29902146  0.01033007  0.25439374  1
  Cu  Cu25  1  0.71130861  0.01033007  0.75439374  1
  Cu  Cu26  1  0.66362784  0.61843567  0.58946410  1
  Cu  Cu27  1  0.95480883  0.61843567  0.08946410  1
  Cu  Cu28  1  0.33037125  0.97294361  0.92069761  1
  Cu  Cu29  1  0.64257136  0.97294361  0.42069761  1
  C  C30  1  0.70410990  0.71130947  0.25115631  1
  C  C31  1  0.00789679  0.29547143  0.25012277  1
  C  C32  1  0.28757464  0.29547143  0.75012277  1
  C  C33  1  0.00719957  0.71130947  0.75115631  1
  C  C34  1  0.96076465  0.33296598  0.58286946  1
  C  C35  1  0.36565403  0.04210136  0.58194825  1
  C  C36  1  0.67644833  0.04210136  0.08194825  1
  C  C37  1  0.37220233  0.33296598  0.08286946  1
  C  C38  1  0.61532304  0.65753461  0.91809381  1
  C  C39  1  0.04104570  0.38020473  0.91776452  1
  C  C40  1  0.33915803  0.38020473  0.41776452  1
  C  C41  1  0.04221057  0.65753461  0.41809381  1
  C  C42  1  0.20693339  0.01734865  0.31553574  1
  C  C43  1  0.80973618  0.79236110  0.30455488  1
  C  C44  1  0.98581437  0.19936827  0.30556139  1
  C  C45  1  0.21355390  0.19936827  0.80556139  1
  C  C46  1  0.98262492  0.79236110  0.80455488  1
  C  C47  1  0.81041525  0.01734865  0.81553574  1
  C  C48  1  0.80963456  0.97091922  0.69478989  1
  C  C49  1  0.18206911  0.20199618  0.69584241  1
  C  C50  1  0.03279603  0.82022370  0.69560446  1
  C  C51  1  0.78742767  0.82022370  0.19560446  1
  C  C52  1  0.01992707  0.20199618  0.19584241  1
  C  C53  1  0.16128466  0.97091922  0.19478989  1
  C  C54  1  0.88422531  0.35424399  0.63816895  1
  C  C55  1  0.47974499  0.11684226  0.63437425  1
  C  C56  1  0.65246511  0.51917202  0.65041047  1
  C  C57  1  0.86670791  0.51917202  0.15041047  1
  C  C58  1  0.63709827  0.11684226  0.13437425  1
  C  C59  1  0.47001968  0.35424399  0.13816895  1
  C  C60  1  0.45844848  0.29909855  0.02914591  1
  C  C61  1  0.82655152  0.51307241  0.02997852  1
  C  C62  1  0.69294151  0.14627077  0.02572894  1
  C  C63  1  0.45333025  0.14627077  0.52572894  1
  C  C64  1  0.68652190  0.51307241  0.52997852  1
  C  C65  1  0.84065107  0.29909855  0.52914591  1
  C  C66  1  0.52494978  0.67488892  0.97029212  1
  C  C67  1  0.13869344  0.45154571  0.97320684  1
  C  C68  1  0.31662988  0.86982711  0.98129511  1
  C  C69  1  0.55319623  0.86982711  0.48129511  1
  C  C70  1  0.31285128  0.45154571  0.47320684  1
  C  C71  1  0.14993814  0.67488892  0.47029212  1
  C  C72  1  0.12219192  0.63614712  0.36050884  1
  C  C73  1  0.49783011  0.86269659  0.36237458  1
  C  C74  1  0.35595961  0.48522064  0.36350230  1
  C  C75  1  0.12926003  0.48522064  0.86350230  1
  C  C76  1  0.36486548  0.86269659  0.86237458  1
  C  C77  1  0.51395421  0.63614712  0.86050884  1
  C  C78  1  0.01980338  0.81032701  0.41412726  1
  C  C79  1  0.83048548  0.99474985  0.40993944  1
  C  C80  1  0.19623480  0.19951746  0.41347482  1
  C  C81  1  0.00328266  0.19951746  0.91347482  1
  C  C82  1  0.16426437  0.99474985  0.90993944  1
  C  C83  1  0.79052363  0.81032701  0.91412726  1
  C  C84  1  0.96953759  0.16652373  0.58632733  1
  C  C85  1  0.19755501  0.04218885  0.58778558  1
  C  C86  1  0.84862982  0.81930472  0.59193683  1
  C  C87  1  0.97067490  0.81930472  0.09193683  1
  C  C88  1  0.84463384  0.04218885  0.08778558  1
  C  C89  1  0.19698614  0.16652373  0.08632733  1
  C  C90  1  0.67746673  0.16787279  0.74374555  1
  C  C91  1  0.46860240  0.32685953  0.74621733  1
  C  C92  1  0.85608004  0.53780352  0.74541627  1
  C  C93  1  0.68172448  0.53780352  0.24541627  1
  C  C94  1  0.85825813  0.32685953  0.24621733  1
  C  C95  1  0.49040705  0.16787279  0.24374555  1
  C  C96  1  0.63150443  0.49702956  0.92144632  1
  C  C97  1  0.86291311  0.36982846  0.92098516  1
  C  C98  1  0.52116948  0.15881183  0.92355077  1
  C  C99  1  0.63764335  0.15881183  0.42355077  1
  C  C100  1  0.50691635  0.36982846  0.42098516  1
  C  C101  1  0.86552613  0.49702956  0.42144632  1
  C  C102  1  0.34889883  0.48193169  0.07314868  1
  C  C103  1  0.15475379  0.66110800  0.08432892  1
  C  C104  1  0.53152528  0.86309573  0.07597262  1
  C  C105  1  0.33156944  0.86309573  0.57597262  1
  C  C106  1  0.50635322  0.66110800  0.58432892  1
  C  C107  1  0.13303186  0.48193169  0.57314868  1
  C  C108  1  0.30058234  0.81831423  0.25812154  1
  C  C109  1  0.52711586  0.69704503  0.25497409  1
  C  C110  1  0.17179480  0.47021746  0.25191973  1
  C  C111  1  0.29842167  0.47021746  0.75191973  1
  C  C112  1  0.16992817  0.69704503  0.75497409  1
  C  C113  1  0.51773089  0.81831423  0.75812154  1
