# generated using pymatgen
data_Cu5NiC3
_symmetry_space_group_name_H-M   'P 1'
_cell_length_a   8.05477700
_cell_length_b   8.13747600
_cell_length_c   13.75687900
_cell_angle_alpha   90.00000000
_cell_angle_beta   90.00000000
_cell_angle_gamma   90.00000000
_symmetry_Int_Tables_number   1
_chemical_formula_structural   Cu5NiC3
_chemical_formula_sum   'Cu40 Ni8 C24'
_cell_volume   901.70226256
_cell_formula_units_Z   8
loop_
 _symmetry_equiv_pos_site_id
 _symmetry_equiv_pos_as_xyz
  1  'x, y, z'
loop_
 _atom_site_type_symbol
 _atom_site_label
 _atom_site_symmetry_multiplicity
 _atom_site_fract_x
 _atom_site_fract_y
 _atom_site_fract_z
 _atom_site_occupancy
  C  C0  1  0.88594500  0.23700000  0.16079300  1
  C  C1  1  0.38594500  0.76300000  0.33920700  1
  C  C2  1  0.61405500  0.73700000  0.83920700  1
  C  C3  1  0.11405500  0.26300000  0.66079300  1
  C  C4  1  0.11405500  0.76300000  0.83920700  1
  C  C5  1  0.61405500  0.23700000  0.66079300  1
  C  C6  1  0.38594500  0.26300000  0.16079300  1
  C  C7  1  0.88594500  0.73700000  0.33920700  1
  C  C8  1  0.65448900  0.40497500  0.03667400  1
  C  C9  1  0.15448900  0.59502500  0.46332600  1
  C  C10  1  0.84551100  0.90497500  0.96332600  1
  C  C11  1  0.34551100  0.09502500  0.53667400  1
  C  C12  1  0.34551100  0.59502500  0.96332600  1
  C  C13  1  0.84551100  0.40497500  0.53667400  1
  C  C14  1  0.15448900  0.09502500  0.03667400  1
  C  C15  1  0.65448900  0.90497500  0.46332600  1
  C  C16  1  0.65051400  0.50825600  0.13311000  1
  C  C17  1  0.15051400  0.49174400  0.36689000  1
  C  C18  1  0.84948600  0.00825600  0.86689000  1
  C  C19  1  0.34948600  0.99174400  0.63311000  1
  C  C20  1  0.34948600  0.49174400  0.86689000  1
  C  C21  1  0.84948600  0.50825600  0.63311000  1
  C  C22  1  0.15051400  0.99174400  0.13311000  1
  C  C23  1  0.65051400  0.00825600  0.36689000  1
  Ni  Ni24  1  0.61825400  0.36473900  0.37615200  1
  Ni  Ni25  1  0.11825400  0.63526100  0.12384800  1
  Ni  Ni26  1  0.88174600  0.86473900  0.62384800  1
  Ni  Ni27  1  0.38174600  0.13526100  0.87615200  1
  Ni  Ni28  1  0.38174600  0.63526100  0.62384800  1
  Ni  Ni29  1  0.88174600  0.36473900  0.87615200  1
  Ni  Ni30  1  0.11825400  0.13526100  0.37615200  1
  Ni  Ni31  1  0.61825400  0.86473900  0.12384800  1
  Cu  Cu32  1  0.64318900  0.39486700  0.10774400  1
  Cu  Cu33  1  0.14318900  0.60513300  0.39225600  1
  Cu  Cu34  1  0.85681100  0.89486700  0.89225600  1
  Cu  Cu35  1  0.35681100  0.10513300  0.60774400  1
  Cu  Cu36  1  0.35681100  0.60513300  0.89225600  1
  Cu  Cu37  1  0.85681100  0.39486700  0.60774400  1
  Cu  Cu38  1  0.14318900  0.10513300  0.10774400  1
  Cu  Cu39  1  0.64318900  0.89486700  0.39225600  1
  Cu  Cu40  1  0.50940700  0.46592600  0.31529300  1
  Cu  Cu41  1  0.00940700  0.53407400  0.18470700  1
  Cu  Cu42  1  0.99059300  0.96592600  0.68470700  1
  Cu  Cu43  1  0.49059300  0.03407400  0.81529300  1
  Cu  Cu44  1  0.49059300  0.53407400  0.68470700  1
  Cu  Cu45  1  0.99059300  0.46592600  0.81529300  1
  Cu  Cu46  1  0.00940700  0.03407400  0.31529300  1
  Cu  Cu47  1  0.50940700  0.96592600  0.18470700  1
  Cu  Cu48  1  0.67390100  0.22265900  0.31773600  1
  Cu  Cu49  1  0.17390100  0.77734100  0.18226400  1
  Cu  Cu50  1  0.82609900  0.72265900  0.68226400  1
  Cu  Cu51  1  0.32609900  0.27734100  0.81773600  1
  Cu  Cu52  1  0.32609900  0.77734100  0.68226400  1
  Cu  Cu53  1  0.82609900  0.22265900  0.81773600  1
  Cu  Cu54  1  0.17390100  0.27734100  0.31773600  1
  Cu  Cu55  1  0.67390100  0.72265900  0.18226400  1
  Cu  Cu56  1  0.76424000  0.46216600  0.40528900  1
  Cu  Cu57  1  0.26424000  0.53783400  0.09471100  1
  Cu  Cu58  1  0.73576000  0.96216600  0.59471100  1
  Cu  Cu59  1  0.23576000  0.03783400  0.90528900  1
  Cu  Cu60  1  0.23576000  0.53783400  0.59471100  1
  Cu  Cu61  1  0.73576000  0.46216600  0.90528900  1
  Cu  Cu62  1  0.26424000  0.03783400  0.40528900  1
  Cu  Cu63  1  0.76424000  0.96216600  0.09471100  1
  Cu  Cu64  1  0.53184600  0.30698600  0.46206600  1
  Cu  Cu65  1  0.03184600  0.69301400  0.03793400  1
  Cu  Cu66  1  0.96815400  0.80698600  0.53793400  1
  Cu  Cu67  1  0.46815400  0.19301400  0.96206600  1
  Cu  Cu68  1  0.46815400  0.69301400  0.53793400  1
  Cu  Cu69  1  0.96815400  0.30698600  0.96206600  1
  Cu  Cu70  1  0.03184600  0.19301400  0.46206600  1
  Cu  Cu71  1  0.53184600  0.80698600  0.03793400  1
