# generated using pymatgen
data_Cu9Ni6C67
_symmetry_space_group_name_H-M   'P 1'
_cell_length_a   17.94061221
_cell_length_b   8.98830192
_cell_length_c   22.03611357
_cell_angle_alpha   89.80338948
_cell_angle_beta   90.21943611
_cell_angle_gamma   119.97221232
_symmetry_Int_Tables_number   1
_chemical_formula_structural   Cu9Ni6C67
_chemical_formula_sum   'Cu27 Ni18 C201'
_cell_volume   3078.20989513
_cell_formula_units_Z   3
loop_
 _symmetry_equiv_pos_site_id
 _symmetry_equiv_pos_as_xyz
  1  'x, y, z'
loop_
 _atom_site_type_symbol
 _atom_site_label
 _atom_site_symmetry_multiplicity
 _atom_site_fract_x
 _atom_site_fract_y
 _atom_site_fract_z
 _atom_site_occupancy
  C  C0  1  0.81402103  0.00237224  0.24631635  1
  C  C1  1  0.68890140  0.37243965  0.24563596  1
  C  C2  1  0.50074306  0.62280739  0.24733665  1
  C  C3  1  0.31282310  0.62432882  0.74634856  1
  C  C4  1  0.99632326  0.37009193  0.74896671  1
  C  C5  1  0.18697166  0.00473361  0.74537812  1
  C  C6  1  0.15323274  0.33988190  0.58325444  1
  C  C7  1  0.65558960  0.34440324  0.58478856  1
  C  C8  1  0.01839038  0.69561043  0.58395208  1
  C  C9  1  0.51478278  0.68813450  0.58315115  1
  C  C10  1  0.32654115  0.96904647  0.58524316  1
  C  C11  1  0.83056408  0.96816923  0.58593267  1
  C  C12  1  0.15319387  0.96364090  0.08120239  1
  C  C13  1  0.65616389  0.96553924  0.07925407  1
  C  C14  1  0.32993499  0.69081604  0.08100775  1
  C  C15  1  0.82818244  0.68936978  0.08228884  1
  C  C16  1  0.01449574  0.34100327  0.08008100  1
  C  C17  1  0.51889606  0.34515461  0.07833667  1
  C  C18  1  0.48532867  0.66812805  0.91643868  1
  C  C19  1  0.98168799  0.65848573  0.91222562  1
  C  C20  1  0.35458110  0.04378109  0.91316282  1
  C  C21  1  0.85487951  0.05024204  0.91461403  1
  C  C22  1  0.16346580  0.29695262  0.91647192  1
  C  C23  1  0.66528965  0.29419778  0.92196586  1
  C  C24  1  0.48165300  0.30809385  0.41663678  1
  C  C25  1  0.98353688  0.29895628  0.42052097  1
  C  C26  1  0.16435249  0.03649841  0.42558700  1
  C  C27  1  0.66542586  0.02875830  0.42043729  1
  C  C28  1  0.35249345  0.65589683  0.42201963  1
  C  C29  1  0.85406443  0.66522156  0.41627721  1
  C  C30  1  0.00323335  0.00117929  0.49954646  1
  C  C31  1  0.50164067  0.99471105  0.49962103  1
  C  C32  1  0.00112322  0.00826377  0.99547492  1
  C  C33  1  0.50300787  0.00451883  0.99392859  1
  C  C34  1  0.34149493  0.33482293  0.82515125  1
  C  C35  1  0.83413177  0.32774256  0.82846118  1
  C  C36  1  0.33269378  0.33096078  0.33283947  1
  C  C37  1  0.84200438  0.34801134  0.32632113  1
  C  C38  1  0.16379509  0.66240441  0.16138916  1
  C  C39  1  0.66842539  0.66643099  0.16513740  1
  C  C40  1  0.16607490  0.66858517  0.66631318  1
  C  C41  1  0.66847172  0.67081412  0.66454583  1
  C  C42  1  0.99921608  0.99807258  0.64754970  1
  C  C43  1  0.49638493  0.99309900  0.64591216  1
  C  C44  1  0.99653839  0.00028379  0.14532079  1
  C  C45  1  0.50629093  0.01194245  0.14408470  1
  C  C46  1  0.15855690  0.64917382  0.31364113  1
  C  C47  1  0.66275045  0.67806765  0.81121344  1
  Ni  Ni48  1  0.00084953  0.99936861  0.35071724  1
  Ni  Ni49  1  0.50570440  0.00178248  0.34619868  1
  Ni  Ni50  1  0.00005109  0.01668920  0.84013599  1
  Ni  Ni51  1  0.50186736  0.00433489  0.84970909  1
  Ni  Ni52  1  0.33596414  0.33237858  0.68625554  1
  Ni  Ni53  1  0.83810864  0.33821364  0.68273770  1
  Ni  Ni54  1  0.33800798  0.31815574  0.17658901  1
  Ni  Ni55  1  0.83727295  0.34018450  0.18658688  1
  Ni  Ni56  1  0.34158415  0.33587627  0.98974608  1
  Ni  Ni57  1  0.83723115  0.32467390  0.98413604  1
  Ni  Ni58  1  0.33597761  0.34911787  0.48660667  1
  Ni  Ni59  1  0.84093884  0.34638951  0.49312381  1
  Ni  Ni60  1  0.16025412  0.64606451  0.02360695  1
  Ni  Ni61  1  0.65830110  0.66258260  0.02164530  1
  Ni  Ni62  1  0.15793160  0.65375982  0.52317377  1
  Ni  Ni63  1  0.66076229  0.67593939  0.52484589  1
  Ni  Ni64  1  0.65868872  0.65910897  0.30609569  1
  Ni  Ni65  1  0.15742336  0.65576203  0.80575088  1
  Cu  Cu66  1  0.64951276  0.00345608  0.25211124  1
  Cu  Cu67  1  0.85426592  0.70547643  0.25539441  1
  Cu  Cu68  1  0.99819300  0.28718255  0.25179532  1
  Cu  Cu69  1  0.49213315  0.28389580  0.25426035  1
  Cu  Cu70  1  0.14938534  0.29433020  0.75171105  1
  Cu  Cu71  1  0.99407310  0.70475085  0.75475601  1
  Cu  Cu72  1  0.49657295  0.70731904  0.75242866  1
  Cu  Cu73  1  0.35373378  0.00221326  0.75550058  1
  Cu  Cu74  1  0.85067571  0.00262978  0.75006130  1
  Cu  Cu75  1  0.47574774  0.33547056  0.58135096  1
  Cu  Cu76  1  0.97916775  0.33315291  0.58348037  1
  Cu  Cu77  1  0.19124665  0.04577375  0.58166372  1
  Cu  Cu78  1  0.69299300  0.05325521  0.58245465  1
  Cu  Cu79  1  0.32987711  0.61977413  0.58315440  1
  Cu  Cu80  1  0.83026000  0.62111347  0.58204367  1
  Cu  Cu81  1  0.47829459  0.62348053  0.08451541  1
  Cu  Cu82  1  0.97570065  0.61612011  0.08180197  1
  Cu  Cu83  1  0.32940420  0.03328750  0.08079882  1
  Cu  Cu84  1  0.82961652  0.04104602  0.08355847  1
  Cu  Cu85  1  0.19468467  0.33340494  0.08391073  1
  Cu  Cu86  1  0.69508391  0.34243726  0.08152530  1
  Cu  Cu87  1  0.02203427  0.37450395  0.91589868  1
  Cu  Cu88  1  0.51844662  0.37110336  0.91892393  1
  Cu  Cu89  1  0.66655669  0.96509669  0.91965195  1
  Cu  Cu90  1  0.16639295  0.36803495  0.41958059  1
  Cu  Cu91  1  0.01658920  0.66576106  0.42022592  1
  Cu  Cu92  1  0.52159590  0.66904694  0.41444807  1
  C  C93  1  0.14885832  0.00318187  0.25139639  1
  C  C94  1  0.35264390  0.71021078  0.25099788  1
  C  C95  1  0.64772001  0.29333953  0.75148319  1
  C  C96  1  0.31041146  0.66365014  0.91759202  1
  C  C97  1  0.81160775  0.66767116  0.91715830  1
  C  C98  1  0.16747523  0.95767691  0.91760327  1
  C  C99  1  0.31264948  0.95431610  0.41524675  1
  C  C100  1  0.81026082  0.95586197  0.41638030  1
  C  C101  1  0.66645777  0.37577185  0.41605107  1
  C  C102  1  0.10798869  0.02014019  0.30706004  1
  C  C103  1  0.60645733  0.03881744  0.31145621  1
  C  C104  1  0.40528712  0.79066199  0.30642530  1
  C  C105  1  0.91302165  0.79896217  0.31471700  1
  C  C106  1  0.48024989  0.16705295  0.31450959  1
  C  C107  1  0.98757885  0.17421746  0.31197578  1
  C  C108  1  0.10849013  0.17510265  0.81215226  1
  C  C109  1  0.60668591  0.19091161  0.80723639  1
  C  C110  1  0.48575215  0.79974485  0.81227465  1
  C  C111  1  0.98527682  0.80091168  0.81520220  1
  C  C112  1  0.41268550  0.02707226  0.81498354  1
  C  C113  1  0.90905661  0.03793149  0.81130367  1
  C  C114  1  0.40319150  0.97153492  0.69534005  1
  C  C115  1  0.89918330  0.97422346  0.69091844  1
  C  C116  1  0.08343809  0.19662837  0.69336034  1
  C  C117  1  0.59179735  0.21088370  0.69628633  1
  C  C118  1  0.01129509  0.83103151  0.69437390  1
  C  C119  1  0.51542587  0.83305075  0.69207863  1
  C  C120  1  0.39381848  0.81359130  0.19572636  1
  C  C121  1  0.90355460  0.83604581  0.19542412  1
  C  C122  1  0.01694399  0.19975200  0.19195675  1
  C  C123  1  0.50663230  0.18542377  0.19475577  1
  C  C124  1  0.09426470  0.97203816  0.19645598  1
  C  C125  1  0.58211838  0.96940906  0.19393291  1
  C  C126  1  0.43473176  0.38048462  0.63805131  1
  C  C127  1  0.93921518  0.37455434  0.64203550  1
  C  C128  1  0.25014164  0.12654068  0.64174106  1
  C  C129  1  0.75532653  0.13938481  0.63930781  1
  C  C130  1  0.31199958  0.50263361  0.64254167  1
  C  C131  1  0.80836450  0.49055865  0.63822176  1
  C  C132  1  0.43847906  0.50633270  0.14505912  1
  C  C133  1  0.93570116  0.49058864  0.13929390  1
  C  C134  1  0.30585828  0.11032757  0.13925048  1
  C  C135  1  0.81163836  0.12008564  0.14359344  1
  C  C136  1  0.25749987  0.37159312  0.14215414  1
  C  C137  1  0.74919046  0.37119685  0.14321673  1
  C  C138  1  0.23229924  0.29169815  0.02195067  1
  C  C139  1  0.73038118  0.29219545  0.02150578  1
  C  C140  1  0.41798846  0.55116035  0.02398299  1
  C  C141  1  0.91588131  0.54961614  0.02055847  1
  C  C142  1  0.35843422  0.15979056  0.02162532  1
  C  C143  1  0.85814898  0.16178863  0.02330413  1
  C  C144  1  0.23009155  0.16723779  0.52059734  1
  C  C145  1  0.72984975  0.16774838  0.51928072  1
  C  C146  1  0.35882219  0.55753910  0.52241282  1
  C  C147  1  0.85540160  0.55471794  0.51964270  1
  C  C148  1  0.41669151  0.28396641  0.51920012  1
  C  C149  1  0.91953066  0.28591987  0.52184019  1
  C  C150  1  0.27140830  0.69110051  0.97311540  1
  C  C151  1  0.77232909  0.69246372  0.97295212  1
  C  C152  1  0.08328274  0.45493178  0.97680580  1
  C  C153  1  0.57886969  0.45478568  0.97891905  1
  C  C154  1  0.15854655  0.85457909  0.97302157  1
  C  C155  1  0.64730689  0.83930557  0.97807102  1
  C  C156  1  0.27403195  0.85210309  0.47042576  1
  C  C157  1  0.77091553  0.84970773  0.47162554  1
  C  C158  1  0.14852640  0.45957365  0.47634857  1
  C  C159  1  0.65593680  0.45786709  0.47096424  1
  C  C160  1  0.08134757  0.70477388  0.47690227  1
  C  C161  1  0.58417348  0.71441725  0.47444022  1
  C  C162  1  0.06978775  0.63933309  0.36044500  1
  C  C163  1  0.56580200  0.63338017  0.35517991  1
  C  C164  1  0.25725358  0.86370311  0.36050478  1
  C  C165  1  0.75844359  0.87191174  0.36118230  1
  C  C166  1  0.18192666  0.50335164  0.36020267  1
  C  C167  1  0.67831163  0.48027346  0.36055553  1
  C  C168  1  0.06720411  0.50091454  0.85726010  1
  C  C169  1  0.57155454  0.50228114  0.86128674  1
  C  C170  1  0.18077340  0.87835929  0.86252524  1
  C  C171  1  0.68166650  0.86295995  0.86108279  1
  C  C172  1  0.25880761  0.64462530  0.86268121  1
  C  C173  1  0.75637594  0.64745157  0.86325069  1
  C  C174  1  0.00996369  0.83985679  0.41161910  1
  C  C175  1  0.50761061  0.84167609  0.40809670  1
  C  C176  1  0.39958473  0.97043022  0.41037279  1
  C  C177  1  0.89873489  0.97778242  0.41436720  1
  C  C178  1  0.07983534  0.18008563  0.40976327  1
  C  C179  1  0.58546294  0.20109148  0.41367181  1
  C  C180  1  0.01104790  0.17832738  0.91101279  1
  C  C181  1  0.50945801  0.18056135  0.91203621  1
  C  C182  1  0.08807019  0.97123260  0.91546648  1
  C  C183  1  0.57942052  0.97974387  0.91027933  1
  C  C184  1  0.39883124  0.81768654  0.91564358  1
  C  C185  1  0.89876754  0.82259147  0.91319239  1
  C  C186  1  0.48916081  0.16504837  0.59157702  1
  C  C187  1  0.98904043  0.15986300  0.58792757  1
  C  C188  1  0.09294072  0.02289308  0.58871332  1
  C  C189  1  0.59495024  0.03285635  0.58990364  1
  C  C190  1  0.41879019  0.81792109  0.58998977  1
  C  C191  1  0.91754577  0.81367719  0.58959009  1
  C  C192  1  0.48631584  0.81527343  0.09152343  1
  C  C193  1  0.98976231  0.81419356  0.09246228  1
  C  C194  1  0.41583084  0.01349742  0.09196282  1
  C  C195  1  0.91899177  0.02086908  0.09018513  1
  C  C196  1  0.09682742  0.15846599  0.09163121  1
  C  C197  1  0.59415117  0.16564650  0.08893632  1
  C  C198  1  0.34124529  0.16600559  0.74661485  1
  C  C199  1  0.84248988  0.17263200  0.74357645  1
  C  C200  1  0.24268974  0.31100485  0.74528771  1
  C  C201  1  0.73144430  0.30976648  0.74578049  1
  C  C202  1  0.41138995  0.52404047  0.74545347  1
  C  C203  1  0.91172954  0.51355438  0.74710885  1
  C  C204  1  0.34238048  0.53761307  0.24746440  1
  C  C205  1  0.84133928  0.51635348  0.24684001  1
  C  C206  1  0.40985867  0.31526474  0.24619026  1
  C  C207  1  0.91327348  0.30201826  0.24568162  1
  C  C208  1  0.23386148  0.15830639  0.24582240  1
  C  C209  1  0.74226471  0.17321472  0.24590892  1
  C  C210  1  0.31760848  0.50508414  0.92101228  1
  C  C211  1  0.81787573  0.50971872  0.91808502  1
  C  C212  1  0.42333739  0.36109303  0.92097043  1
  C  C213  1  0.92682666  0.36098714  0.92086269  1
  C  C214  1  0.24498273  0.13445506  0.92052081  1
  C  C215  1  0.75356983  0.15346172  0.91991530  1
  C  C216  1  0.31937366  0.12437995  0.41511114  1
  C  C217  1  0.81780127  0.12847469  0.41922584  1
  C  C218  1  0.25384081  0.35456545  0.41892600  1
  C  C219  1  0.74266482  0.35209992  0.41849811  1
  C  C220  1  0.42623655  0.49388706  0.41989362  1
  C  C221  1  0.92316243  0.48677930  0.42071155  1
  C  C222  1  0.17968085  0.49933236  0.08020916  1
  C  C223  1  0.67793532  0.50429394  0.07660784  1
  C  C224  1  0.07481187  0.65040087  0.07608653  1
  C  C225  1  0.57444785  0.64920848  0.08105783  1
  C  C226  1  0.24705791  0.84054186  0.07241249  1
  C  C227  1  0.74965672  0.84490020  0.07584133  1
  C  C228  1  0.17813749  0.85190705  0.57566173  1
  C  C229  1  0.67809347  0.85717401  0.57904570  1
  C  C230  1  0.24975991  0.65490036  0.57482970  1
  C  C231  1  0.74709427  0.65027184  0.57293381  1
  C  C232  1  0.07531468  0.50092624  0.58031482  1
  C  C233  1  0.57455981  0.49923506  0.57531002  1
  C  C234  1  0.15899732  0.84564437  0.25652578  1
  C  C235  1  0.65365551  0.82587657  0.25258685  1
  C  C236  1  0.26678213  0.70132161  0.25529080  1
  C  C237  1  0.75885400  0.69376209  0.25829056  1
  C  C238  1  0.08793884  0.48381987  0.25512813  1
  C  C239  1  0.58336106  0.46851600  0.25328298  1
  C  C240  1  0.15424463  0.48113954  0.75308504  1
  C  C241  1  0.65350305  0.46557819  0.75619568  1
  C  C242  1  0.08513469  0.69919485  0.75348259  1
  C  C243  1  0.58496863  0.69037671  0.75549073  1
  C  C244  1  0.25923012  0.82316155  0.75875176  1
  C  C245  1  0.75840720  0.81851088  0.75630737  1
