# generated using pymatgen
data_Cu6NiC24
_symmetry_space_group_name_H-M   'P 1'
_cell_length_a   5.49603819
_cell_length_b   5.41278814
_cell_length_c   15.52511608
_cell_angle_alpha   88.95933397
_cell_angle_beta   100.28044565
_cell_angle_gamma   91.64498018
_symmetry_Int_Tables_number   1
_chemical_formula_structural   Cu6NiC24
_chemical_formula_sum   'Cu6 Ni1 C24'
_cell_volume   454.21315732
_cell_formula_units_Z   1
loop_
 _symmetry_equiv_pos_site_id
 _symmetry_equiv_pos_as_xyz
  1  'x, y, z'
loop_
 _atom_site_type_symbol
 _atom_site_label
 _atom_site_symmetry_multiplicity
 _atom_site_fract_x
 _atom_site_fract_y
 _atom_site_fract_z
 _atom_site_occupancy
  Ni  Ni0  1  0.33011600  0.25536300  0.18200700  1
  Cu  Cu1  1  0.04720700  0.94308500  0.98699400  1
  Cu  Cu2  1  0.14045700  0.47679100  0.34901200  1
  Cu  Cu3  1  0.26383000  0.03875700  0.66582300  1
  Cu  Cu4  1  0.53331400  0.46498900  0.98215400  1
  Cu  Cu5  1  0.67779100  0.99458400  0.34947200  1
  Cu  Cu6  1  0.77060000  0.48889900  0.66564500  1
  C  C7  1  0.02262600  0.21814800  0.64803800  1
  C  C8  1  0.52408600  0.30163400  0.64653300  1
  C  C9  1  0.73691800  0.25567800  0.97908600  1
  C  C10  1  0.27115900  0.73814500  0.00432100  1
  C  C11  1  0.88461400  0.28137600  0.33581200  1
  C  C12  1  0.24891300  0.24768900  0.96320000  1
  C  C13  1  0.12910100  0.74105100  0.69023100  1
  C  C14  1  0.08466700  0.06951100  0.10820800  1
  C  C15  1  0.25397500  0.48559500  0.46386700  1
  C  C16  1  0.39583400  0.08394100  0.77699000  1
  C  C17  1  0.14536600  0.51619600  0.22343600  1
  C  C18  1  0.29324800  0.94892700  0.55872500  1
  C  C19  1  0.47238200  0.57103600  0.87315100  1
  C  C20  1  0.37171300  0.20670000  0.32732600  1
  C  C21  1  0.46558900  0.70697200  0.34781400  1
  C  C22  1  0.63451700  0.77493000  0.68607600  1
  C  C23  1  0.52642400  0.41625600  0.10633400  1
  C  C24  1  0.69826400  0.03881600  0.46131100  1
  C  C25  1  0.89468900  0.42877400  0.77667800  1
  C  C26  1  0.58589400  0.00150100  0.22597100  1
  C  C27  1  0.81383200  0.57418100  0.55810500  1
  C  C28  1  0.90538300  0.93601300  0.87332200  1
  C  C29  1  0.76650800  0.72891700  0.01716300  1
  C  C30  1  0.95621900  0.79054200  0.35023500  1
