# generated using pymatgen
data_CuNiC
_symmetry_space_group_name_H-M   'P 1'
_cell_length_a   6.96444000
_cell_length_b   8.33415500
_cell_length_c   12.61064500
_cell_angle_alpha   90.00000000
_cell_angle_beta   90.00000000
_cell_angle_gamma   90.00000000
_symmetry_Int_Tables_number   1
_chemical_formula_structural   CuNiC
_chemical_formula_sum   'Cu16 Ni16 C16'
_cell_volume   731.95616763
_cell_formula_units_Z   16
loop_
 _symmetry_equiv_pos_site_id
 _symmetry_equiv_pos_as_xyz
  1  'x, y, z'
loop_
 _atom_site_type_symbol
 _atom_site_label
 _atom_site_symmetry_multiplicity
 _atom_site_fract_x
 _atom_site_fract_y
 _atom_site_fract_z
 _atom_site_occupancy
  Ni  Ni0  1  0.02326300  0.25959000  0.44559200  1
  Ni  Ni1  1  0.52326300  0.24041000  0.55440800  1
  Ni  Ni2  1  0.47673700  0.75959000  0.05440800  1
  Ni  Ni3  1  0.97673700  0.74041000  0.94559200  1
  Ni  Ni4  1  0.97673700  0.74041000  0.55440800  1
  Ni  Ni5  1  0.47673700  0.75959000  0.44559200  1
  Ni  Ni6  1  0.52326300  0.24041000  0.94559200  1
  Ni  Ni7  1  0.02326300  0.25959000  0.05440800  1
  Ni  Ni8  1  0.64666000  0.80559000  0.75000000  1
  Ni  Ni9  1  0.14666000  0.69441000  0.25000000  1
  Ni  Ni10  1  0.85334000  0.30559000  0.75000000  1
  Ni  Ni11  1  0.35334000  0.19441000  0.25000000  1
  Ni  Ni12  1  0.29303600  0.65225400  0.75000000  1
  Ni  Ni13  1  0.79303600  0.84774600  0.25000000  1
  Ni  Ni14  1  0.20696400  0.15225400  0.75000000  1
  Ni  Ni15  1  0.70696400  0.34774600  0.25000000  1
  C  C16  1  0.75844100  0.13459800  0.36794400  1
  C  C17  1  0.25844100  0.36540200  0.63205600  1
  C  C18  1  0.74155900  0.63459800  0.13205600  1
  C  C19  1  0.24155900  0.86540200  0.86794400  1
  C  C20  1  0.24155900  0.86540200  0.63205600  1
  C  C21  1  0.74155900  0.63459800  0.36794400  1
  C  C22  1  0.25844100  0.36540200  0.86794400  1
  C  C23  1  0.75844100  0.13459800  0.13205600  1
  C  C24  1  0.17290200  0.03883700  0.36793100  1
  C  C25  1  0.67290200  0.46116300  0.63206900  1
  C  C26  1  0.32709800  0.53883700  0.13206900  1
  C  C27  1  0.82709800  0.96116300  0.86793100  1
  C  C28  1  0.82709800  0.96116300  0.63206900  1
  C  C29  1  0.32709800  0.53883700  0.36793100  1
  C  C30  1  0.67290200  0.46116300  0.86793100  1
  C  C31  1  0.17290200  0.03883700  0.13206900  1
  Cu  Cu32  1  0.71878100  0.22464000  0.25000000  1
  Cu  Cu33  1  0.21878100  0.27536000  0.75000000  1
  Cu  Cu34  1  0.78121900  0.72464000  0.25000000  1
  Cu  Cu35  1  0.28121900  0.77536000  0.75000000  1
  Cu  Cu36  1  0.25973700  0.09966100  0.25000000  1
  Cu  Cu37  1  0.75973700  0.40033900  0.75000000  1
  Cu  Cu38  1  0.24026300  0.59966100  0.25000000  1
  Cu  Cu39  1  0.74026300  0.90033900  0.75000000  1
  Cu  Cu40  1  0.98899900  0.15771200  0.09535900  1
  Cu  Cu41  1  0.48899900  0.34228800  0.90464100  1
  Cu  Cu42  1  0.51100100  0.65771200  0.40464100  1
  Cu  Cu43  1  0.01100100  0.84228800  0.59535900  1
  Cu  Cu44  1  0.01100100  0.84228800  0.90464100  1
  Cu  Cu45  1  0.51100100  0.65771200  0.09535900  1
  Cu  Cu46  1  0.48899900  0.34228800  0.59535900  1
  Cu  Cu47  1  0.98899900  0.15771200  0.40464100  1
