# generated using pymatgen
data_Cu(NiC8)2
_symmetry_space_group_name_H-M   'P 1'
_cell_length_a   8.98941500
_cell_length_b   8.91604859
_cell_length_c   22.86141070
_cell_angle_alpha   89.53024224
_cell_angle_beta   90.00000000
_cell_angle_gamma   120.27257457
_symmetry_Int_Tables_number   1
_chemical_formula_structural   Cu(NiC8)2
_chemical_formula_sum   'Cu6 Ni12 C96'
_cell_volume   1582.40820991
_cell_formula_units_Z   6
loop_
 _symmetry_equiv_pos_site_id
 _symmetry_equiv_pos_as_xyz
  1  'x, y, z'
loop_
 _atom_site_type_symbol
 _atom_site_label
 _atom_site_symmetry_multiplicity
 _atom_site_fract_x
 _atom_site_fract_y
 _atom_site_fract_z
 _atom_site_occupancy
  C  C0  1  0.99056357  0.62714731  0.24335496  1
  C  C1  1  0.63658374  0.62714731  0.74335496  1
  C  C2  1  0.65723057  0.96048031  0.57668796  1
  C  C3  1  0.30325074  0.96048031  0.07668796  1
  C  C4  1  0.32389657  0.29381431  0.91002196  1
  C  C5  1  0.96991674  0.29381431  0.41002196  1
  C  C6  1  0.99821815  0.97468523  0.49106441  1
  C  C7  1  0.97646708  0.97468523  0.99106441  1
  C  C8  1  0.66488515  0.30801823  0.82439741  1
  C  C9  1  0.64313408  0.30801823  0.32439741  1
  C  C10  1  0.33155115  0.64135223  0.15773141  1
  C  C11  1  0.30980008  0.64135223  0.65773141  1
  C  C12  1  0.00391130  0.01175054  0.64807846  1
  C  C13  1  0.00783923  0.01175054  0.14807846  1
  C  C14  1  0.67057830  0.34508354  0.98141146  1
  C  C15  1  0.67450623  0.34508354  0.48141146  1
  C  C16  1  0.33724430  0.67841754  0.31474546  1
  C  C17  1  0.34117223  0.67841754  0.81474546  1
  C  C18  1  0.00029321  0.99525018  0.34807587  1
  C  C19  1  0.99495697  0.99525018  0.84807587  1
  C  C20  1  0.66696021  0.32858318  0.68140887  1
  C  C21  1  0.66162397  0.32858318  0.18140887  1
  C  C22  1  0.33362621  0.66191718  0.01474287  1
  C  C23  1  0.32828997  0.66191718  0.51474287  1
  Ni  Ni24  1  0.29806699  0.01011485  0.25098570  1
  Ni  Ni25  1  0.99517211  0.29482521  0.25468750  1
  Ni  Ni26  1  0.29965310  0.29482521  0.75468750  1
  Ni  Ni27  1  0.71204786  0.01011485  0.75098570  1
  Ni  Ni28  1  0.96473399  0.34344785  0.58431870  1
  Ni  Ni29  1  0.66183911  0.62815821  0.58802050  1
  Ni  Ni30  1  0.96632010  0.62815821  0.08802050  1
  Ni  Ni31  1  0.37871486  0.34344785  0.08431870  1
  Ni  Ni32  1  0.63139999  0.67678185  0.91765270  1
  Ni  Ni33  1  0.32850511  0.96149221  0.92135450  1
  Ni  Ni34  1  0.63298610  0.96149221  0.42135450  1
  Ni  Ni35  1  0.04538086  0.67678185  0.41765270  1
  Cu  Cu36  1  0.70596805  0.70534470  0.25094655  1
  Cu  Cu37  1  -0.00062334  0.70534470  0.75094655  1
  Cu  Cu38  1  0.37263505  0.03867770  0.58427955  1
  Cu  Cu39  1  0.66604366  0.03867770  0.08427955  1
  Cu  Cu40  1  0.03930105  0.37201170  0.91761355  1
  Cu  Cu41  1  0.33270966  0.37201170  0.41761355  1
  C  C42  1  0.20659238  0.02338919  0.30430436  1
  C  C43  1  0.80923202  0.78656215  0.30312257  1
  C  C44  1  0.97553527  0.19318661  0.31101667  1
  C  C45  1  0.21765135  0.19318661  0.81101667  1
  C  C46  1  0.97733013  0.78656215  0.80312257  1
  C  C47  1  0.81679682  0.02338919  0.80430436  1
  C  C48  1  0.79195691  0.97424280  0.69452205  1
  C  C49  1  0.18330328  0.19829445  0.70052361  1
  C  C50  1  0.02451158  0.81403292  0.69749792  1
  C  C51  1  0.78952133  0.81403292  0.19749792  1
  C  C52  1  0.01499117  0.19829445  0.20052361  1
  C  C53  1  0.18228589  0.97424280  0.19452205  1
  C  C54  1  0.87325938  0.35672219  0.63763736  1
  C  C55  1  0.47589902  0.11989515  0.63645557  1
  C  C56  1  0.64220227  0.52651961  0.64434967  1
  C  C57  1  0.88431835  0.52651961  0.14434967  1
  C  C58  1  0.64399713  0.11989515  0.13645557  1
  C  C59  1  0.48346382  0.35672219  0.13763736  1
  C  C60  1  0.45862391  0.30757580  0.02785505  1
  C  C61  1  0.84997028  0.53162745  0.03385661  1
  C  C62  1  0.69117858  0.14736592  0.03083092  1
  C  C63  1  0.45618833  0.14736592  0.53083092  1
  C  C64  1  0.68165817  0.53162745  0.53385661  1
  C  C65  1  0.84895289  0.30757580  0.52785505  1
  C  C66  1  0.53992538  0.69005619  0.97097136  1
  C  C67  1  0.14256502  0.45322915  0.96978957  1
  C  C68  1  0.30886827  0.85985361  0.97768367  1
  C  C69  1  0.55098435  0.85985361  0.47768367  1
  C  C70  1  0.31066313  0.45322915  0.46978957  1
  C  C71  1  0.15012982  0.69005619  0.47097136  1
  C  C72  1  0.12528991  0.64090980  0.36118905  1
  C  C73  1  0.51663628  0.86496145  0.36719061  1
  C  C74  1  0.35784458  0.48069992  0.36416492  1
  C  C75  1  0.12285433  0.48069992  0.86416492  1
  C  C76  1  0.34832417  0.86496145  0.86719061  1
  C  C77  1  0.51561889  0.64090980  0.86118905  1
  C  C78  1  0.01770293  0.82996399  0.41002895  1
  C  C79  1  0.81660742  0.99464781  0.41377379  1
  C  C80  1  0.17709470  0.19933520  0.41185326  1
  C  C81  1  0.02224050  0.19933520  0.91185326  1
  C  C82  1  0.17804039  0.99464781  0.91377379  1
  C  C83  1  0.81226106  0.82996399  0.91002895  1
  C  C84  1  0.97115451  0.16797312  0.58843898  1
  C  C85  1  0.19882568  0.02168245  0.58828803  1
  C  C86  1  0.83244482  0.81227129  0.58943636  1
  C  C87  1  0.97982646  0.81227129  0.08943636  1
  C  C88  1  0.82285677  0.02168245  0.08828803  1
  C  C89  1  0.19681861  0.16797312  0.08843898  1
  C  C90  1  0.68436993  0.16329699  0.74336195  1
  C  C91  1  0.48327442  0.32798081  0.74710679  1
  C  C92  1  0.84376170  0.53266820  0.74518626  1
  C  C93  1  0.68890750  0.53266820  0.24518626  1
  C  C94  1  0.84470739  0.32798081  0.24710679  1
  C  C95  1  0.47892806  0.16329699  0.24336195  1
  C  C96  1  0.63782151  0.50130612  0.92177198  1
  C  C97  1  0.86549268  0.35501545  0.92162103  1
  C  C98  1  0.49911182  0.14560429  0.92276936  1
  C  C99  1  0.64649346  0.14560429  0.42276936  1
  C  C100  1  0.48952377  0.35501545  0.42162103  1
  C  C101  1  0.86348561  0.50130612  0.42177198  1
  C  C102  1  0.35103593  0.49663099  0.07669595  1
  C  C103  1  0.14994042  0.66131481  0.08044079  1
  C  C104  1  0.51042770  0.86600220  0.07852026  1
  C  C105  1  0.35557350  0.86600220  0.57852026  1
  C  C106  1  0.51137339  0.66131481  0.58044079  1
  C  C107  1  0.14559406  0.49663099  0.57669595  1
  C  C108  1  0.30448751  0.83464012  0.25510598  1
  C  C109  1  0.53215868  0.68834945  0.25495503  1
  C  C110  1  0.16577782  0.47893829  0.25610336  1
  C  C111  1  0.31315946  0.47893829  0.75610336  1
  C  C112  1  0.15618977  0.68834945  0.75495503  1
  C  C113  1  0.53015161  0.83464012  0.75510598  1
