# generated using pymatgen
data_Cu2Ni10C99
_symmetry_space_group_name_H-M   'P 1'
_cell_length_a   17.51071597
_cell_length_b   8.74613447
_cell_length_c   22.59044564
_cell_angle_alpha   89.91188819
_cell_angle_beta   89.98892476
_cell_angle_gamma   119.86380686
_symmetry_Int_Tables_number   1
_chemical_formula_structural   Cu2Ni10C99
_chemical_formula_sum   'Cu4 Ni20 C198'
_cell_volume   3000.33041286
_cell_formula_units_Z   2
loop_
 _symmetry_equiv_pos_site_id
 _symmetry_equiv_pos_as_xyz
  1  'x, y, z'
loop_
 _atom_site_type_symbol
 _atom_site_label
 _atom_site_symmetry_multiplicity
 _atom_site_fract_x
 _atom_site_fract_y
 _atom_site_fract_z
 _atom_site_occupancy
  C  C0  1  0.31863003  0.99909760  0.25474036  1
  C  C1  1  0.81865853  0.99973885  0.24943298  1
  C  C2  1  0.18039655  0.36402943  0.26161985  1
  C  C3  1  0.68253853  0.36691156  0.25820926  1
  C  C4  1  0.68067065  0.99835233  0.75103006  1
  C  C5  1  0.98430187  0.67739637  0.92545382  1
  C  C6  1  0.00937869  0.02391370  0.49451024  1
  C  C7  1  0.50910733  0.02375016  0.49484080  1
  C  C8  1  0.99632796  0.99757218  0.00078419  1
  C  C9  1  0.51265597  0.01216393  0.00059465  1
  C  C10  1  0.33587520  0.33729766  0.82511710  1
  C  C11  1  0.82627841  0.32601336  0.83512516  1
  C  C12  1  0.33651711  0.35270022  0.33474144  1
  C  C13  1  0.83663568  0.35245136  0.33262472  1
  C  C14  1  0.15288847  0.66173199  0.16540913  1
  C  C15  1  0.66486820  0.66689796  0.16164625  1
  C  C16  1  0.16605443  0.66134259  0.65597001  1
  C  C17  1  0.66481486  0.64896929  0.66430066  1
  Ni  Ni18  1  0.00261492  0.00325948  0.35407862  1
  Ni  Ni19  1  0.50350801  0.00368861  0.35437017  1
  Ni  Ni20  1  0.99877712  0.00323703  0.85119480  1
  Ni  Ni21  1  0.50433477  0.00086872  0.85067068  1
  Ni  Ni22  1  0.99951167  0.00513338  0.64626622  1
  Ni  Ni23  1  0.50054660  0.00159337  0.64627398  1
  Ni  Ni24  1  0.99842369  0.99290783  0.14678857  1
  Ni  Ni25  1  0.50419700  0.00217068  0.14791509  1
  Ni  Ni26  1  0.33412583  0.33572326  0.68403035  1
  Ni  Ni27  1  0.83518478  0.33556269  0.68395860  1
  Ni  Ni28  1  0.33683918  0.34213136  0.18380201  1
  Ni  Ni29  1  0.83446434  0.33810401  0.17920383  1
  Ni  Ni30  1  0.82606222  0.32399306  0.98542167  1
  Ni  Ni31  1  0.16200612  0.66738404  0.02007191  1
  Ni  Ni32  1  0.67206595  0.67383203  0.01798946  1
  Ni  Ni33  1  0.16440309  0.65633981  0.51583335  1
  Ni  Ni34  1  0.66422350  0.65555646  0.51673060  1
  Ni  Ni35  1  0.16414294  0.65622387  0.32248501  1
  Ni  Ni36  1  0.66529297  0.65762674  0.32221785  1
  Ni  Ni37  1  0.66738058  0.66293399  0.81663107  1
  Cu  Cu38  1  0.33241896  0.32819352  0.97951792  1
  Cu  Cu39  1  0.33089734  0.33405275  0.47992577  1
  Cu  Cu40  1  0.83080696  0.33467762  0.47959908  1
  Cu  Cu41  1  0.16814689  0.67559546  0.81344857  1
  C  C42  1  0.16238868  0.95807899  0.91951940  1
  C  C43  1  0.15927613  0.36764868  0.41515218  1
  C  C44  1  0.65897227  0.36816091  0.41514916  1
  C  C45  1  0.14627434  0.99675787  0.24838004  1
  C  C46  1  0.64629268  0.99474896  0.24913574  1
  C  C47  1  0.35532905  0.71078700  0.24843827  1
  C  C48  1  0.85462254  0.70792847  0.24983619  1
  C  C49  1  0.99910974  0.29374197  0.24799645  1
  C  C50  1  0.49865384  0.29348582  0.24873639  1
  C  C51  1  0.14706659  0.29062972  0.75042025  1
  C  C52  1  0.64658735  0.29541509  0.74910035  1
  C  C53  1  0.99780761  0.70580525  0.75074879  1
  C  C54  1  0.49856782  0.70466899  0.75006971  1
  C  C55  1  0.35651717  0.00330740  0.75075559  1
  C  C56  1  0.85344962  0.99967073  0.74951511  1
  C  C57  1  0.48002361  0.33418769  0.58565264  1
  C  C58  1  0.98045115  0.33573301  0.58512771  1
  C  C59  1  0.18737769  0.03867777  0.58518436  1
  C  C60  1  0.68669089  0.03630384  0.58508197  1
  C  C61  1  0.33389642  0.62821786  0.58512346  1
  C  C62  1  0.83421949  0.62817662  0.58535526  1
  C  C63  1  0.48061728  0.62771625  0.08322149  1
  C  C64  1  0.98143437  0.62859328  0.08222745  1
  C  C65  1  0.33351271  0.03868358  0.08551507  1
  C  C66  1  0.83405460  0.03805835  0.08435380  1
  C  C67  1  0.18766935  0.33616810  0.08438024  1
  C  C68  1  0.68335706  0.33380783  0.08494581  1
  C  C69  1  0.31300651  0.67098273  0.91854091  1
  C  C70  1  0.81188990  0.66313236  0.91647515  1
  C  C71  1  0.02140676  0.37377170  0.91748512  1
  C  C72  1  0.52336851  0.37445746  0.91829159  1
  C  C73  1  0.66644158  0.96089557  0.91583213  1
  C  C74  1  0.31276220  0.95743992  0.41699670  1
  C  C75  1  0.81256486  0.95714662  0.41739163  1
  C  C76  1  0.02110477  0.66926313  0.41855407  1
  C  C77  1  0.52117507  0.66878942  0.41848155  1
  C  C78  1  0.10537378  0.02455294  0.30089568  1
  C  C79  1  0.60431706  0.02272359  0.30102978  1
  C  C80  1  0.40594748  0.79175009  0.30224223  1
  C  C81  1  0.90553046  0.78975419  0.30368407  1
  C  C82  1  0.48309167  0.18139461  0.30140080  1
  C  C83  1  0.98451922  0.18315734  0.30098675  1
  C  C84  1  0.10522567  0.18761785  0.80354583  1
  C  C85  1  0.60644492  0.18437969  0.80257520  1
  C  C86  1  0.48599674  0.78617572  0.80381279  1
  C  C87  1  0.98955194  0.78423655  0.80581309  1
  C  C88  1  0.40616512  0.02046520  0.80469771  1
  C  C89  1  0.90557515  0.02224363  0.80314274  1
  C  C90  1  0.39294229  0.97241125  0.69723376  1
  C  C91  1  0.89548273  0.97748164  0.69633942  1
  C  C92  1  0.09461621  0.22047355  0.69664021  1
  C  C93  1  0.59321058  0.21044266  0.69605407  1
  C  C94  1  0.01654844  0.81678662  0.69855856  1
  C  C95  1  0.51280620  0.81700573  0.69740725  1
  C  C96  1  0.39854558  0.81792564  0.19520198  1
  C  C97  1  0.89720409  0.81585884  0.19683050  1
  C  C98  1  0.01488397  0.21182424  0.19530768  1
  C  C99  1  0.51211783  0.21047442  0.19556872  1
  C  C100  1  0.09589768  0.97671821  0.19411251  1
  C  C101  1  0.59540733  0.97152618  0.19460431  1
  C  C102  1  0.43520334  0.34983342  0.63831902  1
  C  C103  1  0.93614303  0.35216272  0.63789439  1
  C  C104  1  0.24074033  0.12379450  0.63771658  1
  C  C105  1  0.73743738  0.11772532  0.63948658  1
  C  C106  1  0.32183387  0.51929081  0.63745807  1
  C  C107  1  0.82281256  0.51897371  0.63758502  1
  C  C108  1  0.43816360  0.51987652  0.13553189  1
  C  C109  1  0.93528087  0.52163558  0.13430539  1
  C  C110  1  0.32279927  0.12361891  0.13832494  1
  C  C111  1  0.82311995  0.11686732  0.13989170  1
  C  C112  1  0.23951381  0.35638732  0.13760243  1
  C  C113  1  0.73336902  0.35365555  0.14032729  1
  C  C114  1  0.23814275  0.31864647  0.03066916  1
  C  C115  1  0.72769120  0.31263941  0.03276367  1
  C  C116  1  0.42274961  0.53080132  0.02908758  1
  C  C117  1  0.93258467  0.54763561  0.02638939  1
  C  C118  1  0.34171814  0.15694996  0.03129429  1
  C  C119  1  0.84479576  0.14909773  0.03228779  1
  C  C120  1  0.23531075  0.15380409  0.53104666  1
  C  C121  1  0.73722358  0.15596536  0.53257046  1
  C  C122  1  0.34238950  0.53096280  0.53106286  1
  C  C123  1  0.84281632  0.53101118  0.53111771  1
  C  C124  1  0.42468089  0.31646866  0.53149813  1
  C  C125  1  0.92557905  0.31800882  0.53119001  1
  C  C126  1  0.26994153  0.68718307  0.97059127  1
  C  C127  1  0.77112425  0.68338784  0.97031348  1
  C  C128  1  0.07501572  0.45192735  0.96986975  1
  C  C129  1  0.57508593  0.45646036  0.97110783  1
  C  C130  1  0.14838634  0.83297363  0.97319802  1
  C  C131  1  0.65528009  0.84904036  0.96744067  1
  C  C132  1  0.26780417  0.85486316  0.46894153  1
  C  C133  1  0.76782531  0.85472887  0.46930527  1
  C  C134  1  0.15320712  0.46641178  0.47207622  1
  C  C135  1  0.65338511  0.46697419  0.47213658  1
  C  C136  1  0.07376659  0.69768742  0.47131559  1
  C  C137  1  0.57367641  0.69743303  0.47131360  1
  C  C138  1  0.05675643  0.63434736  0.36463328  1
  C  C139  1  0.55673552  0.63379701  0.36458314  1
  C  C140  1  0.26066579  0.89497523  0.36149522  1
  C  C141  1  0.76077186  0.89565160  0.36194588  1
  C  C142  1  0.18595305  0.47428654  0.35257839  1
  C  C143  1  0.68519596  0.47332422  0.35242037  1
  C  C144  1  0.07138378  0.49530567  0.86357700  1
  C  C145  1  0.55670024  0.47823675  0.86423680  1
  C  C146  1  0.18240497  0.86386074  0.85929604  1
  C  C147  1  0.67634439  0.88243957  0.85981653  1
  C  C148  1  0.25674274  0.63603306  0.86361030  1
  C  C149  1  0.75842502  0.63692749  0.86324892  1
  C  C150  1  0.00002162  0.80985706  0.41094748  1
  C  C151  1  0.49958572  0.80882015  0.41076012  1
  C  C152  1  0.40014601  0.97724387  0.41040048  1
  C  C153  1  0.90038486  0.97801248  0.41082427  1
  C  C154  1  0.08131878  0.16749076  0.41137334  1
  C  C155  1  0.58096019  0.16755494  0.41185508  1
  C  C156  1  0.00930357  0.19970081  0.90694345  1
  C  C157  1  0.50492742  0.19181086  0.91233096  1
  C  C158  1  0.07885487  0.97931855  0.90786439  1
  C  C159  1  0.58663710  0.98144107  0.91221011  1
  C  C160  1  0.40022166  0.82321602  0.90935998  1
  C  C161  1  0.90119553  0.82311166  0.91058414  1
  C  C162  1  0.48677993  0.17232661  0.58736463  1
  C  C163  1  0.98787042  0.17462943  0.58695617  1
  C  C164  1  0.10111184  0.02919114  0.58711637  1
  C  C165  1  0.60064189  0.02792006  0.58582119  1
  C  C166  1  0.41604140  0.79895628  0.58654384  1
  C  C167  1  0.91687754  0.79870597  0.58673359  1
  C  C168  1  0.48424258  0.79942532  0.08465575  1
  C  C169  1  0.99217372  0.80786015  0.08650244  1
  C  C170  1  0.41541602  0.03264739  0.08518555  1
  C  C171  1  0.91397078  0.01953349  0.08822609  1
  C  C172  1  0.10217817  0.17456157  0.08463664  1
  C  C173  1  0.59456567  0.17273604  0.08856678  1
  C  C174  1  0.33787291  0.14903564  0.74592065  1
  C  C175  1  0.84105496  0.15766282  0.74453434  1
  C  C176  1  0.23706217  0.31852809  0.74494428  1
  C  C177  1  0.73545904  0.30905708  0.74355823  1
  C  C178  1  0.42064809  0.52607063  0.74399945  1
  C  C179  1  0.92312082  0.52703209  0.74457006  1
  C  C180  1  0.34025868  0.52689424  0.24313559  1
  C  C181  1  0.84025877  0.52506653  0.24422873  1
  C  C182  1  0.41711186  0.30813082  0.24237228  1
  C  C183  1  0.91816395  0.30847246  0.24111478  1
  C  C184  1  0.23720108  0.16034347  0.24350555  1
  C  C185  1  0.73664208  0.15843189  0.24403395  1
  C  C186  1  0.32216663  0.50656198  0.92349679  1
  C  C187  1  0.82653641  0.50792344  0.92167692  1
  C  C188  1  0.43084076  0.35897437  0.92752797  1
  C  C189  1  0.93726888  0.37424771  0.91855300  1
  C  C190  1  0.25507428  0.15430965  0.92582878  1
  C  C191  1  0.74647230  0.13841523  0.92175355  1
  C  C192  1  0.32647042  0.14498588  0.42568261  1
  C  C193  1  0.82643917  0.14520128  0.42635373  1
  C  C194  1  0.25434090  0.35092143  0.42892806  1
  C  C195  1  0.75409728  0.35093438  0.42900000  1
  C  C196  1  0.43064409  0.49780073  0.42720017  1
  C  C197  1  0.93079695  0.49852815  0.42714391  1
  C  C198  1  0.18141168  0.49498888  0.07529276  1
  C  C199  1  0.67345662  0.49218097  0.07912289  1
  C  C200  1  0.06977726  0.64182596  0.08105528  1
  C  C201  1  0.56739279  0.64472507  0.07482900  1
  C  C202  1  0.25554071  0.86608737  0.07730578  1
  C  C203  1  0.75407888  0.86085154  0.07883534  1
  C  C204  1  0.17957747  0.86553286  0.57656214  1
  C  C205  1  0.67946825  0.86429507  0.57619089  1
  C  C206  1  0.25648199  0.64928672  0.57790893  1
  C  C207  1  0.75683894  0.64875388  0.57834891  1
  C  C208  1  0.06720941  0.49623483  0.57985352  1
  C  C209  1  0.56654305  0.49442643  0.58026797  1
  C  C210  1  0.16057560  0.84300858  0.25469205  1
  C  C211  1  0.66048557  0.84129253  0.25599028  1
  C  C212  1  0.26571183  0.69585028  0.25126603  1
  C  C213  1  0.76511843  0.69384598  0.25293843  1
  C  C214  1  0.07801918  0.47273313  0.25405217  1
  C  C215  1  0.57731221  0.47147960  0.25429998  1
  C  C216  1  0.15786743  0.47612318  0.75926684  1
  C  C217  1  0.65691423  0.47270142  0.75556959  1
  C  C218  1  0.08128794  0.68264364  0.75784931  1
  C  C219  1  0.58027121  0.69090627  0.75598861  1
  C  C220  1  0.26445094  0.83134117  0.75787015  1
  C  C221  1  0.76245184  0.84294094  0.75457802  1
