# generated using pymatgen
data_CuNi5C54
_symmetry_space_group_name_H-M   'P 1'
_cell_length_a   9.00989162
_cell_length_b   8.98122779
_cell_length_c   22.33210847
_cell_angle_alpha   89.76128954
_cell_angle_beta   90.00000000
_cell_angle_gamma   120.10563113
_symmetry_Int_Tables_number   1
_chemical_formula_structural   CuNi5C54
_chemical_formula_sum   'Cu2 Ni10 C108'
_cell_volume   1563.31808004
_cell_formula_units_Z   2
loop_
 _symmetry_equiv_pos_site_id
 _symmetry_equiv_pos_as_xyz
  1  'x, y, z'
loop_
 _atom_site_type_symbol
 _atom_site_label
 _atom_site_symmetry_multiplicity
 _atom_site_fract_x
 _atom_site_fract_y
 _atom_site_fract_z
 _atom_site_occupancy
  C  C0  1  0.64315488  0.00339527  0.23961963  1
  C  C1  1  0.37881253  0.34824610  0.24972254  1
  C  C2  1  0.99538779  0.65677914  0.24434536  1
  C  C3  1  0.66139135  0.65677914  0.74434536  1
  C  C4  1  0.96943357  0.34824610  0.74972254  1
  C  C5  1  0.36024039  0.00339527  0.73961963  1
  C  C6  1  0.30105607  0.33568969  0.57536275  1
  C  C7  1  0.03463462  0.33568969  0.07536275  1
  C  C8  1  0.96114699  0.65650326  0.91194780  1
  C  C9  1  0.71893691  0.04783090  0.91074470  1
  C  C10  1  0.32889298  0.04783090  0.41074470  1
  C  C11  1  0.69535527  0.65650326  0.41194780  1
  C  C12  1  0.00061460  0.01649191  0.50032135  1
  C  C13  1  0.01587731  0.01649191  0.00032135  1
  C  C14  1  0.68192778  0.33455006  0.83047056  1
  C  C15  1  0.65262328  0.33455006  0.33047056  1
  C  C16  1  0.35345645  0.69220713  0.15824705  1
  C  C17  1  0.33874968  0.69220713  0.65824705  1
  Ni  Ni18  1  0.01322296  0.00597487  0.34908888  1
  Ni  Ni19  1  0.99275192  0.00597487  0.84908888  1
  Ni  Ni20  1  0.97929629  0.97402837  0.65146924  1
  Ni  Ni21  1  0.99473208  0.97402837  0.15146924  1
  Ni  Ni22  1  0.67813591  0.33449930  0.68308540  1
  Ni  Ni23  1  0.65636439  0.33449930  0.18308540  1
  Ni  Ni24  1  0.66907881  0.33529658  0.98307882  1
  Ni  Ni25  1  0.66621877  0.33529658  0.48307882  1
  Ni  Ni26  1  0.33208378  0.65965184  0.01819252  1
  Ni  Ni27  1  0.32756706  0.65965184  0.51819252  1
  Cu  Cu28  1  0.33992651  0.66207971  0.31473566  1
  Cu  Cu29  1  0.32215220  0.66207971  0.81473566  1
  C  C30  1  0.29701516  0.00087005  0.25118535  1
  C  C31  1  0.71435612  0.71152753  0.25270015  1
  C  C32  1  0.99717141  0.71152753  0.75270015  1
  C  C33  1  0.70385489  0.00087005  0.75118535  1
  C  C34  1  0.03453225  0.36063697  0.92337969  1
  C  C35  1  0.32610372  0.36063697  0.42337969  1
  C  C36  1  0.00233460  0.29436139  0.24933775  1
  C  C37  1  0.29202679  0.29436139  0.74933775  1
  C  C38  1  0.96404815  0.33383664  0.58360621  1
  C  C39  1  0.36966859  0.03807188  0.58207528  1
  C  C40  1  0.66753688  0.62955374  0.58266280  1
  C  C41  1  0.96201786  0.62955374  0.08266280  1
  C  C42  1  0.66840429  0.03807188  0.08207528  1
  C  C43  1  0.36978949  0.33383664  0.08360621  1
  C  C44  1  0.62040961  0.66268502  0.91880401  1
  C  C45  1  0.33284332  0.95758303  0.91861851  1
  C  C46  1  0.62473871  0.95758303  0.41861851  1
  C  C47  1  0.04227440  0.66268502  0.41880401  1
  C  C48  1  0.22727296  0.04435887  0.31154894  1
  C  C49  1  0.81573297  0.78915183  0.31473254  1
  C  C50  1  0.97299736  0.18704363  0.30211637  1
  C  C51  1  0.21404627  0.18704363  0.80211637  1
  C  C52  1  0.97341886  0.78915183  0.81473254  1
  C  C53  1  0.81708591  0.04435887  0.81154894  1
  C  C54  1  0.78091791  0.94753585  0.69574199  1
  C  C55  1  0.18789564  0.23102093  0.69488031  1
  C  C56  1  0.06394007  0.84440355  0.69733060  1
  C  C57  1  0.78046348  0.84440355  0.19733060  1
  C  C58  1  0.04312529  0.23102093  0.19488031  1
  C  C59  1  0.16661794  0.94753585  0.19574199  1
  C  C60  1  0.88319301  0.34783102  0.63980896  1
  C  C61  1  0.47116368  0.12121908  0.63725636  1
  C  C62  1  0.64440744  0.52097177  0.63678534  1
  C  C63  1  0.87656534  0.52097177  0.13678534  1
  C  C64  1  0.65005640  0.12121908  0.13725636  1
  C  C65  1  0.46463901  0.34783102  0.13980896  1
  C  C66  1  0.45965807  0.31737634  0.03097445  1
  C  C67  1  0.86185085  0.54294442  0.02792840  1
  C  C68  1  0.68498631  0.14419345  0.02812860  1
  C  C69  1  0.45920814  0.14419345  0.52812860  1
  C  C70  1  0.68109457  0.54294442  0.52792840  1
  C  C71  1  0.85771928  0.31737634  0.53097445  1
  C  C72  1  0.53576965  0.69124953  0.96925534  1
  C  C73  1  0.14380551  0.46072580  0.98091310  1
  C  C74  1  0.31240613  0.84790959  0.96999800  1
  C  C75  1  0.53550246  0.84790959  0.46999800  1
  C  C76  1  0.31691929  0.46072580  0.48091310  1
  C  C77  1  0.15547888  0.69124953  0.46925534  1
  C  C78  1  0.12656142  0.64730589  0.36185968  1
  C  C79  1  0.51238904  0.87130387  0.36208891  1
  C  C80  1  0.34632583  0.49350470  0.36353106  1
  C  C81  1  0.14717787  0.49350470  0.86353106  1
  C  C82  1  0.35891384  0.87130387  0.86208891  1
  C  C83  1  0.52074347  0.64730589  0.86185968  1
  C  C84  1  0.01895855  0.81457063  0.41369517  1
  C  C85  1  0.79163028  0.96964615  0.41085428  1
  C  C86  1  0.15901046  0.17162989  0.41597912  1
  C  C87  1  0.01261943  0.17162989  0.91597912  1
  C  C88  1  0.17801587  0.96964615  0.91085428  1
  C  C89  1  0.79561208  0.81457063  0.91369517  1
  C  C90  1  0.99048920  0.18212047  0.58644777  1
  C  C91  1  0.20086713  0.03156741  0.58537970  1
  C  C92  1  0.82388242  0.80062754  0.58569667  1
  C  C93  1  0.97674512  0.80062754  0.08569667  1
  C  C94  1  0.83070027  0.03156741  0.08537970  1
  C  C95  1  0.19163127  0.18212047  0.08644777  1
  C  C96  1  0.66041247  0.15612260  0.74251708  1
  C  C97  1  0.46816882  0.32319171  0.74194456  1
  C  C98  1  0.83207266  0.51908926  0.74345126  1
  C  C99  1  0.68701760  0.51908926  0.24345126  1
  C  C100  1  0.85502389  0.32319171  0.24194456  1
  C  C101  1  0.49571112  0.15612260  0.24251708  1
  C  C102  1  0.63310277  0.50445440  0.92274364  1
  C  C103  1  0.84796990  0.35533993  0.91904315  1
  C  C104  1  0.49112224  0.12714888  0.92058914  1
  C  C105  1  0.63602764  0.12714888  0.42058914  1
  C  C106  1  0.50737103  0.35533993  0.41904315  1
  C  C107  1  0.87135264  0.50445440  0.42274364  1
  C  C108  1  0.35412022  0.49277507  0.08045304  1
  C  C109  1  0.13610681  0.64605372  0.08025061  1
  C  C110  1  0.51553004  0.86362085  0.07710812  1
  C  C111  1  0.34808981  0.86362085  0.57710812  1
  C  C112  1  0.50994591  0.64605372  0.58025061  1
  C  C113  1  0.13865385  0.49277507  0.58045304  1
  C  C114  1  0.31093344  0.82010261  0.26258326  1
  C  C115  1  0.50850195  0.67661606  0.26116237  1
  C  C116  1  0.15977961  0.47488937  0.25908707  1
  C  C117  1  0.31510876  0.47488937  0.75908707  1
  C  C118  1  0.16811311  0.67661606  0.76116237  1
  C  C119  1  0.50916816  0.82010261  0.76258326  1
