# generated using pymatgen
data_Cu10NiC2
_symmetry_space_group_name_H-M   'P 1'
_cell_length_a   4.16077600
_cell_length_b   5.60199200
_cell_length_c   11.14699300
_cell_angle_alpha   90.00000000
_cell_angle_beta   90.00000000
_cell_angle_gamma   90.00000000
_symmetry_Int_Tables_number   1
_chemical_formula_structural   Cu10NiC2
_chemical_formula_sum   'Cu20 Ni2 C4'
_cell_volume   259.82117854
_cell_formula_units_Z   2
loop_
 _symmetry_equiv_pos_site_id
 _symmetry_equiv_pos_as_xyz
  1  'x, y, z'
loop_
 _atom_site_type_symbol
 _atom_site_label
 _atom_site_symmetry_multiplicity
 _atom_site_fract_x
 _atom_site_fract_y
 _atom_site_fract_z
 _atom_site_occupancy
  C  C0  1  0.50000000  0.31199100  0.86211400  1
  C  C1  1  0.50000000  0.68800900  0.13788600  1
  C  C2  1  0.50000000  0.81199100  0.63788600  1
  C  C3  1  0.50000000  0.18800900  0.36211400  1
  Ni  Ni4  1  0.00000000  0.50000000  0.50000000  1
  Ni  Ni5  1  0.00000000  0.00000000  0.00000000  1
  Cu  Cu6  1  0.00000000  0.12523900  0.54072300  1
  Cu  Cu7  1  0.00000000  0.87476100  0.45927700  1
  Cu  Cu8  1  0.00000000  0.62523900  0.95927700  1
  Cu  Cu9  1  0.00000000  0.37476100  0.04072300  1
  Cu  Cu10  1  0.00000000  0.15588300  0.69775400  1
  Cu  Cu11  1  0.00000000  0.84411700  0.30224600  1
  Cu  Cu12  1  0.30126200  0.20080600  0.11400400  1
  Cu  Cu13  1  0.30126200  0.79919400  0.88599600  1
  Cu  Cu14  1  0.69873800  0.70080600  0.38599600  1
  Cu  Cu15  1  0.69873800  0.29919400  0.61400400  1
  Cu  Cu16  1  0.69873800  0.79919400  0.88599600  1
  Cu  Cu17  1  0.69873800  0.20080600  0.11400400  1
  Cu  Cu18  1  0.30126200  0.29919400  0.61400400  1
  Cu  Cu19  1  0.30126200  0.70080600  0.38599600  1
  Cu  Cu20  1  0.00000000  0.03229500  0.18759600  1
  Cu  Cu21  1  0.00000000  0.96770500  0.81240400  1
  Cu  Cu22  1  0.00000000  0.53229500  0.31240400  1
  Cu  Cu23  1  0.00000000  0.46770500  0.68759600  1
  Cu  Cu24  1  0.00000000  0.34411700  0.19775400  1
  Cu  Cu25  1  0.00000000  0.65588300  0.80224600  1
