# generated using pymatgen
data_Cu2NiC14
_symmetry_space_group_name_H-M   'P 1'
_cell_length_a   8.89657576
_cell_length_b   8.90171158
_cell_length_c   23.06479424
_cell_angle_alpha   89.88605940
_cell_angle_beta   90.03887533
_cell_angle_gamma   119.73857339
_symmetry_Int_Tables_number   1
_chemical_formula_structural   Cu2NiC14
_chemical_formula_sum   'Cu12 Ni6 C84'
_cell_volume   1586.03869532
_cell_formula_units_Z   6
loop_
 _symmetry_equiv_pos_site_id
 _symmetry_equiv_pos_as_xyz
  1  'x, y, z'
loop_
 _atom_site_type_symbol
 _atom_site_label
 _atom_site_symmetry_multiplicity
 _atom_site_fract_x
 _atom_site_fract_y
 _atom_site_fract_z
 _atom_site_occupancy
  C  C0  1  0.66650819  0.33206863  0.97233908  1
  C  C1  1  0.32143756  0.65899632  0.31340173  1
  C  C2  1  0.33983021  0.67204338  0.81473353  1
  C  C3  1  0.99684642  0.99868239  0.35356709  1
  C  C4  1  0.99533929  0.00196772  0.85481891  1
  C  C5  1  0.99327969  0.99682416  0.64948726  1
  C  C6  1  0.00121262  0.00629473  0.14541370  1
  C  C7  1  0.66736931  0.32964161  0.68624864  1
  C  C8  1  0.67277503  0.33401671  0.18750547  1
  C  C9  1  0.67248933  0.33612495  0.47723602  1
  C  C10  1  0.33211359  0.66633664  0.01899412  1
  C  C11  1  0.33080169  0.66968083  0.52169794  1
  Ni  Ni12  1  0.99951778  0.28794064  0.25052689  1
  Ni  Ni13  1  0.70775600  0.00027365  0.75054492  1
  Ni  Ni14  1  0.62066073  0.66601491  0.91827768  1
  Ni  Ni15  1  0.04879816  0.38221720  0.91780330  1
  Ni  Ni16  1  0.33190101  0.95438760  0.91739129  1
  Ni  Ni17  1  0.04209646  0.66805532  0.41767643  1
  Cu  Cu18  1  0.29277305  0.99711830  0.25018369  1
  Cu  Cu19  1  0.70176637  0.70657581  0.25037804  1
  Cu  Cu20  1  0.29399001  0.29764836  0.75083569  1
  Cu  Cu21  1  0.00410291  0.70707299  0.75090710  1
  Cu  Cu22  1  0.96100495  0.33220651  0.58305103  1
  Cu  Cu23  1  0.37179746  0.04346940  0.58284721  1
  Cu  Cu24  1  0.66648691  0.62473826  0.58295783  1
  Cu  Cu25  1  0.95353739  0.62374456  0.08201670  1
  Cu  Cu26  1  0.66537492  0.04545192  0.08180187  1
  Cu  Cu27  1  0.38207110  0.33224918  0.08262061  1
  Cu  Cu28  1  0.61777019  0.95244658  0.41626557  1
  Cu  Cu29  1  0.33435457  0.37872308  0.41675723  1
  C  C30  1  0.21499614  0.02749621  0.30167739  1
  C  C31  1  0.81348171  0.78151361  0.30140772  1
  C  C32  1  0.96925783  0.17723175  0.30422472  1
  C  C33  1  0.21787377  0.18684872  0.80181591  1
  C  C34  1  0.97461316  0.78637142  0.80204769  1
  C  C35  1  0.82015411  0.03116960  0.80358902  1
  C  C36  1  0.77425634  0.95243405  0.69628414  1
  C  C37  1  0.18569672  0.22777451  0.69841407  1
  C  C38  1  0.04602472  0.81642204  0.69836880  1
  C  C39  1  0.77201001  0.81607451  0.19794597  1
  C  C40  1  0.04605954  0.21974082  0.19631201  1
  C  C41  1  0.18220246  0.95437311  0.19806292  1
  C  C42  1  0.88250891  0.36233572  0.63516156  1
  C  C43  1  0.47922807  0.12303604  0.63493654  1
  C  C44  1  0.63869931  0.51793037  0.63561372  1
  C  C45  1  0.87944054  0.52082419  0.13542131  1
  C  C46  1  0.63745644  0.11985530  0.13520838  1
  C  C47  1  0.48379810  0.35724198  0.13615846  1
  C  C48  1  0.47631830  0.31505040  0.03103600  1
  C  C49  1  0.84151549  0.53118566  0.03063090  1
  C  C50  1  0.68525170  0.15912292  0.03050847  1
  C  C51  1  0.45126354  0.15005966  0.52985260  1
  C  C52  1  0.69226224  0.54371375  0.53035507  1
  C  C53  1  0.85298757  0.30334069  0.53054823  1
  C  C54  1  0.54579287  0.69755586  0.97259508  1
  C  C55  1  0.15056690  0.45518508  0.97310970  1
  C  C56  1  0.30068160  0.84992830  0.97210546  1
  C  C57  1  0.54550827  0.84879672  0.46915367  1
  C  C58  1  0.30820699  0.45671400  0.46888437  1
  C  C59  1  0.15476975  0.69901870  0.47059450  1
  C  C60  1  0.14560445  0.64674490  0.36278582  1
  C  C61  1  0.50635154  0.85876586  0.36435216  1
  C  C62  1  0.35609311  0.49339225  0.36430622  1
  C  C63  1  0.13504172  0.50444005  0.86500799  1
  C  C64  1  0.36870381  0.86591629  0.86462017  1
  C  C65  1  0.49732961  0.63091469  0.86510115  1
  C  C66  1  0.02822049  0.82780535  0.40468703  1
  C  C67  1  0.79058627  0.97281988  0.40839068  1
  C  C68  1  0.18099517  0.20947575  0.40769860  1
  C  C69  1  0.01403605  0.20159360  0.90711064  1
  C  C70  1  0.18878589  0.99091740  0.90313515  1
  C  C71  1  0.80210162  0.80670602  0.90624097  1
  C  C72  1  0.97935137  0.17711760  0.59004737  1
  C  C73  1  0.19822689  0.02528328  0.59043808  1
  C  C74  1  0.82316198  0.79632865  0.58905616  1
  C  C75  1  0.96111649  0.79396469  0.08658171  1
  C  C76  1  0.82737209  0.03699657  0.08494694  1
  C  C77  1  0.21348667  0.16929566  0.08536118  1
  C  C78  1  0.67240528  0.14978535  0.74220293  1
  C  C79  1  0.47163896  0.33026760  0.74276054  1
  C  C80  1  0.85519450  0.53300945  0.74265207  1
  C  C81  1  0.67065414  0.52941985  0.24236973  1
  C  C82  1  0.85021332  0.32328420  0.24245196  1
  C  C83  1  0.46704879  0.14527693  0.24217046  1
  C  C84  1  0.62699412  0.49123571  0.92766932  1
  C  C85  1  0.86404914  0.37094696  0.92782439  1
  C  C86  1  0.50535648  0.13573334  0.92730990  1
  C  C87  1  0.62165650  0.11977328  0.41896771  1
  C  C88  1  0.49537280  0.37080811  0.41857349  1
  C  C89  1  0.86990285  0.49909549  0.41913085  1
  C  C90  1  0.36140168  0.48502836  0.07622343  1
  C  C91  1  0.12659666  0.64361043  0.07548995  1
  C  C92  1  0.51266352  0.87389817  0.07489590  1
  C  C93  1  0.35689666  0.87074927  0.57768972  1
  C  C94  1  0.51066314  0.64345646  0.57672764  1
  C  C95  1  0.13405005  0.48704660  0.57694352  1
  C  C96  1  0.31464629  0.84074896  0.26146047  1
  C  C97  1  0.52819503  0.69102333  0.26256708  1
  C  C98  1  0.16602591  0.47346476  0.26438033  1
  C  C99  1  0.30808536  0.47214138  0.76229442  1
  C  C100  1  0.16170810  0.68781236  0.76195578  1
  C  C101  1  0.52336953  0.83254709  0.76510943  1
