# generated using pymatgen
data_Cu2NiC11
_symmetry_space_group_name_H-M   'P 1'
_cell_length_a   5.52342219
_cell_length_b   6.47530502
_cell_length_c   6.73091966
_cell_angle_alpha   118.79078656
_cell_angle_beta   119.09068793
_cell_angle_gamma   92.59385370
_symmetry_Int_Tables_number   1
_chemical_formula_structural   Cu2NiC11
_chemical_formula_sum   'Cu2 Ni1 C11'
_cell_volume   171.65463568
_cell_formula_units_Z   1
loop_
 _symmetry_equiv_pos_site_id
 _symmetry_equiv_pos_as_xyz
  1  'x, y, z'
loop_
 _atom_site_type_symbol
 _atom_site_label
 _atom_site_symmetry_multiplicity
 _atom_site_fract_x
 _atom_site_fract_y
 _atom_site_fract_z
 _atom_site_occupancy
  Ni  Ni0  1  0.00000000  0.50000000  0.50000000  1
  Cu  Cu1  1  0.66228200  0.70881700  0.31494100  1
  Cu  Cu2  1  0.33771700  0.29118200  0.68505900  1
  C  C3  1  0.49999900  0.99999900  0.00000000  1
  C  C4  1  0.98448800  0.74663600  0.00687700  1
  C  C5  1  0.01551300  0.25336400  0.99312300  1
  C  C6  1  0.03238100  0.39767600  0.76811400  1
  C  C7  1  0.96761900  0.60232300  0.23188600  1
  C  C8  1  0.01802300  0.86488100  0.75481300  1
  C  C9  1  0.98197600  0.13511800  0.24518700  1
  C  C10  1  0.51133400  0.36326600  0.22803300  1
  C  C11  1  0.45279500  0.90907400  0.23110500  1
  C  C12  1  0.54720500  0.09092600  0.76889500  1
  C  C13  1  0.48866600  0.63673300  0.77196700  1
