# generated using pymatgen
data_CuNiC3
_symmetry_space_group_name_H-M   'P 1'
_cell_length_a   6.17982200
_cell_length_b   6.39369400
_cell_length_c   8.88746600
_cell_angle_alpha   90.00000000
_cell_angle_beta   90.00000000
_cell_angle_gamma   90.00000000
_symmetry_Int_Tables_number   1
_chemical_formula_structural   CuNiC3
_chemical_formula_sum   'Cu4 Ni4 C12'
_cell_volume   351.16058646
_cell_formula_units_Z   4
loop_
 _symmetry_equiv_pos_site_id
 _symmetry_equiv_pos_as_xyz
  1  'x, y, z'
loop_
 _atom_site_type_symbol
 _atom_site_label
 _atom_site_symmetry_multiplicity
 _atom_site_fract_x
 _atom_site_fract_y
 _atom_site_fract_z
 _atom_site_occupancy
  Ni  Ni0  1  0.97742900  0.05323500  0.25000000  1
  Ni  Ni1  1  0.47742900  0.44676500  0.75000000  1
  Ni  Ni2  1  0.52257100  0.55323500  0.25000000  1
  Ni  Ni3  1  0.02257100  0.94676500  0.75000000  1
  Cu  Cu4  1  0.00000000  0.50000000  0.00000000  1
  Cu  Cu5  1  0.50000000  0.00000000  0.00000000  1
  Cu  Cu6  1  0.50000000  0.00000000  0.50000000  1
  Cu  Cu7  1  0.00000000  0.50000000  0.50000000  1
  C  C8  1  0.70303900  0.29577400  0.42799400  1
  C  C9  1  0.20303900  0.20422600  0.57200600  1
  C  C10  1  0.79696100  0.79577400  0.07200600  1
  C  C11  1  0.29696100  0.70422600  0.92799400  1
  C  C12  1  0.29696100  0.70422600  0.57200600  1
  C  C13  1  0.79696100  0.79577400  0.42799400  1
  C  C14  1  0.20303900  0.20422600  0.92799400  1
  C  C15  1  0.70303900  0.29577400  0.07200600  1
  C  C16  1  0.13119500  0.43624000  0.25000000  1
  C  C17  1  0.63119500  0.06376000  0.75000000  1
  C  C18  1  0.36880500  0.93624000  0.25000000  1
  C  C19  1  0.86880500  0.56376000  0.75000000  1
