# generated using pymatgen
data_Cu2NiC10
_symmetry_space_group_name_H-M   'P 1'
_cell_length_a   5.13068344
_cell_length_b   5.14172957
_cell_length_c   5.95484700
_cell_angle_alpha   90.00000000
_cell_angle_beta   90.00000000
_cell_angle_gamma   92.64322366
_symmetry_Int_Tables_number   1
_chemical_formula_structural   Cu2NiC10
_chemical_formula_sum   'Cu2 Ni1 C10'
_cell_volume   156.92522157
_cell_formula_units_Z   1
loop_
 _symmetry_equiv_pos_site_id
 _symmetry_equiv_pos_as_xyz
  1  'x, y, z'
loop_
 _atom_site_type_symbol
 _atom_site_label
 _atom_site_symmetry_multiplicity
 _atom_site_fract_x
 _atom_site_fract_y
 _atom_site_fract_z
 _atom_site_occupancy
  Ni  Ni0  1  0.00000000  0.75000000  0.60211800  1
  C  C1  1  0.50000000  0.75000000  0.67464400  1
  C  C2  1  0.50000000  0.25000000  0.34160900  1
  Cu  Cu3  1  0.00000000  0.25000000  0.87777100  1
  Cu  Cu4  1  0.00000000  0.75000000  0.13593700  1
  C  C5  1  0.78422700  0.58693200  0.86218600  1
  C  C6  1  0.21577300  0.91306800  0.86218600  1
  C  C7  1  0.76711200  0.08494800  0.12709500  1
  C  C8  1  0.25584800  0.90193600  0.37745400  1
  C  C9  1  0.75450800  0.06991800  0.63493400  1
  C  C10  1  0.23288800  0.41505200  0.12709500  1
  C  C11  1  0.24549200  0.43008200  0.63493400  1
  C  C12  1  0.74415200  0.59806400  0.37745400  1
