# generated using pymatgen
data_CuNiC3
_symmetry_space_group_name_H-M   'P 1'
_cell_length_a   7.15311200
_cell_length_b   11.40387600
_cell_length_c   13.25526146
_cell_angle_alpha   60.40556064
_cell_angle_beta   90.00000000
_cell_angle_gamma   90.00000000
_symmetry_Int_Tables_number   1
_chemical_formula_structural   CuNiC3
_chemical_formula_sum   'Cu12 Ni12 C36'
_cell_volume   940.21419759
_cell_formula_units_Z   12
loop_
 _symmetry_equiv_pos_site_id
 _symmetry_equiv_pos_as_xyz
  1  'x, y, z'
loop_
 _atom_site_type_symbol
 _atom_site_label
 _atom_site_symmetry_multiplicity
 _atom_site_fract_x
 _atom_site_fract_y
 _atom_site_fract_z
 _atom_site_occupancy
  Ni  Ni0  1  0.81751500  0.75080600  0.46353000  1
  Ni  Ni1  1  0.81751500  0.24919400  0.03647000  1
  Ni  Ni2  1  0.18248500  0.24919400  0.53647000  1
  Ni  Ni3  1  0.18248500  0.75080600  0.96353000  1
  Ni  Ni4  1  0.59353100  0.13703800  0.89302800  1
  Ni  Ni5  1  0.59353100  0.86296200  0.60697200  1
  Ni  Ni6  1  0.40646900  0.86296200  0.10697200  1
  Ni  Ni7  1  0.40646900  0.13703800  0.39302800  1
  Ni  Ni8  1  0.87265900  0.46499500  0.65401800  1
  Ni  Ni9  1  0.87265900  0.53500500  0.84598200  1
  Ni  Ni10  1  0.12734100  0.53500500  0.34598200  1
  Ni  Ni11  1  0.12734100  0.46499500  0.15401800  1
  Cu  Cu12  1  0.69497900  0.19906900  0.60244500  1
  Cu  Cu13  1  0.69497900  0.80093100  0.89755500  1
  Cu  Cu14  1  0.30502100  0.80093100  0.39755500  1
  Cu  Cu15  1  0.30502100  0.19906900  0.10244500  1
  Cu  Cu16  1  0.61576200  0.56662400  0.34530100  1
  Cu  Cu17  1  0.61576200  0.43337600  0.15469900  1
  Cu  Cu18  1  0.38423800  0.43337600  0.65469900  1
  Cu  Cu19  1  0.38423800  0.56662400  0.84530100  1
  Cu  Cu20  1  0.94014700  0.86860700  0.17805600  1
  Cu  Cu21  1  0.94014700  0.13139300  0.32194400  1
  Cu  Cu22  1  0.05985300  0.13139300  0.82194400  1
  Cu  Cu23  1  0.05985300  0.86860700  0.67805600  1
  C  C24  1  0.95336200  0.85822900  0.35878100  1
  C  C25  1  0.95336200  0.14177100  0.14121900  1
  C  C26  1  0.04663800  0.14177100  0.64121900  1
  C  C27  1  0.04663800  0.85822900  0.85878100  1
  C  C28  1  0.62923500  0.71726300  0.41343700  1
  C  C29  1  0.62923500  0.28273700  0.08656300  1
  C  C30  1  0.37076500  0.28273700  0.58656300  1
  C  C31  1  0.37076500  0.71726300  0.91343700  1
  C  C32  1  0.57476000  0.75587300  0.16703900  1
  C  C33  1  0.57476000  0.24412700  0.33296100  1
  C  C34  1  0.42524000  0.24412700  0.83296100  1
  C  C35  1  0.42524000  0.75587300  0.66703900  1
  C  C36  1  0.71393300  0.09893000  0.80674700  1
  C  C37  1  0.71393300  0.90107000  0.69325300  1
  C  C38  1  0.94189800  0.61342600  0.54532000  1
  C  C39  1  0.28606700  0.90107000  0.19325300  1
  C  C40  1  0.05206500  0.36567000  0.70930700  1
  C  C41  1  0.05206500  0.63433000  0.79069300  1
  C  C42  1  0.94793500  0.63433000  0.29069300  1
  C  C43  1  0.94793500  0.36567000  0.20930700  1
  C  C44  1  0.70974800  0.40138000  0.60874600  1
  C  C45  1  0.70974800  0.59862000  0.89125400  1
  C  C46  1  0.29025200  0.59862000  0.39125400  1
  C  C47  1  0.29025200  0.40138000  0.10874600  1
  C  C48  1  0.50000000  0.00000000  0.50000000  1
  C  C49  1  0.50000000  0.00000000  0.00000000  1
  C  C50  1  0.22615900  0.50000000  0.25000000  1
  C  C51  1  0.77384100  0.50000000  0.75000000  1
  C  C52  1  0.23935700  0.18237900  0.45454900  1
  C  C53  1  0.23935700  0.81762100  0.04545100  1
  C  C54  1  0.76064300  0.81762100  0.54545100  1
  C  C55  1  0.76064300  0.18237900  0.95454900  1
  C  C56  1  0.05810200  0.61342600  0.04532000  1
  C  C57  1  0.05810200  0.38657400  0.45468000  1
  C  C58  1  0.94189800  0.38657400  0.95468000  1
  C  C59  1  0.28606700  0.09893000  0.30674700  1
