# generated using pymatgen
data_Cu(NiC4)4
_symmetry_space_group_name_H-M   'P 1'
_cell_length_a   9.21669041
_cell_length_b   9.21669009
_cell_length_c   22.44199746
_cell_angle_alpha   90.00000000
_cell_angle_beta   90.00000000
_cell_angle_gamma   120.00000119
_symmetry_Int_Tables_number   1
_chemical_formula_structural   Cu(NiC4)4
_chemical_formula_sum   'Cu6 Ni24 C96'
_cell_volume   1650.98116869
_cell_formula_units_Z   6
loop_
 _symmetry_equiv_pos_site_id
 _symmetry_equiv_pos_as_xyz
  1  'x, y, z'
loop_
 _atom_site_type_symbol
 _atom_site_label
 _atom_site_symmetry_multiplicity
 _atom_site_fract_x
 _atom_site_fract_y
 _atom_site_fract_z
 _atom_site_occupancy
  Ni  Ni0  1  0.63813698  0.01269088  0.24697528  1
  Ni  Ni1  1  0.37455389  0.36186302  0.24697528  1
  Ni  Ni2  1  0.98730912  0.62544611  0.24697528  1
  Ni  Ni3  1  0.63813698  0.62544611  0.74697528  1
  Ni  Ni4  1  0.98730912  0.36186302  0.74697528  1
  Ni  Ni5  1  0.37455389  0.01269088  0.74697528  1
  Ni  Ni6  1  0.30480398  0.34602388  0.58030828  1
  Ni  Ni7  1  0.04122089  0.69519602  0.58030828  1
  Ni  Ni8  1  0.65397612  0.95877911  0.58030828  1
  Ni  Ni9  1  0.30480398  0.95877911  0.08030828  1
  Ni  Ni10  1  0.65397612  0.69519602  0.08030828  1
  Ni  Ni11  1  0.04122089  0.34602388  0.08030828  1
  Ni  Ni12  1  0.97146998  0.67935788  0.91364228  1
  Ni  Ni13  1  0.70788689  0.02853002  0.91364228  1
  Ni  Ni14  1  0.32064212  0.29211311  0.91364228  1
  Ni  Ni15  1  0.97146998  0.29211311  0.41364228  1
  Ni  Ni16  1  0.32064212  0.02853002  0.41364228  1
  Ni  Ni17  1  0.70788689  0.67935788  0.41364228  1
  Ni  Ni18  1  0.00000000  -0.00000000  0.49491061  1
  Ni  Ni19  1  0.00000000  -0.00000000  0.99491061  1
  Ni  Ni20  1  0.66666700  0.33333300  0.82824361  1
  Ni  Ni21  1  0.66666700  0.33333300  0.32824361  1
  Ni  Ni22  1  0.33333300  0.66666700  0.16157761  1
  Ni  Ni23  1  0.33333300  0.66666700  0.66157761  1
  Cu  Cu24  1  0.00000000  -0.00000000  0.35154704  1
  Cu  Cu25  1  0.00000000  -0.00000000  0.85154704  1
  Cu  Cu26  1  0.66666700  0.33333300  0.68488004  1
  Cu  Cu27  1  0.66666700  0.33333300  0.18488004  1
  Cu  Cu28  1  0.33333300  0.66666700  0.01821404  1
  Cu  Cu29  1  0.33333300  0.66666700  0.51821404  1
  C  C30  1  0.00000000  -0.00000000  0.64668200  1
  C  C31  1  0.00000000  -0.00000000  0.14668200  1
  C  C32  1  0.66666700  0.33333300  0.98001500  1
  C  C33  1  0.66666700  0.33333300  0.48001500  1
  C  C34  1  0.33333300  0.66666700  0.31334900  1
  C  C35  1  0.33333300  0.66666700  0.81334900  1
  C  C36  1  0.29265938  0.99840733  0.25180699  1
  C  C37  1  0.70574795  0.70734062  0.25180699  1
  C  C38  1  0.00159267  0.29425205  0.25180699  1
  C  C39  1  0.29265938  0.29425205  0.75180699  1
  C  C40  1  0.00159267  0.70734062  0.75180699  1
  C  C41  1  0.70574795  0.99840733  0.75180699  1
  C  C42  1  0.95932638  0.33174033  0.58513999  1
  C  C43  1  0.37241495  0.04067362  0.58513999  1
  C  C44  1  0.66825967  0.62758505  0.58513999  1
  C  C45  1  0.95932638  0.62758505  0.08513999  1
  C  C46  1  0.66825967  0.04067362  0.08513999  1
  C  C47  1  0.37241495  0.33174033  0.08513999  1
  C  C48  1  0.62599238  0.66507433  0.91847399  1
  C  C49  1  0.03908095  0.37400762  0.91847399  1
  C  C50  1  0.33492567  0.96091905  0.91847399  1
  C  C51  1  0.62599238  0.96091905  0.41847399  1
  C  C52  1  0.33492567  0.37400762  0.41847399  1
  C  C53  1  0.03908095  0.66507433  0.41847399  1
  C  C54  1  0.20814382  0.02673243  0.31012648  1
  C  C55  1  0.81858860  0.79185618  0.31012648  1
  C  C56  1  0.97326757  0.18141140  0.31012648  1
  C  C57  1  0.20814382  0.18141140  0.81012648  1
  C  C58  1  0.97326757  0.79185618  0.81012648  1
  C  C59  1  0.81858860  0.02673243  0.81012648  1
  C  C60  1  0.80325589  0.97012121  0.69272501  1
  C  C61  1  0.16686532  0.19674411  0.69272501  1
  C  C62  1  0.02987879  0.83313468  0.69272501  1
  C  C63  1  0.80325589  0.83313468  0.19272501  1
  C  C64  1  0.02987879  0.19674411  0.19272501  1
  C  C65  1  0.16686532  0.97012121  0.19272501  1
  C  C66  1  0.87481082  0.36006543  0.64345948  1
  C  C67  1  0.48525560  0.12518918  0.64345948  1
  C  C68  1  0.63993457  0.51474440  0.64345948  1
  C  C69  1  0.87481082  0.51474440  0.14345948  1
  C  C70  1  0.63993457  0.12518918  0.14345948  1
  C  C71  1  0.48525560  0.36006543  0.14345948  1
  C  C72  1  0.46992289  0.30345421  0.02605801  1
  C  C73  1  0.83353232  0.53007711  0.02605801  1
  C  C74  1  0.69654579  0.16646768  0.02605801  1
  C  C75  1  0.46992289  0.16646768  0.52605801  1
  C  C76  1  0.69654579  0.53007711  0.52605801  1
  C  C77  1  0.83353232  0.30345421  0.52605801  1
  C  C78  1  0.54147682  0.69339943  0.97679348  1
  C  C79  1  0.15192160  0.45852318  0.97679348  1
  C  C80  1  0.30660057  0.84807840  0.97679348  1
  C  C81  1  0.54147682  0.84807840  0.47679348  1
  C  C82  1  0.30660057  0.45852318  0.47679348  1
  C  C83  1  0.15192160  0.69339943  0.47679348  1
  C  C84  1  0.13658889  0.63678821  0.35939201  1
  C  C85  1  0.50019832  0.86341111  0.35939201  1
  C  C86  1  0.36321179  0.49980168  0.35939201  1
  C  C87  1  0.13658889  0.49980168  0.85939201  1
  C  C88  1  0.36321179  0.86341111  0.85939201  1
  C  C89  1  0.50019832  0.63678821  0.85939201  1
  C  C90  1  0.01226138  0.82545537  0.41263129  1
  C  C91  1  0.81319399  0.98773862  0.41263129  1
  C  C92  1  0.17454463  0.18680601  0.41263129  1
  C  C93  1  0.01226138  0.18680601  0.91263129  1
  C  C94  1  0.17454463  0.98773862  0.91263129  1
  C  C95  1  0.81319399  0.82545537  0.91263129  1
  C  C96  1  0.96747621  0.15494896  0.58802173  1
  C  C97  1  0.18747275  0.03252379  0.58802173  1
  C  C98  1  0.84505104  0.81252725  0.58802173  1
  C  C99  1  0.96747621  0.81252725  0.08802173  1
  C  C100  1  0.84505104  0.03252379  0.08802173  1
  C  C101  1  0.18747275  0.15494896  0.08802173  1
  C  C102  1  0.67892838  0.15878837  0.74596429  1
  C  C103  1  0.47986099  0.32107162  0.74596429  1
  C  C104  1  0.84121163  0.52013901  0.74596429  1
  C  C105  1  0.67892838  0.52013901  0.24596429  1
  C  C106  1  0.84121163  0.32107162  0.24596429  1
  C  C107  1  0.47986099  0.15878837  0.24596429  1
  C  C108  1  0.63414321  0.48828196  0.92135473  1
  C  C109  1  0.85413975  0.36585679  0.92135473  1
  C  C110  1  0.51171804  0.14586025  0.92135473  1
  C  C111  1  0.63414321  0.14586025  0.42135473  1
  C  C112  1  0.51171804  0.36585679  0.42135473  1
  C  C113  1  0.85413975  0.48828196  0.42135473  1
  C  C114  1  0.34559438  0.49212237  0.07929829  1
  C  C115  1  0.14652699  0.65440562  0.07929829  1
  C  C116  1  0.50787763  0.85347301  0.07929829  1
  C  C117  1  0.34559438  0.85347301  0.57929829  1
  C  C118  1  0.50787763  0.65440562  0.57929829  1
  C  C119  1  0.14652699  0.49212237  0.57929829  1
  C  C120  1  0.30080921  0.82161596  0.25468873  1
  C  C121  1  0.52080575  0.69919079  0.25468873  1
  C  C122  1  0.17838404  0.47919425  0.25468873  1
  C  C123  1  0.30080921  0.47919425  0.75468873  1
  C  C124  1  0.17838404  0.69919079  0.75468873  1
  C  C125  1  0.52080575  0.82161596  0.75468873  1
