# generated using pymatgen
data_CuNiC4
_symmetry_space_group_name_H-M   'P 1'
_cell_length_a   3.82596806
_cell_length_b   3.82596806
_cell_length_c   6.07679253
_cell_angle_alpha   106.29374701
_cell_angle_beta   73.70625299
_cell_angle_gamma   89.49388489
_symmetry_Int_Tables_number   1
_chemical_formula_structural   CuNiC4
_chemical_formula_sum   'Cu1 Ni1 C4'
_cell_volume   81.57953917
_cell_formula_units_Z   1
loop_
 _symmetry_equiv_pos_site_id
 _symmetry_equiv_pos_as_xyz
  1  'x, y, z'
loop_
 _atom_site_type_symbol
 _atom_site_label
 _atom_site_symmetry_multiplicity
 _atom_site_fract_x
 _atom_site_fract_y
 _atom_site_fract_z
 _atom_site_occupancy
  Ni  Ni0  1  0.78529852  0.21470148  0.75487188  1
  Cu  Cu1  1  0.38646937  0.61353063  0.48725405  1
  C  C2  1  0.12672429  0.87327571  0.11800883  1
  C  C3  1  0.61399453  0.38600547  0.13540500  1
  C  C4  1  0.84881250  0.64463221  0.61184611  1
  C  C5  1  0.35536779  0.15118750  0.61184611  1
