# generated using pymatgen
data_Cu3NiC8
_symmetry_space_group_name_H-M   'P 1'
_cell_length_a   5.70159738
_cell_length_b   5.68660273
_cell_length_c   10.13029899
_cell_angle_alpha   106.30036946
_cell_angle_beta   106.34455593
_cell_angle_gamma   90.00000031
_symmetry_Int_Tables_number   1
_chemical_formula_structural   Cu3NiC8
_chemical_formula_sum   'Cu3 Ni1 C8'
_cell_volume   301.39450967
_cell_formula_units_Z   1
loop_
 _symmetry_equiv_pos_site_id
 _symmetry_equiv_pos_as_xyz
  1  'x, y, z'
loop_
 _atom_site_type_symbol
 _atom_site_label
 _atom_site_symmetry_multiplicity
 _atom_site_fract_x
 _atom_site_fract_y
 _atom_site_fract_z
 _atom_site_occupancy
  C  C0  1  0.65754600  0.65754600  0.31509300  1
  C  C1  1  0.34245400  0.34245400  0.68490700  1
  Ni  Ni2  1  0.50000000  0.50000000  0.00000000  1
  Cu  Cu3  1  0.00000000  0.50000000  0.00000000  1
  Cu  Cu4  1  0.50000000  0.00000000  0.00000000  1
  Cu  Cu5  1  0.00000000  0.00000000  0.00000000  1
  C  C6  1  0.75032100  0.25032100  0.50064400  1
  C  C7  1  0.24967900  0.74967900  0.49935600  1
  C  C8  1  0.74369400  0.25587600  0.00000000  1
  C  C9  1  0.74369400  0.74412400  0.00000000  1
  C  C10  1  0.25630600  0.25587600  0.00000000  1
  C  C11  1  0.25630600  0.74412400  0.00000000  1
