# generated using pymatgen
data_Cu2Ni8C13
_symmetry_space_group_name_H-M   'P 1'
_cell_length_a   5.76885000
_cell_length_b   11.14309500
_cell_length_c   14.66933200
_cell_angle_alpha   90.00000000
_cell_angle_beta   90.00000000
_cell_angle_gamma   90.00000000
_symmetry_Int_Tables_number   1
_chemical_formula_structural   Cu2Ni8C13
_chemical_formula_sum   'Cu8 Ni32 C52'
_cell_volume   942.98637454
_cell_formula_units_Z   4
loop_
 _symmetry_equiv_pos_site_id
 _symmetry_equiv_pos_as_xyz
  1  'x, y, z'
loop_
 _atom_site_type_symbol
 _atom_site_label
 _atom_site_symmetry_multiplicity
 _atom_site_fract_x
 _atom_site_fract_y
 _atom_site_fract_z
 _atom_site_occupancy
  C  C0  1  0.62597600  0.75000000  0.67096700  1
  C  C1  1  0.12597600  0.25000000  0.82903300  1
  C  C2  1  0.37402400  0.25000000  0.32903300  1
  C  C3  1  0.87402400  0.75000000  0.17096700  1
  Ni  Ni4  1  0.69838900  0.44428600  0.40366200  1
  Ni  Ni5  1  0.19838900  0.55571400  0.09633800  1
  Ni  Ni6  1  0.30161100  0.94428600  0.59633800  1
  Ni  Ni7  1  0.80161100  0.05571400  0.90366200  1
  Ni  Ni8  1  0.30161100  0.55571400  0.59633800  1
  Ni  Ni9  1  0.80161100  0.44428600  0.90366200  1
  Ni  Ni10  1  0.69838900  0.05571400  0.40366200  1
  Ni  Ni11  1  0.19838900  0.94428600  0.09633800  1
  Ni  Ni12  1  0.62586300  0.37367600  0.49231400  1
  Ni  Ni13  1  0.12586300  0.62632400  0.00768600  1
  Ni  Ni14  1  0.37413700  0.87367600  0.50768600  1
  Ni  Ni15  1  0.87413700  0.12632400  0.99231400  1
  Ni  Ni16  1  0.37413700  0.62632400  0.50768600  1
  Ni  Ni17  1  0.87413700  0.37367600  0.99231400  1
  Ni  Ni18  1  0.62586300  0.12632400  0.49231400  1
  Ni  Ni19  1  0.12586300  0.87367600  0.00768600  1
  Ni  Ni20  1  0.14966300  0.32126500  0.51298800  1
  Ni  Ni21  1  0.64966300  0.67873500  0.98701200  1
  Ni  Ni22  1  0.85033700  0.82126500  0.48701200  1
  Ni  Ni23  1  0.35033700  0.17873500  0.01298800  1
  Ni  Ni24  1  0.85033700  0.67873500  0.48701200  1
  Ni  Ni25  1  0.35033700  0.32126500  0.01298800  1
  Ni  Ni26  1  0.14966300  0.17873500  0.51298800  1
  Ni  Ni27  1  0.64966300  0.82126500  0.98701200  1
  Ni  Ni28  1  0.04161800  0.31992700  0.17270100  1
  Ni  Ni29  1  0.54161800  0.68007300  0.32729900  1
  Ni  Ni30  1  0.95838200  0.81992700  0.82729900  1
  Ni  Ni31  1  0.45838200  0.18007300  0.67270100  1
  Ni  Ni32  1  0.95838200  0.68007300  0.82729900  1
  Ni  Ni33  1  0.45838200  0.31992700  0.67270100  1
  Ni  Ni34  1  0.04161800  0.18007300  0.17270100  1
  Ni  Ni35  1  0.54161800  0.81992700  0.32729900  1
  Cu  Cu36  1  0.61745000  0.44595900  0.14953400  1
  Cu  Cu37  1  0.11745000  0.55404100  0.35046600  1
  Cu  Cu38  1  0.38255000  0.94595900  0.85046600  1
  Cu  Cu39  1  0.88255000  0.05404100  0.64953400  1
  Cu  Cu40  1  0.38255000  0.55404100  0.85046600  1
  Cu  Cu41  1  0.88255000  0.44595900  0.64953400  1
  Cu  Cu42  1  0.61745000  0.05404100  0.14953400  1
  Cu  Cu43  1  0.11745000  0.94595900  0.35046600  1
  C  C44  1  0.60519900  0.37531400  0.42498700  1
  C  C45  1  0.10519900  0.62468600  0.07501300  1
  C  C46  1  0.39480100  0.87531400  0.57501300  1
  C  C47  1  0.89480100  0.12468600  0.92498700  1
  C  C48  1  0.39480100  0.62468600  0.57501300  1
  C  C49  1  0.89480100  0.37531400  0.92498700  1
  C  C50  1  0.60519900  0.12468600  0.42498700  1
  C  C51  1  0.10519900  0.87531400  0.07501300  1
  C  C52  1  0.87151600  0.75000000  0.80349200  1
  C  C53  1  0.37151600  0.25000000  0.69650800  1
  C  C54  1  0.12848400  0.25000000  0.19650800  1
  C  C55  1  0.62848400  0.75000000  0.30349200  1
  C  C56  1  0.81638200  0.75000000  0.52565700  1
  C  C57  1  0.31638200  0.25000000  0.97434300  1
  C  C58  1  0.18361800  0.25000000  0.47434300  1
  C  C59  1  0.68361800  0.75000000  0.02565700  1
  C  C60  1  0.82654900  0.39620600  0.10573200  1
  C  C61  1  0.32654900  0.60379400  0.39426800  1
  C  C62  1  0.17345100  0.89620600  0.89426800  1
  C  C63  1  0.67345100  0.10379400  0.60573200  1
  C  C64  1  0.17345100  0.60379400  0.89426800  1
  C  C65  1  0.67345100  0.39620600  0.60573200  1
  C  C66  1  0.82654900  0.10379400  0.10573200  1
  C  C67  1  0.32654900  0.89620600  0.39426800  1
  C  C68  1  0.40825700  0.43267900  0.09253700  1
  C  C69  1  0.90825700  0.56732100  0.40746300  1
  C  C70  1  0.59174300  0.93267900  0.90746300  1
  C  C71  1  0.09174300  0.06732100  0.59253700  1
  C  C72  1  0.59174300  0.56732100  0.90746300  1
  C  C73  1  0.09174300  0.43267900  0.59253700  1
  C  C74  1  0.40825700  0.06732100  0.09253700  1
  C  C75  1  0.90825700  0.93267900  0.40746300  1
  C  C76  1  0.14874200  0.42262500  0.33074900  1
  C  C77  1  0.64874200  0.57737500  0.16925100  1
  C  C78  1  0.85125800  0.92262500  0.66925100  1
  C  C79  1  0.35125800  0.07737500  0.83074900  1
  C  C80  1  0.85125800  0.57737500  0.66925100  1
  C  C81  1  0.35125800  0.42262500  0.83074900  1
  C  C82  1  0.14874200  0.07737500  0.33074900  1
  C  C83  1  0.64874200  0.92262500  0.16925100  1
  C  C84  1  0.58703800  0.38340700  0.23958500  1
  C  C85  1  0.08703800  0.61659300  0.26041500  1
  C  C86  1  0.41296200  0.88340700  0.76041500  1
  C  C87  1  0.91296200  0.11659300  0.73958500  1
  C  C88  1  0.41296200  0.61659300  0.76041500  1
  C  C89  1  0.91296200  0.38340700  0.73958500  1
  C  C90  1  0.58703800  0.11659300  0.23958500  1
  C  C91  1  0.08703800  0.88340700  0.26041500  1
