# generated using pymatgen
data_Cu6Ni2C9
_symmetry_space_group_name_H-M   'P 1'
_cell_length_a   6.00655078
_cell_length_b   6.53554378
_cell_length_c   7.03799100
_cell_angle_alpha   90.00000000
_cell_angle_beta   90.00000000
_cell_angle_gamma   90.43518172
_symmetry_Int_Tables_number   1
_chemical_formula_structural   Cu6Ni2C9
_chemical_formula_sum   'Cu6 Ni2 C9'
_cell_volume   276.27593704
_cell_formula_units_Z   1
loop_
 _symmetry_equiv_pos_site_id
 _symmetry_equiv_pos_as_xyz
  1  'x, y, z'
loop_
 _atom_site_type_symbol
 _atom_site_label
 _atom_site_symmetry_multiplicity
 _atom_site_fract_x
 _atom_site_fract_y
 _atom_site_fract_z
 _atom_site_occupancy
  C  C0  1  0.50472600  0.85218400  0.00000000  1
  C  C1  1  0.54915200  0.32657100  0.25397100  1
  C  C2  1  0.54915200  0.32657100  0.74602900  1
  C  C3  1  0.98968600  0.71404500  0.78796800  1
  C  C4  1  0.98664600  0.05595000  0.50000000  1
  C  C5  1  0.98968600  0.71404500  0.21203200  1
  C  C6  1  0.14378100  0.44850800  0.50000000  1
  C  C7  1  0.49733800  0.81280000  0.50000000  1
  C  C8  1  0.01407700  0.20390500  0.00000000  1
  Ni  Ni9  1  0.72659700  0.16607000  0.00000000  1
  Ni  Ni10  1  0.19440800  0.75023400  0.50000000  1
  Cu  Cu11  1  0.62195700  0.67973900  0.71928600  1
  Cu  Cu12  1  0.11953100  0.32310600  0.74854800  1
  Cu  Cu13  1  0.11953100  0.32310600  0.25145100  1
  Cu  Cu14  1  0.62195700  0.67973900  0.28071400  1
  Cu  Cu15  1  0.13604100  0.92961700  0.00000000  1
  Cu  Cu16  1  0.59964700  0.08964200  0.50000000  1
