# generated using pymatgen
data_CuNiC18
_symmetry_space_group_name_H-M   'P 1'
_cell_length_a   15.80479884
_cell_length_b   9.13698956
_cell_length_c   9.11273431
_cell_angle_alpha   90.00000000
_cell_angle_beta   124.92389863
_cell_angle_gamma   90.00000000
_symmetry_Int_Tables_number   1
_chemical_formula_structural   CuNiC18
_chemical_formula_sum   'Cu4 Ni4 C72'
_cell_volume   1078.96824966
_cell_formula_units_Z   4
loop_
 _symmetry_equiv_pos_site_id
 _symmetry_equiv_pos_as_xyz
  1  'x, y, z'
loop_
 _atom_site_type_symbol
 _atom_site_label
 _atom_site_symmetry_multiplicity
 _atom_site_fract_x
 _atom_site_fract_y
 _atom_site_fract_z
 _atom_site_occupancy
  C  C0  1  0.25371119  0.72739621  0.99799119  1
  C  C1  1  0.75371119  0.77260379  0.49799119  1
  C  C2  1  0.75371119  0.22739621  0.99799119  1
  C  C3  1  0.25371119  0.27260379  0.49799119  1
  C  C4  1  0.49881511  0.11261765  0.74550620  1
  C  C5  1  0.49881511  0.88738235  0.24550620  1
  C  C6  1  0.99881511  0.61261765  0.74550620  1
  C  C7  1  0.99881511  0.38738235  0.24550620  1
  C  C8  1  0.19166820  0.94488660  0.29354413  1
  C  C9  1  0.19166820  0.05511340  0.79354413  1
  C  C10  1  0.69166820  0.44488660  0.29354413  1
  C  C11  1  0.69166820  0.55511340  0.79354413  1
  Ni  Ni12  1  0.10649551  0.74918257  0.56782781  1
  Ni  Ni13  1  0.10649551  0.25081743  0.06782781  1
  Ni  Ni14  1  0.60649551  0.24918257  0.56782781  1
  Ni  Ni15  1  0.60649551  0.75081743  0.06782781  1
  Cu  Cu16  1  0.89273350  0.75381716  0.93309130  1
  Cu  Cu17  1  0.89273350  0.24618284  0.43309130  1
  Cu  Cu18  1  0.39273350  0.25381716  0.93309130  1
  Cu  Cu19  1  0.39273350  0.74618284  0.43309130  1
  C  C20  1  0.99688768  0.95938605  0.75495197  1
  C  C21  1  0.99688768  0.04061395  0.25495197  1
  C  C22  1  0.49688768  0.45938605  0.75495197  1
  C  C23  1  0.49688768  0.54061395  0.25495197  1
  C  C24  1  0.35472114  0.89565625  0.75704050  1
  C  C25  1  0.64468293  0.89201401  0.74434973  1
  C  C26  1  0.64468293  0.10798599  0.24434973  1
  C  C27  1  0.35472114  0.10434375  0.25704050  1
  C  C28  1  0.85472114  0.39565625  0.75704050  1
  C  C29  1  0.14468293  0.39201401  0.74434973  1
  C  C30  1  0.14468293  0.60798599  0.24434973  1
  C  C31  1  0.85472114  0.60434375  0.25704050  1
  C  C32  1  0.15254946  0.56906186  0.74382492  1
  C  C33  1  0.84910441  0.57707769  0.75751572  1
  C  C34  1  0.84910441  0.42292231  0.25751572  1
  C  C35  1  0.15254946  0.43093814  0.24382492  1
  C  C36  1  0.65254946  0.06906186  0.74382492  1
  C  C37  1  0.34910441  0.07707769  0.75751572  1
  C  C38  1  0.34910441  0.92292231  0.25751572  1
  C  C39  1  0.65254946  0.93093814  0.24382492  1
  C  C40  1  0.43353380  0.57404643  0.58100034  1
  C  C41  1  0.56726779  0.55710362  0.93346650  1
  C  C42  1  0.56726779  0.44289638  0.43346650  1
  C  C43  1  0.43353380  0.42595357  0.08100034  1
  C  C44  1  0.93353380  0.07404643  0.58100034  1
  C  C45  1  0.06726779  0.05710362  0.93346650  1
  C  C46  1  0.06726779  0.94289638  0.43346650  1
  C  C47  1  0.93353380  0.92595357  0.08100034  1
  C  C48  1  0.25535108  0.83512330  0.74996961  1
  C  C49  1  0.74017952  0.80617821  0.75599799  1
  C  C50  1  0.74017952  0.19382179  0.25599799  1
  C  C51  1  0.25535108  0.16487670  0.24996961  1
  C  C52  1  0.75535108  0.33512330  0.74996961  1
  C  C53  1  0.24017952  0.30617821  0.75599799  1
  C  C54  1  0.24017952  0.69382179  0.25599799  1
  C  C55  1  0.75535108  0.66487670  0.24996961  1
  C  C56  1  0.35459811  0.85734137  0.57746387  1
  C  C57  1  0.64313089  0.84291826  0.91330343  1
  C  C58  1  0.64313089  0.15708174  0.41330343  1
  C  C59  1  0.35459811  0.14265863  0.07746387  1
  C  C60  1  0.85459811  0.35734137  0.57746387  1
  C  C61  1  0.14313089  0.34291826  0.91330343  1
  C  C62  1  0.14313089  0.65708174  0.41330343  1
  C  C63  1  0.85459811  0.64265863  0.07746387  1
  C  C64  1  0.46146199  0.83840124  0.93655678  1
  C  C65  1  0.53517619  0.83060725  0.56062650  1
  C  C66  1  0.53517619  0.16939275  0.06062650  1
  C  C67  1  0.46146199  0.16159876  0.43655678  1
  C  C68  1  0.96146199  0.33840124  0.93655678  1
  C  C69  1  0.03517619  0.33060725  0.56062650  1
  C  C70  1  0.03517619  0.66939275  0.06062650  1
  C  C71  1  0.96146199  0.66159876  0.43655678  1
  C  C72  1  0.07530415  0.85318283  0.74097812  1
  C  C73  1  0.91262736  0.85369778  0.75499339  1
  C  C74  1  0.91262736  0.14630222  0.25499339  1
  C  C75  1  0.07530415  0.14681717  0.24097812  1
  C  C76  1  0.57530415  0.35318283  0.74097812  1
  C  C77  1  0.41262736  0.35369778  0.75499339  1
  C  C78  1  0.41262736  0.64630222  0.25499339  1
  C  C79  1  0.57530415  0.64681717  0.24097812  1
