# generated using pymatgen
data_Cu(NiC4)4
_symmetry_space_group_name_H-M   'P 1'
_cell_length_a   9.07190845
_cell_length_b   9.07368693
_cell_length_c   22.33473070
_cell_angle_alpha   89.97086452
_cell_angle_beta   89.91929215
_cell_angle_gamma   119.65001962
_symmetry_Int_Tables_number   1
_chemical_formula_structural   Cu(NiC4)4
_chemical_formula_sum   'Cu6 Ni24 C96'
_cell_volume   1597.76820081
_cell_formula_units_Z   6
loop_
 _symmetry_equiv_pos_site_id
 _symmetry_equiv_pos_as_xyz
  1  'x, y, z'
loop_
 _atom_site_type_symbol
 _atom_site_label
 _atom_site_symmetry_multiplicity
 _atom_site_fract_x
 _atom_site_fract_y
 _atom_site_fract_z
 _atom_site_occupancy
  Ni  Ni0  1  0.64110525  0.99971050  0.25314249  1
  Ni  Ni1  1  0.36551129  0.37329293  0.24537081  1
  Ni  Ni2  1  0.99454678  0.62531911  0.25316391  1
  Ni  Ni3  1  0.62598204  0.63253544  0.74312105  1
  Ni  Ni4  1  0.99991113  0.35596868  0.75258681  1
  Ni  Ni5  1  0.37764899  0.00823903  0.75189533  1
  Ni  Ni6  1  0.30830932  0.33216851  0.58695181  1
  Ni  Ni7  1  0.03460174  0.70969940  0.57824944  1
  Ni  Ni8  1  0.66170755  0.95673896  0.58657534  1
  Ni  Ni9  1  0.29119051  0.96683135  0.07797376  1
  Ni  Ni10  1  0.66829462  0.68905629  0.08729115  1
  Ni  Ni11  1  0.04395090  0.34111696  0.08644184  1
  Ni  Ni12  1  0.98000399  0.66563824  0.92049250  1
  Ni  Ni13  1  0.69869951  0.04212206  0.91048673  1
  Ni  Ni14  1  0.32462841  0.28929043  0.91933547  1
  Ni  Ni15  1  0.95896029  0.30029720  0.41149956  1
  Ni  Ni16  1  0.33288759  0.02433692  0.41963851  1
  Ni  Ni17  1  0.70842624  0.67213171  0.41944601  1
  Ni  Ni18  1  0.99459325  0.98533217  0.49982941  1
  Ni  Ni19  1  0.01758538  0.00653226  0.00031657  1
  Ni  Ni20  1  0.66121331  0.31680918  0.83221759  1
  Ni  Ni21  1  0.67997153  0.33855370  0.33365859  1
  Ni  Ni22  1  0.32665970  0.65093542  0.16832693  1
  Ni  Ni23  1  0.34982210  0.67287863  0.66634731  1
  Cu  Cu24  1  0.01097001  0.01900450  0.84969562  1
  Cu  Cu25  1  -0.00114388  0.00324119  0.15090270  1
  Cu  Cu26  1  0.66427862  0.33347211  0.98281983  1
  Cu  Cu27  1  0.31519678  0.65464202  0.01880838  1
  Cu  Cu28  1  0.34446936  0.68552133  0.51768498  1
  Cu  Cu29  1  0.33267068  0.66957857  0.81443492  1
  C  C30  1  0.96399070  0.97954981  0.35011467  1
  C  C31  1  0.99861937  0.99905846  0.64885728  1
  C  C32  1  0.63451001  0.31299929  0.68361451  1
  C  C33  1  0.68705455  0.36885710  0.18547555  1
  C  C34  1  0.66750385  0.33621379  0.48346367  1
  C  C35  1  0.32956562  0.66694962  0.31748827  1
  C  C36  1  0.69748398  0.70320980  0.25112597  1
  C  C37  1  0.99951785  0.29580409  0.25192040  1
  C  C38  1  0.29397103  0.29336292  0.74639065  1
  C  C39  1  0.70986901  0.00614167  0.74605707  1
  C  C40  1  0.37197236  0.04448925  0.58291096  1
  C  C41  1  0.67071022  0.62131061  0.58482386  1
  C  C42  1  0.96042928  0.62969244  0.08384654  1
  C  C43  1  0.37682046  0.33290085  0.08592343  1
  C  C44  1  0.03499783  0.36997306  0.91575762  1
  C  C45  1  0.33258627  0.96195331  0.91662584  1
  C  C46  1  0.62708342  0.96522108  0.41524781  1
  C  C47  1  0.03813793  0.66890625  0.41504989  1
  C  C48  1  0.29396098  0.00066916  0.25132781  1
  C  C49  1  0.99741212  0.70606284  0.74885989  1
  C  C50  1  0.95592161  0.33231755  0.58357826  1
  C  C51  1  0.66634797  0.04182773  0.08477357  1
  C  C52  1  0.62729141  0.66732899  0.91661974  1
  C  C53  1  0.33244503  0.37263175  0.41613403  1
  C  C54  1  0.21523699  0.03045859  0.30468892  1
  C  C55  1  0.82541273  0.78206459  0.30857566  1
  C  C56  1  0.96932645  0.17143575  0.31047265  1
  C  C57  1  0.21675629  0.17569599  0.80644289  1
  C  C58  1  0.96922095  0.78291299  0.80314170  1
  C  C59  1  0.82120680  0.03431102  0.80705652  1
  C  C60  1  0.79857629  0.96631311  0.68851045  1
  C  C61  1  0.16920214  0.20203974  0.68871471  1
  C  C62  1  0.02820671  0.81425208  0.69512748  1
  C  C63  1  0.78059255  0.82171634  0.19188889  1
  C  C64  1  0.03872940  0.21589244  0.19241971  1
  C  C65  1  0.18777043  0.97238774  0.19703287  1
  C  C66  1  0.88063425  0.36332998  0.63744670  1
  C  C67  1  0.49458224  0.11883939  0.64161447  1
  C  C68  1  0.64390683  0.50318493  0.64444996  1
  C  C69  1  0.88091816  0.50490128  0.14242393  1
  C  C70  1  0.63694690  0.11893677  0.13834330  1
  C  C71  1  0.49683858  0.35715429  0.14500717  1
  C  C72  1  0.45649896  0.29803150  0.02540439  1
  C  C73  1  0.84341254  0.54501737  0.02459360  1
  C  C74  1  0.69387011  0.14571818  0.03016588  1
  C  C75  1  0.45970723  0.16657675  0.52386862  1
  C  C76  1  0.70663327  0.53850101  0.52437508  1
  C  C77  1  0.85070403  0.30395020  0.52898786  1
  C  C78  1  0.55088441  0.69605744  0.97070256  1
  C  C79  1  0.15661196  0.45191490  0.97466697  1
  C  C80  1  0.30878250  0.84671423  0.97620690  1
  C  C81  1  0.54986827  0.84314226  0.47416657  1
  C  C82  1  0.30309339  0.44973165  0.47021520  1
  C  C83  1  0.15486226  0.70033886  0.47473242  1
  C  C84  1  0.12563790  0.62926794  0.35689360  1
  C  C85  1  0.50332205  0.87590773  0.35688904  1
  C  C86  1  0.36226191  0.48105244  0.36231154  1
  C  C87  1  0.12418095  0.48987400  0.85711541  1
  C  C88  1  0.36762489  0.87651541  0.85741599  1
  C  C89  1  0.52132234  0.64036743  0.86288899  1
  C  C90  1  0.02777937  0.84748479  0.40768937  1
  C  C91  1  0.81997018  0.98688498  0.41148861  1
  C  C92  1  0.18192299  0.20118970  0.41005528  1
  C  C93  1  0.01232545  0.17849417  0.91357934  1
  C  C94  1  0.15488680  0.96874311  0.91242097  1
  C  C95  1  0.79857118  0.81706315  0.91019477  1
  C  C96  1  0.97290707  0.17673201  0.58732732  1
  C  C97  1  0.18098963  0.02642467  0.58986436  1
  C  C98  1  0.84060715  0.81502166  0.58969621  1
  C  C99  1  0.97690390  0.81750277  0.08942198  1
  C  C100  1  0.82221386  0.02603964  0.08863527  1
  C  C101  1  0.18478020  0.16625770  0.08944367  1
  C  C102  1  0.69993116  0.18496385  0.74034335  1
  C  C103  1  0.48735960  0.31646162  0.74469362  1
  C  C104  1  0.84816308  0.53474626  0.74334672  1
  C  C105  1  0.67832052  0.51158855  0.24730832  1
  C  C106  1  0.81987479  0.30434446  0.24474894  1
  C  C107  1  0.46604778  0.15055580  0.24492342  1
  C  C108  1  0.64252182  0.51206914  0.92086144  1
  C  C109  1  0.84767237  0.35433448  0.92078360  1
  C  C110  1  0.50028518  0.15257780  0.91989189  1
  C  C111  1  0.64427523  0.15538617  0.42351067  1
  C  C112  1  0.48898980  0.35755111  0.42063375  1
  C  C113  1  0.84661912  0.49706868  0.42156242  1
  C  C114  1  0.36864308  0.51030951  0.08199801  1
  C  C115  1  0.15196975  0.65159969  0.08174876  1
  C  C116  1  0.51721268  0.86944186  0.07831612  1
  C  C117  1  0.34791979  0.85175802  0.57950622  1
  C  C118  1  0.49517581  0.63400203  0.58007457  1
  C  C119  1  0.12917596  0.48288149  0.57714758  1
  C  C120  1  0.30884059  0.84367511  0.25503880  1
  C  C121  1  0.50828574  0.68656878  0.25946037  1
  C  C122  1  0.16972355  0.48712858  0.25828252  1
  C  C123  1  0.31183210  0.48228082  0.75194757  1
  C  C124  1  0.15373632  0.69072629  0.75335971  1
  C  C125  1  0.51936688  0.83720906  0.75104322  1
