# generated using pymatgen
data_Cu2NiC14
_symmetry_space_group_name_H-M   'P 1'
_cell_length_a   8.90756789
_cell_length_b   8.91923141
_cell_length_c   22.94144657
_cell_angle_alpha   90.02293102
_cell_angle_beta   90.00000000
_cell_angle_gamma   119.95675169
_symmetry_Int_Tables_number   1
_chemical_formula_structural   Cu2NiC14
_chemical_formula_sum   'Cu12 Ni6 C84'
_cell_volume   1579.16335294
_cell_formula_units_Z   6
loop_
 _symmetry_equiv_pos_site_id
 _symmetry_equiv_pos_as_xyz
  1  'x, y, z'
loop_
 _atom_site_type_symbol
 _atom_site_label
 _atom_site_symmetry_multiplicity
 _atom_site_fract_x
 _atom_site_fract_y
 _atom_site_fract_z
 _atom_site_occupancy
  C  C0  1  0.99143040  0.00950455  0.35685584  1
  C  C1  1  0.01807416  0.00950455  0.85685584  1
  C  C2  1  0.66965048  0.33706224  0.68928383  1
  C  C3  1  0.66741276  0.33706224  0.18928383  1
  C  C4  1  0.32750053  0.66632713  0.02326463  1
  C  C5  1  0.33882560  0.66632713  0.52326463  1
  C  C6  1  0.00884926  0.01860579  0.64267737  1
  C  C7  1  0.00975653  0.01860579  0.14267737  1
  C  C8  1  0.65098692  0.32748034  0.97568591  1
  C  C9  1  0.67649442  0.32748034  0.47568591  1
  C  C10  1  0.33834307  0.67201939  0.30919254  1
  C  C11  1  0.33367531  0.67201939  0.80919254  1
  Ni  Ni12  1  0.99720236  0.29035530  0.25163760  1
  Ni  Ni13  1  0.29315294  0.29035530  0.75163760  1
  Ni  Ni14  1  0.95737849  0.34228392  0.58512261  1
  Ni  Ni15  1  0.38490643  0.34228392  0.08512261  1
  Ni  Ni16  1  0.32859745  0.94690155  0.91821897  1
  Ni  Ni17  1  0.61830310  0.94690155  0.41821897  1
  Cu  Cu18  1  0.28430684  0.99791243  0.25045254  1
  Cu  Cu19  1  0.71452308  0.71434679  0.25053636  1
  Cu  Cu20  1  -0.00017629  0.71434679  0.75053636  1
  Cu  Cu21  1  0.71360559  0.99791243  0.75045254  1
  Cu  Cu22  1  0.37982052  0.04748829  0.58332396  1
  Cu  Cu23  1  0.67102619  0.62176852  0.58401825  1
  Cu  Cu24  1  0.95074333  0.62176852  0.08401825  1
  Cu  Cu25  1  0.66766877  0.04748829  0.08332396  1
  Cu  Cu26  1  0.61962615  0.66771033  0.91643552  1
  Cu  Cu27  1  0.04463565  0.38220187  0.91700210  1
  Cu  Cu28  1  0.33756522  0.38220187  0.41700210  1
  Cu  Cu29  1  0.04808317  0.66771033  0.41643552  1
  C  C30  1  0.20495955  0.01946929  0.30255972  1
  C  C31  1  0.81833816  0.79117841  0.30259392  1
  C  C32  1  0.97758649  0.17071659  0.30555572  1
  C  C33  1  0.19313010  0.17071659  0.80555572  1
  C  C34  1  0.97284026  0.79117841  0.80259392  1
  C  C35  1  0.81450975  0.01946929  0.80255972  1
  C  C36  1  0.79250376  0.96420180  0.69755019  1
  C  C37  1  0.15973906  0.19005974  0.69275312  1
  C  C38  1  0.03302930  0.82323161  0.69795647  1
  C  C39  1  0.79020232  0.82323161  0.19795647  1
  C  C40  1  0.03032068  0.19005974  0.19275312  1
  C  C41  1  0.17169804  0.96420180  0.19755019  1
  C  C42  1  0.85979182  0.35536339  0.64054532  1
  C  C43  1  0.48263093  0.12660505  0.63519045  1
  C  C44  1  0.64131359  0.51458984  0.63557143  1
  C  C45  1  0.87327725  0.51458984  0.13557143  1
  C  C46  1  0.64397512  0.12660505  0.13519045  1
  C  C47  1  0.49557257  0.35536339  0.14054532  1
  C  C48  1  0.47944915  0.30535859  0.02629732  1
  C  C49  1  0.84181016  0.54044938  0.03106353  1
  C  C50  1  0.70483387  0.16062021  0.03067215  1
  C  C51  1  0.45578734  0.16062021  0.53067215  1
  C  C52  1  0.69864022  0.54044938  0.53106353  1
  C  C53  1  0.82591044  0.30535859  0.52629732  1
  C  C54  1  0.53998732  0.68917097  0.96849990  1
  C  C55  1  0.15283154  0.45732482  0.96835607  1
  C  C56  1  0.31503481  0.83789628  0.97418977  1
  C  C57  1  0.52286047  0.83789628  0.47418977  1
  C  C58  1  0.30449228  0.45732482  0.46835607  1
  C  C59  1  0.14918266  0.68917097  0.46849990  1
  C  C60  1  0.12397422  0.62960731  0.36368117  1
  C  C61  1  0.49194005  0.85505451  0.36000850  1
  C  C62  1  0.36529932  0.49398839  0.36418390  1
  C  C63  1  0.12868808  0.49398839  0.86418390  1
  C  C64  1  0.36311346  0.85505451  0.86000850  1
  C  C65  1  0.50563209  0.62960731  0.86368117  1
  C  C66  1  0.02512009  0.81499002  0.40576485  1
  C  C67  1  0.80838038  0.97903217  0.40838117  1
  C  C68  1  0.19381866  0.20766424  0.40725973  1
  C  C69  1  0.01384557  0.20766424  0.90725973  1
  C  C70  1  0.17065180  0.97903217  0.90838117  1
  C  C71  1  0.78986993  0.81499002  0.90576485  1
  C  C72  1  0.96446810  0.15606159  0.59379169  1
  C  C73  1  0.20057429  0.02811998  0.59138828  1
  C  C74  1  0.83066833  0.79494161  0.59332433  1
  C  C75  1  0.96427328  0.79494161  0.09332433  1
  C  C76  1  0.82754569  0.02811998  0.09138828  1
  C  C77  1  0.19159349  0.15606159  0.09379169  1
  C  C78  1  0.68511944  0.14261281  0.74113320  1
  C  C79  1  0.47815271  0.31692207  0.73704156  1
  C  C80  1  0.85465032  0.54017240  0.74255310  1
  C  C81  1  0.68552308  0.54017240  0.24255310  1
  C  C82  1  0.83877036  0.31692207  0.23704156  1
  C  C83  1  0.45749438  0.14261281  0.24113320  1
  C  C84  1  0.63989233  0.50840125  0.92452704  1
  C  C85  1  0.87323388  0.37284376  0.92553137  1
  C  C86  1  0.51229508  0.14346500  0.92765115  1
  C  C87  1  0.63117092  0.14346500  0.42765115  1
  C  C88  1  0.49961088  0.37284376  0.42553137  1
  C  C89  1  0.86850992  0.50840125  0.42452704  1
  C  C90  1  0.34879683  0.49424641  0.07096263  1
  C  C91  1  0.12399578  0.64626990  0.07552808  1
  C  C92  1  0.52154449  0.87486747  0.07448820  1
  C  C93  1  0.35332198  0.87486747  0.57448820  1
  C  C94  1  0.52227312  0.64626990  0.57552808  1
  C  C95  1  0.14544858  0.49424641  0.57096263  1
  C  C96  1  0.29763974  0.83439925  0.25761346  1
  C  C97  1  0.53597176  0.69747674  0.25891931  1
  C  C98  1  0.17563040  0.48065869  0.26320417  1
  C  C99  1  0.30502728  0.48065869  0.76320417  1
  C  C100  1  0.16150398  0.69747674  0.75891931  1
  C  C101  1  0.53675851  0.83439925  0.75761346  1
