# generated using pymatgen
data_Cu2NiC14
_symmetry_space_group_name_H-M   'P 1'
_cell_length_a   8.73081900
_cell_length_b   8.74049088
_cell_length_c   22.48414423
_cell_angle_alpha   89.88147947
_cell_angle_beta   90.00000000
_cell_angle_gamma   119.96340202
_symmetry_Int_Tables_number   1
_chemical_formula_structural   Cu2NiC14
_chemical_formula_sum   'Cu12 Ni6 C84'
_cell_volume   1486.47157420
_cell_formula_units_Z   6
loop_
 _symmetry_equiv_pos_site_id
 _symmetry_equiv_pos_as_xyz
  1  'x, y, z'
loop_
 _atom_site_type_symbol
 _atom_site_label
 _atom_site_symmetry_multiplicity
 _atom_site_fract_x
 _atom_site_fract_y
 _atom_site_fract_z
 _atom_site_occupancy
  C  C0  1  0.00494537  0.01131322  0.64370000  1
  C  C1  1  0.00636786  0.01131322  0.14370000  1
  C  C2  1  0.65574540  0.32769982  0.97704576  1
  C  C3  1  0.67195543  0.32769982  0.47704576  1
  C  C4  1  0.33578671  0.66834228  0.31035346  1
  C  C5  1  0.33255457  0.66834228  0.81035346  1
  C  C6  1  0.99310645  0.00440438  0.35384031  1
  C  C7  1  0.01129792  0.00440438  0.85384031  1
  C  C8  1  0.66714281  0.33532625  0.68703809  1
  C  C9  1  0.66818444  0.33532625  0.18703809  1
  C  C10  1  0.33129620  0.66647655  0.02048968  1
  C  C11  1  0.33517935  0.66647655  0.52048968  1
  Ni  Ni12  1  0.99185188  0.28782335  0.25181307  1
  Ni  Ni13  1  0.29597148  0.28782335  0.75181307  1
  Ni  Ni14  1  0.96091494  0.34438601  0.58540843  1
  Ni  Ni15  1  0.38347207  0.34438601  0.08540843  1
  Ni  Ni16  1  0.32396895  0.94839290  0.91831680  1
  Ni  Ni17  1  0.62442295  0.94839290  0.41831680  1
  Cu  Cu18  1  0.29072148  0.00522345  0.25144018  1
  Cu  Cu19  1  0.71510048  0.70893455  0.25077535  1
  Cu  Cu20  1  0.99383407  0.70893455  0.75077535  1
  Cu  Cu21  1  0.71450197  0.00522345  0.75144018  1
  Cu  Cu22  1  0.38042414  0.04132101  0.58438701  1
  Cu  Cu23  1  0.66316614  0.62077165  0.58424024  1
  Cu  Cu24  1  0.95760651  0.62077165  0.08424024  1
  Cu  Cu25  1  0.66089787  0.04132101  0.08438701  1
  Cu  Cu26  1  0.62613622  0.67346776  0.91744884  1
  Cu  Cu27  1  0.04504617  0.37451164  0.91795561  1
  Cu  Cu28  1  0.32946447  0.37451164  0.41795561  1
  Cu  Cu29  1  0.04733054  0.67346776  0.41744884  1
  C  C30  1  0.20766511  0.02642347  0.30384963  1
  C  C31  1  0.81935355  0.78905897  0.30342671  1
  C  C32  1  0.97230582  0.17662822  0.30468624  1
  C  C33  1  0.20432239  0.17662822  0.80468624  1
  C  C34  1  0.96970543  0.78905897  0.80342671  1
  C  C35  1  0.81875836  0.02642347  0.80384963  1
  C  C36  1  0.79270021  0.96530694  0.69656631  1
  C  C37  1  0.16642866  0.19846825  0.69463482  1
  C  C38  1  0.03317857  0.82606402  0.69648517  1
  C  C39  1  0.79288545  0.82606402  0.19648517  1
  C  C40  1  0.03203959  0.19846825  0.19463482  1
  C  C41  1  0.17260673  0.96530694  0.19656631  1
  C  C42  1  0.86925917  0.36091573  0.63892804  1
  C  C43  1  0.48504225  0.12331993  0.63666110  1
  C  C44  1  0.63782211  0.51459111  0.63664104  1
  C  C45  1  0.87677000  0.51459111  0.13664104  1
  C  C46  1  0.63827869  0.12331993  0.13666110  1
  C  C47  1  0.49165756  0.36091573  0.13892804  1
  C  C48  1  0.46815874  0.30134193  0.02823046  1
  C  C49  1  0.84023081  0.53937614  0.02971556  1
  C  C50  1  0.70200248  0.16045864  0.02974878  1
  C  C51  1  0.45845716  0.16045864  0.52974878  1
  C  C52  1  0.69914633  0.53937614  0.52971556  1
  C  C53  1  0.83318419  0.30134193  0.52823046  1
  C  C54  1  0.54393337  0.69504348  0.96998134  1
  C  C55  1  0.15257584  0.45595254  0.96982797  1
  C  C56  1  0.30683967  0.84149575  0.97238979  1
  C  C57  1  0.53465508  0.84149575  0.47238979  1
  C  C58  1  0.30337570  0.45595254  0.46982797  1
  C  C59  1  0.15110910  0.69504348  0.46998134  1
  C  C60  1  0.12562776  0.63257158  0.36296281  1
  C  C61  1  0.49855859  0.86449727  0.36144074  1
  C  C62  1  0.36619529  0.49385653  0.36310779  1
  C  C63  1  0.12766024  0.49385653  0.86310779  1
  C  C64  1  0.36593768  0.86449727  0.86144074  1
  C  C65  1  0.50694281  0.63257158  0.86296281  1
  C  C66  1  0.02148824  0.82126054  0.40666745  1
  C  C67  1  0.80602215  0.97991959  0.40749084  1
  C  C68  1  0.18228295  0.20023509  0.40759295  1
  C  C69  1  0.01795214  0.20023509  0.90759295  1
  C  C70  1  0.17389744  0.97991959  0.90749084  1
  C  C71  1  0.79977230  0.82126054  0.90666745  1
  C  C72  1  0.96997114  0.16522877  0.59302554  1
  C  C73  1  0.19818143  0.02687466  0.59159284  1
  C  C74  1  0.83042934  0.80100903  0.59247774  1
  C  C75  1  0.97057969  0.80100903  0.09247774  1
  C  C76  1  0.82869323  0.02687466  0.09159284  1
  C  C77  1  0.19525763  0.16522877  0.09302554  1
  C  C78  1  0.68705196  0.15226135  0.74122377  1
  C  C79  1  0.47507637  0.31472249  0.73883616  1
  C  C80  1  0.84771296  0.53375711  0.74142737  1
  C  C81  1  0.68604515  0.53375711  0.24142737  1
  C  C82  1  0.83964712  0.31472249  0.23883616  1
  C  C83  1  0.46521040  0.15226135  0.24122377  1
  C  C84  1  0.64039169  0.50562291  0.92491962  1
  C  C85  1  0.86610732  0.36339980  0.92537121  1
  C  C86  1  0.50224398  0.13876173  0.92675709  1
  C  C87  1  0.63651875  0.13876173  0.42675709  1
  C  C88  1  0.49729348  0.36339980  0.42537121  1
  C  C89  1  0.86523222  0.50562291  0.42491962  1
  C  C90  1  0.35190842  0.49339740  0.07241150  1
  C  C91  1  0.13223610  0.64647134  0.07459878  1
  C  C92  1  0.51396555  0.86720744  0.07442978  1
  C  C93  1  0.35324089  0.86720744  0.57442978  1
  C  C94  1  0.51423423  0.64647134  0.57459878  1
  C  C95  1  0.14148798  0.49339740  0.57241150  1
  C  C96  1  0.30326261  0.83651286  0.25830687  1
  C  C97  1  0.53230231  0.69495568  0.25858198  1
  C  C98  1  0.16835574  0.47463689  0.26075135  1
  C  C99  1  0.30628015  0.47463689  0.76075135  1
  C  C100  1  0.16265237  0.69495568  0.75858198  1
  C  C101  1  0.53324925  0.83651286  0.75830687  1
