# generated using pymatgen
data_Cu(NiC8)2
_symmetry_space_group_name_H-M   'P 1'
_cell_length_a   9.14433179
_cell_length_b   9.19854758
_cell_length_c   23.01877250
_cell_angle_alpha   90.39324614
_cell_angle_beta   90.00000000
_cell_angle_gamma   119.80522041
_symmetry_Int_Tables_number   1
_chemical_formula_structural   Cu(NiC8)2
_chemical_formula_sum   'Cu6 Ni12 C96'
_cell_volume   1680.03953414
_cell_formula_units_Z   6
loop_
 _symmetry_equiv_pos_site_id
 _symmetry_equiv_pos_as_xyz
  1  'x, y, z'
loop_
 _atom_site_type_symbol
 _atom_site_label
 _atom_site_symmetry_multiplicity
 _atom_site_fract_x
 _atom_site_fract_y
 _atom_site_fract_z
 _atom_site_occupancy
  Ni  Ni0  1  0.99480625  0.63532945  0.24139610  1
  Ni  Ni1  1  0.64052321  0.63532945  0.74139610  1
  Ni  Ni2  1  0.66147325  0.96866245  0.57472910  1
  Ni  Ni3  1  0.30719021  0.96866245  0.07472910  1
  Ni  Ni4  1  0.32813925  0.30199645  0.90806310  1
  Ni  Ni5  1  0.97385621  0.30199645  0.40806310  1
  Ni  Ni6  1  0.99503497  0.96385186  0.49428938  1
  Ni  Ni7  1  0.96881689  0.96385186  0.99428938  1
  Ni  Ni8  1  0.66170197  0.29718486  0.82762238  1
  Ni  Ni9  1  0.63548389  0.29718486  0.32762238  1
  Ni  Ni10  1  0.32836797  0.63051886  0.16095638  1
  Ni  Ni11  1  0.30214989  0.63051886  0.66095638  1
  Cu  Cu12  1  0.99769252  0.99697723  0.35203256  1
  Cu  Cu13  1  0.99928471  0.99697723  0.85203256  1
  Cu  Cu14  1  0.66435952  0.33031023  0.68536556  1
  Cu  Cu15  1  0.66595171  0.33031023  0.18536556  1
  Cu  Cu16  1  0.33102552  0.66364423  0.01869956  1
  Cu  Cu17  1  0.33261771  0.66364423  0.51869956  1
  C  C18  1  0.00190842  0.01154246  0.64915171  1
  C  C19  1  0.00963404  0.01154246  0.14915171  1
  C  C20  1  0.66857542  0.34487546  0.98248471  1
  C  C21  1  0.67630104  0.34487546  0.48248471  1
  C  C22  1  0.33524142  0.67820946  0.31581871  1
  C  C23  1  0.34296704  0.67820946  0.81581871  1
  C  C24  1  0.29497610  0.99386614  0.25069405  1
  C  C25  1  0.01031861  0.30569934  0.25507963  1
  C  C26  1  0.29538072  0.30569934  0.75507963  1
  C  C27  1  0.69889004  0.99386614  0.75069405  1
  C  C28  1  0.96164310  0.32719914  0.58402705  1
  C  C29  1  0.67698561  0.63903234  0.58841263  1
  C  C30  1  0.96204772  0.63903234  0.08841263  1
  C  C31  1  0.36555704  0.32719914  0.08402705  1
  C  C32  1  0.62830910  0.66053314  0.91736105  1
  C  C33  1  0.34365161  0.97236634  0.92174663  1
  C  C34  1  0.62871372  0.97236634  0.42174663  1
  C  C35  1  0.03222304  0.66053314  0.41736105  1
  C  C36  1  0.69948964  0.71080570  0.24911132  1
  C  C37  1  0.01131606  0.71080570  0.74911132  1
  C  C38  1  0.36615664  0.04413870  0.58244432  1
  C  C39  1  0.67798306  0.04413870  0.08244432  1
  C  C40  1  0.03282264  0.37747270  0.91577832  1
  C  C41  1  0.34464906  0.37747270  0.41577832  1
  C  C42  1  0.20478457  0.00587533  0.30320508  1
  C  C43  1  0.79511559  0.78718739  0.30182771  1
  C  C44  1  0.98985729  0.21521820  0.31172898  1
  C  C45  1  0.22536091  0.21521820  0.81172898  1
  C  C46  1  0.99207180  0.78718739  0.80182771  1
  C  C47  1  0.80109076  0.00587533  0.80320508  1
  C  C48  1  0.78764908  0.96871097  0.69443589  1
  C  C49  1  0.17818562  0.20105868  0.70176451  1
  C  C50  1  0.02933505  0.81635395  0.69726241  1
  C  C51  1  0.78701890  0.81635395  0.19726241  1
  C  C52  1  0.02287306  0.20105868  0.20176451  1
  C  C53  1  0.18106189  0.96871097  0.19443589  1
  C  C54  1  0.87145157  0.33920833  0.63653808  1
  C  C55  1  0.46178259  0.12052039  0.63516071  1
  C  C56  1  0.65652429  0.54855120  0.64506198  1
  C  C57  1  0.89202791  0.54855120  0.14506198  1
  C  C58  1  0.65873880  0.12052039  0.13516071  1
  C  C59  1  0.46775776  0.33920833  0.13653808  1
  C  C60  1  0.45431608  0.30204397  0.02776889  1
  C  C61  1  0.84485262  0.53439168  0.03509751  1
  C  C62  1  0.69600205  0.14968695  0.03059541  1
  C  C63  1  0.45368590  0.14968695  0.53059541  1
  C  C64  1  0.68954006  0.53439168  0.53509751  1
  C  C65  1  0.84772889  0.30204397  0.52776889  1
  C  C66  1  0.53811757  0.67254233  0.96987208  1
  C  C67  1  0.12844859  0.45385439  0.96849471  1
  C  C68  1  0.32319029  0.88188520  0.97839598  1
  C  C69  1  0.55869391  0.88188520  0.47839598  1
  C  C70  1  0.32540480  0.45385439  0.46849471  1
  C  C71  1  0.13442376  0.67254233  0.46987208  1
  C  C72  1  0.12098208  0.63537797  0.36110289  1
  C  C73  1  0.51151862  0.86772568  0.36843151  1
  C  C74  1  0.36266805  0.48302095  0.36392941  1
  C  C75  1  0.12035190  0.48302095  0.86392941  1
  C  C76  1  0.35620606  0.86772568  0.86843151  1
  C  C77  1  0.51439489  0.63537797  0.86110289  1
  C  C78  1  -0.00152183  0.80511962  0.41256357  1
  C  C79  1  0.81052782  0.00894738  0.41456646  1
  C  C80  1  0.19468909  0.21009019  0.41042946  1
  C  C81  1  0.01540110  0.21009019  0.91042946  1
  C  C82  1  0.19841956  0.00894738  0.91456646  1
  C  C83  1  0.80664146  0.80511962  0.91256357  1
  C  C84  1  0.96418335  0.15477592  0.58686298  1
  C  C85  1  0.19559873  0.02974537  0.58514175  1
  C  C86  1  0.84649734  0.81354483  0.58845645  1
  C  C87  1  0.96704749  0.81354483  0.08845645  1
  C  C88  1  0.83414664  0.02974537  0.08514175  1
  C  C89  1  0.19059257  0.15477592  0.08686298  1
  C  C90  1  0.66514517  0.13845262  0.74589657  1
  C  C91  1  0.47719482  0.34228038  0.74789946  1
  C  C92  1  0.86135609  0.54342319  0.74376246  1
  C  C93  1  0.68206810  0.54342319  0.24376246  1
  C  C94  1  0.86508656  0.34228038  0.24789946  1
  C  C95  1  0.47330846  0.13845262  0.24589657  1
  C  C96  1  0.63085035  0.48810892  0.92019598  1
  C  C97  1  0.86226573  0.36307837  0.91847475  1
  C  C98  1  0.51316434  0.14687783  0.92178945  1
  C  C99  1  0.63371449  0.14687783  0.42178945  1
  C  C100  1  0.50081364  0.36307837  0.41847475  1
  C  C101  1  0.85725957  0.48810892  0.42019598  1
  C  C102  1  0.33181117  0.47178662  0.07923057  1
  C  C103  1  0.14386082  0.67561438  0.08123346  1
  C  C104  1  0.52802209  0.87675719  0.07709646  1
  C  C105  1  0.34873410  0.87675719  0.57709646  1
  C  C106  1  0.53175256  0.67561438  0.58123346  1
  C  C107  1  0.13997446  0.47178662  0.57923057  1
  C  C108  1  0.29751635  0.82144292  0.25352998  1
  C  C109  1  0.52893173  0.69641237  0.25180875  1
  C  C110  1  0.17983034  0.48021183  0.25512345  1
  C  C111  1  0.30038049  0.48021183  0.75512345  1
  C  C112  1  0.16747964  0.69641237  0.75180875  1
  C  C113  1  0.52392557  0.82144292  0.75352998  1
