# generated using pymatgen
data_Cu(NiC8)2
_symmetry_space_group_name_H-M   'P 1'
_cell_length_a   9.32433390
_cell_length_b   9.37746555
_cell_length_c   23.28792940
_cell_angle_alpha   90.52845126
_cell_angle_beta   89.65132935
_cell_angle_gamma   119.67045832
_symmetry_Int_Tables_number   1
_chemical_formula_structural   Cu(NiC8)2
_chemical_formula_sum   'Cu6 Ni12 C96'
_cell_volume   1769.20542198
_cell_formula_units_Z   6
loop_
 _symmetry_equiv_pos_site_id
 _symmetry_equiv_pos_as_xyz
  1  'x, y, z'
loop_
 _atom_site_type_symbol
 _atom_site_label
 _atom_site_symmetry_multiplicity
 _atom_site_fract_x
 _atom_site_fract_y
 _atom_site_fract_z
 _atom_site_occupancy
  Ni  Ni0  1  0.97436188  0.63966283  0.25162979  1
  Ni  Ni1  1  0.98967335  0.35294264  0.74459549  1
  Ni  Ni2  1  0.65199119  0.97438604  0.59170734  1
  Ni  Ni3  1  0.66319275  0.69561652  0.07743522  1
  Ni  Ni4  1  0.33559946  0.30683159  0.90575315  1
  Ni  Ni5  1  0.31551314  0.01671713  0.41678327  1
  Ni  Ni6  1  0.00852478  0.98352466  0.50867719  1
  Ni  Ni7  1  0.98674721  0.98859382  0.00232376  1
  Ni  Ni8  1  0.64632942  0.30201901  0.82490460  1
  Ni  Ni9  1  0.65533709  0.34150157  0.34006215  1
  Ni  Ni10  1  0.32433463  0.66669724  0.17470655  1
  Ni  Ni11  1  0.30229405  0.66966320  0.66302492  1
  Cu  Cu12  1  0.98888277  0.99570913  0.35248880  1
  Cu  Cu13  1  0.98695765  0.97907797  0.84924334  1
  Cu  Cu14  1  0.65310887  0.33555106  0.68376806  1
  Cu  Cu15  1  0.65251297  0.31787605  0.18667424  1
  Cu  Cu16  1  0.32323816  0.67816316  0.01581440  1
  Cu  Cu17  1  0.31233681  0.64964072  0.51846993  1
  C  C18  1  0.02635213  0.04875236  0.64747809  1
  C  C19  1  0.98386663  0.95716627  0.15659629  1
  C  C20  1  0.68534329  0.36932288  0.98093879  1
  C  C21  1  0.68552001  0.33821283  0.49126430  1
  C  C22  1  0.31589889  0.66761442  0.31100701  1
  C  C23  1  0.38485766  0.67384970  0.80505199  1
  C  C24  1  0.28437392  0.97777688  0.25480123  1
  C  C25  1  0.67952482  0.70003550  0.25189015  1
  C  C26  1  0.29395837  0.30514428  0.75736198  1
  C  C27  1  0.71285494  0.99654773  0.74521289  1
  C  C28  1  0.96073418  0.32277014  0.59074964  1
  C  C29  1  0.36555556  0.04960348  0.58048865  1
  C  C30  1  0.95752813  0.63838217  0.08841009  1
  C  C31  1  0.62859685  0.65792136  0.92085866  1
  C  C32  1  0.01851201  0.64351238  0.41517307  1
  C  C33  1  0.02331316  0.31045081  0.24778421  1
  C  C34  1  0.02819550  0.70598589  0.74824645  1
  C  C35  1  0.69267852  0.64487935  0.57816577  1
  C  C36  1  0.69050257  0.04541389  0.07856966  1
  C  C37  1  0.36370075  0.31873343  0.07668057  1
  C  C38  1  0.01456806  0.36786519  0.91699113  1
  C  C39  1  0.35887609  0.98695493  0.91435321  1
  C  C40  1  0.60833714  0.96972380  0.41614290  1
  C  C41  1  0.35484377  0.37806430  0.41146270  1
  C  C42  1  0.21930754  0.00748661  0.31440248  1
  C  C43  1  0.81063122  0.78853661  0.30167435  1
  C  C44  1  0.00228870  0.22547273  0.30232844  1
  C  C45  1  0.21022951  0.21585792  0.81642685  1
  C  C46  1  0.00792778  0.77150106  0.80393855  1
  C  C47  1  0.81080867  0.01697044  0.80353522  1
  C  C48  1  0.81482581  0.97675517  0.68890995  1
  C  C49  1  0.16559723  0.20476358  0.70036362  1
  C  C50  1  0.03632545  0.80721392  0.69953832  1
  C  C51  1  0.79169501  0.82486568  0.19192390  1
  C  C52  1  0.03055990  0.21460182  0.19771696  1
  C  C53  1  0.14287353  0.95160901  0.20059132  1
  C  C54  1  0.89028262  0.34324691  0.65052360  1
  C  C55  1  0.47964644  0.12110548  0.63593498  1
  C  C56  1  0.66707593  0.56206957  0.63331263  1
  C  C57  1  0.87203925  0.54066459  0.14520515  1
  C  C58  1  0.66793953  0.10967976  0.13389882  1
  C  C59  1  0.46122349  0.34148443  0.12857659  1
  C  C60  1  0.46034070  0.31029313  0.02480903  1
  C  C61  1  0.82572706  0.52826541  0.03060174  1
  C  C62  1  0.69019896  0.14530464  0.02982944  1
  C  C63  1  0.47693007  0.17752406  0.52390826  1
  C  C64  1  0.69220630  0.53382863  0.52989035  1
  C  C65  1  0.82690873  0.30780307  0.53639696  1
  C  C66  1  0.53633197  0.65745456  0.97914263  1
  C  C67  1  0.11942090  0.45266543  0.96738494  1
  C  C68  1  0.33625985  0.89781733  0.96872033  1
  C  C69  1  0.54794162  0.88319990  0.47059157  1
  C  C70  1  0.34539835  0.45220240  0.46665117  1
  C  C71  1  0.14770642  0.69077064  0.46618412  1
  C  C72  1  0.13207824  0.62944228  0.35619697  1
  C  C73  1  0.50009991  0.86889277  0.36687684  1
  C  C74  1  0.35340441  0.47696761  0.36203915  1
  C  C75  1  0.08342077  0.46051395  0.86428254  1
  C  C76  1  0.36380636  0.89172624  0.86466687  1
  C  C77  1  0.50318748  0.63589078  0.86364754  1
  C  C78  1  0.99816657  0.80542446  0.41033477  1
  C  C79  1  0.78118131  0.00817809  0.40940074  1
  C  C80  1  0.20848278  0.20814911  0.41111993  1
  C  C81  1  0.99568692  0.20195375  0.91608320  1
  C  C82  1  0.21736879  0.01994276  0.91285813  1
  C  C83  1  0.81479099  0.80523821  0.92006846  1
  C  C84  1  0.95524034  0.14018038  0.58983962  1
  C  C85  1  0.18280368  0.03997401  0.59344177  1
  C  C86  1  0.84949168  0.80083747  0.57671340  1
  C  C87  1  0.95704813  0.81895209  0.09212357  1
  C  C88  1  0.84542048  0.03499289  0.08013735  1
  C  C89  1  0.20173582  0.16812805  0.07895736  1
  C  C90  1  0.68048979  0.14990076  0.74454837  1
  C  C91  1  0.48071848  0.34486571  0.75367224  1
  C  C92  1  0.88607744  0.53573127  0.74511395  1
  C  C93  1  0.66534855  0.52227747  0.24400731  1
  C  C94  1  0.88672132  0.34807527  0.24331563  1
  C  C95  1  0.46898197  0.11662877  0.24226361  1
  C  C96  1  0.63418768  0.47697575  0.92664578  1
  C  C97  1  0.84638957  0.35375329  0.92818201  1
  C  C98  1  0.51348440  0.15155448  0.91765439  1
  C  C99  1  0.60570348  0.12895498  0.41780213  1
  C  C100  1  0.50534294  0.36267011  0.41108673  1
  C  C101  1  0.84065288  0.47076870  0.42847805  1
  C  C102  1  0.34692161  0.46844468  0.07347127  1
  C  C103  1  0.14288239  0.67353644  0.08151200  1
  C  C104  1  0.54955949  0.87167284  0.07502100  1
  C  C105  1  0.35072404  0.87042547  0.57275330  1
  C  C106  1  0.55511876  0.67919898  0.57054845  1
  C  C107  1  0.14862636  0.46440722  0.58372254  1
  C  C108  1  0.27685188  0.79428456  0.25738559  1
  C  C109  1  0.50298307  0.69674646  0.26050463  1
  C  C110  1  0.18177661  0.47463591  0.24990369  1
  C  C111  1  0.29770335  0.48924060  0.76057066  1
  C  C112  1  0.18413382  0.69380812  0.75135205  1
  C  C113  1  0.52912778  0.81618446  0.75504248  1
