# generated using pymatgen
data_Cu8NiC20
_symmetry_space_group_name_H-M   'P 1'
_cell_length_a   10.06304941
_cell_length_b   3.63671300
_cell_length_c   10.93118385
_cell_angle_alpha   90.00000000
_cell_angle_beta   90.23175525
_cell_angle_gamma   90.00000000
_symmetry_Int_Tables_number   1
_chemical_formula_structural   Cu8NiC20
_chemical_formula_sum   'Cu8 Ni1 C20'
_cell_volume   400.03895105
_cell_formula_units_Z   1
loop_
 _symmetry_equiv_pos_site_id
 _symmetry_equiv_pos_as_xyz
  1  'x, y, z'
loop_
 _atom_site_type_symbol
 _atom_site_label
 _atom_site_symmetry_multiplicity
 _atom_site_fract_x
 _atom_site_fract_y
 _atom_site_fract_z
 _atom_site_occupancy
  Ni  Ni0  1  0.35307300  0.75000000  0.72372700  1
  Cu  Cu1  1  0.13168300  0.75000000  0.99201900  1
  Cu  Cu2  1  0.37528600  0.25000000  0.49053600  1
  Cu  Cu3  1  0.62436000  0.75000000  0.49224700  1
  Cu  Cu4  1  0.87673700  0.25000000  0.98364600  1
  Cu  Cu5  1  0.07452100  0.25000000  0.59706300  1
  Cu  Cu6  1  0.42955900  0.75000000  0.10711100  1
  Cu  Cu7  1  0.55954800  0.25000000  0.91508300  1
  Cu  Cu8  1  0.93445600  0.75000000  0.40476800  1
  C  C9  1  0.00258900  0.75000000  0.27241800  1
  C  C10  1  0.07150400  0.75000000  0.54213800  1
  C  C11  1  0.08303400  0.25000000  0.00842500  1
  C  C12  1  0.22505400  0.75000000  0.86675900  1
  C  C13  1  0.25161700  0.25000000  0.63555600  1
  C  C14  1  0.24694200  0.75000000  0.11596600  1
  C  C15  1  0.27629500  0.25000000  0.37309700  1
  C  C16  1  0.43015100  0.75000000  0.54850200  1
  C  C17  1  0.43540100  0.25000000  0.05623600  1
  C  C18  1  0.46061200  0.25000000  0.78577200  1
  C  C19  1  0.49247800  0.75000000  0.24282900  1
  C  C20  1  0.56397400  0.75000000  0.97581700  1
  C  C21  1  0.57368200  0.25000000  0.46135300  1
  C  C22  1  0.70253600  0.75000000  0.62075100  1
  C  C23  1  0.74271600  0.25000000  0.88016100  1
  C  C24  1  0.75765100  0.75000000  0.37950700  1
  C  C25  1  0.80736900  0.25000000  0.11618600  1
  C  C26  1  0.93851200  0.75000000  0.96190700  1
  C  C27  1  0.94251600  0.25000000  0.46132700  1
  C  C28  1  0.99864400  0.25000000  0.72659300  1
