# generated using pymatgen
data_Cu12Ni2C3
_symmetry_space_group_name_H-M   'P 1'
_cell_length_a   9.15037860
_cell_length_b   9.20784679
_cell_length_c   22.52335802
_cell_angle_alpha   89.33691229
_cell_angle_beta   90.00000000
_cell_angle_gamma   119.79375599
_symmetry_Int_Tables_number   1
_chemical_formula_structural   Cu12Ni2C3
_chemical_formula_sum   'Cu72 Ni12 C18'
_cell_volume   1646.72518150
_cell_formula_units_Z   6
loop_
 _symmetry_equiv_pos_site_id
 _symmetry_equiv_pos_as_xyz
  1  'x, y, z'
loop_
 _atom_site_type_symbol
 _atom_site_label
 _atom_site_symmetry_multiplicity
 _atom_site_fract_x
 _atom_site_fract_y
 _atom_site_fract_z
 _atom_site_occupancy
  C  C0  1  0.00604930  0.00174334  0.37082874  1
  C  C1  1  0.99569405  0.00174334  0.87082874  1
  C  C2  1  0.67331168  0.33483767  0.70413664  1
  C  C3  1  0.66152699  0.33483767  0.20413664  1
  C  C4  1  0.33027709  0.65582286  0.03761695  1
  C  C5  1  0.32554477  0.65582286  0.53761695  1
  C  C6  1  0.99386081  0.99314059  0.64243955  1
  C  C7  1  0.99927978  0.99314059  0.14243955  1
  C  C8  1  0.65559189  0.32302178  0.97621920  1
  C  C9  1  0.66743089  0.32302178  0.47621920  1
  C  C10  1  0.35211033  0.65818225  0.30901782  1
  C  C11  1  0.30607091  0.65818225  0.80901782  1
  C  C12  1  0.71272914  0.74887495  0.24947591  1
  C  C13  1  0.03614581  0.74887495  0.74947591  1
  C  C14  1  0.91663020  0.28234246  0.58203987  1
  C  C15  1  0.36571326  0.28234246  0.08203987  1
  C  C16  1  0.02818794  0.41009707  0.91658302  1
  C  C17  1  0.38190814  0.41009707  0.41658302  1
  Ni  Ni18  1  0.25622694  0.94506434  0.24871309  1
  Ni  Ni19  1  0.04932562  0.30677893  0.24808722  1
  Ni  Ni20  1  0.25745331  0.30677893  0.74808722  1
  Ni  Ni21  1  0.68883740  0.94506434  0.74871309  1
  Ni  Ni22  1  0.36160075  0.07388856  0.58317135  1
  Ni  Ni23  1  0.71204168  0.63780523  0.58230094  1
  Ni  Ni24  1  0.92576455  0.63780523  0.08230094  1
  Ni  Ni25  1  0.71228881  0.07388856  0.08317135  1
  Ni  Ni26  1  0.59102702  0.61983194  0.91614608  1
  Ni  Ni27  1  0.37714977  0.96959269  0.91602178  1
  Ni  Ni28  1  0.59244192  0.96959269  0.41602178  1
  Ni  Ni29  1  0.02880392  0.61983194  0.41614608  1
  Cu  Cu30  1  0.19453998  0.98707824  0.30208989  1
  Cu  Cu31  1  0.81278773  0.81823903  0.30520507  1
  Cu  Cu32  1  0.00827037  0.20519397  0.30233395  1
  Cu  Cu33  1  0.19692360  0.20519397  0.80233395  1
  Cu  Cu34  1  0.00545130  0.81823903  0.80520507  1
  Cu  Cu35  1  0.79253826  0.98707824  0.80208989  1
  Cu  Cu36  1  0.78322641  0.92864537  0.69685157  1
  Cu  Cu37  1  0.14840704  0.22261362  0.69654055  1
  Cu  Cu38  1  0.06177045  0.86806045  0.69510364  1
  Cu  Cu39  1  0.80629000  0.86806045  0.19510364  1
  Cu  Cu40  1  0.07420658  0.22261362  0.19654055  1
  Cu  Cu41  1  0.14541896  0.92864537  0.19685157  1
  Cu  Cu42  1  0.84991404  0.32385075  0.63687789  1
  Cu  Cu43  1  0.46119094  0.13794778  0.63686219  1
  Cu  Cu44  1  0.66760318  0.53573904  0.63663778  1
  Cu  Cu45  1  0.86813686  0.53573904  0.13663778  1
  Cu  Cu46  1  0.67675784  0.13794778  0.13686219  1
  Cu  Cu47  1  0.47393771  0.32385075  0.13687789  1
  Cu  Cu48  1  0.46557809  0.26072062  0.02832893  1
  Cu  Cu49  1  0.81710433  0.55251173  0.03097408  1
  Cu  Cu50  1  0.73326624  0.18336395  0.03037446  1
  Cu  Cu51  1  0.45009870  0.18336395  0.53037446  1
  Cu  Cu52  1  0.73540840  0.55251173  0.53097408  1
  Cu  Cu53  1  0.79514353  0.26072062  0.52832893  1
  Cu  Cu54  1  0.53293876  0.66319716  0.97016801  1
  Cu  Cu55  1  0.14182550  0.48336935  0.96934823  1
  Cu  Cu56  1  0.34464892  0.87051707  0.97055496  1
  Cu  Cu57  1  0.52586715  0.87051707  0.47055496  1
  Cu  Cu58  1  0.34154286  0.48336935  0.46934823  1
  Cu  Cu59  1  0.13025739  0.66319716  0.47016801  1
  Cu  Cu60  1  0.11713204  0.60041177  0.36463582  1
  Cu  Cu61  1  0.48788609  0.88376246  0.36350781  1
  Cu  Cu62  1  0.40638345  0.53120727  0.36071455  1
  Cu  Cu63  1  0.12482282  0.53120727  0.86071455  1
  Cu  Cu64  1  0.39587537  0.88376246  0.86350781  1
  Cu  Cu65  1  0.48327874  0.60041177  0.86463582  1
  Cu  Cu66  1  0.97748566  0.74613897  0.40596797  1
  Cu  Cu67  1  0.76979708  0.01620564  0.40762337  1
  Cu  Cu68  1  0.24590750  0.23409714  0.40205739  1
  Cu  Cu69  1  0.98818964  0.23409714  0.90205739  1
  Cu  Cu70  1  0.24640856  0.01620564  0.90762337  1
  Cu  Cu71  1  0.76865331  0.74613897  0.90596797  1
  Cu  Cu72  1  0.92094010  0.11499569  0.59435406  1
  Cu  Cu73  1  0.19745460  0.07553748  0.59100357  1
  Cu  Cu74  1  0.87777458  0.79905701  0.59198940  1
  Cu  Cu75  1  0.92128243  0.79905701  0.09198940  1
  Cu  Cu76  1  0.87808287  0.07553748  0.09100357  1
  Cu  Cu77  1  0.19405559  0.11499569  0.09435406  1
  Cu  Cu78  1  0.64733418  0.07799304  0.73691170  1
  Cu  Cu79  1  0.43367600  0.35411989  0.73713090  1
  Cu  Cu80  1  0.90153976  0.57030193  0.73765389  1
  Cu  Cu81  1  0.66876317  0.57030193  0.23765389  1
  Cu  Cu82  1  0.92044489  0.35411989  0.23713090  1
  Cu  Cu83  1  0.43065986  0.07799304  0.23691170  1
  Cu  Cu84  1  0.58651156  0.45416573  0.92692024  1
  Cu  Cu85  1  0.85679609  0.40549709  0.92891771  1
  Cu  Cu86  1  0.54384613  0.13309762  0.92311749  1
  Cu  Cu87  1  0.58925249  0.13309762  0.42311749  1
  Cu  Cu88  1  0.54870199  0.40549709  0.42891771  1
  Cu  Cu89  1  0.86765517  0.45416573  0.42692024  1
  Cu  Cu90  1  0.32029922  0.41662479  0.06746166  1
  Cu  Cu91  1  0.10393406  0.68888009  0.07149641  1
  Cu  Cu92  1  0.58039790  0.90033579  0.07295847  1
  Cu  Cu93  1  0.31993689  0.90033579  0.57295847  1
  Cu  Cu94  1  0.58494503  0.68888009  0.57149641  1
  Cu  Cu95  1  0.09632457  0.41662479  0.56746166  1
  Cu  Cu96  1  0.25466494  0.78352415  0.25772392  1
  Cu  Cu97  1  0.53601750  0.74283564  0.25901958  1
  Cu  Cu98  1  0.21439319  0.46913800  0.25778471  1
  Cu  Cu99  1  0.25474381  0.46913800  0.75778471  1
  Cu  Cu100  1  0.20681714  0.74283564  0.75901958  1
  Cu  Cu101  1  0.52885821  0.78352415  0.75772392  1
