# generated using pymatgen
data_Cu5(Ni2C9)7
_symmetry_space_group_name_H-M   'P 1'
_cell_length_a   18.31123956
_cell_length_b   9.16754495
_cell_length_c   22.26561279
_cell_angle_alpha   89.99461923
_cell_angle_beta   89.98388638
_cell_angle_gamma   119.64576350
_symmetry_Int_Tables_number   1
_chemical_formula_structural   Cu5(Ni2C9)7
_chemical_formula_sum   'Cu15 Ni42 C189'
_cell_volume   3248.44281981
_cell_formula_units_Z   3
loop_
 _symmetry_equiv_pos_site_id
 _symmetry_equiv_pos_as_xyz
  1  'x, y, z'
loop_
 _atom_site_type_symbol
 _atom_site_label
 _atom_site_symmetry_multiplicity
 _atom_site_fract_x
 _atom_site_fract_y
 _atom_site_fract_z
 _atom_site_occupancy
  Ni  Ni0  1  0.18446485  0.36113898  0.24747921  1
  Ni  Ni1  1  0.68594356  0.36409276  0.24657675  1
  Ni  Ni2  1  0.99636969  0.63515809  0.24728086  1
  Ni  Ni3  1  0.49663552  0.63292910  0.24709291  1
  Ni  Ni4  1  0.31828351  0.63047590  0.74761215  1
  Ni  Ni5  1  0.81936595  0.62856262  0.74847298  1
  Ni  Ni6  1  0.18275109  0.00723062  0.74789148  1
  Ni  Ni7  1  0.68174394  0.00789535  0.74826078  1
  Ni  Ni8  1  0.15874872  0.33634914  0.58307911  1
  Ni  Ni9  1  0.65868055  0.33625959  0.58317316  1
  Ni  Ni10  1  0.01004211  0.68319143  0.58347764  1
  Ni  Ni11  1  0.50996328  0.68316197  0.58359689  1
  Ni  Ni12  1  0.33145336  0.97833541  0.58243926  1
  Ni  Ni13  1  0.83136357  0.97835353  0.58259356  1
  Ni  Ni14  1  0.15125943  0.96949772  0.08219764  1
  Ni  Ni15  1  0.65854352  0.97422774  0.08258273  1
  Ni  Ni16  1  0.33152306  0.68071451  0.08216364  1
  Ni  Ni17  1  0.01170342  0.34404093  0.08215553  1
  Ni  Ni18  1  0.51572943  0.33768645  0.08097738  1
  Ni  Ni19  1  0.48548358  0.67533009  0.91472872  1
  Ni  Ni20  1  0.98608915  0.67286370  0.91505706  1
  Ni  Ni21  1  0.35429958  0.03656642  0.91470143  1
  Ni  Ni22  1  0.16255189  0.28972949  0.91484875  1
  Ni  Ni23  1  0.66528520  0.29633240  0.91515920  1
  Ni  Ni24  1  0.48168543  0.29183529  0.41576247  1
  Ni  Ni25  1  0.98182114  0.29190167  0.41542778  1
  Ni  Ni26  1  0.16390789  0.03640748  0.41522033  1
  Ni  Ni27  1  0.66402662  0.03646073  0.41549251  1
  Ni  Ni28  1  0.35401366  0.67012246  0.41575009  1
  Ni  Ni29  1  0.85430101  0.67045517  0.41545319  1
  Ni  Ni30  1  0.99950470  0.00015365  0.49987070  1
  Ni  Ni31  1  0.49942999  0.00015701  0.50017880  1
  Ni  Ni32  1  0.98324600  0.98459894  0.99952205  1
  Ni  Ni33  1  0.50102100  0.00299051  0.00070049  1
  Ni  Ni34  1  0.34149365  0.33395935  0.83072603  1
  Ni  Ni35  1  0.84210248  0.31991463  0.83373562  1
  Ni  Ni36  1  0.33269279  0.31716154  0.33105163  1
  Ni  Ni37  1  0.83352497  0.31765382  0.33131949  1
  Ni  Ni38  1  0.17300021  0.67879213  0.16884128  1
  Ni  Ni39  1  0.68025603  0.68293527  0.16552080  1
  Ni  Ni40  1  0.16057399  0.65568168  0.66844402  1
  Ni  Ni41  1  0.65941028  0.65390172  0.66849234  1
  Cu  Cu42  1  0.99844032  0.00133797  0.34606614  1
  Cu  Cu43  1  0.49799513  0.00058180  0.34660164  1
  Cu  Cu44  1  0.99522332  0.00233495  0.85180764  1
  Cu  Cu45  1  0.50123280  0.00490882  0.84757814  1
  Cu  Cu46  1  0.33652327  0.33322905  0.68432320  1
  Cu  Cu47  1  0.83657827  0.33375000  0.68402180  1
  Cu  Cu48  1  0.33298814  0.32605729  0.18353262  1
  Cu  Cu49  1  0.83364887  0.33185449  0.18526177  1
  Cu  Cu50  1  0.33332244  0.33264702  0.98565594  1
  Cu  Cu51  1  0.33376805  0.33319456  0.48622278  1
  Cu  Cu52  1  0.83373072  0.33309477  0.48619682  1
  Cu  Cu53  1  0.16676785  0.66641545  0.01908611  1
  Cu  Cu54  1  0.67095094  0.66814658  0.01904330  1
  Cu  Cu55  1  0.16722123  0.66745123  0.51884849  1
  Cu  Cu56  1  0.66719697  0.66752344  0.51893497  1
  C  C57  1  -0.00001279  0.00267372  0.65527994  1
  C  C58  1  0.50029439  0.00383274  0.65603303  1
  C  C59  1  0.99287066  0.99440392  0.15151211  1
  C  C60  1  0.49696480  0.99287536  0.15603440  1
  C  C61  1  0.83351967  0.32848668  0.98385204  1
  C  C62  1  0.16947418  0.67261874  0.31444057  1
  C  C63  1  0.67032517  0.67357342  0.31441658  1
  C  C64  1  0.15777680  0.65445882  0.81670085  1
  C  C65  1  0.67034761  0.66595244  0.81620035  1
  C  C66  1  0.14432907  0.98277889  0.25055280  1
  C  C67  1  0.64538689  0.98426220  0.25214619  1
  C  C68  1  0.34486137  0.70712478  0.25161493  1
  C  C69  1  0.84669472  0.71330496  0.25076004  1
  C  C70  1  0.00867047  0.31135397  0.25116862  1
  C  C71  1  0.51000966  0.31157852  0.25049349  1
  C  C72  1  0.14350354  0.30607616  0.75302131  1
  C  C73  1  0.64631378  0.30998955  0.75121083  1
  C  C74  1  0.00738742  0.71126642  0.75272304  1
  C  C75  1  0.50843291  0.71014259  0.75287943  1
  C  C76  1  0.34400303  0.98096801  0.75205375  1
  C  C77  1  0.84417687  0.98091018  0.75092773  1
  C  C78  1  0.48688928  0.31469740  0.58618648  1
  C  C79  1  0.98704224  0.31498857  0.58622048  1
  C  C80  1  0.17055505  0.02697068  0.58941671  1
  C  C81  1  0.67046532  0.02692711  0.58928628  1
  C  C82  1  0.34277668  0.65896859  0.58948260  1
  C  C83  1  0.84273999  0.65885789  0.58931735  1
  C  C84  1  0.48670969  0.65680934  0.08944366  1
  C  C85  1  0.97567974  0.64139654  0.08405060  1
  C  C86  1  0.34341589  0.02666128  0.08645515  1
  C  C87  1  0.84117794  0.04863437  0.08334850  1
  C  C88  1  0.16909120  0.31131602  0.08993671  1
  C  C89  1  0.67998906  0.31525178  0.08486276  1
  C  C90  1  0.30845876  0.65904053  0.91209063  1
  C  C91  1  0.81186899  0.64575845  0.91581689  1
  C  C92  1  0.01449744  0.37911071  0.91979115  1
  C  C93  1  0.52266861  0.38585091  0.91376327  1
  C  C94  1  0.16951351  0.95836635  0.91196473  1
  C  C95  1  0.67653120  0.97050161  0.91752911  1
  C  C96  1  0.30909828  0.95751661  0.41338811  1
  C  C97  1  0.80941084  0.95787249  0.41348036  1
  C  C98  1  0.16985517  0.38154187  0.41177830  1
  C  C99  1  0.66990344  0.38168369  0.41172459  1
  C  C100  1  0.02134022  0.66143273  0.41176858  1
  C  C101  1  0.52148706  0.66126492  0.41158027  1
  C  C102  1  0.10857152  0.00540535  0.30882916  1
  C  C103  1  0.60863774  0.00561812  0.30985249  1
  C  C104  1  0.39476848  0.77577037  0.30870928  1
  C  C105  1  0.89434252  0.77663433  0.30885337  1
  C  C106  1  0.49909840  0.21884371  0.30857766  1
  C  C107  1  0.99869879  0.22035519  0.30946448  1
  C  C108  1  0.10899451  0.20491463  0.80955178  1
  C  C109  1  0.61188957  0.21069862  0.80823944  1
  C  C110  1  0.49634127  0.78155516  0.81081716  1
  C  C111  1  0.99818624  0.78878345  0.80943027  1
  C  C112  1  0.39071374  0.00212815  0.80996495  1
  C  C113  1  0.89460473  0.00447935  0.80561066  1
  C  C114  1  0.39607388  0.96279999  0.69664745  1
  C  C115  1  0.89011675  0.95749395  0.69302706  1
  C  C116  1  0.08685228  0.21259458  0.69577475  1
  C  C117  1  0.58833548  0.21438221  0.69489177  1
  C  C118  1  0.02229902  0.83325009  0.69656003  1
  C  C119  1  0.52240798  0.83477741  0.69757620  1
  C  C120  1  0.39328629  0.82389226  0.19518243  1
  C  C121  1  0.89586815  0.83529087  0.19541481  1
  C  C122  1  0.01730589  0.20861974  0.19550362  1
  C  C123  1  0.52028878  0.20796242  0.19458671  1
  C  C124  1  0.08153007  0.94938051  0.19538643  1
  C  C125  1  0.58180577  0.95399002  0.19678353  1
  C  C126  1  0.44161412  0.35016655  0.63543263  1
  C  C127  1  0.94187545  0.35041011  0.63563814  1
  C  C128  1  0.22704425  0.11141324  0.64281938  1
  C  C129  1  0.72725484  0.11175694  0.64250640  1
  C  C130  1  0.32789940  0.54486920  0.64280787  1
  C  C131  1  0.82818072  0.54548426  0.64281415  1
  C  C132  1  0.44376489  0.54633006  0.14301781  1
  C  C133  1  0.94104910  0.53860679  0.14050419  1
  C  C134  1  0.32601924  0.11603293  0.13601672  1
  C  C135  1  0.82711214  0.12575218  0.13819208  1
  C  C136  1  0.22542335  0.34052691  0.14352967  1
  C  C137  1  0.72766919  0.33752223  0.14218043  1
  C  C138  1  0.20443380  0.27709179  0.03191283  1
  C  C139  1  0.72836775  0.28899619  0.02767346  1
  C  C140  1  0.43420715  0.59031263  0.03149864  1
  C  C141  1  0.92034623  0.54689627  0.02595006  1
  C  C142  1  0.36237240  0.12357225  0.02642465  1
  C  C143  1  0.86006014  0.17446867  0.02649128  1
  C  C144  1  0.20516304  0.13154435  0.53132001  1
  C  C145  1  0.70495335  0.13137142  0.53114144  1
  C  C146  1  0.36072247  0.58968001  0.53125416  1
  C  C147  1  0.86054741  0.58932190  0.53113472  1
  C  C148  1  0.43771961  0.27590870  0.52623495  1
  C  C149  1  0.93774011  0.27582186  0.52639245  1
  C  C150  1  0.27131620  0.67579743  0.97071458  1
  C  C151  1  0.77072998  0.66838547  0.97026863  1
  C  C152  1  0.06160204  0.45088576  0.97769080  1
  C  C153  1  0.56590608  0.45742807  0.97318315  1
  C  C154  1  0.16180362  0.86589901  0.97016809  1
  C  C155  1  0.66071069  0.86941235  0.97433354  1
  C  C156  1  0.27341035  0.86925385  0.47288426  1
  C  C157  1  0.77333496  0.86904963  0.47280944  1
  C  C158  1  0.16190530  0.45798906  0.47006893  1
  C  C159  1  0.66195709  0.45836508  0.46992595  1
  C  C160  1  0.06734279  0.67723697  0.47018240  1
  C  C161  1  0.56750618  0.67718731  0.46999182  1
  C  C162  1  0.07169494  0.64652253  0.35471402  1
  C  C163  1  0.57198345  0.64645858  0.35441403  1
  C  C164  1  0.24917141  0.85439137  0.35873196  1
  C  C165  1  0.74933378  0.85509869  0.35864692  1
  C  C166  1  0.17748892  0.49744861  0.35475408  1
  C  C167  1  0.67774947  0.49764694  0.35446485  1
  C  C168  1  0.05977885  0.50469488  0.86419225  1
  C  C169  1  0.57655242  0.51169066  0.85951443  1
  C  C170  1  0.17628377  0.85484745  0.85499431  1
  C  C171  1  0.68710039  0.88040425  0.85915506  1
  C  C172  1  0.24713943  0.64031599  0.85619824  1
  C  C173  1  0.75611932  0.62156100  0.85644739  1
  C  C174  1  0.01025040  0.81717490  0.40838168  1
  C  C175  1  0.51028176  0.81685422  0.40829968  1
  C  C176  1  0.39758721  0.97756448  0.40888431  1
  C  C177  1  0.89776545  0.97773161  0.40895039  1
  C  C178  1  0.09211580  0.20527058  0.40812354  1
  C  C179  1  0.59201423  0.20562729  0.40803382  1
  C  C180  1  0.00664871  0.20835880  0.91080564  1
  C  C181  1  0.51294828  0.21012381  0.90848080  1
  C  C182  1  0.09259315  0.98203541  0.90830264  1
  C  C183  1  0.60112667  0.00095909  0.90989273  1
  C  C184  1  0.39656892  0.81435294  0.90763226  1
  C  C185  1  0.90167261  0.78744725  0.91012277  1
  C  C186  1  0.48943029  0.14679220  0.59780945  1
  C  C187  1  0.98959262  0.14697632  0.59786037  1
  C  C188  1  0.08260839  0.02022207  0.59762847  1
  C  C189  1  0.58236789  0.01962709  0.59764360  1
  C  C190  1  0.42663336  0.83413039  0.59809822  1
  C  C191  1  0.92705110  0.83373823  0.59756566  1
  C  C192  1  0.48974669  0.83386456  0.09773234  1
  C  C193  1  0.98262223  0.82159613  0.08900017  1
  C  C194  1  0.42952204  0.02438139  0.09751220  1
  C  C195  1  0.92610596  0.04277688  0.08881529  1
  C  C196  1  0.08118876  0.14018949  0.09750446  1
  C  C197  1  0.59399021  0.14525299  0.08634856  1
  C  C198  1  0.32616030  0.12552299  0.74462105  1
  C  C199  1  0.82353307  0.12163638  0.74347294  1
  C  C200  1  0.23337505  0.33793682  0.74315918  1
  C  C201  1  0.73511819  0.33628475  0.74229775  1
  C  C202  1  0.43211375  0.53872283  0.74331570  1
  C  C203  1  0.93080467  0.53877937  0.74437875  1
  C  C204  1  0.33130877  0.52959612  0.24243695  1
  C  C205  1  0.83322258  0.53658592  0.24108719  1
  C  C206  1  0.43798384  0.34720064  0.24281680  1
  C  C207  1  0.93755572  0.35077659  0.24481154  1
  C  C208  1  0.23019263  0.13607146  0.24213442  1
  C  C209  1  0.73057235  0.13794067  0.24323212  1
  C  C210  1  0.31375377  0.49629957  0.90916055  1
  C  C211  1  0.81333259  0.47282377  0.91996016  1
  C  C212  1  0.43621525  0.37616038  0.90962481  1
  C  C213  1  0.92589989  0.37440814  0.92247281  1
  C  C214  1  0.25179341  0.12908921  0.90851887  1
  C  C215  1  0.75927499  0.15191254  0.92260572  1
  C  C216  1  0.31401263  0.13108235  0.41068230  1
  C  C217  1  0.81406143  0.13118604  0.41075573  1
  C  C218  1  0.25157696  0.37110022  0.40921522  1
  C  C219  1  0.75153424  0.37092095  0.40917412  1
  C  C220  1  0.43532291  0.49803276  0.40879820  1
  C  C221  1  0.93509891  0.49820653  0.40906895  1
  C  C222  1  0.15399081  0.46117188  0.08588238  1
  C  C223  1  0.66021557  0.45713611  0.07753177  1
  C  C224  1  0.06638389  0.67469428  0.07620208  1
  C  C225  1  0.57635673  0.68615390  0.08555313  1
  C  C226  1  0.27014354  0.84505097  0.08444687  1
  C  C227  1  0.76598215  0.87640059  0.07467121  1
  C  C228  1  0.15464509  0.84658711  0.58535128  1
  C  C229  1  0.65462951  0.84657487  0.58530649  1
  C  C230  1  0.26810801  0.69040759  0.58535406  1
  C  C231  1  0.76818790  0.69055666  0.58528507  1
  C  C232  1  0.07758898  0.46164861  0.58371794  1
  C  C233  1  0.57752229  0.46161566  0.58363970  1
  C  C234  1  0.14823884  0.81162364  0.25304556  1
  C  C235  1  0.64822570  0.81312673  0.25277039  1
  C  C236  1  0.25554882  0.69485368  0.25401662  1
  C  C237  1  0.75645062  0.69824699  0.25329798  1
  C  C238  1  0.09503571  0.48372626  0.25022572  1
  C  C239  1  0.59563945  0.48362884  0.24958872  1
  C  C240  1  0.14906007  0.48599337  0.75724404  1
  C  C241  1  0.65378752  0.49036059  0.75442704  1
  C  C242  1  0.09292115  0.70238152  0.75419282  1
  C  C243  1  0.59543173  0.70877022  0.75500243  1
  C  C244  1  0.25819270  0.81033084  0.75043254  1
  C  C245  1  0.75725931  0.80719827  0.75401548  1
