# generated using pymatgen
data_Cu2NiC10
_symmetry_space_group_name_H-M   'P 1'
_cell_length_a   3.81717679
_cell_length_b   5.15269467
_cell_length_c   10.32115669
_cell_angle_alpha   104.45491505
_cell_angle_beta   100.65646806
_cell_angle_gamma   90.00000311
_symmetry_Int_Tables_number   1
_chemical_formula_structural   Cu2NiC10
_chemical_formula_sum   'Cu2 Ni1 C10'
_cell_volume   192.96032597
_cell_formula_units_Z   1
loop_
 _symmetry_equiv_pos_site_id
 _symmetry_equiv_pos_as_xyz
  1  'x, y, z'
loop_
 _atom_site_type_symbol
 _atom_site_label
 _atom_site_symmetry_multiplicity
 _atom_site_fract_x
 _atom_site_fract_y
 _atom_site_fract_z
 _atom_site_occupancy
  C  C0  1  0.49999900  0.50000000  0.00000000  1
  C  C1  1  0.32164435  0.32164635  0.64329069  1
  C  C2  1  0.67835565  0.67835365  0.35670831  1
  Ni  Ni3  1  0.50000000  0.00000000  0.00000000  1
  Cu  Cu4  1  0.10919769  0.10919769  0.21839439  1
  Cu  Cu5  1  0.89080231  0.89080231  0.78160561  1
  C  C6  1  0.90824761  0.40824861  0.81649721  1
  C  C7  1  0.40258857  0.90258857  0.80517715  1
  C  C8  1  0.09175239  0.59175139  0.18350279  1
  C  C9  1  0.59741143  0.09741143  0.19482285  1
  C  C10  1  0.79825866  0.79826066  0.59651931  1
  C  C11  1  -0.00000000  0.00000000  0.00000000  1
  C  C12  1  0.20173934  0.20173934  0.40348069  1
