# generated using pymatgen
data_Cu2NiC10
_symmetry_space_group_name_H-M   'P 1'
_cell_length_a   4.88016514
_cell_length_b   5.18271990
_cell_length_c   5.92233800
_cell_angle_alpha   90.00000000
_cell_angle_beta   90.00000000
_cell_angle_gamma   88.49038315
_symmetry_Int_Tables_number   1
_chemical_formula_structural   Cu2NiC10
_chemical_formula_sum   'Cu2 Ni1 C10'
_cell_volume   149.73891583
_cell_formula_units_Z   1
loop_
 _symmetry_equiv_pos_site_id
 _symmetry_equiv_pos_as_xyz
  1  'x, y, z'
loop_
 _atom_site_type_symbol
 _atom_site_label
 _atom_site_symmetry_multiplicity
 _atom_site_fract_x
 _atom_site_fract_y
 _atom_site_fract_z
 _atom_site_occupancy
  Ni  Ni0  1  0.00000000  0.75000000  0.38795900  1
  Cu  Cu1  1  0.50000000  0.75000000  0.34644800  1
  Cu  Cu2  1  0.50000000  0.25000000  0.62982900  1
  C  C3  1  0.00000000  0.75000000  0.85862600  1
  C  C4  1  0.00000000  0.25000000  0.14501600  1
  C  C5  1  0.74560600  0.41491400  0.38050700  1
  C  C6  1  0.25439400  0.08508600  0.38050700  1
  C  C7  1  0.25429500  0.58654600  0.62344900  1
  C  C8  1  0.74570500  0.91345400  0.62344900  1
  C  C9  1  0.77910600  0.43395900  0.87678900  1
  C  C10  1  0.22089400  0.06604100  0.87678900  1
  C  C11  1  0.22094900  0.58974000  0.12281500  1
  C  C12  1  0.77905100  0.91026000  0.12281500  1
