# generated using pymatgen
data_Cu14NiC6
_symmetry_space_group_name_H-M   'P 1'
_cell_length_a   9.35832843
_cell_length_b   9.35832843
_cell_length_c   11.14377900
_cell_angle_alpha   90.00000000
_cell_angle_beta   90.00000000
_cell_angle_gamma   92.89043113
_symmetry_Int_Tables_number   1
_chemical_formula_structural   Cu14NiC6
_chemical_formula_sum   'Cu28 Ni2 C12'
_cell_volume   974.71172736
_cell_formula_units_Z   2
loop_
 _symmetry_equiv_pos_site_id
 _symmetry_equiv_pos_as_xyz
  1  'x, y, z'
loop_
 _atom_site_type_symbol
 _atom_site_label
 _atom_site_symmetry_multiplicity
 _atom_site_fract_x
 _atom_site_fract_y
 _atom_site_fract_z
 _atom_site_occupancy
  C  C0  1  0.63476800  0.63476800  0.09773600  1
  C  C1  1  0.86523200  0.86523200  0.59773600  1
  C  C2  1  0.13476800  0.13476800  0.40226400  1
  C  C3  1  0.36523200  0.36523200  0.90226400  1
  C  C4  1  0.44922400  0.67576100  0.88395900  1
  C  C5  1  0.05077600  0.82423900  0.38395900  1
  C  C6  1  0.17576100  0.94922400  0.61604100  1
  C  C7  1  0.32423900  0.55077600  0.11604100  1
  C  C8  1  0.55077600  0.32423900  0.11604100  1
  C  C9  1  0.94922400  0.17576100  0.61604100  1
  C  C10  1  0.82423900  0.05077600  0.38395900  1
  C  C11  1  0.67576100  0.44922400  0.88395900  1
  Ni  Ni12  1  0.50000000  0.50000000  0.00000000  1
  Ni  Ni13  1  0.00000000  0.00000000  0.50000000  1
  Cu  Cu14  1  0.61117200  0.11117200  0.25000000  1
  Cu  Cu15  1  0.88882800  0.38882800  0.75000000  1
  Cu  Cu16  1  0.38882800  0.88882800  0.75000000  1
  Cu  Cu17  1  0.11117200  0.61117200  0.25000000  1
  Cu  Cu18  1  0.39604700  0.15208800  0.01202500  1
  Cu  Cu19  1  0.10395300  0.34791200  0.51202500  1
  Cu  Cu20  1  0.65208800  0.89604700  0.48797500  1
  Cu  Cu21  1  0.84791200  0.60395300  0.98797500  1
  Cu  Cu22  1  0.60395300  0.84791200  0.98797500  1
  Cu  Cu23  1  0.89604700  0.65208800  0.48797500  1
  Cu  Cu24  1  0.74747300  0.25252700  0.00000000  1
  Cu  Cu25  1  0.75252700  0.24747300  0.50000000  1
  Cu  Cu26  1  0.25252700  0.74747300  0.00000000  1
  Cu  Cu27  1  0.24747300  0.75252700  0.50000000  1
  Cu  Cu28  1  0.14201000  0.14201000  0.75848200  1
  Cu  Cu29  1  0.35799000  0.35799000  0.25848200  1
  Cu  Cu30  1  0.64201000  0.64201000  0.74151800  1
  Cu  Cu31  1  0.85799000  0.85799000  0.24151800  1
  Cu  Cu32  1  0.96739900  0.20935200  0.25867400  1
  Cu  Cu33  1  0.53260100  0.29064800  0.75867400  1
  Cu  Cu34  1  0.70935200  0.46739900  0.24132600  1
  Cu  Cu35  1  0.79064800  0.03260100  0.74132600  1
  Cu  Cu36  1  0.03260100  0.79064800  0.74132600  1
  Cu  Cu37  1  0.46739900  0.70935200  0.24132600  1
  Cu  Cu38  1  0.29064800  0.53260100  0.75867400  1
  Cu  Cu39  1  0.20935200  0.96739900  0.25867400  1
  Cu  Cu40  1  0.15208800  0.39604700  0.01202500  1
  Cu  Cu41  1  0.34791200  0.10395300  0.51202500  1
