# generated using pymatgen
data_Cu5Ni2C5
_symmetry_space_group_name_H-M   'P 1'
_cell_length_a   3.99982363
_cell_length_b   3.99982182
_cell_length_c   12.49101295
_cell_angle_alpha   80.78517034
_cell_angle_beta   80.78903738
_cell_angle_gamma   90.00154325
_symmetry_Int_Tables_number   1
_chemical_formula_structural   Cu5Ni2C5
_chemical_formula_sum   'Cu5 Ni2 C5'
_cell_volume   194.64848173
_cell_formula_units_Z   1
loop_
 _symmetry_equiv_pos_site_id
 _symmetry_equiv_pos_as_xyz
  1  'x, y, z'
loop_
 _atom_site_type_symbol
 _atom_site_label
 _atom_site_symmetry_multiplicity
 _atom_site_fract_x
 _atom_site_fract_y
 _atom_site_fract_z
 _atom_site_occupancy
  C  C0  1  0.65530900  0.65536600  0.68932400  1
  C  C1  1  0.34469200  0.34463500  0.31067300  1
  C  C2  1  0.50000200  0.50000200  0.99999800  1
  C  C3  1  0.92099900  0.92101500  0.15798700  1
  C  C4  1  0.07899700  0.07898300  0.84202000  1
  Ni  Ni5  1  0.20278500  0.20284200  0.59437200  1
  Ni  Ni6  1  0.79721700  0.79716000  0.40562300  1
  Cu  Cu7  1  0.90987300  0.40999400  0.18010900  1
  Cu  Cu8  1  0.40989800  0.91001800  0.18010900  1
  Cu  Cu9  1  0.09012700  0.59000700  0.81989000  1
  Cu  Cu10  1  0.99999900  0.99999800  0.00000300  1
  Cu  Cu11  1  0.59010300  0.08998200  0.81989000  1
