# generated using pymatgen
data_Cu3Ni6C61
_symmetry_space_group_name_H-M   'P 1'
_cell_length_a   17.85606709
_cell_length_b   8.89256806
_cell_length_c   23.28668589
_cell_angle_alpha   89.99538540
_cell_angle_beta   90.18617166
_cell_angle_gamma   120.13927881
_symmetry_Int_Tables_number   1
_chemical_formula_structural   Cu3Ni6C61
_chemical_formula_sum   'Cu9 Ni18 C183'
_cell_volume   3197.69547685
_cell_formula_units_Z   3
loop_
 _symmetry_equiv_pos_site_id
 _symmetry_equiv_pos_as_xyz
  1  'x, y, z'
loop_
 _atom_site_type_symbol
 _atom_site_label
 _atom_site_symmetry_multiplicity
 _atom_site_fract_x
 _atom_site_fract_y
 _atom_site_fract_z
 _atom_site_occupancy
  C  C0  1  0.99827537  0.98749260  0.49904786  1
  C  C1  1  0.50144038  0.01123613  0.99664573  1
  C  C2  1  0.34292377  0.33793003  0.83478745  1
  C  C3  1  0.83487886  0.35099884  0.83082947  1
  C  C4  1  0.33709697  0.32130141  0.33571696  1
  C  C5  1  0.84060901  0.34254406  0.34088476  1
  C  C6  1  0.49339096  0.00542944  0.35639983  1
  C  C7  1  0.99270188  0.98022523  0.85355809  1
  C  C8  1  0.50198303  0.99238319  0.64157065  1
  C  C9  1  0.99682241  0.00322716  0.14486782  1
  C  C10  1  0.67220239  0.66555177  0.01679651  1
  C  C11  1  0.17116105  0.67756506  0.51847445  1
  Ni  Ni12  1  0.00362648  0.98974670  0.35682598  1
  Ni  Ni13  1  0.50212932  0.01488322  0.85433118  1
  Ni  Ni14  1  0.99837832  0.99463795  0.65067190  1
  Ni  Ni15  1  0.50029725  0.00419998  0.15200528  1
  Ni  Ni16  1  0.32990778  0.33489545  0.68278154  1
  Ni  Ni17  1  0.83781228  0.34100436  0.68475729  1
  Ni  Ni18  1  0.34207702  0.33457470  0.18799446  1
  Ni  Ni19  1  0.82738950  0.32110189  0.18313521  1
  Ni  Ni20  1  0.33710402  0.33574198  0.98167893  1
  Ni  Ni21  1  0.83684149  0.33403043  0.98240807  1
  Ni  Ni22  1  0.33741390  0.33974143  0.48370565  1
  Ni  Ni23  1  0.83336690  0.33242684  0.48435351  1
  Ni  Ni24  1  0.16406885  0.66433399  0.01724115  1
  Ni  Ni25  1  0.66626237  0.67620875  0.52120007  1
  Ni  Ni26  1  0.16254690  0.67592679  0.31728825  1
  Ni  Ni27  1  0.66600301  0.66447775  0.31130161  1
  Ni  Ni28  1  0.16725678  0.67141791  0.80921813  1
  Ni  Ni29  1  0.66246785  0.64868356  0.81420617  1
  Cu  Cu30  1  0.50023556  0.29426541  0.24992212  1
  Cu  Cu31  1  0.99802134  0.70131627  0.74833680  1
  Cu  Cu32  1  0.69411297  0.04784066  0.58417472  1
  Cu  Cu33  1  0.32988978  0.61764501  0.58325965  1
  Cu  Cu34  1  0.82995818  0.04240878  0.08290873  1
  Cu  Cu35  1  0.81140479  0.65697758  0.91474564  1
  Cu  Cu36  1  0.51847756  0.37367713  0.91620068  1
  Cu  Cu37  1  0.31045753  0.96622275  0.41565342  1
  Cu  Cu38  1  0.01679747  0.65752571  0.41710984  1
  C  C39  1  0.14367405  0.00244714  0.24745403  1
  C  C40  1  0.64603677  0.00540612  0.25287037  1
  C  C41  1  0.35243009  0.70757085  0.25226024  1
  C  C42  1  0.85739805  0.70906805  0.24792029  1
  C  C43  1  0.00053090  0.28734907  0.25069408  1
  C  C44  1  0.14595731  0.28589831  0.75278465  1
  C  C45  1  0.64340111  0.28617299  0.74829679  1
  C  C46  1  0.50017365  0.71429466  0.75077968  1
  C  C47  1  0.35709003  0.00631839  0.74810452  1
  C  C48  1  0.85286321  0.99786705  0.75282244  1
  C  C49  1  0.48107888  0.32943997  0.58570018  1
  C  C50  1  0.98547409  0.33313625  0.58256102  1
  C  C51  1  0.18400957  0.03562924  0.58219170  1
  C  C52  1  0.83480799  0.63507021  0.58205399  1
  C  C53  1  0.48285311  0.63475991  0.08266420  1
  C  C54  1  0.98258304  0.63257388  0.08583059  1
  C  C55  1  0.33190958  0.03328338  0.08250090  1
  C  C56  1  0.18804221  0.33243761  0.08522428  1
  C  C57  1  0.68410148  0.33294668  0.08203419  1
  C  C58  1  0.31104302  0.66566579  0.91625186  1
  C  C59  1  0.02232337  0.37142755  0.91469193  1
  C  C60  1  0.16510780  0.96159964  0.91567810  1
  C  C61  1  0.66582832  0.95292676  0.91672422  1
  C  C62  1  0.81234964  0.95636198  0.41406854  1
  C  C63  1  0.16663818  0.37869596  0.41695483  1
  C  C64  1  0.66586681  0.37370286  0.41518146  1
  C  C65  1  0.52017986  0.67081898  0.41358035  1
  C  C66  1  0.10688686  0.03211510  0.30025250  1
  C  C67  1  0.59818523  0.02072187  0.30246252  1
  C  C68  1  0.41180555  0.79935485  0.30274517  1
  C  C69  1  0.91062501  0.78440284  0.29974371  1
  C  C70  1  0.48838312  0.16202267  0.30628635  1
  C  C71  1  0.98587034  0.17640788  0.30146045  1
  C  C72  1  0.09749327  0.17391174  0.80328915  1
  C  C73  1  0.60719872  0.18458086  0.80208166  1
  C  C74  1  0.48545492  0.79324215  0.80284692  1
  C  C75  1  0.98602906  0.80844379  0.80638915  1
  C  C76  1  0.40772326  0.03772487  0.80219665  1
  C  C77  1  0.91252485  0.01936160  0.80406073  1
  C  C78  1  0.40217534  0.98844652  0.69807837  1
  C  C79  1  0.89145610  0.97680645  0.69990482  1
  C  C80  1  0.09692465  0.21649237  0.69894133  1
  C  C81  1  0.58651651  0.18882861  0.69858959  1
  C  C82  1  0.01432329  0.81965288  0.69307904  1
  C  C83  1  0.50567561  0.82087410  0.69893431  1
  C  C84  1  0.39045140  0.80556651  0.19856120  1
  C  C85  1  0.90502322  0.82111218  0.19610948  1
  C  C86  1  0.00649069  0.18942660  0.19762796  1
  C  C87  1  0.51307164  0.21178835  0.19207339  1
  C  C88  1  0.08715260  0.98601881  0.19669129  1
  C  C89  1  0.59793972  0.97598680  0.19806127  1
  C  C90  1  0.44219345  0.36219015  0.63665235  1
  C  C91  1  0.95094663  0.36914710  0.63476771  1
  C  C92  1  0.23574237  0.10512707  0.63525995  1
  C  C93  1  0.75102472  0.13171904  0.64134460  1
  C  C94  1  0.30861590  0.50537138  0.64124061  1
  C  C95  1  0.82527970  0.53687906  0.63499619  1
  C  C96  1  0.44513736  0.52759951  0.13485853  1
  C  C97  1  0.94300904  0.52366817  0.13689994  1
  C  C98  1  0.31886359  0.11310964  0.13435513  1
  C  C99  1  0.81180068  0.11222684  0.14168189  1
  C  C100  1  0.24374043  0.36368236  0.13583781  1
  C  C101  1  0.73572081  0.36763039  0.13525097  1
  C  C102  1  0.22138875  0.29126075  0.03311699  1
  C  C103  1  0.72562263  0.30717680  0.03157801  1
  C  C104  1  0.42421055  0.55815998  0.03215286  1
  C  C105  1  0.92878049  0.56948404  0.03412895  1
  C  C106  1  0.34580868  0.14177318  0.03072445  1
  C  C107  1  0.85799095  0.16579301  0.02764291  1
  C  C108  1  0.22538157  0.14342485  0.53133739  1
  C  C109  1  0.72633721  0.16377244  0.52662296  1
  C  C110  1  0.35603250  0.54993125  0.52717947  1
  C  C111  1  0.85244595  0.56007523  0.53061550  1
  C  C112  1  0.42631724  0.28595133  0.53412137  1
  C  C113  1  0.92926739  0.29510615  0.53144974  1
  C  C114  1  0.27351075  0.69600931  0.96929357  1
  C  C115  1  0.76443225  0.68828653  0.97232771  1
  C  C116  1  0.07255403  0.44216993  0.96927240  1
  C  C117  1  0.58156152  0.48178665  0.97282918  1
  C  C118  1  0.14693861  0.85545268  0.96855941  1
  C  C119  1  0.65765085  0.84511786  0.96899150  1
  C  C120  1  0.26364564  0.84034938  0.47214424  1
  C  C121  1  0.77358054  0.84830069  0.46558335  1
  C  C122  1  0.15803777  0.46943504  0.46816887  1
  C  C123  1  0.64863297  0.44562265  0.46706790  1
  C  C124  1  0.08184060  0.67804986  0.47197937  1
  C  C125  1  0.57076584  0.70043715  0.46674845  1
  C  C126  1  0.05182861  0.62264035  0.35713170  1
  C  C127  1  0.56061635  0.64125549  0.36329273  1
  C  C128  1  0.25961177  0.88740214  0.35672345  1
  C  C129  1  0.76126953  0.87391789  0.36113531  1
  C  C130  1  0.17904863  0.47628370  0.36321574  1
  C  C131  1  0.68039727  0.48240680  0.36406545  1
  C  C132  1  0.06526915  0.48771391  0.86601452  1
  C  C133  1  0.55506061  0.48294059  0.85802608  1
  C  C134  1  0.18290766  0.88293293  0.86601322  1
  C  C135  1  0.67789997  0.87837196  0.86406102  1
  C  C136  1  0.25886979  0.64410210  0.86452453  1
  C  C137  1  0.75771599  0.63360905  0.85772582  1
  C  C138  1  0.01464916  0.84076522  0.41845845  1
  C  C139  1  0.51356729  0.83057300  0.40323713  1
  C  C140  1  0.40640702  0.97312629  0.40668374  1
  C  C141  1  0.90068897  0.97893630  0.40935659  1
  C  C142  1  0.08454364  0.20723061  0.41521637  1
  C  C143  1  0.58630646  0.19532289  0.40495180  1
  C  C144  1  0.01524535  0.19974785  0.90508452  1
  C  C145  1  0.51425811  0.18468043  0.91809995  1
  C  C146  1  0.08722950  0.97916203  0.90498911  1
  C  C147  1  0.58421619  0.95996308  0.91563562  1
  C  C148  1  0.39954817  0.81830986  0.91152024  1
  C  C149  1  0.90721687  0.84149206  0.90642118  1
  C  C150  1  0.48953196  0.17181321  0.59775512  1
  C  C151  1  0.99682621  0.17837013  0.58965057  1
  C  C152  1  0.09726515  0.01627055  0.58668750  1
  C  C153  1  0.59464752  0.02560708  0.59885528  1
  C  C154  1  0.41408305  0.81498739  0.59896680  1
  C  C155  1  0.91118811  0.81634273  0.58575595  1
  C  C156  1  0.49351900  0.81174872  0.08977238  1
  C  C157  1  0.99457973  0.81201941  0.09802142  1
  C  C158  1  0.40906472  0.01182630  0.08697373  1
  C  C159  1  0.91561393  0.01357071  0.09885373  1
  C  C160  1  0.09897015  0.17400462  0.09693870  1
  C  C161  1  0.59683203  0.17695077  0.08664123  1
  C  C162  1  0.34558609  0.16146971  0.74200751  1
  C  C163  1  0.85003130  0.16029998  0.75302464  1
  C  C164  1  0.23080740  0.29094236  0.75143618  1
  C  C165  1  0.72963373  0.30485274  0.74318223  1
  C  C166  1  0.42274560  0.53736001  0.74502730  1
  C  C167  1  0.90891629  0.51438892  0.74844247  1
  C  C168  1  0.34643465  0.53466994  0.24933100  1
  C  C169  1  0.84822914  0.53519206  0.23947068  1
  C  C170  1  0.41025306  0.30081935  0.25164964  1
  C  C171  1  0.92350474  0.30718677  0.24328567  1
  C  C172  1  0.22903289  0.16091889  0.24026725  1
  C  C173  1  0.73169462  0.17161820  0.25093764  1
  C  C174  1  0.31536475  0.50381699  0.92222436  1
  C  C175  1  0.82888220  0.49809266  0.92495352  1
  C  C176  1  0.42166061  0.35005723  0.92173040  1
  C  C177  1  0.93494837  0.35000053  0.91951660  1
  C  C178  1  0.23994439  0.13904146  0.92301721  1
  C  C179  1  0.74171536  0.12880653  0.92356359  1
  C  C180  1  0.32877713  0.16104018  0.42480891  1
  C  C181  1  0.81878468  0.12790653  0.41846277  1
  C  C182  1  0.24186025  0.35371474  0.42318174  1
  C  C183  1  0.74072405  0.34789636  0.41963542  1
  C  C184  1  0.43174287  0.51996914  0.41785513  1
  C  C185  1  0.92020055  0.48863464  0.42389180  1
  C  C186  1  0.17378713  0.48041683  0.07685944  1
  C  C187  1  0.67463689  0.49006374  0.07320468  1
  C  C188  1  0.06987541  0.65678696  0.07773495  1
  C  C189  1  0.56771722  0.65100730  0.07195975  1
  C  C190  1  0.25302693  0.85972310  0.07542994  1
  C  C191  1  0.74768793  0.84910803  0.06880998  1
  C  C192  1  0.17444717  0.85870447  0.57362477  1
  C  C193  1  0.67218224  0.85065705  0.57715035  1
  C  C194  1  0.24709260  0.64437555  0.56830873  1
  C  C195  1  0.75492980  0.64308042  0.57477500  1
  C  C196  1  0.07214081  0.48712208  0.57135077  1
  C  C197  1  0.56812597  0.47681398  0.57698781  1
  C  C198  1  0.14851064  0.84336105  0.24926611  1
  C  C199  1  0.66011565  0.85736055  0.25966684  1
  C  C200  1  0.26740630  0.69062014  0.26019652  1
  C  C201  1  0.77419929  0.70237488  0.25075498  1
  C  C202  1  0.08155310  0.45306697  0.25171574  1
  C  C203  1  0.58528445  0.47843300  0.25908522  1
  C  C204  1  0.15955411  0.46146197  0.76033907  1
  C  C205  1  0.64733091  0.45541122  0.74947959  1
  C  C206  1  0.08297912  0.69013681  0.76006255  1
  C  C207  1  0.58067872  0.70901580  0.75323457  1
  C  C208  1  0.27209028  0.84614100  0.75301116  1
  C  C209  1  0.76827672  0.84376000  0.76083888  1
