# generated using pymatgen
data_Cu6NiC3
_symmetry_space_group_name_H-M   'P 1'
_cell_length_a   5.82138946
_cell_length_b   5.82138946
_cell_length_c   15.06039900
_cell_angle_alpha   90.00000000
_cell_angle_beta   90.00000000
_cell_angle_gamma   119.99999385
_symmetry_Int_Tables_number   1
_chemical_formula_structural   Cu6NiC3
_chemical_formula_sum   'Cu12 Ni2 C6'
_cell_volume   441.99814510
_cell_formula_units_Z   2
loop_
 _symmetry_equiv_pos_site_id
 _symmetry_equiv_pos_as_xyz
  1  'x, y, z'
loop_
 _atom_site_type_symbol
 _atom_site_label
 _atom_site_symmetry_multiplicity
 _atom_site_fract_x
 _atom_site_fract_y
 _atom_site_fract_z
 _atom_site_occupancy
  C  C0  1  0.00000000  0.00000000  0.25000000  1
  C  C1  1  0.00000000  0.00000000  0.75000000  1
  C  C2  1  0.33333300  0.66666700  0.25000000  1
  C  C3  1  0.66666700  0.33333300  0.75000000  1
  C  C4  1  0.66666700  0.33333300  0.25000000  1
  C  C5  1  0.33333300  0.66666700  0.75000000  1
  Ni  Ni6  1  0.00000000  0.00000000  0.50000000  1
  Ni  Ni7  1  0.00000000  0.00000000  0.00000000  1
  Cu  Cu8  1  0.33627700  0.00000000  0.14671400  1
  Cu  Cu9  1  0.00000000  0.33627700  0.14671400  1
  Cu  Cu10  1  0.66372300  0.66372300  0.14671400  1
  Cu  Cu11  1  0.33627700  0.33627700  0.64671400  1
  Cu  Cu12  1  0.66372300  0.66372300  0.35328600  1
  Cu  Cu13  1  0.66372300  0.00000000  0.64671400  1
  Cu  Cu14  1  0.00000000  0.66372300  0.64671400  1
  Cu  Cu15  1  0.00000000  0.66372300  0.85328600  1
  Cu  Cu16  1  0.33627700  0.33627700  0.85328600  1
  Cu  Cu17  1  0.00000000  0.33627700  0.35328600  1
  Cu  Cu18  1  0.33627700  0.00000000  0.35328600  1
  Cu  Cu19  1  0.66372300  0.00000000  0.85328600  1
