# generated using pymatgen
data_Cu2NiC10
_symmetry_space_group_name_H-M   'P 1'
_cell_length_a   4.14793092
_cell_length_b   4.14795626
_cell_length_c   12.02850369
_cell_angle_alpha   100.00118681
_cell_angle_beta   99.99493980
_cell_angle_gamma   89.99662776
_symmetry_Int_Tables_number   1
_chemical_formula_structural   Cu2NiC10
_chemical_formula_sum   'Cu2 Ni1 C10'
_cell_volume   200.62098460
_cell_formula_units_Z   1
loop_
 _symmetry_equiv_pos_site_id
 _symmetry_equiv_pos_as_xyz
  1  'x, y, z'
loop_
 _atom_site_type_symbol
 _atom_site_label
 _atom_site_symmetry_multiplicity
 _atom_site_fract_x
 _atom_site_fract_y
 _atom_site_fract_z
 _atom_site_occupancy
  Ni  Ni0  1  0.49999700  0.49999200  0.99999300  1
  Cu  Cu1  1  0.33718600  0.33785200  0.67592700  1
  Cu  Cu2  1  0.66210600  0.66295300  0.32407500  1
  C  C3  1  0.25063500  0.74928000  0.50000000  1
  C  C4  1  0.90996900  0.91009300  0.82013400  1
  C  C5  1  0.08991300  0.09006600  0.17987700  1
  C  C6  1  0.89102500  0.39118800  0.78255700  1
  C  C7  1  0.38103700  0.88130500  0.76228000  1
  C  C8  1  0.11868400  0.61898600  0.23771600  1
  C  C9  1  0.60880200  0.10902700  0.21744200  1
  C  C10  1  0.76328500  0.76253500  0.52528300  1
  C  C11  1  0.99992000  0.00008000  0.00000100  1
  C  C12  1  0.23744100  0.23664100  0.47471400  1
