# generated using pymatgen
data_Cu2NiC8
_symmetry_space_group_name_H-M   'P 1'
_cell_length_a   8.35754663
_cell_length_b   8.34382266
_cell_length_c   8.34772440
_cell_angle_alpha   35.91175665
_cell_angle_beta   35.87609033
_cell_angle_gamma   35.89060663
_symmetry_Int_Tables_number   1
_chemical_formula_structural   Cu2NiC8
_chemical_formula_sum   'Cu2 Ni1 C8'
_cell_volume   178.92533033
_cell_formula_units_Z   1
loop_
 _symmetry_equiv_pos_site_id
 _symmetry_equiv_pos_as_xyz
  1  'x, y, z'
loop_
 _atom_site_type_symbol
 _atom_site_label
 _atom_site_symmetry_multiplicity
 _atom_site_fract_x
 _atom_site_fract_y
 _atom_site_fract_z
 _atom_site_occupancy
  Ni  Ni0  1  0.77074100  0.77446700  0.77450700  1
  Cu  Cu1  1  0.33853700  0.33906300  0.33912000  1
  Cu  Cu2  1  0.65532100  0.65585800  0.65559100  1
  C  C3  1  0.10383500  0.10628800  0.10704600  1
  C  C4  1  0.90520500  0.90328000  0.90356800  1
  C  C5  1  0.03716000  0.68766200  0.42249600  1
  C  C6  1  0.42098800  0.03862700  0.68707100  1
  C  C7  1  0.30615800  0.59161300  0.95841000  1
  C  C8  1  0.68588900  0.42268200  0.03837700  1
  C  C9  1  0.59236000  0.95816900  0.30550000  1
  C  C10  1  0.95880500  0.30562400  0.59164700  1
