# generated using pymatgen
data_Cu3Ni8C31
_symmetry_space_group_name_H-M   'P 1'
_cell_length_a   9.33075741
_cell_length_b   9.33075707
_cell_length_c   22.22573764
_cell_angle_alpha   90.00000000
_cell_angle_beta   90.00000000
_cell_angle_gamma   120.00000124
_symmetry_Int_Tables_number   1
_chemical_formula_structural   Cu3Ni8C31
_chemical_formula_sum   'Cu9 Ni24 C93'
_cell_volume   1675.79384420
_cell_formula_units_Z   3
loop_
 _symmetry_equiv_pos_site_id
 _symmetry_equiv_pos_as_xyz
  1  'x, y, z'
loop_
 _atom_site_type_symbol
 _atom_site_label
 _atom_site_symmetry_multiplicity
 _atom_site_fract_x
 _atom_site_fract_y
 _atom_site_fract_z
 _atom_site_occupancy
  Ni  Ni0  1  0.63662109  0.00043487  0.25530695  1
  Ni  Ni1  1  0.36381377  0.36337891  0.25530695  1
  Ni  Ni2  1  0.99956513  0.63618623  0.25530695  1
  Ni  Ni3  1  0.64918664  0.64764043  0.74382059  1
  Ni  Ni4  1  0.99845379  0.35081336  0.74382059  1
  Ni  Ni5  1  0.35235957  0.00154621  0.74382059  1
  Ni  Ni6  1  0.29441049  0.33701267  0.57699370  1
  Ni  Ni7  1  0.04260318  0.70558951  0.57699370  1
  Ni  Ni8  1  0.66298733  0.95739682  0.57699370  1
  Ni  Ni9  1  0.29568548  0.95785127  0.08954025  1
  Ni  Ni10  1  0.66216680  0.70431452  0.08954025  1
  Ni  Ni11  1  0.04214873  0.33783320  0.08954025  1
  Ni  Ni12  1  0.96492440  0.66995318  0.91334815  1
  Ni  Ni13  1  0.70502777  0.03507560  0.91334815  1
  Ni  Ni14  1  0.33004682  0.29497223  0.91334815  1
  Ni  Ni15  1  0.98237455  0.31561951  0.40882099  1
  Ni  Ni16  1  0.33324396  0.01762545  0.40882099  1
  Ni  Ni17  1  0.68438049  0.66675604  0.40882099  1
  Ni  Ni18  1  -0.00000000  0.00000000  0.49704008  1
  Ni  Ni19  1  -0.00000000  0.00000000  0.00165252  1
  Ni  Ni20  1  0.66666700  0.33333300  0.83313475  1
  Ni  Ni21  1  0.66666700  0.33333300  0.33013105  1
  Ni  Ni22  1  0.33333300  0.66666700  0.17820597  1
  Ni  Ni23  1  0.33333300  0.66666700  0.66209022  1
  Cu  Cu24  1  -0.00000000  0.00000000  0.34862829  1
  Cu  Cu25  1  -0.00000000  0.00000000  0.84641710  1
  Cu  Cu26  1  -0.00000000  0.00000000  0.65039088  1
  Cu  Cu27  1  -0.00000000  0.00000000  0.15054193  1
  Cu  Cu28  1  0.66666700  0.33333300  0.68523498  1
  Cu  Cu29  1  0.66666700  0.33333300  0.18507097  1
  Cu  Cu30  1  0.33333300  0.66666700  0.01574799  1
  Cu  Cu31  1  0.33333300  0.66666700  0.51154200  1
  Cu  Cu32  1  0.33333300  0.66666700  0.32373780  1
  C  C33  1  0.66666700  0.33333300  0.98297785  1
  C  C34  1  0.66666700  0.33333300  0.48525257  1
  C  C35  1  0.33333300  0.66666700  0.81874729  1
  C  C36  1  0.30697717  0.99305573  0.24972625  1
  C  C37  1  0.68607856  0.69302283  0.24972625  1
  C  C38  1  0.00694427  0.31392144  0.24972625  1
  C  C39  1  0.30790068  0.32681095  0.75657890  1
  C  C40  1  0.01891027  0.69209932  0.75657890  1
  C  C41  1  0.67318905  0.98108973  0.75657890  1
  C  C42  1  0.95555581  0.32825761  0.58235299  1
  C  C43  1  0.37270280  0.04444419  0.58235299  1
  C  C44  1  0.67174239  0.62729720  0.58235299  1
  C  C45  1  0.95152264  0.62563941  0.07709765  1
  C  C46  1  0.67411778  0.04847736  0.07709765  1
  C  C47  1  0.37436059  0.32588222  0.07709765  1
  C  C48  1  0.62498004  0.65334536  0.91677708  1
  C  C49  1  0.02836433  0.37501996  0.91677708  1
  C  C50  1  0.34665464  0.97163567  0.91677708  1
  C  C51  1  0.64651717  0.99575229  0.42323736  1
  C  C52  1  0.34923412  0.35348283  0.42323736  1
  C  C53  1  0.00424771  0.65076588  0.42323736  1
  C  C54  1  0.21128632  0.99689753  0.30585086  1
  C  C55  1  0.78561121  0.78871368  0.30585086  1
  C  C56  1  0.00310247  0.21438879  0.30585086  1
  C  C57  1  0.22729754  0.22172978  0.81227411  1
  C  C58  1  0.99443224  0.77270246  0.81227411  1
  C  C59  1  0.77827022  0.00556776  0.81227411  1
  C  C60  1  0.75079197  0.95111631  0.69986041  1
  C  C61  1  0.20032434  0.24920803  0.69986041  1
  C  C62  1  0.04888369  0.79967566  0.69986041  1
  C  C63  1  0.77138636  0.78623076  0.19093039  1
  C  C64  1  0.01484440  0.22861364  0.19093039  1
  C  C65  1  0.21376924  0.98515560  0.19093039  1
  C  C66  1  0.88251635  0.33862844  0.64256470  1
  C  C67  1  0.45611309  0.11748365  0.64256470  1
  C  C68  1  0.66137156  0.54388691  0.64256470  1
  C  C69  1  0.87073396  0.53335602  0.13434290  1
  C  C70  1  0.66262305  0.12926604  0.13434290  1
  C  C71  1  0.46664398  0.33737695  0.13434290  1
  C  C72  1  0.47311642  0.31088548  0.01810055  1
  C  C73  1  0.83777006  0.52688358  0.01810055  1
  C  C74  1  0.68911452  0.16222994  0.01810055  1
  C  C75  1  0.47888962  0.15979150  0.52780025  1
  C  C76  1  0.68090288  0.52111038  0.52780025  1
  C  C77  1  0.84020850  0.31909712  0.52780025  1
  C  C78  1  0.55525931  0.67771977  0.97456185  1
  C  C79  1  0.12245946  0.44474069  0.97456185  1
  C  C80  1  0.32228023  0.87754054  0.97456185  1
  C  C81  1  0.56591120  0.88872637  0.47885428  1
  C  C82  1  0.32281417  0.43408880  0.47885428  1
  C  C83  1  0.11127363  0.67718583  0.47885428  1
  C  C84  1  0.08369307  0.62104717  0.36721988  1
  C  C85  1  0.53735310  0.91630693  0.36721988  1
  C  C86  1  0.37895283  0.46264690  0.36721988  1
  C  C87  1  0.12763376  0.49388332  0.86113894  1
  C  C88  1  0.36624855  0.87236624  0.86113894  1
  C  C89  1  0.50611668  0.63375145  0.86113894  1
  C  C90  1  0.97274688  0.79717421  0.41794563  1
  C  C91  1  0.82442733  0.02725312  0.41794563  1
  C  C92  1  0.20282579  0.17557267  0.41794563  1
  C  C93  1  0.99803131  0.19920051  0.90794622  1
  C  C94  1  0.20116920  0.00196869  0.90794622  1
  C  C95  1  0.80079949  0.79883080  0.90794622  1
  C  C96  1  0.96568230  0.16735684  0.57817377  1
  C  C97  1  0.20167455  0.03431770  0.57817377  1
  C  C98  1  0.83264316  0.79832545  0.57817377  1
  C  C99  1  0.96394025  0.79661478  0.07259342  1
  C  C100  1  0.83267453  0.03605975  0.07259342  1
  C  C101  1  0.20338522  0.16732547  0.07259342  1
  C  C102  1  0.64076270  0.12720414  0.75224495  1
  C  C103  1  0.48644244  0.35923730  0.75224495  1
  C  C104  1  0.87279586  0.51355756  0.75224495  1
  C  C105  1  0.66811882  0.51862914  0.25309731  1
  C  C106  1  0.85051132  0.33188118  0.25309731  1
  C  C107  1  0.48137086  0.14948868  0.25309731  1
  C  C108  1  0.63227838  0.48471246  0.91635617  1
  C  C109  1  0.85243508  0.36772162  0.91635617  1
  C  C110  1  0.51528754  0.14756492  0.91635617  1
  C  C111  1  0.65571146  0.17093650  0.42806569  1
  C  C112  1  0.51522604  0.34428854  0.42806569  1
  C  C113  1  0.82906350  0.48477396  0.42806569  1
  C  C114  1  0.35640711  0.48068959  0.07369836  1
  C  C115  1  0.12428148  0.64359289  0.07369836  1
  C  C116  1  0.51931041  0.87571852  0.07369836  1
  C  C117  1  0.35140630  0.86927466  0.57772648  1
  C  C118  1  0.51786736  0.64859370  0.57772648  1
  C  C119  1  0.13072534  0.48213264  0.57772648  1
  C  C120  1  0.32390902  0.83668376  0.25090839  1
  C  C121  1  0.51277374  0.67609098  0.25090839  1
  C  C122  1  0.16331624  0.48722626  0.25090839  1
  C  C123  1  0.31397600  0.50124137  0.76196221  1
  C  C124  1  0.18726437  0.68602400  0.76196221  1
  C  C125  1  0.49875863  0.81273563  0.76196221  1
