# generated using pymatgen
data_CuNiC17
_symmetry_space_group_name_H-M   'P 1'
_cell_length_a   9.12399365
_cell_length_b   9.12399334
_cell_length_c   23.45793197
_cell_angle_alpha   89.91899598
_cell_angle_beta   90.08100401
_cell_angle_gamma   120.50084993
_symmetry_Int_Tables_number   1
_chemical_formula_structural   CuNiC17
_chemical_formula_sum   'Cu6 Ni6 C102'
_cell_volume   1682.57981291
_cell_formula_units_Z   6
loop_
 _symmetry_equiv_pos_site_id
 _symmetry_equiv_pos_as_xyz
  1  'x, y, z'
loop_
 _atom_site_type_symbol
 _atom_site_label
 _atom_site_symmetry_multiplicity
 _atom_site_fract_x
 _atom_site_fract_y
 _atom_site_fract_z
 _atom_site_occupancy
  C  C0  1  0.36438775  0.35948045  0.24945534  1
  C  C1  1  0.64051955  0.63561225  0.74945534  1
  C  C2  1  0.03105475  0.69281345  0.58278834  1
  C  C3  1  0.30718655  0.96894525  0.08278834  1
  C  C4  1  0.69772075  0.02614745  0.91612234  1
  C  C5  1  0.97385255  0.30227925  0.41612234  1
  C  C6  1  0.99969708  0.99898742  0.49893498  1
  C  C7  1  0.00101258  0.00030292  0.99893498  1
  C  C8  1  0.66636408  0.33232042  0.83226798  1
  C  C9  1  0.66767958  0.33363592  0.33226798  1
  C  C10  1  0.33303008  0.66565442  0.16560198  1
  C  C11  1  0.33434558  0.66696992  0.66560198  1
  Ni  Ni12  1  0.99774262  0.98905096  0.35182600  1
  Ni  Ni13  1  0.01094904  0.00225738  0.85182600  1
  Ni  Ni14  1  0.66440962  0.32238396  0.68515900  1
  Ni  Ni15  1  0.67761604  0.33559038  0.18515900  1
  Ni  Ni16  1  0.33107562  0.65571796  0.01849300  1
  Ni  Ni17  1  0.34428204  0.66892438  0.51849300  1
  Cu  Cu18  1  0.00225869  0.00863254  0.64865086  1
  Cu  Cu19  1  0.99136746  0.99774131  0.14865086  1
  Cu  Cu20  1  0.66892569  0.34196554  0.98198386  1
  Cu  Cu21  1  0.65803446  0.33107431  0.48198386  1
  Cu  Cu22  1  0.33559169  0.67529954  0.31531786  1
  Cu  Cu23  1  0.32470046  0.66440831  0.81531786  1
  C  C24  1  0.28910840  0.99411233  0.24848900  1
  C  C25  1  0.69910277  0.70672434  0.24977488  1
  C  C26  1  0.00638365  0.29539368  0.25215562  1
  C  C27  1  0.29327566  0.30089723  0.74977488  1
  C  C28  1  0.00588767  0.71089160  0.74848900  1
  C  C29  1  0.70460632  0.99361635  0.75215562  1
  C  C30  1  0.95577540  0.32744533  0.58182200  1
  C  C31  1  0.36576977  0.04005734  0.58310788  1
  C  C32  1  0.67305065  0.62872668  0.58548862  1
  C  C33  1  0.95994266  0.63423023  0.08310788  1
  C  C34  1  0.67255467  0.04422460  0.08182200  1
  C  C35  1  0.37127332  0.32694935  0.08548862  1
  C  C36  1  0.62244140  0.66077933  0.91515600  1
  C  C37  1  0.03243577  0.37339134  0.91644188  1
  C  C38  1  0.33971665  0.96206068  0.91882262  1
  C  C39  1  0.62660866  0.96756423  0.41644188  1
  C  C40  1  0.33922067  0.37755860  0.41515600  1
  C  C41  1  0.03793932  0.66028335  0.41882262  1
  C  C42  1  0.20945650  0.02567805  0.30046463  1
  C  C43  1  0.80484649  0.78440787  0.30268823  1
  C  C44  1  0.98443861  0.19588328  0.30648155  1
  C  C45  1  0.21559213  0.19515351  0.80268823  1
  C  C46  1  0.97432195  0.79054350  0.80046463  1
  C  C47  1  0.80411672  0.01556139  0.80648155  1
  C  C48  1  0.79825806  0.96851519  0.69949143  1
  C  C49  1  0.17914374  0.20733158  0.69661024  1
  C  C50  1  0.02946864  0.82200710  0.69400092  1
  C  C51  1  0.79266842  0.82085626  0.19661024  1
  C  C52  1  0.03148481  0.20174194  0.19949143  1
  C  C53  1  0.17799290  0.97053136  0.19400092  1
  C  C54  1  0.87612350  0.35901105  0.63379763  1
  C  C55  1  0.47151349  0.11774087  0.63602123  1
  C  C56  1  0.65110561  0.52921628  0.63981455  1
  C  C57  1  0.88225913  0.52848651  0.13602123  1
  C  C58  1  0.64098895  0.12387650  0.13379763  1
  C  C59  1  0.47078372  0.34889439  0.13981455  1
  C  C60  1  0.46492506  0.30184819  0.03282443  1
  C  C61  1  0.84581074  0.54066458  0.02994324  1
  C  C62  1  0.69613564  0.15534010  0.02733392  1
  C  C63  1  0.45933542  0.15418926  0.52994324  1
  C  C64  1  0.69815181  0.53507494  0.53282443  1
  C  C65  1  0.84465990  0.30386436  0.52733392  1
  C  C66  1  0.54278950  0.69234505  0.96713163  1
  C  C67  1  0.13817949  0.45107487  0.96935523  1
  C  C68  1  0.31777161  0.86255028  0.97314855  1
  C  C69  1  0.54892513  0.86182051  0.46935523  1
  C  C70  1  0.30765495  0.45721050  0.46713163  1
  C  C71  1  0.13744972  0.68222839  0.47314855  1
  C  C72  1  0.13159106  0.63518219  0.36615843  1
  C  C73  1  0.51247674  0.87399858  0.36327724  1
  C  C74  1  0.36280164  0.48867410  0.36066792  1
  C  C75  1  0.12600142  0.48752326  0.86327724  1
  C  C76  1  0.36481781  0.86840894  0.86615843  1
  C  C77  1  0.51132590  0.63719836  0.86066792  1
  C  C78  1  0.01243073  0.81133862  0.41195424  1
  C  C79  1  0.80860300  0.00108714  0.41027672  1
  C  C80  1  0.17876811  0.20110382  0.40953579  1
  C  C81  1  0.99891286  0.19139700  0.91027672  1
  C  C82  1  0.18866138  0.98756927  0.91195424  1
  C  C83  1  0.79889618  0.82123189  0.90953579  1
  C  C84  1  0.97109055  0.16575661  0.59010408  1
  C  C85  1  0.18630245  0.02389515  0.58927264  1
  C  C86  1  0.84388180  0.80598352  0.58983286  1
  C  C87  1  0.97610485  0.81369755  0.08927264  1
  C  C88  1  0.83424339  0.02890945  0.09010408  1
  C  C89  1  0.19401648  0.15611820  0.08983286  1
  C  C90  1  0.67909773  0.14467162  0.74528724  1
  C  C91  1  0.47527000  0.33442014  0.74360972  1
  C  C92  1  0.84543511  0.53443682  0.74286879  1
  C  C93  1  0.66557986  0.52473000  0.24360972  1
  C  C94  1  0.85532838  0.32090227  0.24528724  1
  C  C95  1  0.46556318  0.15456489  0.24286879  1
  C  C96  1  0.63775755  0.49908961  0.92343708  1
  C  C97  1  0.85296945  0.35722815  0.92260564  1
  C  C98  1  0.51054880  0.13931652  0.92316586  1
  C  C99  1  0.64277185  0.14703055  0.42260564  1
  C  C100  1  0.50091039  0.36224245  0.42343708  1
  C  C101  1  0.86068348  0.48945120  0.42316586  1
  C  C102  1  0.34576373  0.47800562  0.07862124  1
  C  C103  1  0.14193600  0.66775414  0.07694372  1
  C  C104  1  0.51210111  0.86777082  0.07620279  1
  C  C105  1  0.33224586  0.85806400  0.57694372  1
  C  C106  1  0.52199438  0.65423627  0.57862124  1
  C  C107  1  0.13222918  0.48789889  0.57620279  1
  C  C108  1  0.30442355  0.83242361  0.25677108  1
  C  C109  1  0.51963545  0.69056215  0.25593964  1
  C  C110  1  0.17721480  0.47265052  0.25649986  1
  C  C111  1  0.30943785  0.48036455  0.75593964  1
  C  C112  1  0.16757639  0.69557645  0.75677108  1
  C  C113  1  0.52734948  0.82278520  0.75649986  1
