# generated using pymatgen
data_CuNi2C17
_symmetry_space_group_name_H-M   'P 1'
_cell_length_a   9.29020983
_cell_length_b   9.29020949
_cell_length_c   22.89488238
_cell_angle_alpha   90.70004226
_cell_angle_beta   89.29995775
_cell_angle_gamma   119.92441909
_symmetry_Int_Tables_number   1
_chemical_formula_structural   CuNi2C17
_chemical_formula_sum   'Cu6 Ni12 C102'
_cell_volume   1712.40733410
_cell_formula_units_Z   6
loop_
 _symmetry_equiv_pos_site_id
 _symmetry_equiv_pos_as_xyz
  1  'x, y, z'
loop_
 _atom_site_type_symbol
 _atom_site_label
 _atom_site_symmetry_multiplicity
 _atom_site_fract_x
 _atom_site_fract_y
 _atom_site_fract_z
 _atom_site_occupancy
  C  C0  1  0.67572485  0.02080346  0.25572447  1
  C  C1  1  0.96686801  0.61559666  0.24240617  1
  C  C2  1  0.97919654  0.32427515  0.75572447  1
  C  C3  1  0.38440334  0.03313199  0.74240617  1
  C  C4  1  0.34239185  0.35413646  0.58905747  1
  C  C5  1  0.63353501  0.94892966  0.57573917  1
  C  C6  1  0.64586354  0.65760815  0.08905747  1
  C  C7  1  0.05107034  0.36646499  0.07573917  1
  C  C8  1  0.00905785  0.68747046  0.92239147  1
  C  C9  1  0.30020101  0.28226366  0.90907317  1
  C  C10  1  0.31252954  0.99094215  0.42239147  1
  C  C11  1  0.71773634  0.69979899  0.40907317  1
  C  C12  1  0.97917839  0.97481552  0.49352223  1
  C  C13  1  0.02518448  0.02082161  0.99352223  1
  C  C14  1  0.64584539  0.30814852  0.82685523  1
  C  C15  1  0.69185148  0.35415461  0.32685523  1
  C  C16  1  0.31251139  0.64148252  0.16018923  1
  C  C17  1  0.35851748  0.68748861  0.66018923  1
  C  C18  1  0.99850573  0.00755485  0.35127194  1
  C  C19  1  0.99244515  0.00149427  0.85127194  1
  C  C20  1  0.66517273  0.34088785  0.68460494  1
  C  C21  1  0.65911215  0.33482727  0.18460494  1
  C  C22  1  0.33183873  0.67422185  0.01793894  1
  C  C23  1  0.32577815  0.66816127  0.51793894  1
  C  C24  1  0.99523722  0.99945351  0.64753981  1
  C  C25  1  0.00054649  0.00476278  0.14753981  1
  C  C26  1  0.66190422  0.33278651  0.98087281  1
  C  C27  1  0.66721349  0.33809578  0.48087281  1
  C  C28  1  0.32857022  0.66612051  0.31420681  1
  C  C29  1  0.33387949  0.67142978  0.81420681  1
  Ni  Ni30  1  0.69648781  0.70540875  0.25376318  1
  Ni  Ni31  1  0.00877334  0.30413357  0.25064916  1
  Ni  Ni32  1  0.29459125  0.30351219  0.75376318  1
  Ni  Ni33  1  0.69586643  0.99122666  0.75064916  1
  Ni  Ni34  1  0.36315481  0.03874175  0.58709618  1
  Ni  Ni35  1  0.67544034  0.63746657  0.58398216  1
  Ni  Ni36  1  0.96125825  0.63684519  0.08709618  1
  Ni  Ni37  1  0.36253343  0.32455966  0.08398216  1
  Ni  Ni38  1  0.02982081  0.37207575  0.92043018  1
  Ni  Ni39  1  0.34210634  0.97080057  0.91731616  1
  Ni  Ni40  1  0.62792425  0.97017919  0.42043018  1
  Ni  Ni41  1  0.02919943  0.65789366  0.41731616  1
  Cu  Cu42  1  0.28777145  0.98484808  0.25008572  1
  Cu  Cu43  1  0.01515192  0.71222855  0.75008572  1
  Cu  Cu44  1  0.95443845  0.31818108  0.58341872  1
  Cu  Cu45  1  0.68181892  0.04556155  0.08341872  1
  Cu  Cu46  1  0.62110445  0.65151508  0.91675272  1
  Cu  Cu47  1  0.34848492  0.37889555  0.41675272  1
  C  C48  1  0.22615135  0.01062781  0.30560391  1
  C  C49  1  0.80137024  0.78653098  0.31122235  1
  C  C50  1  0.98362493  0.19150504  0.30453492  1
  C  C51  1  0.21346902  0.19862976  0.81122235  1
  C  C52  1  0.98937219  0.77384865  0.80560391  1
  C  C53  1  0.80849496  0.01637507  0.80453492  1
  C  C54  1  0.80138627  0.97219004  0.69028355  1
  C  C55  1  0.15825852  0.19135822  0.69584001  1
  C  C56  1  0.02683766  0.82233304  0.69990611  1
  C  C57  1  0.80864178  0.84174148  0.19584001  1
  C  C58  1  0.02780996  0.19861373  0.19028355  1
  C  C59  1  0.17766696  0.97316234  0.19990611  1
  C  C60  1  0.89281835  0.34396081  0.63893691  1
  C  C61  1  0.46803724  0.11986398  0.64455535  1
  C  C62  1  0.65029193  0.52483804  0.63786792  1
  C  C63  1  0.88013602  0.53196276  0.14455535  1
  C  C64  1  0.65603919  0.10718165  0.13893691  1
  C  C65  1  0.47516196  0.34970807  0.13786792  1
  C  C66  1  0.46805327  0.30552304  0.02361655  1
  C  C67  1  0.82492552  0.52469122  0.02917301  1
  C  C68  1  0.69350466  0.15566604  0.03323911  1
  C  C69  1  0.47530878  0.17507448  0.52917301  1
  C  C70  1  0.69447696  0.53194673  0.52361655  1
  C  C71  1  0.84433396  0.30649534  0.53323911  1
  C  C72  1  0.55948435  0.67729481  0.97227091  1
  C  C73  1  0.13470324  0.45319798  0.97788935  1
  C  C74  1  0.31695793  0.85817204  0.97120192  1
  C  C75  1  0.54680202  0.86529676  0.47788935  1
  C  C76  1  0.32270519  0.44051565  0.47227091  1
  C  C77  1  0.14182796  0.68304207  0.47120192  1
  C  C78  1  0.13471927  0.63885704  0.35695055  1
  C  C79  1  0.49159152  0.85802522  0.36250701  1
  C  C80  1  0.36017066  0.48900004  0.36657311  1
  C  C81  1  0.14197478  0.50840848  0.86250701  1
  C  C82  1  0.36114296  0.86528073  0.85695055  1
  C  C83  1  0.51099996  0.63982934  0.86657311  1
  C  C84  1  0.00770508  0.81894483  0.41198524  1
  C  C85  1  0.81062964  0.99666262  0.41408963  1
  C  C86  1  0.22167844  0.20443513  0.40809338  1
  C  C87  1  0.00333738  0.18937036  0.91408963  1
  C  C88  1  0.18105517  0.99229492  0.91198524  1
  C  C89  1  0.79556487  0.77832156  0.90809338  1
  C  C90  1  0.94562640  0.14889037  0.58327292  1
  C  C91  1  0.18416527  0.04583359  0.59075279  1
  C  C92  1  0.85011432  0.82416886  0.58945253  1
  C  C93  1  0.95416641  0.81583473  0.09075279  1
  C  C94  1  0.85110963  0.05437360  0.08327292  1
  C  C95  1  0.17583114  0.14988568  0.08945253  1
  C  C96  1  0.67437208  0.15227783  0.74531824  1
  C  C97  1  0.47729664  0.32999562  0.74742263  1
  C  C98  1  0.88834544  0.53776813  0.74142638  1
  C  C99  1  0.67000438  0.52270336  0.24742263  1
  C  C100  1  0.84772217  0.32562792  0.24531824  1
  C  C101  1  0.46223187  0.11165456  0.24142638  1
  C  C102  1  0.61229340  0.48222337  0.91660592  1
  C  C103  1  0.85083227  0.37916659  0.92408579  1
  C  C104  1  0.51678132  0.15750186  0.92278553  1
  C  C105  1  0.62083341  0.14916773  0.42408579  1
  C  C106  1  0.51777663  0.38770660  0.41660592  1
  C  C107  1  0.84249814  0.48321868  0.42278553  1
  C  C108  1  0.34103808  0.48561183  0.07865224  1
  C  C109  1  0.14396264  0.66332962  0.08075663  1
  C  C110  1  0.55501144  0.87110213  0.07476038  1
  C  C111  1  0.33667038  0.85603736  0.58075663  1
  C  C112  1  0.51438817  0.65896192  0.57865224  1
  C  C113  1  0.12889787  0.44498856  0.57476038  1
  C  C114  1  0.27895940  0.81555737  0.24993992  1
  C  C115  1  0.51749827  0.71250059  0.25741979  1
  C  C116  1  0.18344732  0.49083586  0.25611953  1
  C  C117  1  0.28749941  0.48250173  0.75741979  1
  C  C118  1  0.18444263  0.72104060  0.74993992  1
  C  C119  1  0.50916414  0.81655268  0.75611953  1
