# generated using pymatgen
data_Cu4Ni2C9
_symmetry_space_group_name_H-M   'P 1'
_cell_length_a   6.06063800
_cell_length_b   8.22217800
_cell_length_c   10.80150100
_cell_angle_alpha   90.00000000
_cell_angle_beta   90.00000000
_cell_angle_gamma   90.00000000
_symmetry_Int_Tables_number   1
_chemical_formula_structural   Cu4Ni2C9
_chemical_formula_sum   'Cu16 Ni8 C36'
_cell_volume   538.25655714
_cell_formula_units_Z   4
loop_
 _symmetry_equiv_pos_site_id
 _symmetry_equiv_pos_as_xyz
  1  'x, y, z'
loop_
 _atom_site_type_symbol
 _atom_site_label
 _atom_site_symmetry_multiplicity
 _atom_site_fract_x
 _atom_site_fract_y
 _atom_site_fract_z
 _atom_site_occupancy
  C  C0  1  0.42057100  0.45466800  0.83587400  1
  C  C1  1  0.92057100  0.54533200  0.16412600  1
  C  C2  1  0.92057100  0.04533200  0.33587400  1
  C  C3  1  0.42057100  0.95466800  0.66412600  1
  C  C4  1  0.14891600  0.39550100  0.83839000  1
  C  C5  1  0.64891600  0.60449900  0.16161000  1
  C  C6  1  0.64891600  0.10449900  0.33839000  1
  C  C7  1  0.14891600  0.89550100  0.66161000  1
  C  C8  1  0.25479300  0.49113700  0.71211300  1
  C  C9  1  0.75479300  0.50886300  0.28788700  1
  C  C10  1  0.75479300  0.00886300  0.21211300  1
  C  C11  1  0.25479300  0.99113700  0.78788700  1
  C  C12  1  0.22152100  0.59605900  0.84659700  1
  C  C13  1  0.72152100  0.40394100  0.15340300  1
  C  C14  1  0.20114800  0.26032800  0.17790800  1
  C  C15  1  0.72152100  0.90394100  0.34659700  1
  C  C16  1  0.41044000  0.19109100  0.08731400  1
  C  C17  1  0.91044000  0.80890900  0.91268600  1
  C  C18  1  0.91044000  0.30890900  0.58731400  1
  C  C19  1  0.41044000  0.69109100  0.41268600  1
  C  C20  1  0.14844600  0.20550500  0.02861700  1
  C  C21  1  0.64844600  0.79449500  0.97138300  1
  C  C22  1  0.64844600  0.29449500  0.52861700  1
  C  C23  1  0.14844600  0.70550500  0.47138300  1
  C  C24  1  0.20686400  0.06097900  0.13535900  1
  C  C25  1  0.70686400  0.93902100  0.86464100  1
  C  C26  1  0.70686400  0.43902100  0.63535900  1
  C  C27  1  0.20686400  0.56097900  0.36464100  1
  C  C28  1  0.20114800  0.76032800  0.32209200  1
  C  C29  1  0.70114800  0.23967200  0.67790800  1
  C  C30  1  0.70114800  0.73967200  0.82209200  1
  C  C31  1  0.22152100  0.09605900  0.65340300  1
  C  C32  1  0.24764900  0.74143900  0.07543200  1
  C  C33  1  0.74764900  0.25856100  0.92456800  1
  C  C34  1  0.74764900  0.75856100  0.57543200  1
  C  C35  1  0.24764900  0.24143900  0.42456800  1
  Ni  Ni36  1  0.25988900  0.48402200  0.80689800  1
  Ni  Ni37  1  0.75988900  0.51597800  0.19310200  1
  Ni  Ni38  1  0.75988900  0.01597800  0.30689800  1
  Ni  Ni39  1  0.25988900  0.98402200  0.69310200  1
  Ni  Ni40  1  0.24273500  0.17999200  0.10777300  1
  Ni  Ni41  1  0.74273500  0.82000800  0.89222700  1
  Ni  Ni42  1  0.74273500  0.32000800  0.60777300  1
  Ni  Ni43  1  0.24273500  0.67999200  0.39222700  1
  Cu  Cu44  1  0.48889500  0.76653100  0.10213900  1
  Cu  Cu45  1  0.98889500  0.23346900  0.89786100  1
  Cu  Cu46  1  0.98889500  0.73346900  0.60213900  1
  Cu  Cu47  1  0.48889500  0.26653100  0.39786100  1
  Cu  Cu48  1  0.11625900  0.85190700  0.15700400  1
  Cu  Cu49  1  0.61625900  0.14809300  0.84299600  1
  Cu  Cu50  1  0.61625900  0.64809300  0.65700400  1
  Cu  Cu51  1  0.11625900  0.35190700  0.34299600  1
  Cu  Cu52  1  0.20454300  0.78323500  0.94179200  1
  Cu  Cu53  1  0.70454300  0.21676500  0.05820800  1
  Cu  Cu54  1  0.70454300  0.71676500  0.44179200  1
  Cu  Cu55  1  0.20454300  0.28323500  0.55820800  1
  Cu  Cu56  1  0.18633100  0.56980900  0.10006200  1
  Cu  Cu57  1  0.68633100  0.43019100  0.89993800  1
  Cu  Cu58  1  0.68633100  0.93019100  0.60006200  1
  Cu  Cu59  1  0.18633100  0.06980900  0.39993800  1
