# generated using pymatgen
data_Cu(NiC4)2
_symmetry_space_group_name_H-M   'P 1'
_cell_length_a   6.37831803
_cell_length_b   6.03549676
_cell_length_c   6.37831744
_cell_angle_alpha   61.76260625
_cell_angle_beta   58.02024873
_cell_angle_gamma   61.76261955
_symmetry_Int_Tables_number   1
_chemical_formula_structural   Cu(NiC4)2
_chemical_formula_sum   'Cu1 Ni2 C8'
_cell_volume   175.16537384
_cell_formula_units_Z   1
loop_
 _symmetry_equiv_pos_site_id
 _symmetry_equiv_pos_as_xyz
  1  'x, y, z'
loop_
 _atom_site_type_symbol
 _atom_site_label
 _atom_site_symmetry_multiplicity
 _atom_site_fract_x
 _atom_site_fract_y
 _atom_site_fract_z
 _atom_site_occupancy
  Ni  Ni0  1  0.68882200  0.81117900  0.68882200  1
  Ni  Ni1  1  0.31117900  0.18882200  0.31117700  1
  Cu  Cu2  1  0.00000000  0.00000000  0.00000000  1
  C  C3  1  0.00000000  0.50000000  0.00000000  1
  C  C4  1  0.50000000  0.50000000  0.50000000  1
  C  C5  1  0.73145800  0.26854100  0.73145900  1
  C  C6  1  0.24768500  0.27747300  0.75231600  1
  C  C7  1  0.24768400  0.72252700  0.75231600  1
  C  C8  1  0.75231500  0.27747400  0.24768400  1
  C  C9  1  0.75231500  0.72252600  0.24768500  1
  C  C10  1  0.26854200  0.73145800  0.26854200  1
