# generated using pymatgen
data_Cu3Ni9C7
_symmetry_space_group_name_H-M   'P 1'
_cell_length_a   7.17698789
_cell_length_b   5.87836114
_cell_length_c   5.71477980
_cell_angle_alpha   80.69546486
_cell_angle_beta   73.74526226
_cell_angle_gamma   70.81496286
_symmetry_Int_Tables_number   1
_chemical_formula_structural   Cu3Ni9C7
_chemical_formula_sum   'Cu3 Ni9 C7'
_cell_volume   217.96108859
_cell_formula_units_Z   1
loop_
 _symmetry_equiv_pos_site_id
 _symmetry_equiv_pos_as_xyz
  1  'x, y, z'
loop_
 _atom_site_type_symbol
 _atom_site_label
 _atom_site_symmetry_multiplicity
 _atom_site_fract_x
 _atom_site_fract_y
 _atom_site_fract_z
 _atom_site_occupancy
  C  C0  1  0.50309800  0.49686600  0.98171800  1
  C  C1  1  0.84104800  0.68201400  0.66677600  1
  C  C2  1  0.31737500  0.74743200  0.59314200  1
  C  C3  1  0.66607300  0.31277700  0.37608100  1
  C  C4  1  0.14793800  0.33720200  0.34246900  1
  C  C5  1  0.49774100  0.97870000  0.02997700  1
  C  C6  1  0.99738200  0.93683900  0.05958600  1
  Ni  Ni7  1  0.30468000  0.84685500  0.92637000  1
  Ni  Ni8  1  0.95225000  0.20195900  0.27332300  1
  Ni  Ni9  1  0.61579900  0.54396800  0.60693100  1
  Ni  Ni10  1  0.68695200  0.14789100  0.09301700  1
  Ni  Ni11  1  0.03132600  0.80565500  0.75030400  1
  Ni  Ni12  1  0.38195900  0.47632400  0.37113900  1
  Ni  Ni13  1  0.68990200  0.66783200  0.00993600  1
  Ni  Ni14  1  0.33698300  0.01216500  0.36117000  1
  Ni  Ni15  1  0.98252100  0.67608300  0.31861700  1
  Cu  Cu16  1  0.30947700  0.33063000  0.97199000  1
  Cu  Cu17  1  0.63778400  0.03321300  0.64344900  1
  Cu  Cu18  1  0.01637800  0.33702100  0.69543400  1
