# generated using pymatgen
data_Cu4NiC10
_symmetry_space_group_name_H-M   'P 1'
_cell_length_a   8.30773142
_cell_length_b   3.93243200
_cell_length_c   6.61144076
_cell_angle_alpha   90.00000000
_cell_angle_beta   87.61814272
_cell_angle_gamma   90.00000000
_symmetry_Int_Tables_number   1
_chemical_formula_structural   Cu4NiC10
_chemical_formula_sum   'Cu4 Ni1 C10'
_cell_volume   215.80644219
_cell_formula_units_Z   1
loop_
 _symmetry_equiv_pos_site_id
 _symmetry_equiv_pos_as_xyz
  1  'x, y, z'
loop_
 _atom_site_type_symbol
 _atom_site_label
 _atom_site_symmetry_multiplicity
 _atom_site_fract_x
 _atom_site_fract_y
 _atom_site_fract_z
 _atom_site_occupancy
  Ni  Ni0  1  0.41831300  0.25000000  0.66407700  1
  Cu  Cu1  1  0.06858100  0.25000000  0.81725100  1
  Cu  Cu2  1  0.26114900  0.25000000  0.25713200  1
  Cu  Cu3  1  0.74139400  0.75000000  0.73764600  1
  Cu  Cu4  1  0.92445100  0.75000000  0.19236700  1
  C  C5  1  0.01627600  0.75000000  0.82908700  1
  C  C6  1  0.17801000  0.25000000  0.55371700  1
  C  C7  1  0.18856400  0.75000000  0.23259900  1
  C  C8  1  0.28140700  0.25000000  0.93480800  1
  C  C9  1  0.46041600  0.25000000  0.35403200  1
  C  C10  1  0.52024300  0.75000000  0.69809800  1
  C  C11  1  0.73747400  0.75000000  0.04342500  1
  C  C12  1  0.80953900  0.25000000  0.75159900  1
  C  C13  1  0.83792300  0.75000000  0.45401100  1
  C  C14  1  0.98959100  0.25000000  0.15607600  1
