# generated using pymatgen
data_Cu6Ni6C
_symmetry_space_group_name_H-M   'P 1'
_cell_length_a   9.76780304
_cell_length_b   9.76780304
_cell_length_c   5.13105100
_cell_angle_alpha   90.00000000
_cell_angle_beta   90.00000000
_cell_angle_gamma   130.52742196
_symmetry_Int_Tables_number   1
_chemical_formula_structural   Cu6Ni6C
_chemical_formula_sum   'Cu12 Ni12 C2'
_cell_volume   372.10715750
_cell_formula_units_Z   2
loop_
 _symmetry_equiv_pos_site_id
 _symmetry_equiv_pos_as_xyz
  1  'x, y, z'
loop_
 _atom_site_type_symbol
 _atom_site_label
 _atom_site_symmetry_multiplicity
 _atom_site_fract_x
 _atom_site_fract_y
 _atom_site_fract_z
 _atom_site_occupancy
  C  C0  1  0.12722500  0.87277500  0.25000000  1
  C  C1  1  0.87277500  0.12722500  0.75000000  1
  Ni  Ni2  1  0.12531400  0.37530300  0.25000000  1
  Ni  Ni3  1  0.87468600  0.62469700  0.75000000  1
  Ni  Ni4  1  0.75041900  0.75041900  0.50000000  1
  Ni  Ni5  1  0.24958100  0.24958100  0.00000000  1
  Ni  Ni6  1  0.24958100  0.24958100  0.50000000  1
  Ni  Ni7  1  0.75041900  0.75041900  0.00000000  1
  Ni  Ni8  1  0.00000000  0.50000000  0.50000000  1
  Ni  Ni9  1  0.00000000  0.50000000  0.00000000  1
  Ni  Ni10  1  0.50000000  0.00000000  0.50000000  1
  Ni  Ni11  1  0.50000000  0.00000000  0.00000000  1
  Ni  Ni12  1  0.37530300  0.12531400  0.75000000  1
  Ni  Ni13  1  0.62469700  0.87468600  0.25000000  1
  Cu  Cu14  1  0.77742900  0.52891800  0.25000000  1
  Cu  Cu15  1  0.22257100  0.47108200  0.75000000  1
  Cu  Cu16  1  0.70456700  0.29543300  0.75000000  1
  Cu  Cu17  1  0.29543300  0.70456700  0.25000000  1
  Cu  Cu18  1  0.21151300  0.78848700  0.75000000  1
  Cu  Cu19  1  0.78848700  0.21151300  0.25000000  1
  Cu  Cu20  1  0.54067700  0.45932300  0.75000000  1
  Cu  Cu21  1  0.45932300  0.54067700  0.25000000  1
  Cu  Cu22  1  0.04203300  0.95796700  0.75000000  1
  Cu  Cu23  1  0.95796700  0.04203300  0.25000000  1
  Cu  Cu24  1  0.47108200  0.22257100  0.25000000  1
  Cu  Cu25  1  0.52891800  0.77742900  0.75000000  1
