# generated using pymatgen
data_Cu6Ni3C4
_symmetry_space_group_name_H-M   'P 1'
_cell_length_a   6.32876438
_cell_length_b   6.32876438
_cell_length_c   6.32876385
_cell_angle_alpha   115.42230208
_cell_angle_beta   115.42230208
_cell_angle_gamma   115.42230044
_symmetry_Int_Tables_number   1
_chemical_formula_structural   Cu6Ni3C4
_chemical_formula_sum   'Cu6 Ni3 C4'
_cell_volume   136.25160202
_cell_formula_units_Z   1
loop_
 _symmetry_equiv_pos_site_id
 _symmetry_equiv_pos_as_xyz
  1  'x, y, z'
loop_
 _atom_site_type_symbol
 _atom_site_label
 _atom_site_symmetry_multiplicity
 _atom_site_fract_x
 _atom_site_fract_y
 _atom_site_fract_z
 _atom_site_occupancy
  C  C0  1  0.86041000  0.86041000  0.86041000  1
  C  C1  1  0.72290400  0.23902700  0.23902700  1
  C  C2  1  0.23902700  0.23902700  0.72290400  1
  C  C3  1  0.23902700  0.72290400  0.23902700  1
  Ni  Ni4  1  0.47436600  0.01483900  0.47436600  1
  Ni  Ni5  1  0.01483900  0.47436600  0.47436600  1
  Ni  Ni6  1  0.47436600  0.47436600  0.01483900  1
  Cu  Cu7  1  0.14729600  0.74570800  0.74570800  1
  Cu  Cu8  1  0.45022800  0.19579500  0.45022800  1
  Cu  Cu9  1  0.45022800  0.45022800  0.19579500  1
  Cu  Cu10  1  0.74570800  0.14729600  0.74570800  1
  Cu  Cu11  1  0.74570800  0.74570800  0.14729600  1
  Cu  Cu12  1  0.19579500  0.45022800  0.45022800  1
