# generated using pymatgen
data_Cu3Ni14C65
_symmetry_space_group_name_H-M   'P 1'
_cell_length_a   18.24434469
_cell_length_b   9.12054938
_cell_length_c   22.58358380
_cell_angle_alpha   90.02895396
_cell_angle_beta   89.91768202
_cell_angle_gamma   120.02283284
_symmetry_Int_Tables_number   1
_chemical_formula_structural   Cu3Ni14C65
_chemical_formula_sum   'Cu9 Ni42 C195'
_cell_volume   3253.66122429
_cell_formula_units_Z   3
loop_
 _symmetry_equiv_pos_site_id
 _symmetry_equiv_pos_as_xyz
  1  'x, y, z'
loop_
 _atom_site_type_symbol
 _atom_site_label
 _atom_site_symmetry_multiplicity
 _atom_site_fract_x
 _atom_site_fract_y
 _atom_site_fract_z
 _atom_site_occupancy
  Ni  Ni0  1  0.31965982  0.01098545  0.24809915  1
  Ni  Ni1  1  0.81667988  0.00929709  0.24663694  1
  Ni  Ni2  1  0.18833587  0.36738307  0.24644991  1
  Ni  Ni3  1  0.68574065  0.36041529  0.24818852  1
  Ni  Ni4  1  0.99544864  0.62357822  0.24710569  1
  Ni  Ni5  1  0.49401435  0.62805027  0.24775342  1
  Ni  Ni6  1  0.31698508  0.62503162  0.74763016  1
  Ni  Ni7  1  0.81685844  0.62484146  0.74782993  1
  Ni  Ni8  1  0.99530077  0.36628933  0.74788471  1
  Ni  Ni9  1  0.49517562  0.36604428  0.74776024  1
  Ni  Ni10  1  0.18808396  0.00913271  0.74759953  1
  Ni  Ni11  1  0.68777613  0.00894488  0.74764202  1
  Ni  Ni12  1  0.15326412  0.34566862  0.58055776  1
  Ni  Ni13  1  0.65266540  0.34427687  0.58077877  1
  Ni  Ni14  1  0.01974379  0.69437347  0.58050971  1
  Ni  Ni15  1  0.51906212  0.69391104  0.58073678  1
  Ni  Ni16  1  0.32741920  0.96013015  0.58046197  1
  Ni  Ni17  1  0.82780960  0.96140171  0.58126183  1
  Ni  Ni18  1  0.15385617  0.96188680  0.08065131  1
  Ni  Ni19  1  0.65285089  0.96124184  0.08092981  1
  Ni  Ni20  1  0.32798606  0.69493325  0.08144488  1
  Ni  Ni21  1  0.82735723  0.69358069  0.08102097  1
  Ni  Ni22  1  0.01922831  0.34494068  0.08042910  1
  Ni  Ni23  1  0.51901813  0.34402064  0.08089316  1
  Ni  Ni24  1  0.34804778  0.02884662  0.91916205  1
  Ni  Ni25  1  0.84797307  0.02883698  0.91909122  1
  Ni  Ni26  1  0.48490649  0.29340781  0.41522355  1
  Ni  Ni27  1  0.66114162  0.02936217  0.41504159  1
  Ni  Ni28  1  0.35258596  0.67757887  0.41547113  1
  Ni  Ni29  1  0.84828790  0.66789267  0.41756286  1
  Ni  Ni30  1  0.00382482  0.00726527  0.49740407  1
  Ni  Ni31  1  0.49947489  0.99981582  0.49459847  1
  Ni  Ni32  1  0.00352040  0.99978706  0.99799706  1
  Ni  Ni33  1  0.50341741  0.99981895  0.99866051  1
  Ni  Ni34  1  0.33314615  0.33872590  0.83321774  1
  Ni  Ni35  1  0.83312019  0.33873625  0.83319718  1
  Ni  Ni36  1  0.33121356  0.32924243  0.33022996  1
  Ni  Ni37  1  0.83525972  0.33157798  0.33032872  1
  Ni  Ni38  1  0.16731710  0.66709824  0.16145551  1
  Ni  Ni39  1  0.66625911  0.66654902  0.16124146  1
  Ni  Ni40  1  0.16698428  0.66701997  0.66170615  1
  Ni  Ni41  1  0.66655797  0.66663818  0.66209639  1
  Cu  Cu42  1  0.49933465  0.99966050  0.35129866  1
  Cu  Cu43  1  0.33339055  0.33334738  0.68524231  1
  Cu  Cu44  1  0.83323311  0.33302752  0.68540040  1
  Cu  Cu45  1  0.33349593  0.33391143  0.18411720  1
  Cu  Cu46  1  0.83305114  0.33287730  0.18443974  1
  Cu  Cu47  1  0.16607967  0.66588951  0.01656778  1
  Cu  Cu48  1  0.66585013  0.66557209  0.01657356  1
  Cu  Cu49  1  0.16506524  0.66506366  0.51654997  1
  Cu  Cu50  1  0.66749273  0.66778317  0.51754895  1
  C  C51  1  0.00257812  0.00403795  0.35449456  1
  C  C52  1  0.00178590  0.00006012  0.85520068  1
  C  C53  1  0.50175790  -0.00000757  0.85518937  1
  C  C54  1  0.00000611  0.99966244  0.64633946  1
  C  C55  1  0.49991657  0.99983885  0.64583405  1
  C  C56  1  0.99993358  0.00028339  0.14573936  1
  C  C57  1  0.49984953  0.00002833  0.14689036  1
  C  C58  1  0.33336483  0.33754562  0.97891527  1
  C  C59  1  0.83327205  0.33762197  0.97885986  1
  C  C60  1  0.33019704  0.32830230  0.47923890  1
  C  C61  1  0.83646008  0.33432477  0.47934386  1
  C  C62  1  0.16720474  0.66808242  0.31503345  1
  C  C63  1  0.66595182  0.66582873  0.31400866  1
  C  C64  1  0.16645075  0.66575617  0.81569872  1
  C  C65  1  0.66630068  0.66556784  0.81569791  1
  C  C66  1  0.14453617  0.99749893  0.25020585  1
  C  C67  1  0.64605758  -0.00022063  0.25123154  1
  C  C68  1  0.35318794  0.70751852  0.25121414  1
  C  C69  1  0.85511687  0.71137509  0.25129535  1
  C  C70  1  0.00094840  0.29047891  0.25086019  1
  C  C71  1  0.50016833  0.29294586  0.25114497  1
  C  C72  1  0.14434377  0.29100412  0.75060417  1
  C  C73  1  0.64422578  0.29076190  0.75050572  1
  C  C74  1  0.00102127  0.71138256  0.75091786  1
  C  C75  1  0.50101891  0.71163497  0.75078578  1
  C  C76  1  0.35476988  0.99794381  0.75125773  1
  C  C77  1  0.85465258  0.99781173  0.75132214  1
  C  C78  1  0.47877156  0.33354336  0.58419988  1
  C  C79  1  0.97946716  0.33335614  0.58513950  1
  C  C80  1  0.18728706  0.04072390  0.58519712  1
  C  C81  1  0.68812467  0.04319133  0.58410907  1
  C  C82  1  0.33303494  0.62413741  0.58416553  1
  C  C83  1  0.83341399  0.62460259  0.58455760  1
  C  C84  1  0.47932038  0.62530262  0.08425157  1
  C  C85  1  0.97917534  0.62437125  0.08458754  1
  C  C86  1  0.33325299  0.04192135  0.08386679  1
  C  C87  1  0.83318903  0.04220095  0.08361658  1
  C  C88  1  0.18782227  0.33356604  0.08417265  1
  C  C89  1  0.68769681  0.33331124  0.08441906  1
  C  C90  1  0.31277452  0.66400481  0.91720346  1
  C  C91  1  0.81273100  0.66416672  0.91721324  1
  C  C92  1  0.02017983  0.37467754  0.91781744  1
  C  C93  1  0.52013946  0.37450929  0.91780188  1
  C  C94  1  0.16613253  0.95980911  0.91793646  1
  C  C95  1  0.66610429  0.95975911  0.91793059  1
  C  C96  1  0.31212231  0.95999451  0.41828690  1
  C  C97  1  0.81369744  0.96062137  0.41689242  1
  C  C98  1  0.16577166  0.37356092  0.41780703  1
  C  C99  1  0.66699889  0.37341301  0.41802748  1
  C  C100  1  0.02131317  0.66723754  0.41737663  1
  C  C101  1  0.51965092  0.66591562  0.41838399  1
  C  C102  1  0.09386759  0.02252144  0.30547498  1
  C  C103  1  0.60453775  0.03180442  0.30902541  1
  C  C104  1  0.41092847  0.79045055  0.30888502  1
  C  C105  1  0.91585396  0.80766437  0.30797242  1
  C  C106  1  0.48447504  0.17823746  0.30892829  1
  C  C107  1  0.98767812  0.16282221  0.30578521  1
  C  C108  1  0.09366980  0.16412612  0.80538730  1
  C  C109  1  0.59374672  0.16418590  0.80542134  1
  C  C110  1  0.48755852  0.81216134  0.80555152  1
  C  C111  1  0.98748812  0.81219002  0.80552577  1
  C  C112  1  0.41585706  0.02429110  0.80759219  1
  C  C113  1  0.91587830  0.02432834  0.80755944  1
  C  C114  1  0.40086454  0.96520044  0.69270380  1
  C  C115  1  0.90073267  0.96512377  0.69266816  1
  C  C116  1  0.08219153  0.19963066  0.69191655  1
  C  C117  1  0.58230876  0.19976666  0.69182154  1
  C  C118  1  0.01763177  0.83570454  0.69207515  1
  C  C119  1  0.51779162  0.83592512  0.69201469  1
  C  C120  1  0.40017284  0.83512163  0.19265528  1
  C  C121  1  0.90087014  0.83637552  0.19287366  1
  C  C122  1  0.01756156  0.19912449  0.19224630  1
  C  C123  1  0.51742251  0.19989167  0.19257944  1
  C  C124  1  0.08203634  0.96459969  0.19199411  1
  C  C125  1  0.58256435  0.96559107  0.19261871  1
  C  C126  1  0.43791966  0.36543556  0.64293946  1
  C  C127  1  0.93812748  0.36510838  0.64350949  1
  C  C128  1  0.24419113  0.12295278  0.64367292  1
  C  C129  1  0.74497343  0.12460888  0.64274817  1
  C  C130  1  0.31744416  0.51029213  0.64278914  1
  C  C131  1  0.81744402  0.51034383  0.64297667  1
  C  C132  1  0.43867552  0.51221642  0.14293650  1
  C  C133  1  0.93899865  0.51214235  0.14365250  1
  C  C134  1  0.31677181  0.12265755  0.14266820  1
  C  C135  1  0.81814658  0.12457827  0.14245773  1
  C  C136  1  0.24351059  0.36473530  0.14314070  1
  C  C137  1  0.74441738  0.36664777  0.14330433  1
  C  C138  1  0.23551945  0.29790261  0.02732596  1
  C  C139  1  0.73591015  0.29843002  0.02756112  1
  C  C140  1  0.41383978  0.52841745  0.02743848  1
  C  C141  1  0.91376327  0.52841124  0.02776542  1
  C  C142  1  0.35072957  0.16792909  0.02544944  1
  C  C143  1  0.85111087  0.16803782  0.02525652  1
  C  C144  1  0.23499912  0.17185505  0.52814789  1
  C  C145  1  0.73423528  0.16973645  0.52565179  1
  C  C146  1  0.35082724  0.53298075  0.52576208  1
  C  C147  1  0.85077979  0.53306830  0.52599998  1
  C  C148  1  0.41527814  0.29853221  0.52605578  1
  C  C149  1  0.91429339  0.29921433  0.52788078  1
  C  C150  1  0.27577528  0.70966087  0.97457741  1
  C  C151  1  0.77589639  0.70984720  0.97467142  1
  C  C152  1  0.07590694  0.45042948  0.97631387  1
  C  C153  1  0.57602028  0.45051067  0.97621961  1
  C  C154  1  0.15030457  0.84899464  0.97650126  1
  C  C155  1  0.65053280  0.84907169  0.97647922  1
  C  C156  1  0.27088808  0.84194269  0.47562894  1
  C  C157  1  0.77622634  0.84479890  0.47512710  1
  C  C158  1  0.14999715  0.45015743  0.47708272  1
  C  C159  1  0.65154050  0.45878837  0.47554649  1
  C  C160  1  0.07480058  0.70029638  0.47685690  1
  C  C161  1  0.57891586  0.69958435  0.47543478  1
  C  C162  1  0.06773676  0.63872431  0.35842288  1
  C  C163  1  0.56773683  0.63373158  0.35968921  1
  C  C164  1  0.25065432  0.86329220  0.35901427  1
  C  C165  1  0.75037302  0.86678121  0.35871233  1
  C  C166  1  0.18211212  0.49934205  0.35922990  1
  C  C167  1  0.68397171  0.50210113  0.35947349  1
  C  C168  1  0.06825442  0.49665407  0.85863727  1
  C  C169  1  0.56826530  0.49670204  0.85864450  1
  C  C170  1  0.18188354  0.86445166  0.85914473  1
  C  C171  1  0.68202241  0.86463496  0.85912178  1
  C  C172  1  0.25168040  0.63936098  0.85817257  1
  C  C173  1  0.75172010  0.63945371  0.85816776  1
  C  C174  1  0.00482274  0.82796904  0.40692990  1
  C  C175  1  0.50791580  0.82946179  0.41205493  1
  C  C176  1  0.40607131  0.98388727  0.41169319  1
  C  C177  1  0.90637140  0.97607154  0.40658990  1
  C  C178  1  0.08401355  0.18437892  0.40689261  1
  C  C179  1  0.58516907  0.18647432  0.41198675  1
  C  C180  1  0.00524640  0.18199970  0.90670908  1
  C  C181  1  0.50527807  0.18202237  0.90666253  1
  C  C182  1  0.08364786  0.98259095  0.90664321  1
  C  C183  1  0.58369216  0.98258133  0.90663927  1
  C  C184  1  0.40558810  0.83574737  0.90586333  1
  C  C185  1  0.90562123  0.83583072  0.90589210  1
  C  C186  1  0.48467645  0.15655149  0.58984018  1
  C  C187  1  0.98457981  0.15585904  0.58967285  1
  C  C188  1  0.09334820  0.03056976  0.58986535  1
  C  C189  1  0.59379695  0.03100279  0.58976750  1
  C  C190  1  0.42173608  0.81296314  0.58998433  1
  C  C191  1  0.92195682  0.81333488  0.58977076  1
  C  C192  1  0.48496060  0.81377090  0.08937610  1
  C  C193  1  0.98463684  0.81287140  0.08973229  1
  C  C194  1  0.42195158  0.03023162  0.08973831  1
  C  C195  1  0.92182350  0.02991069  0.08980566  1
  C  C196  1  0.09336125  0.15620461  0.08967392  1
  C  C197  1  0.59349671  0.15626451  0.08964235  1
  C  C198  1  0.34489651  0.16416874  0.74767524  1
  C  C199  1  0.84485362  0.16409098  0.74763942  1
  C  C200  1  0.23703442  0.31004932  0.74764877  1
  C  C201  1  0.73703026  0.30997405  0.74761885  1
  C  C202  1  0.41785450  0.52596279  0.74764444  1
  C  C203  1  0.91777962  0.52596530  0.74763150  1
  C  C204  1  0.34046486  0.51951878  0.24505776  1
  C  C205  1  0.84524675  0.52553263  0.24821592  1
  C  C206  1  0.41869251  0.31787769  0.24514939  1
  C  C207  1  0.91793734  0.30973258  0.24804761  1
  C  C208  1  0.23711191  0.16344914  0.24800138  1
  C  C209  1  0.74015943  0.16290484  0.24509864  1
  C  C210  1  0.32177000  0.49450565  0.92260169  1
  C  C211  1  0.82183959  0.49470276  0.92264041  1
  C  C212  1  0.42392880  0.34904226  0.92233450  1
  C  C213  1  0.92394070  0.34918598  0.92236490  1
  C  C214  1  0.25461711  0.14469716  0.92219194  1
  C  C215  1  0.75462090  0.14481740  0.92229160  1
  C  C216  1  0.32163002  0.15030612  0.42320962  1
  C  C217  1  0.81798123  0.14539987  0.42268070  1
  C  C218  1  0.25470023  0.36565190  0.42286004  1
  C  C219  1  0.75515526  0.36241438  0.42272998  1
  C  C220  1  0.42629168  0.48969277  0.42277271  1
  C  C221  1  0.92463329  0.49826861  0.42289174  1
  C  C222  1  0.17487681  0.49603380  0.07781155  1
  C  C223  1  0.67519881  0.49636876  0.07787006  1
  C  C224  1  0.07348202  0.65100612  0.07832265  1
  C  C225  1  0.57356336  0.65112318  0.07813144  1
  C  C226  1  0.25212020  0.85254760  0.07809350  1
  C  C227  1  0.75221336  0.85283224  0.07824987  1
  C  C228  1  0.17430788  0.85269841  0.57881076  1
  C  C229  1  0.67512635  0.85466400  0.57821251  1
  C  C230  1  0.25203814  0.65101307  0.57851572  1
  C  C231  1  0.75250916  0.65150500  0.57877879  1
  C  C232  1  0.07336753  0.49561031  0.57897166  1
  C  C233  1  0.57333973  0.49571936  0.57840768  1
  C  C234  1  0.15000068  0.82259731  0.25691036  1
  C  C235  1  0.65211801  0.82325952  0.25629918  1
  C  C236  1  0.25904243  0.69653205  0.25591187  1
  C  C237  1  0.76175001  0.69922502  0.25749014  1
  C  C238  1  0.08800562  0.47668693  0.25753925  1
  C  C239  1  0.58912408  0.48102348  0.25624415  1
  C  C240  1  0.15051844  0.47780094  0.75671658  1
  C  C241  1  0.65065775  0.47790780  0.75672707  1
  C  C242  1  0.08825953  0.69917454  0.75718163  1
  C  C243  1  0.58826306  0.69911324  0.75720055  1
  C  C244  1  0.26086641  0.82336416  0.75678257  1
  C  C245  1  0.76085412  0.82328468  0.75668478  1
