# generated using pymatgen
data_CuNiC5
_symmetry_space_group_name_H-M   'P 1'
_cell_length_a   4.82052959
_cell_length_b   9.47342710
_cell_length_c   8.33187157
_cell_angle_alpha   28.41799061
_cell_angle_beta   36.78383160
_cell_angle_gamma   45.21959394
_symmetry_Int_Tables_number   1
_chemical_formula_structural   CuNiC5
_chemical_formula_sum   'Cu1 Ni1 C5'
_cell_volume   108.42777880
_cell_formula_units_Z   1
loop_
 _symmetry_equiv_pos_site_id
 _symmetry_equiv_pos_as_xyz
  1  'x, y, z'
loop_
 _atom_site_type_symbol
 _atom_site_label
 _atom_site_symmetry_multiplicity
 _atom_site_fract_x
 _atom_site_fract_y
 _atom_site_fract_z
 _atom_site_occupancy
  Ni  Ni0  1  0.50000000  0.00000000  0.00000000  1
  C  C1  1  0.50000000  0.00000000  0.50000000  1
  Cu  Cu2  1  0.50000000  0.50000000  0.50000000  1
  C  C3  1  0.07372691  0.50000000  0.28804291  1
  C  C4  1  0.92627309  0.50000000  0.71195709  1
  C  C5  1  0.03803916  1.00000000  0.39538076  1
  C  C6  1  0.96196084  0.00000000  0.60461924  1
