# generated using pymatgen
data_Cu(NiC11)3
_symmetry_space_group_name_H-M   'P 1'
_cell_length_a   8.77220950
_cell_length_b   8.62211774
_cell_length_c   8.60583099
_cell_angle_alpha   60.33759882
_cell_angle_beta   60.11460810
_cell_angle_gamma   59.69040639
_symmetry_Int_Tables_number   1
_chemical_formula_structural   Cu(NiC11)3
_chemical_formula_sum   'Cu1 Ni3 C33'
_cell_volume   460.72305491
_cell_formula_units_Z   1
loop_
 _symmetry_equiv_pos_site_id
 _symmetry_equiv_pos_as_xyz
  1  'x, y, z'
loop_
 _atom_site_type_symbol
 _atom_site_label
 _atom_site_symmetry_multiplicity
 _atom_site_fract_x
 _atom_site_fract_y
 _atom_site_fract_z
 _atom_site_occupancy
  C  C0  1  0.87553600  0.87825900  0.87839200  1
  C  C1  1  0.01128700  0.00778100  0.00605000  1
  C  C2  1  0.50064900  0.49998700  0.49932800  1
  Ni  Ni3  1  0.15249700  0.15287300  0.14877300  1
  Ni  Ni4  1  0.35143000  0.35450900  0.35771500  1
  Ni  Ni5  1  0.63370700  0.63973600  0.64155500  1
  Cu  Cu6  1  0.76799500  0.75746400  0.75599500  1
  C  C7  1  0.05921600  0.75415600  0.45534400  1
  C  C8  1  0.46341500  0.05855700  0.75326100  1
  C  C9  1  0.75432000  0.45547900  0.05604900  1
  C  C10  1  0.25529100  0.54709700  0.96112900  1
  C  C11  1  0.53858900  0.95669900  0.25877400  1
  C  C12  1  0.95849100  0.25781000  0.54482900  1
  C  C13  1  0.09940000  0.34845400  0.48490900  1
  C  C14  1  0.34696200  0.48870900  0.10248500  1
  C  C15  1  0.08056100  0.90686400  0.25792600  1
  C  C16  1  0.47748100  0.10043200  0.35185800  1
  C  C17  1  0.00599500  0.81554100  0.62175000  1
  C  C18  1  0.25285500  0.58674800  0.44894600  1
  C  C19  1  0.27070100  0.08385400  0.90600800  1
  C  C20  1  0.45566900  0.25161200  0.58503500  1
  C  C21  1  0.17178100  0.40463200  0.00962700  1
  C  C22  1  0.59137000  0.44705100  0.25078000  1
  C  C23  1  0.11160200  0.75072800  0.94696700  1
  C  C24  1  0.39457200  0.00252000  0.17880400  1
  C  C25  1  0.62883200  0.00269200  0.81190400  1
  C  C26  1  0.91102300  0.25875100  0.07218800  1
  C  C27  1  0.41278800  0.55046800  0.75655800  1
  C  C28  1  0.81573500  0.61951800  0.00247500  1
  C  C29  1  0.54424000  0.75223300  0.41973300  1
  C  C30  1  0.73582100  0.94027600  0.11731700  1
  C  C31  1  0.75419400  0.41660400  0.55059400  1
  C  C32  1  0.00489400  0.17489400  0.39963800  1
  C  C33  1  0.51189800  0.89046500  0.69228000  1
  C  C34  1  0.94362700  0.11547700  0.74749500  1
  C  C35  1  0.69129800  0.50720500  0.89003900  1
  C  C36  1  0.89396600  0.69355300  0.50718300  1
