# generated using pymatgen
data_Cu5Ni7C58
_symmetry_space_group_name_H-M   'P 1'
_cell_length_a   17.76413445
_cell_length_b   8.88719218
_cell_length_c   22.96413267
_cell_angle_alpha   90.00434329
_cell_angle_beta   89.97524379
_cell_angle_gamma   119.97189516
_symmetry_Int_Tables_number   1
_chemical_formula_structural   Cu5Ni7C58
_chemical_formula_sum   'Cu15 Ni21 C174'
_cell_volume   3140.59677008
_cell_formula_units_Z   3
loop_
 _symmetry_equiv_pos_site_id
 _symmetry_equiv_pos_as_xyz
  1  'x, y, z'
loop_
 _atom_site_type_symbol
 _atom_site_label
 _atom_site_symmetry_multiplicity
 _atom_site_fract_x
 _atom_site_fract_y
 _atom_site_fract_z
 _atom_site_occupancy
  C  C0  1  0.99904838  0.99829877  0.49944181  1
  C  C1  1  0.49988038  0.00036122  0.00100431  1
  C  C2  1  0.33436690  0.32727756  0.83520887  1
  C  C3  1  0.83323517  0.33315806  0.83391886  1
  C  C4  1  0.33445838  0.33421113  0.33293203  1
  C  C5  1  0.83237120  0.33933491  0.33360523  1
  C  C6  1  0.99732282  0.98435606  0.35346872  1
  C  C7  1  0.49770957  0.01160886  0.85371481  1
  C  C8  1  0.99496571  0.00408998  0.64659984  1
  C  C9  1  0.49762600  0.98210085  0.14909586  1
  C  C10  1  0.50272991  0.99048296  0.35835959  1
  C  C11  1  0.99455830  0.00261530  0.86076533  1
  C  C12  1  0.49300623  0.99369272  0.63926606  1
  C  C13  1  0.99236061  0.99144404  0.13969602  1
  C  C14  1  0.33635259  0.33679121  0.68655120  1
  C  C15  1  0.83642333  0.31906733  0.68448058  1
  C  C16  1  0.33765519  0.35562268  0.18616152  1
  C  C17  1  0.83214207  0.32732309  0.19079728  1
  C  C18  1  0.33512899  0.33571756  0.97992999  1
  C  C19  1  0.84087884  0.34174157  0.97958076  1
  C  C20  1  0.34102779  0.34064287  0.47723680  1
  C  C21  1  0.83399505  0.33158228  0.47786217  1
  C  C22  1  0.15971781  0.65971073  0.02443436  1
  C  C23  1  0.66458304  0.65702447  0.02479919  1
  C  C24  1  0.16489806  0.67148110  0.52296237  1
  C  C25  1  0.66003624  0.65983692  0.52241957  1
  C  C26  1  0.16842515  0.67959873  0.31186032  1
  C  C27  1  0.66589241  0.65920596  0.30690847  1
  C  C28  1  0.16727642  0.67966870  0.81096071  1
  C  C29  1  0.66795251  0.65825985  0.81256837  1
  Ni  Ni30  1  0.64087153  0.99735065  0.24859489  1
  Ni  Ni31  1  0.35745912  0.72086728  0.24928892  1
  Ni  Ni32  1  0.85880519  0.71548852  0.25180451  1
  Ni  Ni33  1  0.35828331  0.00144119  0.75138025  1
  Ni  Ni34  1  0.85641854  0.99581487  0.74858333  1
  Ni  Ni35  1  0.47787048  0.33456185  0.58315735  1
  Ni  Ni36  1  0.98001587  0.32500017  0.58146238  1
  Ni  Ni37  1  0.68870922  0.04282876  0.58181336  1
  Ni  Ni38  1  0.32919298  0.61525929  0.58256875  1
  Ni  Ni39  1  0.47975512  0.63684652  0.08251308  1
  Ni  Ni40  1  0.97579374  0.61872509  0.08589187  1
  Ni  Ni41  1  0.82964011  0.04402929  0.08344714  1
  Ni  Ni42  1  0.18885403  0.33247318  0.08282394  1
  Ni  Ni43  1  0.80768777  0.65999853  0.91859814  1
  Ni  Ni44  1  0.02493850  0.38500143  0.91591005  1
  Ni  Ni45  1  0.52216671  0.37047942  0.91674480  1
  Ni  Ni46  1  0.16743550  0.95793297  0.91791526  1
  Ni  Ni47  1  0.31126422  0.95526082  0.41770697  1
  Ni  Ni48  1  0.66671590  0.38000013  0.41607786  1
  Ni  Ni49  1  0.02230749  0.67468634  0.41603140  1
  Ni  Ni50  1  0.52582766  0.66751284  0.41500456  1
  Cu  Cu51  1  0.14393149  0.00313466  0.25042324  1
  Cu  Cu52  1  0.00133529  0.28659034  0.25147385  1
  Cu  Cu53  1  0.49867517  0.28280665  0.24858172  1
  Cu  Cu54  1  0.14325803  0.28745188  0.74973021  1
  Cu  Cu55  1  0.64403044  0.28539617  0.75040327  1
  Cu  Cu56  1  0.99925774  0.71476442  0.74895873  1
  Cu  Cu57  1  0.50058199  0.71493527  0.75125538  1
  Cu  Cu58  1  0.18752924  0.04707816  0.58327365  1
  Cu  Cu59  1  0.83506351  0.62381896  0.58331161  1
  Cu  Cu60  1  0.33515452  0.04542884  0.08370226  1
  Cu  Cu61  1  0.68765442  0.32759714  0.08346218  1
  Cu  Cu62  1  0.31194222  0.67014192  0.91659416  1
  Cu  Cu63  1  0.66444995  0.95257896  0.91679003  1
  Cu  Cu64  1  0.81193070  0.95303657  0.41643397  1
  Cu  Cu65  1  0.16436152  0.37627490  0.41663738  1
  C  C66  1  0.10838786  0.03482971  0.30268598  1
  C  C67  1  0.59960615  0.03368338  0.30803247  1
  C  C68  1  0.41620599  0.80146711  0.30813110  1
  C  C69  1  0.91594308  0.79428910  0.30733229  1
  C  C70  1  0.48377794  0.18113333  0.30252548  1
  C  C71  1  0.98585323  0.18161755  0.30315048  1
  C  C72  1  0.10572811  0.17913290  0.80294584  1
  C  C73  1  0.60813439  0.18163341  0.80264221  1
  C  C74  1  0.48457440  0.78772276  0.80307083  1
  C  C75  1  0.98628192  0.79179927  0.80262536  1
  C  C76  1  0.41439990  0.03641958  0.80738779  1
  C  C77  1  0.91752403  0.03020425  0.80755469  1
  C  C78  1  0.40329565  0.97270279  0.69248227  1
  C  C79  1  0.89684436  0.96344251  0.69318340  1
  C  C80  1  0.09315391  0.21248419  0.69772475  1
  C  C81  1  0.59108527  0.20949258  0.69762918  1
  C  C82  1  0.01599071  0.81767567  0.69712380  1
  C  C83  1  0.51384132  0.81750334  0.69760221  1
  C  C84  1  0.39259356  0.82711926  0.19162487  1
  C  C85  1  0.90441422  0.83646216  0.19260485  1
  C  C86  1  0.01464719  0.21025045  0.19760374  1
  C  C87  1  0.51392939  0.21346263  0.19638759  1
  C  C88  1  0.09127313  0.97317821  0.19747044  1
  C  C89  1  0.58762544  0.96971704  0.19150694  1
  C  C90  1  0.42957852  0.36244426  0.63988049  1
  C  C91  1  0.93213630  0.36478557  0.63921325  1
  C  C92  1  0.24455301  0.12812322  0.63617448  1
  C  C93  1  0.75115618  0.13996282  0.64002680  1
  C  C94  1  0.31767006  0.49594831  0.64042423  1
  C  C95  1  0.81849570  0.51126168  0.63605637  1
  C  C96  1  0.43230057  0.49916517  0.13896965  1
  C  C97  1  0.92942767  0.49446418  0.14032293  1
  C  C98  1  0.31756070  0.12335512  0.13556338  1
  C  C99  1  0.81769980  0.13912115  0.13988694  1
  C  C100  1  0.25181354  0.36204469  0.14000069  1
  C  C101  1  0.74375578  0.36252272  0.13545263  1
  C  C102  1  0.23541152  0.30164051  0.02642851  1
  C  C103  1  0.73068328  0.30568933  0.03028211  1
  C  C104  1  0.41516610  0.51968078  0.02775185  1
  C  C105  1  0.91665985  0.53220819  0.02643531  1
  C  C106  1  0.34648802  0.15515855  0.03002358  1
  C  C107  1  0.84610751  0.16980382  0.02639380  1
  C  C108  1  0.22925362  0.15500891  0.53097868  1
  C  C109  1  0.73528445  0.17000804  0.52685277  1
  C  C110  1  0.34607928  0.52105226  0.52705502  1
  C  C111  1  0.84723913  0.53865461  0.53043090  1
  C  C112  1  0.41538192  0.29973774  0.52677267  1
  C  C113  1  0.91468856  0.30810686  0.52766437  1
  C  C114  1  0.27073201  0.69447849  0.96898187  1
  C  C115  1  0.76457876  0.69747079  0.97387373  1
  C  C116  1  0.08363928  0.47137548  0.97386882  1
  C  C117  1  0.58500844  0.48046854  0.97235980  1
  C  C118  1  0.15412177  0.83183663  0.97296083  1
  C  C119  1  0.65284683  0.84724306  0.96960502  1
  C  C120  1  0.26360083  0.83266747  0.47371435  1
  C  C121  1  0.77085490  0.84780057  0.46969343  1
  C  C122  1  0.15289538  0.45844413  0.46992643  1
  C  C123  1  0.65560952  0.47843713  0.47380216  1
  C  C124  1  0.08446773  0.68913796  0.47251618  1
  C  C125  1  0.58289178  0.69464263  0.47431085  1
  C  C126  1  0.06848430  0.63306258  0.35985926  1
  C  C127  1  0.56899692  0.63189480  0.35953335  1
  C  C128  1  0.24747011  0.86158304  0.36018017  1
  C  C129  1  0.75690639  0.87740829  0.36430171  1
  C  C130  1  0.18236123  0.48829174  0.36404628  1
  C  C131  1  0.68329023  0.50478909  0.35986387  1
  C  C132  1  0.07036644  0.50292295  0.85875309  1
  C  C133  1  0.56899342  0.50370244  0.85979345  1
  C  C134  1  0.18213289  0.86174475  0.85961166  1
  C  C135  1  0.68208863  0.87517642  0.86372450  1
  C  C136  1  0.25564131  0.63746727  0.86368029  1
  C  C137  1  0.74869106  0.63504394  0.85968215  1
  C  C138  1  0.01473059  0.84441370  0.41353080  1
  C  C139  1  0.51206403  0.83291808  0.40991213  1
  C  C140  1  0.40553167  0.98183659  0.40466194  1
  C  C141  1  0.89938773  0.98014382  0.41067462  1
  C  C142  1  0.08824269  0.20537284  0.40913964  1
  C  C143  1  0.58116794  0.19285294  0.40594741  1
  C  C144  1  0.01429127  0.19329736  0.90742108  1
  C  C145  1  0.51444255  0.18565884  0.91308326  1
  C  C146  1  0.08259043  0.97362451  0.90213120  1
  C  C147  1  0.58804567  0.97058803  0.90851065  1
  C  C148  1  0.39869866  0.81838878  0.90952545  1
  C  C149  1  0.90393107  0.82753099  0.90540603  1
  C  C150  1  0.48868075  0.16656962  0.59380675  1
  C  C151  1  0.99016718  0.15972919  0.58759239  1
  C  C152  1  0.10170469  0.02435787  0.59172441  1
  C  C153  1  0.59524872  0.02323354  0.59837267  1
  C  C154  1  0.41742798  0.80286580  0.59347530  1
  C  C155  1  0.91292586  0.79274066  0.58949736  1
  C  C156  1  0.48716427  0.82012331  0.08452150  1
  C  C157  1  0.98966872  0.81230986  0.09310202  1
  C  C158  1  0.41270530  0.03223100  0.08871820  1
  C  C159  1  0.91752892  0.03099860  0.09250442  1
  C  C160  1  0.09512254  0.16738843  0.09768538  1
  C  C161  1  0.60109732  0.18055204  0.08905452  1
  C  C162  1  0.33966021  0.16623422  0.73809914  1
  C  C163  1  0.84453688  0.17464329  0.74361700  1
  C  C164  1  0.23371108  0.30953566  0.74362799  1
  C  C165  1  0.73482031  0.31698182  0.74204244  1
  C  C166  1  0.42056745  0.53293126  0.74277905  1
  C  C167  1  0.92081229  0.53576221  0.74384571  1
  C  C168  1  0.34400848  0.51506108  0.24329806  1
  C  C169  1  0.84324525  0.51860465  0.23754898  1
  C  C170  1  0.41937577  0.30606033  0.24308424  1
  C  C171  1  0.92246842  0.30905085  0.24340024  1
  C  C172  1  0.23484930  0.15279460  0.24197218  1
  C  C173  1  0.74182777  0.17051328  0.24243453  1
  C  C174  1  0.31765844  0.50656877  0.92224042  1
  C  C175  1  0.81750325  0.48758302  0.92428865  1
  C  C176  1  0.42674966  0.36093824  0.92547682  1
  C  C177  1  0.92654066  0.35657309  0.92366099  1
  C  C178  1  0.25299236  0.14841928  0.92437813  1
  C  C179  1  0.74436171  0.12921499  0.92347553  1
  C  C180  1  0.31615005  0.14484283  0.42559730  1
  C  C181  1  0.81835968  0.12967596  0.42333453  1
  C  C182  1  0.24443188  0.35938366  0.42416043  1
  C  C183  1  0.75230701  0.35789406  0.42615916  1
  C  C184  1  0.42700886  0.49648912  0.42437501  1
  C  C185  1  0.92721389  0.49369365  0.42608234  1
  C  C186  1  0.18300230  0.50753104  0.07171467  1
  C  C187  1  0.68294076  0.49111913  0.07577928  1
  C  C188  1  0.07162066  0.64196560  0.07410252  1
  C  C189  1  0.57136010  0.63786533  0.07181574  1
  C  C190  1  0.25615412  0.87227830  0.07362461  1
  C  C191  1  0.74798986  0.85454740  0.07110979  1
  C  C192  1  0.18256112  0.87494232  0.57688604  1
  C  C193  1  0.68279795  0.85699084  0.57227106  1
  C  C194  1  0.24744972  0.64132368  0.57223829  1
  C  C195  1  0.75661033  0.64041685  0.57469607  1
  C  C196  1  0.07217709  0.50600998  0.57199168  1
  C  C197  1  0.57239092  0.50371230  0.57519247  1
  C  C198  1  0.15323707  0.84291131  0.25699170  1
  C  C199  1  0.65766427  0.83539129  0.26493261  1
  C  C200  1  0.25680778  0.67804825  0.26481375  1
  C  C201  1  0.76061752  0.68913653  0.25915114  1
  C  C202  1  0.07803339  0.46393092  0.25799120  1
  C  C203  1  0.57525942  0.46285392  0.25733260  1
  C  C204  1  0.15571666  0.46475306  0.76010597  1
  C  C205  1  0.65320819  0.46397823  0.75732677  1
  C  C206  1  0.07683610  0.68860211  0.75863387  1
  C  C207  1  0.57678667  0.68967356  0.75761149  1
  C  C208  1  0.25944779  0.82716527  0.75979764  1
  C  C209  1  0.75736834  0.83564513  0.76458833  1
