# generated using pymatgen
data_CuNiC9
_symmetry_space_group_name_H-M   'P 1'
_cell_length_a   3.94989131
_cell_length_b   6.79599677
_cell_length_c   6.79599677
_cell_angle_alpha   74.22677718
_cell_angle_beta   89.56961737
_cell_angle_gamma   89.56961737
_symmetry_Int_Tables_number   1
_chemical_formula_structural   CuNiC9
_chemical_formula_sum   'Cu1 Ni1 C9'
_cell_volume   175.55090086
_cell_formula_units_Z   1
loop_
 _symmetry_equiv_pos_site_id
 _symmetry_equiv_pos_as_xyz
  1  'x, y, z'
loop_
 _atom_site_type_symbol
 _atom_site_label
 _atom_site_symmetry_multiplicity
 _atom_site_fract_x
 _atom_site_fract_y
 _atom_site_fract_z
 _atom_site_occupancy
  C  C0  1  0.11420405  0.24422071  0.74422071  1
  Ni  Ni1  1  0.60372300  0.50067327  0.00067327  1
  Cu  Cu2  1  0.58779790  0.04386796  0.54386796  1
  C  C3  1  0.02595882  0.99142319  0.14154545  1
  C  C4  1  0.02595882  0.64154545  0.49142319  1
  C  C5  1  0.60408434  0.19232622  0.24515106  1
  C  C6  1  0.61471569  0.21742762  0.71742762  1
  C  C7  1  0.61018607  0.67750404  0.17750404  1
  C  C8  1  0.60408434  0.74515106  0.69232622  1
  C  C9  1  0.12199780  0.05822999  0.55822999  1
  C  C10  1  0.10684717  0.43763049  0.93763049  1
