# generated using pymatgen
data_Cu2NiC14
_symmetry_space_group_name_H-M   'P 1'
_cell_length_a   8.82329797
_cell_length_b   8.82561807
_cell_length_c   22.71827508
_cell_angle_alpha   90.05374015
_cell_angle_beta   90.00000000
_cell_angle_gamma   119.99130426
_symmetry_Int_Tables_number   1
_chemical_formula_structural   Cu2NiC14
_chemical_formula_sum   'Cu12 Ni6 C84'
_cell_volume   1532.21550983
_cell_formula_units_Z   6
loop_
 _symmetry_equiv_pos_site_id
 _symmetry_equiv_pos_as_xyz
  1  'x, y, z'
loop_
 _atom_site_type_symbol
 _atom_site_label
 _atom_site_symmetry_multiplicity
 _atom_site_fract_x
 _atom_site_fract_y
 _atom_site_fract_z
 _atom_site_occupancy
  C  C0  1  0.99677049  0.00252949  0.64181496  1
  C  C1  1  0.00575900  0.00252949  0.14181496  1
  C  C2  1  0.65556082  0.33778890  0.97713426  1
  C  C3  1  0.68222908  0.33778890  0.47713426  1
  C  C4  1  0.32309334  0.66951964  0.02419456  1
  C  C5  1  0.34642530  0.66951964  0.52419456  1
  C  C6  1  0.33974522  0.67513609  0.30859994  1
  C  C7  1  0.33538987  0.67513609  0.80859994  1
  C  C8  1  0.98992147  0.00205275  0.35623102  1
  C  C9  1  0.01213128  0.00205275  0.85623102  1
  C  C10  1  0.67637316  0.34832375  0.68358049  1
  C  C11  1  0.67195159  0.34832375  0.18358049  1
  Ni  Ni12  1  0.95501760  0.34040341  0.58611881  1
  Ni  Ni13  1  0.66785750  0.61152697  0.58603045  1
  Ni  Ni14  1  0.94367047  0.61152697  0.08603045  1
  Ni  Ni15  1  0.38538682  0.34040341  0.08611881  1
  Ni  Ni16  1  0.33113998  0.95792893  0.91585536  1
  Ni  Ni17  1  0.62678795  0.95792893  0.41585536  1
  Cu  Cu18  1  0.28745536  0.00407133  0.25175769  1
  Cu  Cu19  1  0.71523109  0.71090134  0.25146029  1
  Cu  Cu20  1  0.99566948  0.28664993  0.25127754  1
  Cu  Cu21  1  0.29098045  0.28664993  0.75127754  1
  Cu  Cu22  1  0.99567025  0.71090134  0.75146029  1
  Cu  Cu23  1  0.71661597  0.00407133  0.75175769  1
  Cu  Cu24  1  0.37967227  0.04628324  0.58380862  1
  Cu  Cu25  1  0.66661197  0.04628324  0.08380862  1
  Cu  Cu26  1  0.61902961  0.66997284  0.91554635  1
  Cu  Cu27  1  0.04708405  0.38097394  0.91600420  1
  Cu  Cu28  1  0.33388889  0.38097394  0.41600420  1
  Cu  Cu29  1  0.05094223  0.66997284  0.41554635  1
  C  C30  1  0.20506820  0.02445670  0.30390571  1
  C  C31  1  0.81840727  0.79331062  0.30347620  1
  C  C32  1  0.97775725  0.18409849  0.30336348  1
  C  C33  1  0.20634124  0.18409849  0.80336348  1
  C  C34  1  0.97490336  0.79331062  0.80347620  1
  C  C35  1  0.81938850  0.02445670  0.80390571  1
  C  C36  1  0.79882938  0.96932556  0.69800765  1
  C  C37  1  0.17448916  0.20470007  0.69768938  1
  C  C38  1  0.03621211  0.82546019  0.69821544  1
  C  C39  1  0.78924807  0.82546019  0.19821544  1
  C  C40  1  0.03021092  0.20470007  0.19768938  1
  C  C41  1  0.17049617  0.96932556  0.19800765  1
  C  C42  1  0.87713705  0.36692407  0.64408830  1
  C  C43  1  0.48201953  0.10902066  0.63673716  1
  C  C44  1  0.61617723  0.50039550  0.64350059  1
  C  C45  1  0.88421927  0.50039550  0.14350059  1
  C  C46  1  0.62700213  0.10902066  0.13673716  1
  C  C47  1  0.48978802  0.36692407  0.14408830  1
  C  C48  1  0.46956790  0.29862591  0.02595166  1
  C  C49  1  0.82945191  0.52453683  0.02544894  1
  C  C50  1  0.70111573  0.15719285  0.03073884  1
  C  C51  1  0.45607812  0.15719285  0.53073884  1
  C  C52  1  0.69508591  0.52453683  0.52544894  1
  C  C53  1  0.82905901  0.29862591  0.52595166  1
  C  C54  1  0.53250554  0.68658560  0.96854829  1
  C  C55  1  0.15980602  0.46705866  0.96892861  1
  C  C56  1  0.31887681  0.83263219  0.97109252  1
  C  C57  1  0.51375438  0.83263219  0.47109252  1
  C  C58  1  0.30725164  0.46705866  0.46892861  1
  C  C59  1  0.15407906  0.68658560  0.46854829  1
  C  C60  1  0.12890620  0.63163779  0.36242420  1
  C  C61  1  0.48993572  0.85347304  0.35870701  1
  C  C62  1  0.36143930  0.49627228  0.36322420  1
  C  C63  1  0.13483197  0.49627228  0.86322420  1
  C  C64  1  0.36353632  0.85347304  0.85870701  1
  C  C65  1  0.50273059  0.63163779  0.86242420  1
  C  C66  1  0.03173991  0.82041727  0.40757834  1
  C  C67  1  0.81101560  0.97560314  0.40917524  1
  C  C68  1  0.18317185  0.21042533  0.40888810  1
  C  C69  1  0.02725347  0.21042533  0.90888810  1
  C  C70  1  0.16458754  0.97560314  0.90917524  1
  C  C71  1  0.78867736  0.82041727  0.90757834  1
  C  C72  1  0.98266783  0.16720341  0.59546851  1
  C  C73  1  0.20073687  0.02570044  0.59226430  1
  C  C74  1  0.84176940  0.81081537  0.59658819  1
  C  C75  1  0.96904597  0.81081537  0.09658819  1
  C  C76  1  0.82496358  0.02570044  0.09226430  1
  C  C77  1  0.18453558  0.16720341  0.09546851  1
  C  C78  1  0.67996459  0.14355034  0.74173995  1
  C  C79  1  0.46283394  0.30935035  0.74213287  1
  C  C80  1  0.85241989  0.53500240  0.74440562  1
  C  C81  1  0.68258351  0.53500240  0.24440562  1
  C  C82  1  0.84651741  0.30935035  0.24213287  1
  C  C83  1  0.46358675  0.14355034  0.24173995  1
  C  C84  1  0.63211309  0.50536853  0.92244903  1
  C  C85  1  0.87667738  0.37330690  0.92448845  1
  C  C86  1  0.51737372  0.14236980  0.92681136  1
  C  C87  1  0.62499708  0.14236980  0.42681136  1
  C  C88  1  0.49663052  0.37330690  0.42448845  1
  C  C89  1  0.87325643  0.50536853  0.42244903  1
  C  C90  1  0.35658497  0.50126794  0.06625412  1
  C  C91  1  0.14417712  0.65253414  0.07041127  1
  C  C92  1  0.51865446  0.86504364  0.07121091  1
  C  C93  1  0.34638819  0.86504364  0.57121091  1
  C  C94  1  0.50835603  0.65253414  0.57041127  1
  C  C95  1  0.14468197  0.50126794  0.56625412  1
  C  C96  1  0.29270960  0.83064585  0.25813919  1
  C  C97  1  0.53075530  0.69556587  0.25917575  1
  C  C98  1  0.16193769  0.46605973  0.25935606  1
  C  C99  1  0.30412104  0.46605973  0.75935606  1
  C  C100  1  0.16480957  0.69556587  0.75917575  1
  C  C101  1  0.53793525  0.83064585  0.75813919  1
