# generated using pymatgen
data_Cu5NiC8
_symmetry_space_group_name_H-M   'P 1'
_cell_length_a   8.15640200
_cell_length_b   11.36088500
_cell_length_c   15.98780481
_cell_angle_alpha   88.40689313
_cell_angle_beta   90.00000000
_cell_angle_gamma   90.00000000
_symmetry_Int_Tables_number   1
_chemical_formula_structural   Cu5NiC8
_chemical_formula_sum   'Cu20 Ni4 C32'
_cell_volume   1480.92042218
_cell_formula_units_Z   4
loop_
 _symmetry_equiv_pos_site_id
 _symmetry_equiv_pos_as_xyz
  1  'x, y, z'
loop_
 _atom_site_type_symbol
 _atom_site_label
 _atom_site_symmetry_multiplicity
 _atom_site_fract_x
 _atom_site_fract_y
 _atom_site_fract_z
 _atom_site_occupancy
  Ni  Ni0  1  0.66493800  0.66366100  0.28500500  1
  Ni  Ni1  1  0.16493800  0.83633900  0.71499500  1
  Ni  Ni2  1  0.33506200  0.33633900  0.71499500  1
  Ni  Ni3  1  0.83506200  0.16366100  0.28500500  1
  Cu  Cu4  1  0.72120900  0.63809500  0.88938400  1
  Cu  Cu5  1  0.22120900  0.86190500  0.11061600  1
  Cu  Cu6  1  0.27879100  0.36190500  0.11061600  1
  Cu  Cu7  1  0.77879100  0.13809500  0.88938400  1
  Cu  Cu8  1  0.62021600  0.60842700  0.57683600  1
  Cu  Cu9  1  0.12021600  0.89157300  0.42316400  1
  Cu  Cu10  1  0.37978400  0.39157300  0.42316400  1
  Cu  Cu11  1  0.87978400  0.10842700  0.57683600  1
  Cu  Cu12  1  0.14283300  0.55289700  0.26179000  1
  Cu  Cu13  1  0.64283300  0.94710300  0.73821000  1
  Cu  Cu14  1  0.85716700  0.44710300  0.73821000  1
  Cu  Cu15  1  0.35716700  0.05289700  0.26179000  1
  Cu  Cu16  1  0.96396200  0.62010600  0.06735000  1
  Cu  Cu17  1  0.46396200  0.87989400  0.93265000  1
  Cu  Cu18  1  0.03603800  0.37989400  0.93265000  1
  Cu  Cu19  1  0.53603800  0.12010600  0.06735000  1
  Cu  Cu20  1  0.17363500  0.58904400  0.55296900  1
  Cu  Cu21  1  0.67363500  0.91095600  0.44703100  1
  Cu  Cu22  1  0.82636500  0.41095600  0.44703100  1
  Cu  Cu23  1  0.32636500  0.08904400  0.55296900  1
  C  C24  1  0.68061500  0.13279900  0.68482900  1
  C  C25  1  0.18061500  0.36720100  0.31517100  1
  C  C26  1  0.31938500  0.86720100  0.31517100  1
  C  C27  1  0.81938500  0.63279900  0.68482900  1
  C  C28  1  0.83183700  0.94855700  0.84817100  1
  C  C29  1  0.33183700  0.55144300  0.15182900  1
  C  C30  1  0.16816300  0.05144300  0.15182900  1
  C  C31  1  0.66816300  0.44855700  0.84817100  1
  C  C32  1  0.95662800  0.79992100  0.12996800  1
  C  C33  1  0.45662800  0.70007900  0.87003200  1
  C  C34  1  0.04337200  0.20007900  0.87003200  1
  C  C35  1  0.54337200  0.29992100  0.12996800  1
  C  C36  1  0.91624800  0.49719100  0.18257200  1
  C  C37  1  0.41624800  0.00280900  0.81742800  1
  C  C38  1  0.08375200  0.50280900  0.81742800  1
  C  C39  1  0.58375200  0.99719100  0.18257200  1
  C  C40  1  0.69188000  0.61443000  0.03269100  1
  C  C41  1  0.19188000  0.88557000  0.96730900  1
  C  C42  1  0.30812000  0.38557000  0.96730900  1
  C  C43  1  0.80812000  0.11443000  0.03269100  1
  C  C44  1  0.60966700  0.40067400  0.34017000  1
  C  C45  1  0.10966700  0.09932600  0.65983000  1
  C  C46  1  0.39033300  0.59932600  0.65983000  1
  C  C47  1  0.89033300  0.90067400  0.34017000  1
  C  C48  1  0.88573200  0.59950400  0.43002500  1
  C  C49  1  0.38573200  0.90049600  0.56997500  1
  C  C50  1  0.11426800  0.40049600  0.56997500  1
  C  C51  1  0.61426800  0.09950400  0.43002500  1
  C  C52  1  0.85736000  0.90920800  0.56209600  1
  C  C53  1  0.35736000  0.59079200  0.43790400  1
  C  C54  1  0.14264000  0.09079200  0.43790400  1
  C  C55  1  0.64264000  0.40920800  0.56209600  1
