# generated using pymatgen
data_Cu9Ni4C3
_symmetry_space_group_name_H-M   'P 1'
_cell_length_a   4.06263300
_cell_length_b   16.72342400
_cell_length_c   24.48134300
_cell_angle_alpha   90.00000000
_cell_angle_beta   90.00000000
_cell_angle_gamma   90.00000000
_symmetry_Int_Tables_number   1
_chemical_formula_structural   Cu9Ni4C3
_chemical_formula_sum   'Cu36 Ni16 C12'
_cell_volume   1663.29021054
_cell_formula_units_Z   4
loop_
 _symmetry_equiv_pos_site_id
 _symmetry_equiv_pos_as_xyz
  1  'x, y, z'
loop_
 _atom_site_type_symbol
 _atom_site_label
 _atom_site_symmetry_multiplicity
 _atom_site_fract_x
 _atom_site_fract_y
 _atom_site_fract_z
 _atom_site_occupancy
  C  C0  1  0.75633800  0.37808900  0.05513700  1
  C  C1  1  0.25633800  0.62191100  0.94486300  1
  C  C2  1  0.25633800  0.12191100  0.55513700  1
  C  C3  1  0.75633800  0.87808900  0.44486300  1
  C  C4  1  0.75750500  0.17485300  0.17602800  1
  C  C5  1  0.25750500  0.82514700  0.82397200  1
  C  C6  1  0.25750500  0.32514700  0.67602800  1
  C  C7  1  0.75750500  0.67485300  0.32397200  1
  C  C8  1  0.76019600  0.44344100  0.23354200  1
  C  C9  1  0.26019600  0.55655900  0.76645800  1
  C  C10  1  0.26019600  0.05655900  0.73354200  1
  C  C11  1  0.76019600  0.94344100  0.26645800  1
  Ni  Ni12  1  0.72723200  0.83240000  0.98874100  1
  Ni  Ni13  1  0.22723200  0.16760000  0.01125900  1
  Ni  Ni14  1  0.22723200  0.66760000  0.48874100  1
  Ni  Ni15  1  0.72723200  0.33240000  0.51125900  1
  Ni  Ni16  1  0.23687800  0.09092400  0.39452100  1
  Ni  Ni17  1  0.73687800  0.90907600  0.60547900  1
  Ni  Ni18  1  0.73687800  0.40907600  0.89452100  1
  Ni  Ni19  1  0.23687800  0.59092400  0.10547900  1
  Ni  Ni20  1  0.20568400  0.25700000  0.32251000  1
  Ni  Ni21  1  0.70568400  0.74300000  0.67749000  1
  Ni  Ni22  1  0.70568400  0.24300000  0.82251000  1
  Ni  Ni23  1  0.20568400  0.75700000  0.17749000  1
  Ni  Ni24  1  0.20948000  0.47252000  0.38917400  1
  Ni  Ni25  1  0.70948000  0.52748000  0.61082600  1
  Ni  Ni26  1  0.70948000  0.02748000  0.88917400  1
  Ni  Ni27  1  0.20948000  0.97252000  0.11082600  1
  Cu  Cu28  1  0.78668200  0.64097500  0.19238200  1
  Cu  Cu29  1  0.28668200  0.35902500  0.80761800  1
  Cu  Cu30  1  0.28668200  0.85902500  0.69238200  1
  Cu  Cu31  1  0.78668200  0.14097500  0.30761800  1
  Cu  Cu32  1  0.76668700  0.56114400  0.03748900  1
  Cu  Cu33  1  0.26668700  0.43885600  0.96251100  1
  Cu  Cu34  1  0.26668700  0.93885600  0.53748900  1
  Cu  Cu35  1  0.76668700  0.06114400  0.46251100  1
  Cu  Cu36  1  0.25590800  0.45162300  0.13830700  1
  Cu  Cu37  1  0.75590800  0.54837700  0.86169300  1
  Cu  Cu38  1  0.75590800  0.04837700  0.63830700  1
  Cu  Cu39  1  0.25590800  0.95162300  0.36169300  1
  Cu  Cu40  1  0.25483500  0.25193700  0.09344700  1
  Cu  Cu41  1  0.75483500  0.74806300  0.90655300  1
  Cu  Cu42  1  0.75483500  0.24806300  0.59344700  1
  Cu  Cu43  1  0.77254300  0.56395900  0.42785600  1
  Cu  Cu44  1  0.25483500  0.75193700  0.40655300  1
  Cu  Cu45  1  0.27815200  0.13271800  0.84700900  1
  Cu  Cu46  1  0.27815200  0.63271800  0.65299100  1
  Cu  Cu47  1  0.77815200  0.36728200  0.34700900  1
  Cu  Cu48  1  0.25710900  0.54178200  0.30021900  1
  Cu  Cu49  1  0.75710900  0.45821800  0.69978100  1
  Cu  Cu50  1  0.75710900  0.95821800  0.80021900  1
  Cu  Cu51  1  0.25710900  0.04178200  0.19978100  1
  Cu  Cu52  1  0.24759200  0.79719700  0.27382300  1
  Cu  Cu53  1  0.74759200  0.20280300  0.72617700  1
  Cu  Cu54  1  0.74759200  0.70280300  0.77382300  1
  Cu  Cu55  1  0.24759200  0.29719700  0.22617700  1
  Cu  Cu56  1  0.25528000  0.25621100  0.46820400  1
  Cu  Cu57  1  0.75528000  0.74378900  0.53179600  1
  Cu  Cu58  1  0.75528000  0.24378900  0.96820400  1
  Cu  Cu59  1  0.25528000  0.75621100  0.03179600  1
  Cu  Cu60  1  0.77254300  0.06395900  0.07214400  1
  Cu  Cu61  1  0.27254300  0.93604100  0.92785600  1
  Cu  Cu62  1  0.27254300  0.43604100  0.57214400  1
  Cu  Cu63  1  0.77815200  0.86728200  0.15299100  1
