# generated using pymatgen
data_Cu2NiC18
_symmetry_space_group_name_H-M   'P 1'
_cell_length_a   9.33303580
_cell_length_b   9.37026444
_cell_length_c   22.35193253
_cell_angle_alpha   89.98235030
_cell_angle_beta   90.00000000
_cell_angle_gamma   119.86865898
_symmetry_Int_Tables_number   1
_chemical_formula_structural   Cu2NiC18
_chemical_formula_sum   'Cu12 Ni6 C108'
_cell_volume   1695.09374297
_cell_formula_units_Z   6
loop_
 _symmetry_equiv_pos_site_id
 _symmetry_equiv_pos_as_xyz
  1  'x, y, z'
loop_
 _atom_site_type_symbol
 _atom_site_label
 _atom_site_symmetry_multiplicity
 _atom_site_fract_x
 _atom_site_fract_y
 _atom_site_fract_z
 _atom_site_occupancy
  C  C0  1  0.64532846  0.01584392  0.24667711  1
  C  C1  1  0.36793421  0.34493323  0.24863062  1
  C  C2  1  0.98894780  0.63114456  0.23994311  1
  C  C3  1  0.64219676  0.63114456  0.73994311  1
  C  C4  1  0.97699902  0.34493323  0.74863062  1
  C  C5  1  0.37051546  0.01584392  0.74667711  1
  C  C6  1  0.31988727  0.35665542  0.58178715  1
  C  C7  1  0.02950925  0.68643892  0.57752634  1
  C  C8  1  0.64988084  0.95833140  0.57528829  1
  C  C9  1  0.30845155  0.95833140  0.07528829  1
  C  C10  1  0.65693067  0.68643892  0.07752634  1
  C  C11  1  0.03676915  0.35665542  0.08178715  1
  C  C12  1  0.99065635  0.69172773  0.91683634  1
  C  C13  1  0.69934383  0.02411075  0.90707496  1
  C  C14  1  0.31871836  0.29374492  0.91146929  1
  C  C15  1  0.97502556  0.29374492  0.41146929  1
  C  C16  1  0.32476592  0.02411075  0.40707496  1
  C  C17  1  0.70107038  0.69172773  0.41683634  1
  C  C18  1  0.98895896  0.99730251  0.49487077  1
  C  C19  1  0.00834355  0.99730251  0.99487077  1
  C  C20  1  0.66246420  0.31949418  0.82847461  1
  C  C21  1  0.65703098  0.31949418  0.32847461  1
  C  C22  1  0.32111927  0.66780911  0.16204395  1
  C  C23  1  0.34668884  0.66780911  0.66204395  1
  C  C24  1  0.00113109  0.99825413  0.34802098  1
  C  C25  1  0.99712304  0.99825413  0.84802098  1
  C  C26  1  0.66504271  0.33141416  0.68134466  1
  C  C27  1  0.66637245  0.33141416  0.18134466  1
  C  C28  1  0.33328966  0.67024397  0.01472499  1
  C  C29  1  0.33695330  0.67024397  0.51472499  1
  C  C30  1  0.99232132  0.99634885  0.64886283  1
  C  C31  1  0.00402754  0.99634885  0.14886283  1
  C  C32  1  0.66865845  0.33501518  0.98226385  1
  C  C33  1  0.66635773  0.33501518  0.48226385  1
  C  C34  1  0.33785555  0.67482957  0.31570137  1
  C  C35  1  0.33697302  0.67482957  0.81570137  1
  Ni  Ni36  1  0.30022370  0.99174066  0.25303720  1
  Ni  Ni37  1  0.69151695  0.99174066  0.75303720  1
  Ni  Ni38  1  0.67454142  0.64015016  0.58623481  1
  Ni  Ni39  1  0.96560974  0.64015016  0.08623481  1
  Ni  Ni40  1  0.34164447  0.97640257  0.91938477  1
  Ni  Ni41  1  0.63475710  0.97640257  0.41938477  1
  Cu  Cu42  1  0.69289667  0.70382405  0.25124729  1
  Cu  Cu43  1  0.01176904  0.30538949  0.25120443  1
  Cu  Cu44  1  0.29362045  0.30538949  0.75120443  1
  Cu  Cu45  1  0.01092738  0.70382405  0.75124729  1
  Cu  Cu46  1  0.96161661  0.32270077  0.58502207  1
  Cu  Cu47  1  0.35904084  0.03904736  0.58449059  1
  Cu  Cu48  1  0.68000751  0.03904736  0.08449059  1
  Cu  Cu49  1  0.36108516  0.32270077  0.08502207  1
  Cu  Cu50  1  0.62795753  0.65391573  0.91808408  1
  Cu  Cu51  1  0.02832570  0.37191595  0.91803744  1
  Cu  Cu52  1  0.34358925  0.37191595  0.41803744  1
  Cu  Cu53  1  0.02595720  0.65391573  0.41808408  1
  C  C54  1  0.22772292  0.01741333  0.31407299  1
  C  C55  1  0.78676895  0.77603162  0.30921578  1
  C  C56  1  0.98614706  0.20880822  0.30879495  1
  C  C57  1  0.22266115  0.20880822  0.80879495  1
  C  C58  1  0.98926267  0.77603162  0.80921578  1
  C  C59  1  0.78969041  0.01741333  0.81407299  1
  C  C60  1  0.80195803  0.97446443  0.69598118  1
  C  C61  1  0.18021186  0.20649132  0.69615292  1
  C  C62  1  0.03126177  0.82132831  0.69654659  1
  C  C63  1  0.79006654  0.82132831  0.19654659  1
  C  C64  1  0.02627946  0.20649132  0.19615292  1
  C  C65  1  0.17250640  0.97446443  0.19598118  1
  C  C66  1  0.89089434  0.34428516  0.64293753  1
  C  C67  1  0.45546862  0.10395975  0.64224662  1
  C  C68  1  0.65467735  0.54284203  0.64696719  1
  C  C69  1  0.88816568  0.54284203  0.14696719  1
  C  C70  1  0.64849213  0.10395975  0.14224662  1
  C  C71  1  0.45339182  0.34428516  0.14293753  1
  C  C72  1  0.45883746  0.30303971  0.03040075  1
  C  C73  1  0.84057284  0.53385272  0.02825216  1
  C  C74  1  0.69332470  0.15481591  0.03012820  1
  C  C75  1  0.46149220  0.15481591  0.53012820  1
  C  C76  1  0.69328088  0.53385272  0.52825216  1
  C  C77  1  0.84420325  0.30303971  0.53040075  1
  C  C78  1  0.55696231  0.67559061  0.97654903  1
  C  C79  1  0.12524121  0.44290471  0.97581288  1
  C  C80  1  0.31583703  0.87620791  0.98005420  1
  C  C81  1  0.56036988  0.87620791  0.48005420  1
  C  C82  1  0.31766250  0.44290471  0.47581288  1
  C  C83  1  0.11862729  0.67559061  0.47654903  1
  C  C84  1  0.12645937  0.63632348  0.36410284  1
  C  C85  1  0.50690714  0.86656494  0.36189255  1
  C  C86  1  0.36050268  0.48559953  0.36305654  1
  C  C87  1  0.12509585  0.48559953  0.86305654  1
  C  C88  1  0.35965680  0.86656494  0.86189255  1
  C  C89  1  0.50986312  0.63632348  0.86410284  1
  C  C90  1  0.99406724  0.79822266  0.41182076  1
  C  C91  1  0.82085995  0.00650337  0.41370913  1
  C  C92  1  0.19957343  0.19579076  0.41219449  1
  C  C93  1  0.99621733  0.19579076  0.91219449  1
  C  C94  1  0.18564342  0.00650337  0.91370913  1
  C  C95  1  0.80415542  0.79822266  0.91182076  1
  C  C96  1  0.96916726  0.15809836  0.58608255  1
  C  C97  1  0.19333468  0.04445584  0.58615237  1
  C  C98  1  0.85307529  0.82165598  0.58649779  1
  C  C99  1  0.96858068  0.82165598  0.08649779  1
  C  C100  1  0.85112116  0.04445584  0.08615237  1
  C  C101  1  0.18893110  0.15809836  0.08608255  1
  C  C102  1  0.65825181  0.14477718  0.74707596  1
  C  C103  1  0.47078388  0.33676400  0.74538858  1
  C  C104  1  0.86592806  0.52847022  0.74501841  1
  C  C105  1  0.66254316  0.52847022  0.24501841  1
  C  C106  1  0.86598112  0.33676400  0.24538858  1
  C  C107  1  0.48652636  0.14477718  0.24707596  1
  C  C108  1  0.63052693  0.48684990  0.91925161  1
  C  C109  1  0.85858836  0.37156800  0.91991860  1
  C  C110  1  0.51951062  0.15529428  0.91973048  1
  C  C111  1  0.63578467  0.15529428  0.41973048  1
  C  C112  1  0.51298063  0.37156800  0.41991860  1
  C  C113  1  0.85632397  0.48684990  0.41925161  1
  C  C114  1  0.33317293  0.47010164  0.07787368  1
  C  C115  1  0.15136261  0.66826597  0.08181211  1
  C  C116  1  0.54005704  0.86030449  0.07706223  1
  C  C117  1  0.32024645  0.86030449  0.57706223  1
  C  C118  1  0.51690236  0.66826597  0.58181211  1
  C  C119  1  0.13692770  0.47010164  0.57787368  1
  C  C120  1  0.29918499  0.81191755  0.25347842  1
  C  C121  1  0.52113840  0.69869372  0.25278872  1
  C  C122  1  0.18048854  0.47301315  0.25269532  1
  C  C123  1  0.29252361  0.47301315  0.75269532  1
  C  C124  1  0.17755432  0.69869372  0.75278872  1
  C  C125  1  0.51273156  0.81191755  0.75347842  1
