# generated using pymatgen
data_Cu2NiC8
_symmetry_space_group_name_H-M   'P 1'
_cell_length_a   6.74067525
_cell_length_b   6.74052954
_cell_length_c   6.40623000
_cell_angle_alpha   61.62749671
_cell_angle_beta   61.62814807
_cell_angle_gamma   56.75431583
_symmetry_Int_Tables_number   1
_chemical_formula_structural   Cu2NiC8
_chemical_formula_sum   'Cu2 Ni1 C8'
_cell_volume   204.87256646
_cell_formula_units_Z   1
loop_
 _symmetry_equiv_pos_site_id
 _symmetry_equiv_pos_as_xyz
  1  'x, y, z'
loop_
 _atom_site_type_symbol
 _atom_site_label
 _atom_site_symmetry_multiplicity
 _atom_site_fract_x
 _atom_site_fract_y
 _atom_site_fract_z
 _atom_site_occupancy
  C  C0  1  0.80892800  0.80888100  0.69109600  1
  C  C1  1  0.19107000  0.19111900  0.30890500  1
  Ni  Ni2  1  0.50000000  0.50000000  0.00000000  1
  Cu  Cu3  1  0.50000000  0.50000000  0.50000000  1
  Cu  Cu4  1  0.00000000  0.00000000  0.00000000  1
  C  C5  1  0.27155300  0.72844000  0.22847300  1
  C  C6  1  0.24986400  0.24989400  0.75012100  1
  C  C7  1  0.72844800  0.27156000  0.22846600  1
  C  C8  1  0.75013600  0.75010600  0.24987900  1
  C  C9  1  0.72844800  0.27156000  0.77152700  1
  C  C10  1  0.27155300  0.72844000  0.77153300  1
