# generated using pymatgen
data_Cu2Ni2C9
_symmetry_space_group_name_H-M   'P 1'
_cell_length_a   3.39825000
_cell_length_b   3.39649488
_cell_length_c   46.00661632
_cell_angle_alpha   90.01178859
_cell_angle_beta   89.99999502
_cell_angle_gamma   120.01709520
_symmetry_Int_Tables_number   1
_chemical_formula_structural   Cu2Ni2C9
_chemical_formula_sum   'Cu2 Ni2 C9'
_cell_volume   459.79300984
_cell_formula_units_Z   1
loop_
 _symmetry_equiv_pos_site_id
 _symmetry_equiv_pos_as_xyz
  1  'x, y, z'
loop_
 _atom_site_type_symbol
 _atom_site_label
 _atom_site_symmetry_multiplicity
 _atom_site_fract_x
 _atom_site_fract_y
 _atom_site_fract_z
 _atom_site_occupancy
  C  C0  1  0.00007000  0.00014000  0.18166800  1
  C  C1  1  0.33335100  0.66670300  0.33124000  1
  C  C2  1  0.33337700  0.66675500  0.69855000  1
  C  C3  1  0.33319400  0.66638800  0.24892900  1
  C  C4  1  0.33324700  0.66649400  0.61646000  1
  Ni  Ni5  1  0.33341100  0.66682200  0.08498100  1
  Ni  Ni6  1  0.33326500  0.66652900  0.46970600  1
  Cu  Cu7  1  0.66660700  0.33321400  0.29023500  1
  Cu  Cu8  1  0.66665600  0.33331100  0.65751400  1
  C  C9  1  0.66666200  0.33332500  0.04926500  1
  C  C10  1  0.66680800  0.33361500  0.12131900  1
  C  C11  1  0.66661400  0.33322700  0.43707900  1
  C  C12  1  0.66673800  0.33347600  0.50235900  1
