# generated using pymatgen
data_Cu8NiC16
_symmetry_space_group_name_H-M   'P 1'
_cell_length_a   9.79413721
_cell_length_b   10.11170573
_cell_length_c   3.12537400
_cell_angle_alpha   90.00000000
_cell_angle_beta   90.00000000
_cell_angle_gamma   93.65458066
_symmetry_Int_Tables_number   1
_chemical_formula_structural   Cu8NiC16
_chemical_formula_sum   'Cu8 Ni1 C16'
_cell_volume   308.89334181
_cell_formula_units_Z   1
loop_
 _symmetry_equiv_pos_site_id
 _symmetry_equiv_pos_as_xyz
  1  'x, y, z'
loop_
 _atom_site_type_symbol
 _atom_site_label
 _atom_site_symmetry_multiplicity
 _atom_site_fract_x
 _atom_site_fract_y
 _atom_site_fract_z
 _atom_site_occupancy
  Ni  Ni0  1  0.76092300  0.01296100  0.00000000  1
  Cu  Cu1  1  0.12109000  0.98494600  0.00000000  1
  Cu  Cu2  1  0.00741900  0.49667000  0.00000000  1
  Cu  Cu3  1  0.21275800  0.27314200  0.50000000  1
  Cu  Cu4  1  0.23448900  0.72148100  0.50000000  1
  Cu  Cu5  1  0.51183100  0.49821400  0.00000000  1
  Cu  Cu6  1  0.46352900  0.01154000  0.00000000  1
  Cu  Cu7  1  0.74442400  0.30599800  0.50000000  1
  Cu  Cu8  1  0.76183100  0.68891400  0.50000000  1
  C  C9  1  0.09149000  0.40776200  0.50000000  1
  C  C10  1  0.13399300  0.87820100  0.50000000  1
  C  C11  1  0.15303300  0.17151900  0.00000000  1
  C  C12  1  0.16188900  0.63620200  0.00000000  1
  C  C13  1  0.58591000  0.40810600  0.50000000  1
  C  C14  1  0.65056100  0.64200000  0.00000000  1
  C  C15  1  0.84270300  0.35574000  0.00000000  1
  C  C16  1  0.91059400  0.58951100  0.50000000  1
  C  C17  1  0.34382200  0.36298500  0.00000000  1
  C  C18  1  0.37252900  0.82909300  0.00000000  1
  C  C19  1  0.38538700  0.11105900  0.50000000  1
  C  C20  1  0.40555200  0.59336400  0.50000000  1
  C  C21  1  0.61625000  0.94882200  0.50000000  1
  C  C22  1  0.63741000  0.16503100  0.00000000  1
  C  C23  1  0.82721700  0.83677100  0.00000000  1
  C  C24  1  0.84809000  0.09774200  0.50000000  1
