# generated using pymatgen
data_Cu3NiC16
_symmetry_space_group_name_H-M   'P 1'
_cell_length_a   6.48945487
_cell_length_b   6.48945487
_cell_length_c   6.48945487
_cell_angle_alpha   109.45325009
_cell_angle_beta   109.45325009
_cell_angle_gamma   109.45325009
_symmetry_Int_Tables_number   1
_chemical_formula_structural   Cu3NiC16
_chemical_formula_sum   'Cu3 Ni1 C16'
_cell_volume   210.51903838
_cell_formula_units_Z   1
loop_
 _symmetry_equiv_pos_site_id
 _symmetry_equiv_pos_as_xyz
  1  'x, y, z'
loop_
 _atom_site_type_symbol
 _atom_site_label
 _atom_site_symmetry_multiplicity
 _atom_site_fract_x
 _atom_site_fract_y
 _atom_site_fract_z
 _atom_site_occupancy
  Ni  Ni0  1  0.00000000  0.00000000  0.00000000  1
  C  C1  1  0.50000000  0.00000000  0.00000000  1
  C  C2  1  0.00000000  0.50000000  0.00000000  1
  C  C3  1  0.00000000  0.00000000  0.50000000  1
  C  C4  1  0.50000000  0.50000000  0.50000000  1
  Cu  Cu5  1  0.50000000  0.50000000  0.00000000  1
  Cu  Cu6  1  0.50000000  0.00000000  0.50000000  1
  Cu  Cu7  1  0.00000000  0.50000000  0.50000000  1
  C  C8  1  0.82317300  0.29837300  0.12188200  1
  C  C9  1  0.47498000  0.17266900  0.29788200  1
  C  C10  1  0.87811800  0.17682700  0.70162700  1
  C  C11  1  0.70162700  0.87811800  0.17682700  1
  C  C12  1  0.29788200  0.47498000  0.17266900  1
  C  C13  1  0.82733100  0.70211800  0.52502000  1
  C  C14  1  0.17266900  0.29788200  0.47498000  1
  C  C15  1  0.29837300  0.12188200  0.82317300  1
  C  C16  1  0.70211800  0.52502000  0.82733100  1
  C  C17  1  0.12188200  0.82317300  0.29837300  1
  C  C18  1  0.52502000  0.82733100  0.70211800  1
  C  C19  1  0.17682700  0.70162700  0.87811800  1
