# generated using pymatgen
data_Cu(NiC3)3
_symmetry_space_group_name_H-M   'P 1'
_cell_length_a   5.66797784
_cell_length_b   5.65812536
_cell_length_c   6.15881068
_cell_angle_alpha   62.63479771
_cell_angle_beta   62.59438297
_cell_angle_gamma   60.05843541
_symmetry_Int_Tables_number   1
_chemical_formula_structural   Cu(NiC3)3
_chemical_formula_sum   'Cu1 Ni3 C9'
_cell_volume   144.99895600
_cell_formula_units_Z   1
loop_
 _symmetry_equiv_pos_site_id
 _symmetry_equiv_pos_as_xyz
  1  'x, y, z'
loop_
 _atom_site_type_symbol
 _atom_site_label
 _atom_site_symmetry_multiplicity
 _atom_site_fract_x
 _atom_site_fract_y
 _atom_site_fract_z
 _atom_site_occupancy
  C  C0  1  0.85632600  0.85090800  0.44138300  1
  Ni  Ni1  1  0.49460800  0.00542700  0.00483000  1
  Ni  Ni2  1  0.00479000  0.49508800  0.00493900  1
  Ni  Ni3  1  0.49460100  0.49503900  0.00486800  1
  Cu  Cu4  1  0.01189200  0.01255300  0.96292000  1
  C  C5  1  0.24141800  0.24223200  0.81161700  1
  C  C6  1  0.70335800  0.24251800  0.81172900  1
  C  C7  1  0.24145600  0.70475800  0.81160900  1
  C  C8  1  0.72910700  0.72882600  0.81323900  1
  C  C9  1  0.26743300  0.26909100  0.19416100  1
  C  C10  1  0.77152400  0.26804100  0.18845500  1
  C  C11  1  0.26911600  0.77089200  0.18888700  1
  C  C12  1  0.77151600  0.77177000  0.18844400  1
