# generated using pymatgen
data_Cu5NiC12
_symmetry_space_group_name_H-M   'P 1'
_cell_length_a   7.63644263
_cell_length_b   5.01378300
_cell_length_c   5.74615682
_cell_angle_alpha   79.11243235
_cell_angle_beta   111.67572970
_cell_angle_gamma   79.33547409
_symmetry_Int_Tables_number   1
_chemical_formula_structural   Cu5NiC12
_chemical_formula_sum   'Cu5 Ni1 C12'
_cell_volume   192.78260413
_cell_formula_units_Z   1
loop_
 _symmetry_equiv_pos_site_id
 _symmetry_equiv_pos_as_xyz
  1  'x, y, z'
loop_
 _atom_site_type_symbol
 _atom_site_label
 _atom_site_symmetry_multiplicity
 _atom_site_fract_x
 _atom_site_fract_y
 _atom_site_fract_z
 _atom_site_occupancy
  C  C0  1  0.88731272  0.99780865  0.40722332  1
  C  C1  1  0.72737370  0.57350146  0.25296794  1
  Ni  Ni2  1  0.31148028  0.78511780  0.84680697  1
  Cu  Cu3  1  0.99175424  0.01328836  0.98853833  1
  Cu  Cu4  1  0.18898888  0.41297747  0.19257891  1
  Cu  Cu5  1  0.38311090  0.81414585  0.39307777  1
  Cu  Cu6  1  0.57446051  0.20933835  0.61444799  1
  Cu  Cu7  1  0.78762978  0.60970682  0.79838864  1
  C  C8  1  0.24410065  0.07384457  0.05004214  1
  C  C9  1  0.13662148  0.75807022  0.32454952  1
  C  C10  1  0.33372172  0.09795037  0.55370993  1
  C  C11  1  0.43762749  0.52886963  0.24147458  1
  C  C12  1  0.04982731  0.73025384  0.83530976  1
  C  C13  1  0.93199303  0.32377090  0.11815208  1
  C  C14  1  0.50152173  0.55037706  0.72893135  1
  C  C15  1  0.62943408  0.88638463  0.46947158  1
  C  C16  1  0.82643605  0.29126439  0.66250254  1
  C  C17  1  0.76216147  0.90721866  0.96182665  1
