# generated using pymatgen
data_Cu5Ni2
_symmetry_space_group_name_H-M   'P 1'
_cell_length_a   22.23869200
_cell_length_b   6.18549500
_cell_length_c   7.19955112
_cell_angle_alpha   65.48329634
_cell_angle_beta   90.00000000
_cell_angle_gamma   90.00000000
_symmetry_Int_Tables_number   1
_chemical_formula_structural   Cu5Ni2
_chemical_formula_sum   'Cu20 Ni8'
_cell_volume   901.06123436
_cell_formula_units_Z   4
loop_
 _symmetry_equiv_pos_site_id
 _symmetry_equiv_pos_as_xyz
  1  'x, y, z'
loop_
 _atom_site_type_symbol
 _atom_site_label
 _atom_site_symmetry_multiplicity
 _atom_site_fract_x
 _atom_site_fract_y
 _atom_site_fract_z
 _atom_site_occupancy
  Ni  Ni0  1  0.66374300  0.67826200  0.27786200  1
  Ni  Ni1  1  0.16374300  0.82173800  0.72213800  1
  Ni  Ni2  1  0.33625700  0.32173800  0.72213800  1
  Ni  Ni3  1  0.83625700  0.17826200  0.27786200  1
  Ni  Ni4  1  0.55161900  0.30566500  0.28218400  1
  Ni  Ni5  1  0.05161900  0.19433500  0.71781600  1
  Ni  Ni6  1  0.44838100  0.69433500  0.71781600  1
  Ni  Ni7  1  0.94838100  0.80566500  0.28218400  1
  Cu  Cu8  1  0.68604500  0.34134300  0.55712200  1
  Cu  Cu9  1  0.18604500  0.15865700  0.44287800  1
  Cu  Cu10  1  0.31395500  0.65865700  0.44287800  1
  Cu  Cu11  1  0.81395500  0.84134300  0.55712200  1
  Cu  Cu12  1  0.60404100  0.07734700  0.56486700  1
  Cu  Cu13  1  0.10404100  0.42265300  0.43513300  1
  Cu  Cu14  1  0.39595900  0.92265300  0.43513300  1
  Cu  Cu15  1  0.89595900  0.57734700  0.56486700  1
  Cu  Cu16  1  0.60437200  0.34136400  0.00222900  1
  Cu  Cu17  1  0.10437200  0.15863600  0.99777100  1
  Cu  Cu18  1  0.39562800  0.65863600  0.99777100  1
  Cu  Cu19  1  0.89562800  0.84136400  0.00222900  1
  Cu  Cu20  1  0.68556100  0.60600300  0.00168800  1
  Cu  Cu21  1  0.18556100  0.89399700  0.99831200  1
  Cu  Cu22  1  0.31443900  0.39399700  0.99831200  1
  Cu  Cu23  1  0.81443900  0.10600300  0.00168800  1
  Cu  Cu24  1  0.56130400  0.67454800  0.27730300  1
  Cu  Cu25  1  0.06130400  0.82545200  0.72269700  1
  Cu  Cu26  1  0.43869600  0.32545200  0.72269700  1
  Cu  Cu27  1  0.93869600  0.17454800  0.27730300  1
