# generated using pymatgen
data_CuNiC9
_symmetry_space_group_name_H-M   'P 1'
_cell_length_a   5.68717730
_cell_length_b   7.00623407
_cell_length_c   6.45803869
_cell_angle_alpha   125.48499547
_cell_angle_beta   119.15597990
_cell_angle_gamma   85.04302475
_symmetry_Int_Tables_number   1
_chemical_formula_structural   CuNiC9
_chemical_formula_sum   'Cu1 Ni1 C9'
_cell_volume   175.86542574
_cell_formula_units_Z   1
loop_
 _symmetry_equiv_pos_site_id
 _symmetry_equiv_pos_as_xyz
  1  'x, y, z'
loop_
 _atom_site_type_symbol
 _atom_site_label
 _atom_site_symmetry_multiplicity
 _atom_site_fract_x
 _atom_site_fract_y
 _atom_site_fract_z
 _atom_site_occupancy
  C  C0  1  0.74946604  0.40628567  0.60757141  1
  C  C1  1  0.14189463  0.79871425  0.39242859  1
  Ni  Ni2  1  0.40488278  0.85387244  1.00000000  1
  Cu  Cu3  1  0.49070225  0.40043463  0.00000000  1
  C  C4  1  0.95529160  0.03765780  1.00000000  1
  C  C5  1  0.73917500  0.81314654  1.00000000  1
  C  C6  1  0.22971340  0.63966124  1.00000000  1
  C  C7  1  0.88035271  0.33438606  1.00000000  1
  C  C8  1  0.32196325  0.12942934  0.00000000  1
  C  C9  1  0.20923154  0.18832538  0.42305074  1
  C  C10  1  0.78618080  0.76527464  0.57694926  1
