# generated using pymatgen
data_Cu8Ni2C
_symmetry_space_group_name_H-M   'P 1'
_cell_length_a   7.50266133
_cell_length_b   7.43118800
_cell_length_c   8.14033621
_cell_angle_alpha   90.00000000
_cell_angle_beta   91.96038920
_cell_angle_gamma   90.00000000
_symmetry_Int_Tables_number   1
_chemical_formula_structural   Cu8Ni2C
_chemical_formula_sum   'Cu32 Ni8 C4'
_cell_volume   453.58812217
_cell_formula_units_Z   4
loop_
 _symmetry_equiv_pos_site_id
 _symmetry_equiv_pos_as_xyz
  1  'x, y, z'
loop_
 _atom_site_type_symbol
 _atom_site_label
 _atom_site_symmetry_multiplicity
 _atom_site_fract_x
 _atom_site_fract_y
 _atom_site_fract_z
 _atom_site_occupancy
  C  C0  1  0.26141000  0.07112700  0.63550100  1
  C  C1  1  0.73859000  0.57112700  0.86449900  1
  C  C2  1  0.73859000  0.92887300  0.36449900  1
  C  C3  1  0.26141000  0.42887300  0.13550100  1
  Ni  Ni4  1  0.98423800  0.71083000  0.18221800  1
  Ni  Ni5  1  0.01576200  0.21083000  0.31778200  1
  Ni  Ni6  1  0.01576200  0.28917000  0.81778200  1
  Ni  Ni7  1  0.98423800  0.78917000  0.68221800  1
  Ni  Ni8  1  0.50411600  0.73418600  0.10812100  1
  Ni  Ni9  1  0.49588400  0.23418600  0.39187900  1
  Ni  Ni10  1  0.49588400  0.26581400  0.89187900  1
  Ni  Ni11  1  0.50411600  0.76581400  0.60812100  1
  Cu  Cu12  1  0.00346100  0.63637600  0.04818300  1
  Cu  Cu13  1  0.99653900  0.13637600  0.45181700  1
  Cu  Cu14  1  0.99653900  0.36362400  0.95181700  1
  Cu  Cu15  1  0.00346100  0.86362400  0.54818300  1
  Cu  Cu16  1  0.86088600  0.63980000  0.25318500  1
  Cu  Cu17  1  0.13911400  0.13980000  0.24681500  1
  Cu  Cu18  1  0.13911400  0.36020000  0.74681500  1
  Cu  Cu19  1  0.86088600  0.86020000  0.75318500  1
  Cu  Cu20  1  0.12222400  0.69468800  0.26623300  1
  Cu  Cu21  1  0.87777600  0.19468800  0.23376700  1
  Cu  Cu22  1  0.87777600  0.30531200  0.73376700  1
  Cu  Cu23  1  0.12222400  0.80531200  0.76623300  1
  Cu  Cu24  1  0.95956000  0.87040600  0.15235200  1
  Cu  Cu25  1  0.04044000  0.37040600  0.34764800  1
  Cu  Cu26  1  0.04044000  0.12959400  0.84764800  1
  Cu  Cu27  1  0.95956000  0.62959400  0.65235200  1
  Cu  Cu28  1  0.56601800  0.58130700  0.12959200  1
  Cu  Cu29  1  0.43398200  0.08130700  0.37040800  1
  Cu  Cu30  1  0.43398200  0.41869300  0.87040800  1
  Cu  Cu31  1  0.56601800  0.91869300  0.62959200  1
  Cu  Cu32  1  0.37015800  0.73052100  0.01789500  1
  Cu  Cu33  1  0.62984200  0.23052100  0.48210500  1
  Cu  Cu34  1  0.62984200  0.26947900  0.98210500  1
  Cu  Cu35  1  0.37015800  0.76947900  0.51789500  1
  Cu  Cu36  1  0.46248600  0.79188800  0.24189600  1
  Cu  Cu37  1  0.53751400  0.29188800  0.25810400  1
  Cu  Cu38  1  0.53751400  0.20811200  0.75810400  1
  Cu  Cu39  1  0.46248600  0.70811200  0.74189600  1
  Cu  Cu40  1  0.61716800  0.83061000  0.04594400  1
  Cu  Cu41  1  0.38283200  0.33061000  0.45405600  1
  Cu  Cu42  1  0.38283200  0.16939000  0.95405600  1
  Cu  Cu43  1  0.61716800  0.66939000  0.54594400  1
