# generated using pymatgen
data_CuNiC9
_symmetry_space_group_name_H-M   'P 1'
_cell_length_a   6.20734638
_cell_length_b   5.89059335
_cell_length_c   6.20735303
_cell_angle_alpha   61.67409472
_cell_angle_beta   55.61103722
_cell_angle_gamma   61.67420856
_symmetry_Int_Tables_number   1
_chemical_formula_structural   CuNiC9
_chemical_formula_sum   'Cu1 Ni1 C9'
_cell_volume   158.07340570
_cell_formula_units_Z   1
loop_
 _symmetry_equiv_pos_site_id
 _symmetry_equiv_pos_as_xyz
  1  'x, y, z'
loop_
 _atom_site_type_symbol
 _atom_site_label
 _atom_site_symmetry_multiplicity
 _atom_site_fract_x
 _atom_site_fract_y
 _atom_site_fract_z
 _atom_site_occupancy
  C  C0  1  0.19547100  0.30452900  0.19547100  1
  C  C1  1  0.80452900  0.69547100  0.80452900  1
  C  C2  1  0.50000000  0.00000000  0.50000000  1
  Ni  Ni3  1  0.00000000  0.00000000  0.00000000  1
  Cu  Cu4  1  0.50000000  0.50000000  0.50000000  1
  C  C5  1  0.74738700  0.23118500  0.25261300  1
  C  C6  1  0.75152900  0.24847100  0.75152900  1
  C  C7  1  0.74738300  0.76881800  0.25261700  1
  C  C8  1  0.25261300  0.76881500  0.74738700  1
  C  C9  1  0.24847100  0.75152900  0.24847100  1
  C  C10  1  0.25261700  0.23118200  0.74738300  1
