# generated using pymatgen
data_Cu2NiC14
_symmetry_space_group_name_H-M   'P 1'
_cell_length_a   8.67546427
_cell_length_b   8.68025117
_cell_length_c   22.45163614
_cell_angle_alpha   90.00340728
_cell_angle_beta   89.98866638
_cell_angle_gamma   119.95253172
_symmetry_Int_Tables_number   1
_chemical_formula_structural   Cu2NiC14
_chemical_formula_sum   'Cu12 Ni6 C84'
_cell_volume   1464.91076192
_cell_formula_units_Z   6
loop_
 _symmetry_equiv_pos_site_id
 _symmetry_equiv_pos_as_xyz
  1  'x, y, z'
loop_
 _atom_site_type_symbol
 _atom_site_label
 _atom_site_symmetry_multiplicity
 _atom_site_fract_x
 _atom_site_fract_y
 _atom_site_fract_z
 _atom_site_occupancy
  C  C0  1  0.99848541  0.00413859  0.35531652  1
  C  C1  1  0.98971730  0.00786726  0.64381931  1
  C  C2  1  0.01777567  0.00576573  0.14475492  1
  C  C3  1  0.66355106  0.33480100  0.68826116  1
  C  C4  1  0.68364210  0.34016434  0.47753464  1
  C  C5  1  0.32342332  0.67340068  0.31071709  1
  Ni  Ni6  1  0.00121988  0.99872269  0.85337804  1
  Ni  Ni7  1  0.66924528  0.33655946  0.18874875  1
  Ni  Ni8  1  0.66016861  0.33628221  0.97917964  1
  Ni  Ni9  1  0.33367717  0.66867064  0.02115531  1
  Ni  Ni10  1  0.33587336  0.66823395  0.52101370  1
  Ni  Ni11  1  0.34264643  0.67077318  0.81114186  1
  Cu  Cu12  1  0.28606882  0.00134708  0.25116203  1
  Cu  Cu13  1  0.00307327  0.28688632  0.25003243  1
  Cu  Cu14  1  0.28817037  0.28712818  0.74846566  1
  Cu  Cu15  1  0.71273838  0.00518141  0.74898207  1
  Cu  Cu16  1  0.95249400  0.33502428  0.58428094  1
  Cu  Cu17  1  0.66983241  0.62031975  0.58349620  1
  Cu  Cu18  1  0.95669119  0.62579705  0.08367465  1
  Cu  Cu19  1  0.37609745  0.33440749  0.08418327  1
  Cu  Cu20  1  0.62482002  0.66852617  0.91683078  1
  Cu  Cu21  1  0.33361298  0.95682591  0.91659307  1
  Cu  Cu22  1  0.62187205  0.95647344  0.41547664  1
  Cu  Cu23  1  0.04505409  0.67060267  0.41600053  1
  C  C24  1  0.71173189  0.71628891  0.25031392  1
  C  C25  1  0.99852803  0.70935160  0.74782434  1
  C  C26  1  0.37817301  0.04900819  0.58342545  1
  C  C27  1  0.67154643  0.04314285  0.08373900  1
  C  C28  1  0.04147399  0.37568759  0.91637728  1
  C  C29  1  0.33511363  0.37661818  0.41519471  1
  C  C30  1  0.19582436  0.02788694  0.30534407  1
  C  C31  1  0.82463704  0.79439171  0.30365071  1
  C  C32  1  0.97203733  0.16769220  0.30532441  1
  C  C33  1  0.21331450  0.17473277  0.80548638  1
  C  C34  1  0.96264480  0.78027785  0.80344234  1
  C  C35  1  0.82645787  0.03931414  0.80529377  1
  C  C36  1  0.80315605  0.97079035  0.69468291  1
  C  C37  1  0.16739890  0.19464579  0.69432078  1
  C  C38  1  0.03144075  0.82367138  0.69634898  1
  C  C39  1  0.79176766  0.82396110  0.19652210  1
  C  C40  1  0.02951195  0.19685555  0.19465346  1
  C  C41  1  0.16910392  0.96728407  0.19484509  1
  C  C42  1  0.86252942  0.36130042  0.63863037  1
  C  C43  1  0.49126502  0.12747380  0.63695564  1
  C  C44  1  0.63885266  0.50083623  0.63866707  1
  C  C45  1  0.87762719  0.50744575  0.13899410  1
  C  C46  1  0.63107449  0.11837357  0.13680287  1
  C  C47  1  0.49141798  0.36874607  0.13961397  1
  C  C48  1  0.44878278  0.29046381  0.02846399  1
  C  C49  1  0.84202911  0.54500270  0.02750289  1
  C  C50  1  0.70431213  0.15369923  0.02945646  1
  C  C51  1  0.45901524  0.15759361  0.52982509  1
  C  C52  1  0.69628171  0.52973101  0.52789201  1
  C  C53  1  0.83502639  0.30082836  0.52796388  1
  C  C54  1  0.54440049  0.70332302  0.97283222  1
  C  C55  1  0.15197536  0.45060549  0.97024416  1
  C  C56  1  0.29631525  0.84074714  0.97248073  1
  C  C57  1  0.54692709  0.84152694  0.47189463  1
  C  C58  1  0.29508603  0.44803921  0.47002219  1
  C  C59  1  0.15850864  0.70393472  0.47208164  1
  C  C60  1  0.13245990  0.63403772  0.36150537  1
  C  C61  1  0.50084036  0.86380119  0.36117695  1
  C  C62  1  0.36534073  0.49061908  0.36316903  1
  C  C63  1  0.11707334  0.48652152  0.86263318  1
  C  C64  1  0.36696540  0.87565289  0.86044654  1
  C  C65  1  0.50717930  0.62780921  0.86131228  1
  C  C66  1  0.02189207  0.83112825  0.40419480  1
  C  C67  1  0.80726357  0.97700340  0.40419284  1
  C  C68  1  0.17480403  0.19871640  0.40722277  1
  C  C69  1  0.02496549  0.19957827  0.91027763  1
  C  C70  1  0.16850397  0.97609191  0.90947977  1
  C  C71  1  0.80810862  0.83417291  0.90918781  1
  C  C72  1  0.97296083  0.16848069  0.59318857  1
  C  C73  1  0.20022929  0.02637383  0.59271621  1
  C  C74  1  0.83492512  0.80488076  0.59482516  1
  C  C75  1  0.97344668  0.80905351  0.09482812  1
  C  C76  1  0.82710153  0.02415297  0.09235169  1
  C  C77  1  0.19073114  0.16794901  0.09409666  1
  C  C78  1  0.69251604  0.16804046  0.73742717  1
  C  C79  1  0.47376590  0.30823266  0.73761889  1
  C  C80  1  0.84073700  0.53168255  0.74081821  1
  C  C81  1  0.69392884  0.53679997  0.24461696  1
  C  C82  1  0.83762725  0.30693734  0.24300060  1
  C  C83  1  0.47121886  0.16288969  0.24235837  1
  C  C84  1  0.64427120  0.50345039  0.92291052  1
  C  C85  1  0.86472493  0.35729166  0.92371761  1
  C  C86  1  0.50161667  0.13908883  0.92409103  1
  C  C87  1  0.64050145  0.14068496  0.42713682  1
  C  C88  1  0.49186678  0.35690176  0.42522290  1
  C  C89  1  0.86024215  0.50235645  0.42606827  1
  C  C90  1  0.35423854  0.49684732  0.07585801  1
  C  C91  1  0.14083219  0.64472657  0.07596490  1
  C  C92  1  0.50952294  0.86736076  0.07719200  1
  C  C93  1  0.36065016  0.86968222  0.57762748  1
  C  C94  1  0.50442594  0.64042212  0.57626067  1
  C  C95  1  0.13789781  0.49670200  0.57563692  1
  C  C96  1  0.30628841  0.83462539  0.26008085  1
  C  C97  1  0.53315865  0.69299263  0.25939533  1
  C  C98  1  0.16813387  0.47184396  0.26157113  1
  C  C99  1  0.30447883  0.47064233  0.75637809  1
  C  C100  1  0.15793639  0.69049660  0.75635393  1
  C  C101  1  0.52938810  0.83810606  0.75457513  1
