# generated using pymatgen
data_CuNi2C17
_symmetry_space_group_name_H-M   'P 1'
_cell_length_a   9.22394471
_cell_length_b   9.20662562
_cell_length_c   22.94856383
_cell_angle_alpha   90.12315715
_cell_angle_beta   89.99100443
_cell_angle_gamma   120.00345150
_symmetry_Int_Tables_number   1
_chemical_formula_structural   CuNi2C17
_chemical_formula_sum   'Cu6 Ni12 C102'
_cell_volume   1687.66780282
_cell_formula_units_Z   6
loop_
 _symmetry_equiv_pos_site_id
 _symmetry_equiv_pos_as_xyz
  1  'x, y, z'
loop_
 _atom_site_type_symbol
 _atom_site_label
 _atom_site_symmetry_multiplicity
 _atom_site_fract_x
 _atom_site_fract_y
 _atom_site_fract_z
 _atom_site_occupancy
  C  C0  1  0.99247644  0.34927715  0.75840313  1
  C  C1  1  0.39662969  0.01908331  0.74960240  1
  C  C2  1  0.33512694  0.33945464  0.58615113  1
  C  C3  1  0.02456509  0.70411397  0.57061448  1
  C  C4  1  0.65102626  0.96843477  0.59186065  1
  C  C5  1  0.32794666  0.98545183  0.08320389  1
  C  C6  1  0.65310092  0.66978395  0.08709591  1
  C  C7  1  0.01958924  0.34335018  0.08451171  1
  C  C8  1  0.32789667  0.29362843  0.92568857  1
  C  C9  1  0.96661307  0.29011471  0.41119721  1
  C  C10  1  0.32042303  0.02791699  0.41445204  1
  C  C11  1  0.71071544  0.68060409  0.41529028  1
  C  C12  1  0.00017308  0.99464040  0.49155392  1
  C  C13  1  0.00010182  0.99282715  0.99872428  1
  C  C14  1  0.65973155  0.31235201  0.83509581  1
  C  C15  1  0.66893175  0.33368784  0.32677215  1
  C  C16  1  0.33512656  0.66629097  0.16443598  1
  C  C17  1  0.38302715  0.67338009  0.67130238  1
  C  C18  1  -0.00007662  0.99846383  0.35000806  1
  C  C19  1  0.65574242  0.33423955  0.68781841  1
  C  C20  1  0.66522760  0.32964217  0.17959109  1
  C  C21  1  0.00223962  0.01445915  0.85547242  1
  C  C22  1  0.99717602  0.00144092  0.64937688  1
  C  C23  1  0.00195652  0.00038505  0.14580870  1
  C  C24  1  0.67288192  0.32159182  0.98294481  1
  C  C25  1  0.65419563  0.33708773  0.47908427  1
  C  C26  1  0.32322135  0.66962656  0.01584497  1
  C  C27  1  0.34137804  0.67512860  0.51625875  1
  C  C28  1  0.33227085  0.66715513  0.31748919  1
  C  C29  1  0.33710344  0.67258465  0.81496844  1
  Ni  Ni30  1  0.29002450  0.29944706  0.75165146  1
  Ni  Ni31  1  0.70447334  0.99127726  0.75091154  1
  Ni  Ni32  1  0.36591441  0.03128604  0.58542662  1
  Ni  Ni33  1  0.66755396  0.63649524  0.58189207  1
  Ni  Ni34  1  0.96035384  0.62543566  0.08299544  1
  Ni  Ni35  1  0.66148735  0.02872257  0.08406150  1
  Ni  Ni36  1  0.37187929  0.33752712  0.08066421  1
  Ni  Ni37  1  0.03259847  0.37771613  0.91385988  1
  Ni  Ni38  1  0.33657066  0.96814846  0.91485329  1
  Ni  Ni39  1  0.62166015  0.96569407  0.41683476  1
  Ni  Ni40  1  0.33788086  0.37951526  0.41827589  1
  Ni  Ni41  1  0.03521409  0.65396864  0.41826109  1
  Cu  Cu42  1  0.29795903  0.99066070  0.25107634  1
  Cu  Cu43  1  0.69287093  0.70271104  0.25090193  1
  Cu  Cu44  1  0.01008717  0.30644088  0.25129193  1
  Cu  Cu45  1  0.00866347  0.71649202  0.75189599  1
  Cu  Cu46  1  0.96224333  0.32978937  0.58346616  1
  Cu  Cu47  1  0.62515908  0.66524031  0.91621685  1
  C  C48  1  0.21664754  -0.00471548  0.30574397  1
  C  C49  1  0.77892073  0.78443556  0.30564426  1
  C  C50  1  0.00506026  0.22010686  0.30584962  1
  C  C51  1  0.17972735  0.18335814  0.80732941  1
  C  C52  1  0.99550889  0.80232203  0.80290586  1
  C  C53  1  0.81773409  0.98858491  0.80497370  1
  C  C54  1  0.79318985  0.97891484  0.68895824  1
  C  C55  1  0.17451066  0.20018875  0.69284088  1
  C  C56  1  0.02038363  0.81513757  0.69691839  1
  C  C57  1  0.79191442  0.80884604  0.19961899  1
  C  C58  1  0.01803110  0.20818739  0.19993947  1
  C  C59  1  0.19231268  0.98403718  0.19961305  1
  C  C60  1  0.89482061  0.35983122  0.63730635  1
  C  C61  1  0.48242689  0.09292318  0.64273855  1
  C  C62  1  0.62313494  0.51193668  0.63565887  1
  C  C63  1  0.90745876  0.50137833  0.13713548  1
  C  C64  1  0.58864094  0.08414840  0.13690606  1
  C  C65  1  0.49869338  0.40116739  0.13427496  1
  C  C66  1  0.45120542  0.29217840  0.02300005  1
  C  C67  1  0.82804768  0.53841996  0.02805245  1
  C  C68  1  0.71023827  0.16375749  0.02921276  1
  C  C69  1  0.46481192  0.16018880  0.52980748  1
  C  C70  1  0.70121793  0.54959847  0.52346485  1
  C  C71  1  0.85875935  0.31131081  0.53218656  1
  C  C72  1  0.54856366  0.68586063  0.96926545  1
  C  C73  1  0.15863967  0.46838771  0.96877056  1
  C  C74  1  0.32625928  0.85985161  0.97238808  1
  C  C75  1  0.52937441  0.85361928  0.47530017  1
  C  C76  1  0.32055066  0.46711078  0.47826684  1
  C  C77  1  0.14218365  0.66979436  0.47765026  1
  C  C78  1  0.13484131  0.63325273  0.36168555  1
  C  C79  1  0.49770350  0.86772334  0.36099814  1
  C  C80  1  0.36478898  0.50326088  0.36247599  1
  C  C81  1  0.12933210  0.48730939  0.85491088  1
  C  C82  1  0.35429109  0.87233621  0.85636504  1
  C  C83  1  0.51745943  0.65083943  0.86438662  1
  C  C84  1  0.01326783  0.81758216  0.41553256  1
  C  C85  1  0.80590420  0.98566573  0.41485315  1
  C  C86  1  0.17864144  0.19235878  0.41476690  1
  C  C87  1  0.01412465  0.18793231  0.91164770  1
  C  C88  1  0.16580168  0.98511272  0.91161309  1
  C  C89  1  0.79703118  0.81028960  0.91052965  1
  C  C90  1  0.97402424  0.17325741  0.58669698  1
  C  C91  1  0.18290541  0.02491537  0.59025765  1
  C  C92  1  0.84040943  0.82220979  0.58759004  1
  C  C93  1  0.97317664  0.81167487  0.09461012  1
  C  C94  1  0.83918944  0.02621803  0.09615638  1
  C  C95  1  0.18672627  0.16131734  0.09385455  1
  C  C96  1  0.70322806  0.16682511  0.75347561  1
  C  C97  1  0.46600620  0.30343647  0.75462648  1
  C  C98  1  0.87382781  0.54507308  0.74810848  1
  C  C99  1  0.67163685  0.53441516  0.24826187  1
  C  C100  1  0.86276684  0.32736604  0.24892992  1
  C  C101  1  0.46593216  0.13747258  0.24873523  1
  C  C102  1  0.62949099  0.50568292  0.91795988  1
  C  C103  1  0.84872827  0.36066762  0.92076115  1
  C  C104  1  0.49919725  0.15985780  0.91919321  1
  C  C105  1  0.63217187  0.14762790  0.42296874  1
  C  C106  1  0.51181879  0.36955530  0.42093252  1
  C  C107  1  0.85415289  0.47943917  0.42250949  1
  C  C108  1  0.32646524  0.48668410  0.06858072  1
  C  C109  1  0.15666417  0.67468122  0.06967821  1
  C  C110  1  0.52005962  0.83418360  0.06832352  1
  C  C111  1  0.32405023  0.83559122  0.57534803  1
  C  C112  1  0.50359697  0.66587265  0.57728122  1
  C  C113  1  0.13990534  0.47661757  0.57722644  1
  C  C114  1  0.30489758  0.82949572  0.24916081  1
  C  C115  1  0.52491256  0.69541183  0.24923965  1
  C  C116  1  0.17016925  0.47523857  0.24976216  1
  C  C117  1  0.29600077  0.48226819  0.75374012  1
  C  C118  1  0.17425090  0.71623962  0.75185572  1
  C  C119  1  0.51100384  0.83007370  0.75419536  1
