# generated using pymatgen
data_Cu5NiC3
_symmetry_space_group_name_H-M   'P 1'
_cell_length_a   3.72633800
_cell_length_b   10.41676800
_cell_length_c   11.91026300
_cell_angle_alpha   90.00000000
_cell_angle_beta   90.00000000
_cell_angle_gamma   90.00000000
_symmetry_Int_Tables_number   1
_chemical_formula_structural   Cu5NiC3
_chemical_formula_sum   'Cu20 Ni4 C12'
_cell_volume   462.31351408
_cell_formula_units_Z   4
loop_
 _symmetry_equiv_pos_site_id
 _symmetry_equiv_pos_as_xyz
  1  'x, y, z'
loop_
 _atom_site_type_symbol
 _atom_site_label
 _atom_site_symmetry_multiplicity
 _atom_site_fract_x
 _atom_site_fract_y
 _atom_site_fract_z
 _atom_site_occupancy
  Ni  Ni0  1  0.75000000  0.41919800  0.29671800  1
  Ni  Ni1  1  0.25000000  0.58080200  0.70328200  1
  Ni  Ni2  1  0.25000000  0.91919800  0.20328200  1
  Ni  Ni3  1  0.75000000  0.08080200  0.79671800  1
  Cu  Cu4  1  0.75000000  0.37918200  0.80046800  1
  Cu  Cu5  1  0.75000000  0.29428900  0.01144700  1
  Cu  Cu6  1  0.75000000  0.59651500  0.51078900  1
  Cu  Cu7  1  0.25000000  0.70571100  0.98855300  1
  Cu  Cu8  1  0.25000000  0.22203700  0.17406400  1
  Cu  Cu9  1  0.25000000  0.62081800  0.19953200  1
  Cu  Cu10  1  0.25000000  0.09651500  0.98921100  1
  Cu  Cu11  1  0.25000000  0.27796300  0.67406400  1
  Cu  Cu12  1  0.25000000  0.87918200  0.69953200  1
  Cu  Cu13  1  0.75000000  0.90348500  0.01078900  1
  Cu  Cu14  1  0.25000000  0.40348500  0.48921100  1
  Cu  Cu15  1  0.75000000  0.96579000  0.56670000  1
  Cu  Cu16  1  0.75000000  0.53421000  0.06670000  1
  Cu  Cu17  1  0.25000000  0.79428900  0.48855300  1
  Cu  Cu18  1  0.75000000  0.77796300  0.82593600  1
  Cu  Cu19  1  0.75000000  0.12081800  0.30046800  1
  Cu  Cu20  1  0.25000000  0.46579000  0.93330000  1
  Cu  Cu21  1  0.75000000  0.72203700  0.32593600  1
  Cu  Cu22  1  0.75000000  0.20571100  0.51144700  1
  Cu  Cu23  1  0.25000000  0.03421000  0.43330000  1
  C  C24  1  0.25000000  0.07742700  0.60948800  1
  C  C25  1  0.75000000  0.72562000  0.13103300  1
  C  C26  1  0.75000000  0.92257300  0.39051200  1
  C  C27  1  0.25000000  0.42257300  0.10948800  1
  C  C28  1  0.75000000  0.57742700  0.89051200  1
  C  C29  1  0.25000000  0.22562000  0.36896700  1
  C  C30  1  0.25000000  0.89248900  0.89637000  1
  C  C31  1  0.25000000  0.60751100  0.39637000  1
  C  C32  1  0.25000000  0.27438000  0.86896700  1
  C  C33  1  0.75000000  0.39248900  0.60363000  1
  C  C34  1  0.75000000  0.10751100  0.10363000  1
  C  C35  1  0.75000000  0.77438000  0.63103300  1
