# generated using pymatgen
data_Cu5(NiC15)2
_symmetry_space_group_name_H-M   'P 1'
_cell_length_a   8.71561656
_cell_length_b   8.68830378
_cell_length_c   22.41834611
_cell_angle_alpha   90.13094210
_cell_angle_beta   89.86904154
_cell_angle_gamma   120.18391742
_symmetry_Int_Tables_number   1
_chemical_formula_structural   Cu5(NiC15)2
_chemical_formula_sum   'Cu15 Ni6 C90'
_cell_volume   1467.43188424
_cell_formula_units_Z   3
loop_
 _symmetry_equiv_pos_site_id
 _symmetry_equiv_pos_as_xyz
  1  'x, y, z'
loop_
 _atom_site_type_symbol
 _atom_site_label
 _atom_site_symmetry_multiplicity
 _atom_site_fract_x
 _atom_site_fract_y
 _atom_site_fract_z
 _atom_site_occupancy
  C  C0  1  -0.00003067  0.36269597  0.75185123  1
  C  C1  1  0.66754213  0.97382356  0.58352991  1
  C  C2  1  0.02795009  0.33407167  0.08347620  1
  C  C3  1  0.00806315  0.99471457  0.50422234  1
  C  C4  1  0.00594832  0.99342425  0.00362223  1
  C  C5  1  0.65641899  0.32701263  0.83360483  1
  C  C6  1  0.67779286  0.33726072  0.33274778  1
  C  C7  1  0.34411661  0.67226549  0.16749497  1
  C  C8  1  0.33366458  0.66698097  0.66649774  1
  C  C9  1  0.98665040  0.99149652  0.35665039  1
  C  C10  1  0.00628887  0.00317810  0.85642709  1
  C  C11  1  0.66215372  0.33521468  0.68389729  1
  C  C12  1  0.67001734  0.33698652  0.18485639  1
  C  C13  1  0.66613222  0.32886731  0.98025766  1
  C  C14  1  0.67328919  0.33441252  0.47988227  1
  Ni  Ni15  1  0.00342513  0.99814199  0.64938480  1
  Ni  Ni16  1  0.99026049  0.99775592  0.14834878  1
  Ni  Ni17  1  0.32956019  0.66964601  0.01988689  1
  Ni  Ni18  1  0.32907695  0.67029039  0.51972609  1
  Ni  Ni19  1  0.33188880  0.66472622  0.31255482  1
  Ni  Ni20  1  0.33231629  0.67479021  0.81167293  1
  Cu  Cu21  1  0.70047884  0.71487939  0.24836588  1
  Cu  Cu22  1  0.01311316  0.29705626  0.24869552  1
  Cu  Cu23  1  0.28721609  0.29596143  0.74901441  1
  Cu  Cu24  1  0.01039866  0.71795757  0.74865912  1
  Cu  Cu25  1  0.70333721  0.98617573  0.74858534  1
  Cu  Cu26  1  0.97747360  0.33592691  0.58418613  1
  Cu  Cu27  1  0.35751160  0.02932354  0.58227588  1
  Cu  Cu28  1  0.66592520  0.63817644  0.58207385  1
  Cu  Cu29  1  0.97160026  0.64364645  0.08272476  1
  Cu  Cu30  1  0.66219910  0.02374147  0.08349172  1
  Cu  Cu31  1  0.36268630  0.33270834  0.08321979  1
  Cu  Cu32  1  0.05926126  0.39520914  0.91655067  1
  Cu  Cu33  1  0.33439846  0.93937790  0.91679390  1
  Cu  Cu34  1  0.60140402  0.93873940  0.41680253  1
  Cu  Cu35  1  0.06270838  0.66652299  0.41568396  1
  C  C36  1  0.28324240  0.99036005  0.24935635  1
  C  C37  1  0.60567679  0.66501652  0.91661359  1
  C  C38  1  0.33513527  0.39200917  0.41645306  1
  C  C39  1  0.20769561  0.02138514  0.30396564  1
  C  C40  1  0.81614866  0.79144716  0.30517844  1
  C  C41  1  0.98241566  0.18005948  0.30424533  1
  C  C42  1  0.20821891  0.18309159  0.80585483  1
  C  C43  1  0.97442721  0.79315744  0.80562021  1
  C  C44  1  0.82519274  0.02818540  0.80355429  1
  C  C45  1  0.79264903  0.96645814  0.69176643  1
  C  C46  1  0.16532373  0.20431660  0.69523218  1
  C  C47  1  0.03148097  0.83148960  0.69408009  1
  C  C48  1  0.79754614  0.83125622  0.19422004  1
  C  C49  1  0.03326980  0.20664412  0.19196192  1
  C  C50  1  0.17530478  0.96963084  0.19619531  1
  C  C51  1  0.89316362  0.37057197  0.64024854  1
  C  C52  1  0.48708974  0.11395620  0.63626244  1
  C  C53  1  0.62987214  0.51656582  0.63693317  1
  C  C54  1  0.88606109  0.51257820  0.13633878  1
  C  C55  1  0.62817000  0.11194712  0.13798631  1
  C  C56  1  0.48447737  0.36794380  0.13759718  1
  C  C57  1  0.44997891  0.29830643  0.02835423  1
  C  C58  1  0.84912910  0.55448292  0.02815019  1
  C  C59  1  0.70775617  0.15479590  0.02964791  1
  C  C60  1  0.44888461  0.15186119  0.52785446  1
  C  C61  1  0.70022261  0.54985462  0.52774911  1
  C  C62  1  0.84428810  0.29295359  0.53123667  1
  C  C63  1  0.52519392  0.68454588  0.97137574  1
  C  C64  1  0.16387742  0.47775655  0.97410664  1
  C  C65  1  0.31635272  0.83541290  0.97348001  1
  C  C66  1  0.52322089  0.83677589  0.47526919  1
  C  C67  1  0.31391603  0.47306505  0.47125773  1
  C  C68  1  0.16552630  0.68500742  0.47287022  1
  C  C69  1  0.14449322  0.64217913  0.35873481  1
  C  C70  1  0.49760722  0.84995855  0.36042560  1
  C  C71  1  0.35561672  0.49138916  0.36164026  1
  C  C72  1  0.14466201  0.49676983  0.85846185  1
  C  C73  1  0.35782339  0.85772794  0.85947089  1
  C  C74  1  0.50623858  0.64506021  0.86163574  1
  C  C75  1  0.04205362  0.83467929  0.41263946  1
  C  C76  1  0.79342530  0.96590105  0.41455375  1
  C  C77  1  0.17587935  0.20991193  0.41342760  1
  C  C78  1  0.03233114  0.20380375  0.91427553  1
  C  C79  1  0.16721202  0.96058651  0.91438553  1
  C  C80  1  0.78723653  0.82521051  0.91397289  1
  C  C81  1  0.98328153  0.16323324  0.59308025  1
  C  C82  1  0.17878585  0.01458090  0.59350130  1
  C  C83  1  0.83104024  0.82244622  0.59222061  1
  C  C84  1  0.98809906  0.82368502  0.09507865  1
  C  C85  1  0.83453150  0.01751480  0.09271816  1
  C  C86  1  0.17718246  0.16779760  0.09324993  1
  C  C87  1  0.68916179  0.15859982  0.74309861  1
  C  C88  1  0.47322181  0.31673510  0.74374811  1
  C  C89  1  0.84652797  0.52498238  0.74348164  1
  C  C90  1  0.67912673  0.52643836  0.24314149  1
  C  C91  1  0.84372998  0.31406537  0.24387549  1
  C  C92  1  0.46423653  0.15082451  0.24441942  1
  C  C93  1  0.62787871  0.50531319  0.91990865  1
  C  C94  1  0.87069587  0.37419620  0.92023270  1
  C  C95  1  0.49937430  0.13160374  0.92057962  1
  C  C96  1  0.62593034  0.12911998  0.42012527  1
  C  C97  1  0.49487983  0.37123520  0.42023437  1
  C  C98  1  0.87042904  0.50154002  0.42016692  1
  C  C99  1  0.34082507  0.49679492  0.07362583  1
  C  C100  1  0.15100207  0.65146557  0.07403206  1
  C  C101  1  0.49989783  0.84237376  0.07228952  1
  C  C102  1  0.34873146  0.84859883  0.57392519  1
  C  C103  1  0.50195233  0.65905082  0.57319562  1
  C  C104  1  0.15713335  0.49959341  0.57233834  1
  C  C105  1  0.30192311  0.83088898  0.25544546  1
  C  C106  1  0.51812751  0.69826530  0.25768754  1
  C  C107  1  0.17797426  0.48234790  0.25738465  1
  C  C108  1  0.30263511  0.47978006  0.75751413  1
  C  C109  1  0.17277610  0.69188148  0.75593512  1
  C  C110  1  0.51981691  0.82248732  0.75807510  1
