# generated using pymatgen
data_Cu5(Ni6C23)2
_symmetry_space_group_name_H-M   'P 1'
_cell_length_a   9.42063671
_cell_length_b   9.42063637
_cell_length_c   22.88867273
_cell_angle_alpha   90.00000000
_cell_angle_beta   90.00000000
_cell_angle_gamma   120.00000124
_symmetry_Int_Tables_number   1
_chemical_formula_structural   Cu5(Ni6C23)2
_chemical_formula_sum   'Cu10 Ni24 C92'
_cell_volume   1759.18588809
_cell_formula_units_Z   2
loop_
 _symmetry_equiv_pos_site_id
 _symmetry_equiv_pos_as_xyz
  1  'x, y, z'
loop_
 _atom_site_type_symbol
 _atom_site_label
 _atom_site_symmetry_multiplicity
 _atom_site_fract_x
 _atom_site_fract_y
 _atom_site_fract_z
 _atom_site_occupancy
  Ni  Ni0  1  0.63466254  0.00001612  0.25036909  1
  Ni  Ni1  1  0.36535358  0.36533746  0.25036909  1
  Ni  Ni2  1  0.99998388  0.63464642  0.25036909  1
  Ni  Ni3  1  0.63466254  0.63464642  0.75036909  1
  Ni  Ni4  1  0.99998388  0.36533746  0.75036909  1
  Ni  Ni5  1  0.36535358  0.00001612  0.75036909  1
  Ni  Ni6  1  0.29515819  0.33688217  0.58679904  1
  Ni  Ni7  1  0.04172498  0.70484181  0.58679904  1
  Ni  Ni8  1  0.66311783  0.95827502  0.58679904  1
  Ni  Ni9  1  0.29515819  0.95827502  0.08679904  1
  Ni  Ni10  1  0.66311783  0.70484181  0.08679904  1
  Ni  Ni11  1  0.04172498  0.33688217  0.08679904  1
  Ni  Ni12  1  0.98378073  0.67945578  0.90591731  1
  Ni  Ni13  1  0.69567405  0.01621927  0.90591731  1
  Ni  Ni14  1  0.32054422  0.30432595  0.90591731  1
  Ni  Ni15  1  0.98378073  0.30432595  0.40591731  1
  Ni  Ni16  1  0.32054422  0.01621927  0.40591731  1
  Ni  Ni17  1  0.69567405  0.67945578  0.40591731  1
  Ni  Ni18  1  0.00000000  0.00000000  0.49919764  1
  Ni  Ni19  1  0.00000000  0.00000000  0.99919764  1
  Ni  Ni20  1  0.66666700  0.33333300  0.82066599  1
  Ni  Ni21  1  0.66666700  0.33333300  0.32066599  1
  Ni  Ni22  1  0.33333300  0.66666700  0.17652129  1
  Ni  Ni23  1  0.33333300  0.66666700  0.67652129  1
  Cu  Cu24  1  0.00000000  0.00000000  0.34564513  1
  Cu  Cu25  1  0.00000000  0.00000000  0.84564513  1
  Cu  Cu26  1  0.00000000  0.00000000  0.65075412  1
  Cu  Cu27  1  0.00000000  0.00000000  0.15075412  1
  Cu  Cu28  1  0.66666700  0.33333300  0.68262575  1
  Cu  Cu29  1  0.66666700  0.33333300  0.18262575  1
  Cu  Cu30  1  0.33333300  0.66666700  0.01340610  1
  Cu  Cu31  1  0.33333300  0.66666700  0.51340610  1
  Cu  Cu32  1  0.33333300  0.66666700  0.32206123  1
  Cu  Cu33  1  0.33333300  0.66666700  0.82206123  1
  C  C34  1  0.66666700  0.33333300  0.98417207  1
  C  C35  1  0.66666700  0.33333300  0.48417207  1
  C  C36  1  0.30592499  0.99648336  0.25005780  1
  C  C37  1  0.69055836  0.69407501  0.25005780  1
  C  C38  1  0.00351664  0.30944164  0.25005780  1
  C  C39  1  0.30592499  0.30944164  0.75005780  1
  C  C40  1  0.00351664  0.69407501  0.75005780  1
  C  C41  1  0.69055836  0.99648336  0.75005780  1
  C  C42  1  0.96103689  0.33237950  0.58225817  1
  C  C43  1  0.37134361  0.03896311  0.58225817  1
  C  C44  1  0.66762050  0.62865639  0.58225817  1
  C  C45  1  0.96103689  0.62865639  0.08225817  1
  C  C46  1  0.66762050  0.03896311  0.08225817  1
  C  C47  1  0.37134361  0.33237950  0.08225817  1
  C  C48  1  0.64173696  0.65901312  0.92050394  1
  C  C49  1  0.01727516  0.35826304  0.92050394  1
  C  C50  1  0.34098688  0.98272484  0.92050394  1
  C  C51  1  0.64173696  0.98272484  0.42050394  1
  C  C52  1  0.34098688  0.35826304  0.42050394  1
  C  C53  1  0.01727516  0.65901312  0.42050394  1
  C  C54  1  0.22022655  0.00925547  0.30578695  1
  C  C55  1  0.78902892  0.77977345  0.30578695  1
  C  C56  1  0.99074453  0.21097108  0.30578695  1
  C  C57  1  0.22022655  0.21097108  0.80578695  1
  C  C58  1  0.99074453  0.77977345  0.80578695  1
  C  C59  1  0.78902892  0.00925547  0.80578695  1
  C  C60  1  0.77655373  0.98233447  0.69430305  1
  C  C61  1  0.20578074  0.22344627  0.69430305  1
  C  C62  1  0.01766553  0.79421926  0.69430305  1
  C  C63  1  0.77655373  0.79421926  0.19430305  1
  C  C64  1  0.01766553  0.22344627  0.19430305  1
  C  C65  1  0.20578074  0.98233447  0.19430305  1
  C  C66  1  0.88563291  0.34945729  0.63857177  1
  C  C67  1  0.46382538  0.11436709  0.63857177  1
  C  C68  1  0.65054271  0.53617462  0.63857177  1
  C  C69  1  0.88563291  0.53617462  0.13857177  1
  C  C70  1  0.65054271  0.11436709  0.13857177  1
  C  C71  1  0.46382538  0.34945729  0.13857177  1
  C  C72  1  0.48589068  0.33006435  0.02958252  1
  C  C73  1  0.84417467  0.51410932  0.02958252  1
  C  C74  1  0.66993565  0.15582533  0.02958252  1
  C  C75  1  0.48589068  0.15582533  0.52958252  1
  C  C76  1  0.66993565  0.51410932  0.52958252  1
  C  C77  1  0.84417467  0.33006435  0.52958252  1
  C  C78  1  0.56180142  0.68477072  0.97456713  1
  C  C79  1  0.12296830  0.43819858  0.97456713  1
  C  C80  1  0.31522928  0.87703170  0.97456713  1
  C  C81  1  0.56180142  0.87703170  0.47456713  1
  C  C82  1  0.31522928  0.43819858  0.47456713  1
  C  C83  1  0.12296830  0.68477072  0.47456713  1
  C  C84  1  0.08630279  0.61856282  0.36603393  1
  C  C85  1  0.53225904  0.91369721  0.36603393  1
  C  C86  1  0.38143718  0.46774096  0.36603393  1
  C  C87  1  0.08630279  0.46774096  0.86603393  1
  C  C88  1  0.38143718  0.91369721  0.86603393  1
  C  C89  1  0.53225904  0.61856282  0.86603393  1
  C  C90  1  0.98781740  0.80490199  0.41455415  1
  C  C91  1  0.81708459  0.01218260  0.41455415  1
  C  C92  1  0.19509801  0.18291541  0.41455415  1
  C  C93  1  0.98781740  0.18291541  0.91455415  1
  C  C94  1  0.19509801  0.01218260  0.91455415  1
  C  C95  1  0.81708459  0.80490199  0.91455415  1
  C  C96  1  0.96220973  0.16981381  0.57632243  1
  C  C97  1  0.20760407  0.03779027  0.57632243  1
  C  C98  1  0.83018619  0.79239593  0.57632243  1
  C  C99  1  0.96220973  0.79239593  0.07632243  1
  C  C100  1  0.83018619  0.03779027  0.07632243  1
  C  C101  1  0.20760407  0.16981381  0.07632243  1
  C  C102  1  0.67261612  0.15205754  0.74941542  1
  C  C103  1  0.47944242  0.32738388  0.74941542  1
  C  C104  1  0.84794246  0.52055758  0.74941542  1
  C  C105  1  0.67261612  0.52055758  0.24941542  1
  C  C106  1  0.84794246  0.32738388  0.24941542  1
  C  C107  1  0.47944242  0.15205754  0.24941542  1
  C  C108  1  0.66049276  0.49914245  0.92887909  1
  C  C109  1  0.83865069  0.33950724  0.92887909  1
  C  C110  1  0.50085755  0.16134931  0.92887909  1
  C  C111  1  0.66049276  0.16134931  0.42887909  1
  C  C112  1  0.50085755  0.33950724  0.42887909  1
  C  C113  1  0.83865069  0.49914245  0.42887909  1
  C  C114  1  0.35014459  0.48310329  0.07561506  1
  C  C115  1  0.13295770  0.64985541  0.07561506  1
  C  C116  1  0.51689671  0.86704230  0.07561506  1
  C  C117  1  0.35014459  0.86704230  0.57561506  1
  C  C118  1  0.51689671  0.64985541  0.57561506  1
  C  C119  1  0.13295770  0.48310329  0.57561506  1
  C  C120  1  0.32325742  0.84053584  0.25211338  1
  C  C121  1  0.51727741  0.67674258  0.25211338  1
  C  C122  1  0.15946416  0.48272259  0.25211338  1
  C  C123  1  0.32325742  0.48272259  0.75211338  1
  C  C124  1  0.15946416  0.67674258  0.75211338  1
  C  C125  1  0.51727741  0.84053584  0.75211338  1
