# generated using pymatgen
data_CuNi3C16
_symmetry_space_group_name_H-M   'P 1'
_cell_length_a   15.73554764
_cell_length_b   9.11848495
_cell_length_c   9.07727457
_cell_angle_alpha   90.00000000
_cell_angle_beta   124.86282400
_cell_angle_gamma   90.00000000
_symmetry_Int_Tables_number   1
_chemical_formula_structural   CuNi3C16
_chemical_formula_sum   'Cu4 Ni12 C64'
_cell_volume   1068.68753887
_cell_formula_units_Z   4
loop_
 _symmetry_equiv_pos_site_id
 _symmetry_equiv_pos_as_xyz
  1  'x, y, z'
loop_
 _atom_site_type_symbol
 _atom_site_label
 _atom_site_symmetry_multiplicity
 _atom_site_fract_x
 _atom_site_fract_y
 _atom_site_fract_z
 _atom_site_occupancy
  C  C0  1  0.25116277  0.73091580  0.99409569  1
  C  C1  1  0.75116277  0.76908420  0.49409569  1
  C  C2  1  0.75116277  0.23091580  0.99409569  1
  C  C3  1  0.25116277  0.26908420  0.49409569  1
  C  C4  1  0.49896327  0.10529732  0.74605525  1
  C  C5  1  0.49896327  0.89470268  0.24605525  1
  C  C6  1  0.99896327  0.60529732  0.74605525  1
  C  C7  1  0.99896327  0.39470268  0.24605525  1
  C  C8  1  0.18966994  0.94084972  0.29198022  1
  C  C9  1  0.18966994  0.05915028  0.79198022  1
  C  C10  1  0.68966994  0.44084972  0.29198022  1
  C  C11  1  0.68966994  0.55915028  0.79198022  1
  C  C12  1  0.89268430  0.75351742  0.93092769  1
  C  C13  1  0.89268430  0.24648258  0.43092769  1
  C  C14  1  0.39268430  0.25351742  0.93092769  1
  C  C15  1  0.39268430  0.74648258  0.43092769  1
  Ni  Ni16  1  0.99870656  0.95900780  0.75306974  1
  Ni  Ni17  1  0.99870656  0.04099220  0.25306974  1
  Ni  Ni18  1  0.49870656  0.45900780  0.75306974  1
  Ni  Ni19  1  0.49870656  0.54099220  0.25306974  1
  Ni  Ni20  1  0.35319906  0.89207183  0.75552912  1
  Ni  Ni21  1  0.64397995  0.89560163  0.74533117  1
  Ni  Ni22  1  0.64397995  0.10439837  0.24533117  1
  Ni  Ni23  1  0.35319906  0.10792817  0.25552912  1
  Ni  Ni24  1  0.85319906  0.39207183  0.75552912  1
  Ni  Ni25  1  0.14397995  0.39560163  0.74533117  1
  Ni  Ni26  1  0.14397995  0.60439837  0.24533117  1
  Ni  Ni27  1  0.85319906  0.60792817  0.25552912  1
  Cu  Cu28  1  0.10441213  0.74957359  0.56428959  1
  Cu  Cu29  1  0.10441213  0.25042641  0.06428959  1
  Cu  Cu30  1  0.60441213  0.24957359  0.56428959  1
  Cu  Cu31  1  0.60441213  0.75042641  0.06428959  1
  C  C32  1  0.15080832  0.57398613  0.74238697  1
  C  C33  1  0.84866229  0.57456815  0.75902231  1
  C  C34  1  0.84866229  0.42543185  0.25902231  1
  C  C35  1  0.15080832  0.42601387  0.24238697  1
  C  C36  1  0.65080832  0.07398613  0.74238697  1
  C  C37  1  0.34866229  0.07456815  0.75902231  1
  C  C38  1  0.34866229  0.92543185  0.25902231  1
  C  C39  1  0.65080832  0.92601387  0.24238697  1
  C  C40  1  0.43539414  0.57353455  0.58058655  1
  C  C41  1  0.57519584  0.55433411  0.93414634  1
  C  C42  1  0.57519584  0.44566589  0.43414634  1
  C  C43  1  0.43539414  0.42646545  0.08058655  1
  C  C44  1  0.93539414  0.07353455  0.58058655  1
  C  C45  1  0.07519584  0.05433411  0.93414634  1
  C  C46  1  0.07519584  0.94566589  0.43414634  1
  C  C47  1  0.93539414  0.92646545  0.08058655  1
  C  C48  1  0.25321647  0.83191465  0.74830404  1
  C  C49  1  0.74010199  0.80941577  0.75850424  1
  C  C50  1  0.74010199  0.19058423  0.25850424  1
  C  C51  1  0.25321647  0.16808535  0.24830404  1
  C  C52  1  0.75321647  0.33191465  0.74830404  1
  C  C53  1  0.24010199  0.30941577  0.75850424  1
  C  C54  1  0.24010199  0.69058423  0.25850424  1
  C  C55  1  0.75321647  0.66808535  0.24830404  1
  C  C56  1  0.35440937  0.85570047  0.57735895  1
  C  C57  1  0.64265183  0.85844690  0.91833451  1
  C  C58  1  0.64265183  0.14155310  0.41833451  1
  C  C59  1  0.35440937  0.14429953  0.07735895  1
  C  C60  1  0.85440937  0.35570047  0.57735895  1
  C  C61  1  0.14265183  0.35844690  0.91833451  1
  C  C62  1  0.14265183  0.64155310  0.41833451  1
  C  C63  1  0.85440937  0.64429953  0.07735895  1
  C  C64  1  0.45792108  0.83431932  0.93952091  1
  C  C65  1  0.53528957  0.83056590  0.56324797  1
  C  C66  1  0.53528957  0.16943410  0.06324797  1
  C  C67  1  0.45792108  0.16568068  0.43952091  1
  C  C68  1  0.95792108  0.33431932  0.93952091  1
  C  C69  1  0.03528957  0.33056590  0.56324797  1
  C  C70  1  0.03528957  0.66943410  0.06324797  1
  C  C71  1  0.95792108  0.66568068  0.43952091  1
  C  C72  1  0.07849055  0.85161595  0.74185304  1
  C  C73  1  0.91508057  0.85290598  0.75545569  1
  C  C74  1  0.91508057  0.14709402  0.25545569  1
  C  C75  1  0.07849055  0.14838405  0.24185304  1
  C  C76  1  0.57849055  0.35161595  0.74185304  1
  C  C77  1  0.41508057  0.35290598  0.75545569  1
  C  C78  1  0.41508057  0.64709402  0.25545569  1
  C  C79  1  0.57849055  0.64838405  0.24185304  1
