# generated using pymatgen
data_Cu3(Ni5C8)2
_symmetry_space_group_name_H-M   'P 1'
_cell_length_a   10.33178773
_cell_length_b   10.33178775
_cell_length_c   10.33178819
_cell_angle_alpha   33.87203511
_cell_angle_beta   33.87203376
_cell_angle_gamma   33.87203574
_symmetry_Int_Tables_number   1
_chemical_formula_structural   Cu3(Ni5C8)2
_chemical_formula_sum   'Cu3 Ni10 C16'
_cell_volume   305.30606045
_cell_formula_units_Z   1
loop_
 _symmetry_equiv_pos_site_id
 _symmetry_equiv_pos_as_xyz
  1  'x, y, z'
loop_
 _atom_site_type_symbol
 _atom_site_label
 _atom_site_symmetry_multiplicity
 _atom_site_fract_x
 _atom_site_fract_y
 _atom_site_fract_z
 _atom_site_occupancy
  Ni  Ni0  1  0.75111900  0.75111800  0.24098600  1
  Ni  Ni1  1  0.75111800  0.24098700  0.75111800  1
  Ni  Ni2  1  0.24098700  0.75111800  0.75111900  1
  Ni  Ni3  1  0.75901400  0.24888100  0.24888200  1
  Ni  Ni4  1  0.24888100  0.24888100  0.75901500  1
  Ni  Ni5  1  0.24888200  0.75901300  0.24888200  1
  Ni  Ni6  1  0.50000000  0.49999900  0.50000000  1
  Ni  Ni7  1  0.00000000  0.50000000  0.50000000  1
  Ni  Ni8  1  0.50000000  0.50000000  0.00000100  1
  Ni  Ni9  1  0.49999900  0.00000100  0.50000000  1
  Cu  Cu10  1  0.81079200  0.81079300  0.81079300  1
  Cu  Cu11  1  0.18920800  0.18920700  0.18920700  1
  Cu  Cu12  1  0.00000000  0.00000000  0.00000000  1
  C  C13  1  0.37249800  0.87851700  0.37249900  1
  C  C14  1  0.87851600  0.37249900  0.37249900  1
  C  C15  1  0.37249800  0.37249900  0.87851700  1
  C  C16  1  0.62750200  0.12148300  0.62750100  1
  C  C17  1  0.12148400  0.62750200  0.62750100  1
  C  C18  1  0.62750200  0.62750200  0.12148300  1
  C  C19  1  0.66209700  0.11190200  0.11190400  1
  C  C20  1  0.11190300  0.11190200  0.66209800  1
  C  C21  1  0.11190400  0.66209700  0.11190300  1
  C  C22  1  0.88809700  0.88809700  0.33790300  1
  C  C23  1  0.88809700  0.33790200  0.88809800  1
  C  C24  1  0.33790200  0.88809700  0.88809800  1
  C  C25  1  0.62333600  0.62333700  0.62333800  1
  C  C26  1  0.12686200  0.12686200  0.12686100  1
  C  C27  1  0.37666200  0.37666400  0.37666400  1
  C  C28  1  0.87313800  0.87313800  0.87313800  1
