# generated using pymatgen
data_Cu2NiC16
_symmetry_space_group_name_H-M   'P 1'
_cell_length_a   9.12829105
_cell_length_b   9.16513723
_cell_length_c   23.35560429
_cell_angle_alpha   90.30706721
_cell_angle_beta   89.96164221
_cell_angle_gamma   119.77948200
_symmetry_Int_Tables_number   1
_chemical_formula_structural   Cu2NiC16
_chemical_formula_sum   'Cu12 Ni6 C96'
_cell_volume   1695.91299100
_cell_formula_units_Z   6
loop_
 _symmetry_equiv_pos_site_id
 _symmetry_equiv_pos_as_xyz
  1  'x, y, z'
loop_
 _atom_site_type_symbol
 _atom_site_label
 _atom_site_symmetry_multiplicity
 _atom_site_fract_x
 _atom_site_fract_y
 _atom_site_fract_z
 _atom_site_occupancy
  C  C0  1  0.63794114  0.00027888  0.25585513  1
  C  C1  1  0.36017723  0.36055976  0.24994283  1
  C  C2  1  0.31190946  0.34562506  0.59187854  1
  C  C3  1  0.66359120  0.95066696  0.57888792  1
  C  C4  1  0.98781148  0.68093137  0.91442012  1
  C  C5  1  0.31835870  0.29785943  0.91039750  1
  C  C6  1  0.97962108  0.97570598  0.49597057  1
  C  C7  1  0.98511573  0.00237769  0.99682461  1
  C  C8  1  0.65689467  0.31870506  0.82357343  1
  C  C9  1  0.68075507  0.33781035  0.34093724  1
  C  C10  1  0.31412349  0.66489022  0.15927913  1
  C  C11  1  0.32613730  0.66325565  0.67713897  1
  C  C12  1  0.99438798  0.99646664  0.35463506  1
  C  C13  1  0.99368493  0.00100029  0.84719461  1
  C  C14  1  0.00145529  0.99121034  0.65646302  1
  C  C15  1  0.99947606  0.99426874  0.14158536  1
  C  C16  1  0.66775607  0.34378168  0.68849703  1
  C  C17  1  0.67613374  0.34238015  0.18056973  1
  C  C18  1  0.33900457  0.67053367  0.01684343  1
  C  C19  1  0.33305632  0.66954028  0.51191344  1
  C  C20  1  0.33453126  0.68069175  0.32845789  1
  C  C21  1  0.66490165  0.32506862  0.97478521  1
  C  C22  1  0.66880067  0.33892734  0.48273457  1
  C  C23  1  0.33508024  0.65670109  0.82231274  1
  Ni  Ni24  1  0.30678921  0.32004065  0.75525576  1
  Ni  Ni25  1  0.66738889  0.62342044  0.57910940  1
  Ni  Ni26  1  0.62470227  0.65270455  0.91890143  1
  Ni  Ni27  1  0.03577565  0.37855143  0.91838810  1
  Ni  Ni28  1  0.34359924  0.96267808  0.91741350  1
  Ni  Ni29  1  0.64546315  0.99295207  0.42176753  1
  Cu  Cu30  1  0.30182742  0.00045325  0.24928003  1
  Cu  Cu31  1  0.69369911  0.69901522  0.25028749  1
  Cu  Cu32  1  0.00394653  0.29888125  0.24998871  1
  Cu  Cu33  1  0.01905871  0.69388169  0.75678570  1
  Cu  Cu34  1  0.67536534  0.98185704  0.75114306  1
  Cu  Cu35  1  0.95401266  0.33023050  0.58016221  1
  Cu  Cu36  1  0.38191680  0.05115210  0.58014450  1
  Cu  Cu37  1  0.95445951  0.62265957  0.07634043  1
  Cu  Cu38  1  0.66937198  0.04888963  0.07970411  1
  Cu  Cu39  1  0.37668206  0.33124392  0.07948012  1
  Cu  Cu40  1  0.34656424  0.35882405  0.41913475  1
  Cu  Cu41  1  0.01195657  0.65296750  0.42067343  1
  C  C42  1  0.21830712  0.01613598  0.30070163  1
  C  C43  1  0.79022730  0.78026957  0.30217368  1
  C  C44  1  0.98622504  0.19716684  0.30096266  1
  C  C45  1  0.21489860  0.21011689  0.80640167  1
  C  C46  1  0.99611380  0.77194511  0.80860970  1
  C  C47  1  0.78661888  0.00279121  0.79898958  1
  C  C48  1  0.74378120  0.95802655  0.69578843  1
  C  C49  1  0.20999693  0.25535319  0.69714703  1
  C  C50  1  0.04006711  0.79475442  0.70492317  1
  C  C51  1  0.77724456  0.79736704  0.19864356  1
  C  C52  1  0.02180570  0.21604725  0.19780383  1
  C  C53  1  0.20633313  0.98831155  0.19702309  1
  C  C54  1  0.87734591  0.34425216  0.63294708  1
  C  C55  1  0.47802731  0.12560333  0.63263536  1
  C  C56  1  0.64897802  0.52307397  0.63248761  1
  C  C57  1  0.87332974  0.53724600  0.12965495  1
  C  C58  1  0.66467178  0.12299875  0.13533295  1
  C  C59  1  0.45908310  0.33554499  0.13448474  1
  C  C60  1  0.48207600  0.32971315  0.02923528  1
  C  C61  1  0.85181915  0.52085572  0.02482355  1
  C  C62  1  0.67094949  0.16009173  0.03094794  1
  C  C63  1  0.47839355  0.15709964  0.52933646  1
  C  C64  1  0.67196799  0.51265154  0.52640986  1
  C  C65  1  0.84861228  0.32468752  0.52919277  1
  C  C66  1  0.55424060  0.68185979  0.97245933  1
  C  C67  1  0.13977289  0.45395712  0.97134011  1
  C  C68  1  0.30443931  0.85877782  0.97081760  1
  C  C69  1  0.55301864  0.88197815  0.47283799  1
  C  C70  1  0.32546268  0.44262648  0.46937461  1
  C  C71  1  0.11528811  0.67174946  0.47052788  1
  C  C72  1  0.08159106  0.62416079  0.36749896  1
  C  C73  1  0.54655120  0.92903527  0.36422532  1
  C  C74  1  0.36925209  0.45577890  0.36582672  1
  C  C75  1  0.12948321  0.50387620  0.86628528  1
  C  C76  1  0.37113268  0.87225085  0.86518307  1
  C  C77  1  0.49942603  0.62570233  0.86669283  1
  C  C78  1  0.98654434  0.79930818  0.41647853  1
  C  C79  1  0.82586701  0.02138179  0.41850622  1
  C  C80  1  0.20392190  0.18606434  0.41509938  1
  C  C81  1  0.00914321  0.20206564  0.90843883  1
  C  C82  1  0.19995674  0.00432128  0.90769268  1
  C  C83  1  0.80694583  0.78759679  0.90764467  1
  C  C84  1  0.95946321  0.16882967  0.57888390  1
  C  C85  1  0.21669591  0.04823496  0.58087069  1
  C  C86  1  0.82459837  0.80162486  0.57689506  1
  C  C87  1  0.96202432  0.78855141  0.07308886  1
  C  C88  1  0.82716955  0.04051894  0.07453911  1
  C  C89  1  0.20998638  0.17485966  0.07531933  1
  C  C90  1  0.65002710  0.12927413  0.74824082  1
  C  C91  1  0.48896424  0.35280881  0.75270538  1
  C  C92  1  0.87473714  0.52132557  0.75127582  1
  C  C93  1  0.66358076  0.52335429  0.24739111  1
  C  C94  1  0.84760066  0.31269241  0.24719011  1
  C  C95  1  0.47507958  0.15790589  0.24726427  1
  C  C96  1  0.62449522  0.47610149  0.92415378  1
  C  C97  1  0.85621521  0.37043762  0.92430674  1
  C  C98  1  0.51153186  0.14523082  0.92741818  1
  C  C99  1  0.66021377  0.17234869  0.43316410  1
  C  C100  1  0.50652894  0.34719751  0.42556401  1
  C  C101  1  0.83963038  0.49677744  0.42742546  1
  C  C102  1  0.35781874  0.48166314  0.07821313  1
  C  C103  1  0.12446275  0.64266352  0.07617507  1
  C  C104  1  0.51948854  0.88200046  0.07676249  1
  C  C105  1  0.35898980  0.88010610  0.57442323  1
  C  C106  1  0.50430651  0.63837766  0.57400658  1
  C  C107  1  0.12890594  0.47240819  0.57490681  1
  C  C108  1  0.33095346  0.85376268  0.25190429  1
  C  C109  1  0.52083093  0.68523798  0.25349531  1
  C  C110  1  0.15916835  0.46832587  0.25455591  1
  C  C111  1  0.31834496  0.49919062  0.76857304  1
  C  C112  1  0.17888532  0.68395384  0.76252602  1
  C  C113  1  0.50650620  0.82470057  0.76011644  1
