# generated using pymatgen
data_Cu(NiC)2
_symmetry_space_group_name_H-M   'P 1'
_cell_length_a   3.87512100
_cell_length_b   3.90866600
_cell_length_c   12.09581900
_cell_angle_alpha   90.00000000
_cell_angle_beta   90.00000000
_cell_angle_gamma   90.00000000
_symmetry_Int_Tables_number   1
_chemical_formula_structural   Cu(NiC)2
_chemical_formula_sum   'Cu2 Ni4 C4'
_cell_volume   183.20997201
_cell_formula_units_Z   2
loop_
 _symmetry_equiv_pos_site_id
 _symmetry_equiv_pos_as_xyz
  1  'x, y, z'
loop_
 _atom_site_type_symbol
 _atom_site_label
 _atom_site_symmetry_multiplicity
 _atom_site_fract_x
 _atom_site_fract_y
 _atom_site_fract_z
 _atom_site_occupancy
  Ni  Ni0  1  0.50000000  0.41976600  0.85634700  1
  Ni  Ni1  1  0.50000000  0.58023400  0.14365300  1
  Ni  Ni2  1  0.00000000  0.91976600  0.64365300  1
  Ni  Ni3  1  0.00000000  0.08023400  0.35634700  1
  Cu  Cu4  1  0.00000000  0.00000000  0.00000000  1
  Cu  Cu5  1  0.50000000  0.50000000  0.50000000  1
  C  C6  1  0.00000000  0.44060200  0.74925500  1
  C  C7  1  0.00000000  0.55939800  0.25074500  1
  C  C8  1  0.50000000  0.94060200  0.75074500  1
  C  C9  1  0.50000000  0.05939800  0.24925500  1
