# generated using pymatgen
data_Cu2NiC6
_symmetry_space_group_name_H-M   'P 1'
_cell_length_a   3.12446076
_cell_length_b   6.72958100
_cell_length_c   8.72717094
_cell_angle_alpha   99.02043289
_cell_angle_beta   89.73661282
_cell_angle_gamma   89.40814147
_symmetry_Int_Tables_number   1
_chemical_formula_structural   Cu2NiC6
_chemical_formula_sum   'Cu2 Ni1 C6'
_cell_volume   181.21751694
_cell_formula_units_Z   1
loop_
 _symmetry_equiv_pos_site_id
 _symmetry_equiv_pos_as_xyz
  1  'x, y, z'
loop_
 _atom_site_type_symbol
 _atom_site_label
 _atom_site_symmetry_multiplicity
 _atom_site_fract_x
 _atom_site_fract_y
 _atom_site_fract_z
 _atom_site_occupancy
  C  C0  1  0.50596400  0.91640100  0.40919100  1
  C  C1  1  0.00471700  0.58010500  0.09649300  1
  Ni  Ni2  1  0.99746700  0.24526300  0.75560700  1
  Cu  Cu3  1  0.50558000  0.42845500  0.46370300  1
  Cu  Cu4  1  0.98894300  0.04159800  0.01844800  1
  C  C5  1  0.00540700  0.24808100  0.53912800  1
  C  C6  1  0.49631000  0.22626500  0.89015800  1
  C  C7  1  0.00493100  0.58445800  0.39488800  1
  C  C8  1  0.49068300  0.89937300  0.09243100  1
