# generated using pymatgen
data_Cu3Ni2C9
_symmetry_space_group_name_H-M   'P 1'
_cell_length_a   5.54665000
_cell_length_b   8.22281000
_cell_length_c   18.57989900
_cell_angle_alpha   90.00000000
_cell_angle_beta   90.00000000
_cell_angle_gamma   90.00000000
_symmetry_Int_Tables_number   1
_chemical_formula_structural   Cu3Ni2C9
_chemical_formula_sum   'Cu12 Ni8 C36'
_cell_volume   847.41152551
_cell_formula_units_Z   4
loop_
 _symmetry_equiv_pos_site_id
 _symmetry_equiv_pos_as_xyz
  1  'x, y, z'
loop_
 _atom_site_type_symbol
 _atom_site_label
 _atom_site_symmetry_multiplicity
 _atom_site_fract_x
 _atom_site_fract_y
 _atom_site_fract_z
 _atom_site_occupancy
  Ni  Ni0  1  0.70716600  0.68547400  0.06339100  1
  Ni  Ni1  1  0.79283400  0.18547400  0.43660900  1
  Ni  Ni2  1  0.20716600  0.81452600  0.93660900  1
  Ni  Ni3  1  0.29283400  0.31452600  0.93660900  1
  Ni  Ni4  1  0.70716600  0.68547400  0.43660900  1
  Ni  Ni5  1  0.29283400  0.31452600  0.56339100  1
  Ni  Ni6  1  0.20716600  0.81452600  0.56339100  1
  Ni  Ni7  1  0.79283400  0.18547400  0.06339100  1
  Cu  Cu8  1  0.73055600  0.15761400  0.25000000  1
  Cu  Cu9  1  0.81374100  0.13796400  0.86920900  1
  Cu  Cu10  1  0.18625900  0.86203600  0.13079100  1
  Cu  Cu11  1  0.23055600  0.34238600  0.75000000  1
  Cu  Cu12  1  0.68625900  0.63796400  0.86920900  1
  Cu  Cu13  1  0.68625900  0.63796400  0.63079100  1
  Cu  Cu14  1  0.31374100  0.36203600  0.36920900  1
  Cu  Cu15  1  0.18625900  0.86203600  0.36920900  1
  Cu  Cu16  1  0.31374100  0.36203600  0.13079100  1
  Cu  Cu17  1  0.81374100  0.13796400  0.63079100  1
  Cu  Cu18  1  0.26944400  0.84238600  0.75000000  1
  Cu  Cu19  1  0.76944400  0.65761400  0.25000000  1
  C  C20  1  0.45983200  0.14959100  0.12614300  1
  C  C21  1  0.37472500  0.82020000  0.04151300  1
  C  C22  1  0.04016800  0.64959100  0.37385700  1
  C  C23  1  0.04016800  0.64959100  0.12614300  1
  C  C24  1  0.37472500  0.82020000  0.45848700  1
  C  C25  1  0.04793900  0.78709800  0.67324300  1
  C  C26  1  0.94751500  0.85958700  0.25000000  1
  C  C27  1  0.45983200  0.14959100  0.37385700  1
  C  C28  1  0.54016800  0.85040900  0.62614300  1
  C  C29  1  0.95983200  0.35040900  0.62614300  1
  C  C30  1  0.59092500  0.43273600  0.42754600  1
  C  C31  1  0.40907500  0.56726400  0.57245400  1
  C  C32  1  0.45206100  0.28709800  0.67324300  1
  C  C33  1  0.59092500  0.43273600  0.07245400  1
  C  C34  1  0.05248500  0.14041300  0.75000000  1
  C  C35  1  0.54016800  0.85040900  0.87385700  1
  C  C36  1  0.09092500  0.06726400  0.57245400  1
  C  C37  1  0.62527500  0.17980000  0.95848700  1
  C  C38  1  0.44751500  0.64041300  0.75000000  1
  C  C39  1  0.62527500  0.17980000  0.54151300  1
  C  C40  1  0.12527500  0.32020000  0.04151300  1
  C  C41  1  0.09092500  0.06726400  0.92754600  1
  C  C42  1  0.87472500  0.67980000  0.95848700  1
  C  C43  1  0.45206100  0.28709800  0.82675700  1
  C  C44  1  0.40907500  0.56726400  0.92754600  1
  C  C45  1  0.54793900  0.71290200  0.32675700  1
  C  C46  1  0.95983200  0.35040900  0.87385700  1
  C  C47  1  0.04793900  0.78709800  0.82675700  1
  C  C48  1  0.95206100  0.21290200  0.32675700  1
  C  C49  1  0.55248500  0.35958700  0.25000000  1
  C  C50  1  0.12527500  0.32020000  0.45848700  1
  C  C51  1  0.95206100  0.21290200  0.17324300  1
  C  C52  1  0.90907500  0.93273600  0.07245400  1
  C  C53  1  0.87472500  0.67980000  0.54151300  1
  C  C54  1  0.90907500  0.93273600  0.42754600  1
  C  C55  1  0.54793900  0.71290200  0.17324300  1
