# generated using pymatgen
data_CuNi2C7
_symmetry_space_group_name_H-M   'P 1'
_cell_length_a   3.93930830
_cell_length_b   5.57153576
_cell_length_c   6.99314595
_cell_angle_alpha   83.79383529
_cell_angle_beta   90.00163952
_cell_angle_gamma   110.65558363
_symmetry_Int_Tables_number   1
_chemical_formula_structural   CuNi2C7
_chemical_formula_sum   'Cu1 Ni2 C7'
_cell_volume   142.65760720
_cell_formula_units_Z   1
loop_
 _symmetry_equiv_pos_site_id
 _symmetry_equiv_pos_as_xyz
  1  'x, y, z'
loop_
 _atom_site_type_symbol
 _atom_site_label
 _atom_site_symmetry_multiplicity
 _atom_site_fract_x
 _atom_site_fract_y
 _atom_site_fract_z
 _atom_site_occupancy
  C  C0  1  0.16550062  0.32973129  0.18190576  1
  Ni  Ni1  1  0.21259826  0.42375051  0.67585253  1
  Ni  Ni2  1  0.82791979  0.65503411  0.36873318  1
  Cu  Cu3  1  0.88103758  0.76189516  0.92525226  1
  C  C4  1  0.05069001  0.09854794  0.69925802  1
  C  C5  1  0.97354406  0.94681759  0.21412446  1
  C  C6  1  0.27843810  0.55615000  0.91904342  1
  C  C7  1  0.69707403  0.39300064  0.21626639  1
  C  C8  1  0.29274282  0.58458627  0.40805251  1
  C  C9  1  0.76331173  0.52548648  0.64151147  1
