# generated using pymatgen
data_CuNiC
_symmetry_space_group_name_H-M   'P 1'
_cell_length_a   4.29707400
_cell_length_b   6.82896700
_cell_length_c   7.60653300
_cell_angle_alpha   90.00000000
_cell_angle_beta   90.00000000
_cell_angle_gamma   90.00000000
_symmetry_Int_Tables_number   1
_chemical_formula_structural   CuNiC
_chemical_formula_sum   'Cu4 Ni4 C4'
_cell_volume   223.21048984
_cell_formula_units_Z   4
loop_
 _symmetry_equiv_pos_site_id
 _symmetry_equiv_pos_as_xyz
  1  'x, y, z'
loop_
 _atom_site_type_symbol
 _atom_site_label
 _atom_site_symmetry_multiplicity
 _atom_site_fract_x
 _atom_site_fract_y
 _atom_site_fract_z
 _atom_site_occupancy
  C  C0  1  0.75000000  0.49458200  0.80820300  1
  C  C1  1  0.25000000  0.00541800  0.30820300  1
  C  C2  1  0.75000000  0.99458200  0.69179700  1
  C  C3  1  0.25000000  0.50541800  0.19179700  1
  Ni  Ni4  1  0.25000000  0.79016700  0.88802500  1
  Ni  Ni5  1  0.25000000  0.29016700  0.61197500  1
  Ni  Ni6  1  0.75000000  0.20983300  0.11197500  1
  Ni  Ni7  1  0.75000000  0.70983300  0.38802500  1
  Cu  Cu8  1  0.25000000  0.66163600  0.56398700  1
  Cu  Cu9  1  0.25000000  0.16163600  0.93601300  1
  Cu  Cu10  1  0.75000000  0.83836400  0.06398700  1
  Cu  Cu11  1  0.75000000  0.33836400  0.43601300  1
