# generated using pymatgen
data_Cu12Ni3C2
_symmetry_space_group_name_H-M   'P 1'
_cell_length_a   8.99170449
_cell_length_b   8.99170418
_cell_length_c   22.29000948
_cell_angle_alpha   90.00000000
_cell_angle_beta   90.00000000
_cell_angle_gamma   120.00000109
_symmetry_Int_Tables_number   1
_chemical_formula_structural   Cu12Ni3C2
_chemical_formula_sum   'Cu72 Ni18 C12'
_cell_volume   1560.71971438
_cell_formula_units_Z   6
loop_
 _symmetry_equiv_pos_site_id
 _symmetry_equiv_pos_as_xyz
  1  'x, y, z'
loop_
 _atom_site_type_symbol
 _atom_site_label
 _atom_site_symmetry_multiplicity
 _atom_site_fract_x
 _atom_site_fract_y
 _atom_site_fract_z
 _atom_site_occupancy
  C  C0  1  0.00000000  0.00000000  0.36524924  1
  C  C1  1  0.00000000  0.00000000  0.86524924  1
  C  C2  1  0.66666700  0.33333300  0.69858224  1
  C  C3  1  0.66666700  0.33333300  0.19858224  1
  C  C4  1  0.33333300  0.66666700  0.03191624  1
  C  C5  1  0.33333300  0.66666700  0.53191624  1
  C  C6  1  0.00000000  0.00000000  0.64326604  1
  C  C7  1  0.00000000  0.00000000  0.14326604  1
  C  C8  1  0.66666700  0.33333300  0.97659904  1
  C  C9  1  0.66666700  0.33333300  0.47659904  1
  C  C10  1  0.33333300  0.66666700  0.30993304  1
  C  C11  1  0.33333300  0.66666700  0.80993304  1
  Ni  Ni12  1  0.26661502  0.96586826  0.24994300  1
  Ni  Ni13  1  0.69925324  0.73338498  0.24994300  1
  Ni  Ni14  1  0.03413174  0.30074676  0.24994300  1
  Ni  Ni15  1  0.26661502  0.30074676  0.74994300  1
  Ni  Ni16  1  0.03413174  0.73338498  0.74994300  1
  Ni  Ni17  1  0.69925324  0.96586826  0.74994300  1
  Ni  Ni18  1  0.93328202  0.29920126  0.58327600  1
  Ni  Ni19  1  0.36592024  0.06671798  0.58327600  1
  Ni  Ni20  1  0.70079874  0.63407976  0.58327600  1
  Ni  Ni21  1  0.93328202  0.63407976  0.08327600  1
  Ni  Ni22  1  0.70079874  0.06671798  0.08327600  1
  Ni  Ni23  1  0.36592024  0.29920126  0.08327600  1
  Ni  Ni24  1  0.59994802  0.63253526  0.91661000  1
  Ni  Ni25  1  0.03258624  0.40005198  0.91661000  1
  Ni  Ni26  1  0.36746474  0.96741376  0.91661000  1
  Ni  Ni27  1  0.59994802  0.96741376  0.41661000  1
  Ni  Ni28  1  0.36746474  0.40005198  0.41661000  1
  Ni  Ni29  1  0.03258624  0.63253526  0.41661000  1
  Cu  Cu30  1  0.20030402  0.00170618  0.30359290  1
  Cu  Cu31  1  0.80140216  0.79969598  0.30359290  1
  Cu  Cu32  1  0.99829382  0.19859784  0.30359290  1
  Cu  Cu33  1  0.20030402  0.19859784  0.80359290  1
  Cu  Cu34  1  0.99829382  0.79969598  0.80359290  1
  Cu  Cu35  1  0.80140216  0.00170618  0.80359290  1
  Cu  Cu36  1  0.78707985  0.93780246  0.69688033  1
  Cu  Cu37  1  0.15072261  0.21292015  0.69688033  1
  Cu  Cu38  1  0.06219754  0.84927739  0.69688033  1
  Cu  Cu39  1  0.78707985  0.84927739  0.19688033  1
  Cu  Cu40  1  0.06219754  0.21292015  0.19688033  1
  Cu  Cu41  1  0.15072261  0.93780246  0.19688033  1
  Cu  Cu42  1  0.86697102  0.33503918  0.63692590  1
  Cu  Cu43  1  0.46806916  0.13302898  0.63692590  1
  Cu  Cu44  1  0.66496082  0.53193084  0.63692590  1
  Cu  Cu45  1  0.86697102  0.53193084  0.13692590  1
  Cu  Cu46  1  0.66496082  0.13302898  0.13692590  1
  Cu  Cu47  1  0.46806916  0.33503918  0.13692590  1
  Cu  Cu48  1  0.45374685  0.27113546  0.03021333  1
  Cu  Cu49  1  0.81738961  0.54625315  0.03021333  1
  Cu  Cu50  1  0.72886454  0.18261039  0.03021333  1
  Cu  Cu51  1  0.45374685  0.18261039  0.53021333  1
  Cu  Cu52  1  0.72886454  0.54625315  0.53021333  1
  Cu  Cu53  1  0.81738961  0.27113546  0.53021333  1
  Cu  Cu54  1  0.53363702  0.66837318  0.97025990  1
  Cu  Cu55  1  0.13473516  0.46636298  0.97025990  1
  Cu  Cu56  1  0.33162682  0.86526484  0.97025990  1
  Cu  Cu57  1  0.53363702  0.86526484  0.47025990  1
  Cu  Cu58  1  0.33162682  0.46636298  0.47025990  1
  Cu  Cu59  1  0.13473516  0.66837318  0.47025990  1
  Cu  Cu60  1  0.12041285  0.60446946  0.36354733  1
  Cu  Cu61  1  0.48405561  0.87958715  0.36354733  1
  Cu  Cu62  1  0.39553054  0.51594439  0.36354733  1
  Cu  Cu63  1  0.12041285  0.51594439  0.86354733  1
  Cu  Cu64  1  0.39553054  0.87958715  0.86354733  1
  Cu  Cu65  1  0.48405561  0.60446946  0.86354733  1
  Cu  Cu66  1  0.98634105  0.76243042  0.40451673  1
  Cu  Cu67  1  0.77608937  0.01365895  0.40451673  1
  Cu  Cu68  1  0.23756958  0.22391063  0.40451673  1
  Cu  Cu69  1  0.98634105  0.22391063  0.90451673  1
  Cu  Cu70  1  0.23756958  0.01365895  0.90451673  1
  Cu  Cu71  1  0.77608937  0.76243042  0.90451673  1
  Cu  Cu72  1  0.93101320  0.12863881  0.59222862  1
  Cu  Cu73  1  0.19762561  0.06898680  0.59222862  1
  Cu  Cu74  1  0.87136119  0.80237439  0.59222862  1
  Cu  Cu75  1  0.93101320  0.80237439  0.09222862  1
  Cu  Cu76  1  0.87136119  0.06898680  0.09222862  1
  Cu  Cu77  1  0.19762561  0.12863881  0.09222862  1
  Cu  Cu78  1  0.65300805  0.09576342  0.73784973  1
  Cu  Cu79  1  0.44275637  0.34699195  0.73784973  1
  Cu  Cu80  1  0.90423658  0.55724363  0.73784973  1
  Cu  Cu81  1  0.65300805  0.55724363  0.23784973  1
  Cu  Cu82  1  0.90423658  0.34699195  0.23784973  1
  Cu  Cu83  1  0.44275637  0.09576342  0.23784973  1
  Cu  Cu84  1  0.59768020  0.46197181  0.92556162  1
  Cu  Cu85  1  0.86429261  0.40231980  0.92556162  1
  Cu  Cu86  1  0.53802819  0.13570739  0.92556162  1
  Cu  Cu87  1  0.59768020  0.13570739  0.42556162  1
  Cu  Cu88  1  0.53802819  0.40231980  0.42556162  1
  Cu  Cu89  1  0.86429261  0.46197181  0.42556162  1
  Cu  Cu90  1  0.31967405  0.42909742  0.07118373  1
  Cu  Cu91  1  0.10942237  0.68032595  0.07118373  1
  Cu  Cu92  1  0.57090258  0.89057763  0.07118373  1
  Cu  Cu93  1  0.31967405  0.89057763  0.57118373  1
  Cu  Cu94  1  0.57090258  0.68032595  0.57118373  1
  Cu  Cu95  1  0.10942237  0.42909742  0.57118373  1
  Cu  Cu96  1  0.26434620  0.79530581  0.25889562  1
  Cu  Cu97  1  0.53095861  0.73565380  0.25889562  1
  Cu  Cu98  1  0.20469419  0.46904139  0.25889562  1
  Cu  Cu99  1  0.26434620  0.46904139  0.75889562  1
  Cu  Cu100  1  0.20469419  0.73565380  0.75889562  1
  Cu  Cu101  1  0.53095861  0.79530581  0.75889562  1
