# generated using pymatgen
data_Cu4Ni8C3
_symmetry_space_group_name_H-M   'P 1'
_cell_length_a   8.92467365
_cell_length_b   8.92467365
_cell_length_c   7.44837200
_cell_angle_alpha   90.00000000
_cell_angle_beta   90.00000000
_cell_angle_gamma   119.99999740
_symmetry_Int_Tables_number   1
_chemical_formula_structural   Cu4Ni8C3
_chemical_formula_sum   'Cu8 Ni16 C6'
_cell_volume   513.77940349
_cell_formula_units_Z   2
loop_
 _symmetry_equiv_pos_site_id
 _symmetry_equiv_pos_as_xyz
  1  'x, y, z'
loop_
 _atom_site_type_symbol
 _atom_site_label
 _atom_site_symmetry_multiplicity
 _atom_site_fract_x
 _atom_site_fract_y
 _atom_site_fract_z
 _atom_site_occupancy
  C  C0  1  0.52874400  0.47125600  0.00038000  1
  C  C1  1  0.47125600  0.52874400  0.50038000  1
  C  C2  1  0.94251200  0.47125600  0.00038000  1
  C  C3  1  0.52874400  0.05748800  0.00038000  1
  C  C4  1  0.47125600  0.94251200  0.50038000  1
  C  C5  1  0.05748800  0.52874400  0.50038000  1
  Ni  Ni6  1  0.09743200  0.19486300  0.47602000  1
  Ni  Ni7  1  0.00000000  0.00000000  0.22149600  1
  Ni  Ni8  1  0.00000000  0.00000000  0.72149600  1
  Ni  Ni9  1  0.66666700  0.33333300  0.29524400  1
  Ni  Ni10  1  0.33333300  0.66666700  0.79524400  1
  Ni  Ni11  1  0.90256800  0.09743200  0.97602000  1
  Ni  Ni12  1  0.15880700  0.84119300  0.16928500  1
  Ni  Ni13  1  0.31761500  0.15880700  0.66928500  1
  Ni  Ni14  1  0.84119300  0.68238500  0.66928500  1
  Ni  Ni15  1  0.15880700  0.31761500  0.16928500  1
  Ni  Ni16  1  0.68238500  0.84119300  0.16928500  1
  Ni  Ni17  1  0.84119300  0.15880700  0.66928500  1
  Ni  Ni18  1  0.09743200  0.90256800  0.47602000  1
  Ni  Ni19  1  0.19486300  0.09743200  0.97602000  1
  Ni  Ni20  1  0.90256800  0.80513700  0.97602000  1
  Ni  Ni21  1  0.80513700  0.90256800  0.47602000  1
  Cu  Cu22  1  0.17144700  0.82855300  0.79562900  1
  Cu  Cu23  1  0.34289300  0.17144700  0.29562900  1
  Cu  Cu24  1  0.82855300  0.65710700  0.29562900  1
  Cu  Cu25  1  0.17144700  0.34289300  0.79562900  1
  Cu  Cu26  1  0.65710700  0.82855300  0.79562900  1
  Cu  Cu27  1  0.82855300  0.17144700  0.29562900  1
  Cu  Cu28  1  0.33333300  0.66666700  0.16861900  1
  Cu  Cu29  1  0.66666700  0.33333300  0.66861900  1
