# generated using pymatgen
data_CuNi2C31
_symmetry_space_group_name_H-M   'P 1'
_cell_length_a   8.81513783
_cell_length_b   8.80892475
_cell_length_c   22.66444899
_cell_angle_alpha   89.85925751
_cell_angle_beta   89.92574505
_cell_angle_gamma   119.84584879
_symmetry_Int_Tables_number   1
_chemical_formula_structural   CuNi2C31
_chemical_formula_sum   'Cu3 Ni6 C93'
_cell_volume   1526.50127740
_cell_formula_units_Z   3
loop_
 _symmetry_equiv_pos_site_id
 _symmetry_equiv_pos_as_xyz
  1  'x, y, z'
loop_
 _atom_site_type_symbol
 _atom_site_label
 _atom_site_symmetry_multiplicity
 _atom_site_fract_x
 _atom_site_fract_y
 _atom_site_fract_z
 _atom_site_occupancy
  C  C0  1  0.00440927  0.00653466  0.14054790  1
  C  C1  1  0.65467631  0.32990070  0.97660570  1
  C  C2  1  0.67695127  0.32446257  0.47850803  1
  C  C3  1  0.33998649  0.66888204  0.52654927  1
  C  C4  1  0.34184035  0.67540321  0.30970527  1
  C  C5  1  0.32877630  0.66294221  0.80712022  1
  Ni  Ni6  1  0.99510366  0.00089428  0.35634285  1
  Ni  Ni7  1  0.00079273  0.00229165  0.85084515  1
  Ni  Ni8  1  0.99732880  0.00710045  0.64374174  1
  Ni  Ni9  1  0.67659747  0.33612426  0.68658079  1
  Ni  Ni10  1  0.66268726  0.33582103  0.18602111  1
  Ni  Ni11  1  0.33151366  0.66027528  0.02138839  1
  Cu  Cu12  1  0.95603287  0.32492693  0.58945520  1
  Cu  Cu13  1  0.38667844  0.34991844  0.08660811  1
  Cu  Cu14  1  0.62897543  0.95343497  0.41695876  1
  C  C15  1  0.28637586  0.00323629  0.25147608  1
  C  C16  1  0.71628712  0.70870531  0.25091713  1
  C  C17  1  0.99553433  0.28815979  0.25008567  1
  C  C18  1  0.29447860  0.28374069  0.75034559  1
  C  C19  1  0.99234883  0.71274257  0.75047116  1
  C  C20  1  0.71393324  0.00511233  0.75132939  1
  C  C21  1  0.37624784  0.04726926  0.58441180  1
  C  C22  1  0.67181209  0.62011510  0.58429643  1
  C  C23  1  0.95532262  0.61857003  0.08404753  1
  C  C24  1  0.66189416  0.04435338  0.08403905  1
  C  C25  1  0.62583602  0.67443280  0.91648165  1
  C  C26  1  0.04503747  0.37480064  0.91700997  1
  C  C27  1  0.32801998  0.94923340  0.91750003  1
  C  C28  1  0.33333646  0.37994359  0.41686578  1
  C  C29  1  0.04928550  0.66989643  0.41647230  1
  C  C30  1  0.20461458  0.02470776  0.30398650  1
  C  C31  1  0.81732477  0.79008187  0.30346443  1
  C  C32  1  0.97113918  0.18254838  0.30213967  1
  C  C33  1  0.21733629  0.18626872  0.80469878  1
  C  C34  1  0.97641897  0.79303010  0.80461786  1
  C  C35  1  0.81444369  0.02709037  0.80483090  1
  C  C36  1  0.77562661  0.95523516  0.69923186  1
  C  C37  1  0.18291704  0.22147216  0.69856665  1
  C  C38  1  0.03886212  0.82278034  0.69784814  1
  C  C39  1  0.78983662  0.82300226  0.19751345  1
  C  C40  1  0.02860753  0.20185265  0.19617499  1
  C  C41  1  0.17139736  0.96873011  0.19778541  1
  C  C42  1  0.87513284  0.38227827  0.64068490  1
  C  C43  1  0.48477975  0.11553522  0.63621215  1
  C  C44  1  0.62489754  0.51096752  0.63660451  1
  C  C45  1  0.88221661  0.51566296  0.13716957  1
  C  C46  1  0.64255417  0.12303745  0.13737339  1
  C  C47  1  0.49408608  0.35884300  0.14238209  1
  C  C48  1  0.47750224  0.30293691  0.02643197  1
  C  C49  1  0.83893277  0.53840804  0.03077012  1
  C  C50  1  0.70419773  0.16263285  0.03025925  1
  C  C51  1  0.46382234  0.15764627  0.52973609  1
  C  C52  1  0.68603206  0.53185880  0.52959416  1
  C  C53  1  0.83181273  0.30861063  0.52706268  1
  C  C54  1  0.54752819  0.69835470  0.96918875  1
  C  C55  1  0.15014074  0.45534588  0.96884127  1
  C  C56  1  0.30720507  0.84859175  0.97060798  1
  C  C57  1  0.51602877  0.82937912  0.47196501  1
  C  C58  1  0.30532649  0.46485935  0.46930447  1
  C  C59  1  0.15595116  0.68867971  0.46913953  1
  C  C60  1  0.12675494  0.63138352  0.36303942  1
  C  C61  1  0.49161049  0.85507334  0.35886588  1
  C  C62  1  0.36006260  0.49557024  0.36314848  1
  C  C63  1  0.12944425  0.49313189  0.86335701  1
  C  C64  1  0.36441286  0.87059214  0.86431118  1
  C  C65  1  0.50876268  0.63388480  0.86377869  1
  C  C66  1  0.03393410  0.82346259  0.40821893  1
  C  C67  1  0.81421047  0.97665257  0.40779401  1
  C  C68  1  0.18299447  0.20982501  0.40820336  1
  C  C69  1  0.02059339  0.20196622  0.90598667  1
  C  C70  1  0.18534953  0.98285327  0.90772192  1
  C  C71  1  0.80098126  0.81809760  0.90605613  1
  C  C72  1  0.97994568  0.15987194  0.58850246  1
  C  C73  1  0.20147849  0.02103108  0.58812970  1
  C  C74  1  0.82234625  0.79272459  0.58853694  1
  C  C75  1  0.96272576  0.79637414  0.09299691  1
  C  C76  1  0.82768289  0.02854556  0.09179253  1
  C  C77  1  0.18898918  0.15894674  0.09499154  1
  C  C78  1  0.67620428  0.14665450  0.74448077  1
  C  C79  1  0.47260515  0.31884834  0.74230058  1
  C  C80  1  0.84813515  0.53545726  0.74543644  1
  C  C81  1  0.68800288  0.53422738  0.24300076  1
  C  C82  1  0.84780112  0.31300458  0.23843566  1
  C  C83  1  0.46300341  0.14418537  0.24282314  1
  C  C84  1  0.64129911  0.50683202  0.92461995  1
  C  C85  1  0.86851274  0.36321358  0.92456008  1
  C  C86  1  0.49894401  0.12903122  0.92450444  1
  C  C87  1  0.62820780  0.14094162  0.42583113  1
  C  C88  1  0.49670662  0.37398051  0.42454939  1
  C  C89  1  0.87142283  0.51046165  0.42423119  1
  C  C90  1  0.34471496  0.49790504  0.07204497  1
  C  C91  1  0.13100830  0.65506820  0.07254163  1
  C  C92  1  0.51634720  0.87306463  0.07284261  1
  C  C93  1  0.36054835  0.86850015  0.57287620  1
  C  C94  1  0.50851086  0.63914343  0.57304306  1
  C  C95  1  0.14414463  0.50172002  0.56799592  1
  C  C96  1  0.29395039  0.83193837  0.25784723  1
  C  C97  1  0.53186876  0.69204074  0.25869968  1
  C  C98  1  0.15982037  0.46390620  0.25717917  1
  C  C99  1  0.31212439  0.47148679  0.76229482  1
  C  C100  1  0.16199341  0.69258156  0.76176841  1
  C  C101  1  0.52707153  0.83616703  0.76374644  1
