# generated using pymatgen
data_Cu4NiC
_symmetry_space_group_name_H-M   'P 1'
_cell_length_a   8.71383244
_cell_length_b   8.71383217
_cell_length_c   23.01755740
_cell_angle_alpha   90.00000000
_cell_angle_beta   90.00000000
_cell_angle_gamma   120.00000104
_symmetry_Int_Tables_number   1
_chemical_formula_structural   Cu4NiC
_chemical_formula_sum   'Cu72 Ni18 C18'
_cell_volume   1513.59002650
_cell_formula_units_Z   18
loop_
 _symmetry_equiv_pos_site_id
 _symmetry_equiv_pos_as_xyz
  1  'x, y, z'
loop_
 _atom_site_type_symbol
 _atom_site_label
 _atom_site_symmetry_multiplicity
 _atom_site_fract_x
 _atom_site_fract_y
 _atom_site_fract_z
 _atom_site_occupancy
  C  C0  1  -0.00000000  -0.00000000  0.51008974  1
  C  C1  1  -0.00000000  -0.00000000  0.00707465  1
  C  C2  1  0.66666700  0.33333300  0.82641233  1
  C  C3  1  0.66666700  0.33333300  0.33766278  1
  C  C4  1  0.33333300  0.66666700  0.17889516  1
  C  C5  1  0.33333300  0.66666700  0.65700558  1
  C  C6  1  -0.00000000  -0.00000000  0.64375934  1
  C  C7  1  -0.00000000  -0.00000000  0.15232519  1
  C  C8  1  0.66666700  0.33333300  0.67641072  1
  C  C9  1  0.66666700  0.33333300  0.18754832  1
  C  C10  1  0.66666700  0.33333300  0.98391815  1
  C  C11  1  0.66666700  0.33333300  0.48705844  1
  C  C12  1  0.33333300  0.66666700  0.52059461  1
  C  C13  1  0.33333300  0.66666700  0.31813760  1
  C  C14  1  0.33333300  0.66666700  0.81163609  1
  C  C15  1  -0.00000000  -0.00000000  0.35437836  1
  C  C16  1  -0.00000000  -0.00000000  0.84810507  1
  C  C17  1  0.33333300  0.66666700  0.02243690  1
  Ni  Ni18  1  0.29591632  0.99841923  0.24776307  1
  Ni  Ni19  1  0.70250291  0.70408368  0.24776307  1
  Ni  Ni20  1  0.00158077  0.29749709  0.24776307  1
  Ni  Ni21  1  0.29914008  0.29856392  0.74717892  1
  Ni  Ni22  1  -0.00057616  0.70085992  0.74717892  1
  Ni  Ni23  1  0.70143608  0.00057616  0.74717892  1
  Ni  Ni24  1  0.96179138  0.33444031  0.58339563  1
  Ni  Ni25  1  0.37264993  0.03820862  0.58339563  1
  Ni  Ni26  1  0.66555969  0.62735007  0.58339563  1
  Ni  Ni27  1  0.94945383  0.62564594  0.08377939  1
  Ni  Ni28  1  0.67619311  0.05054617  0.08377939  1
  Ni  Ni29  1  0.37435406  0.32380689  0.08377939  1
  Ni  Ni30  1  0.62312932  0.66061159  0.91547116  1
  Ni  Ni31  1  0.03748127  0.37687068  0.91547116  1
  Ni  Ni32  1  0.33938841  0.96251873  0.91547116  1
  Ni  Ni33  1  0.61680259  0.95937219  0.41699187  1
  Ni  Ni34  1  0.34256861  0.38319741  0.41699187  1
  Ni  Ni35  1  0.04062781  0.65743139  0.41699187  1
  Cu  Cu36  1  0.20673648  0.02108870  0.30063574  1
  Cu  Cu37  1  0.81435222  0.79326352  0.30063574  1
  Cu  Cu38  1  0.97891130  0.18564778  0.30063574  1
  Cu  Cu39  1  0.20946445  0.18621783  0.80293315  1
  Cu  Cu40  1  0.97675339  0.79053555  0.80293315  1
  Cu  Cu41  1  0.81378217  0.02324661  0.80293315  1
  Cu  Cu42  1  0.79167452  0.97738249  0.69794224  1
  Cu  Cu43  1  0.18570797  0.20832548  0.69794224  1
  Cu  Cu44  1  0.02261751  0.81429203  0.69794224  1
  Cu  Cu45  1  0.78714213  0.81235037  0.19587737  1
  Cu  Cu46  1  0.02520824  0.21285787  0.19587737  1
  Cu  Cu47  1  0.18764963  0.97479176  0.19587737  1
  Cu  Cu48  1  0.88081261  0.35840371  0.63668975  1
  Cu  Cu49  1  0.47759210  0.11918739  0.63668975  1
  Cu  Cu50  1  0.64159629  0.52240790  0.63668975  1
  Cu  Cu51  1  0.87324554  0.51767119  0.13533961  1
  Cu  Cu52  1  0.64442664  0.12675446  0.13533961  1
  Cu  Cu53  1  0.48232881  0.35557336  0.13533961  1
  Cu  Cu54  1  0.45524606  0.30662158  0.02998443  1
  Cu  Cu55  1  0.85137652  0.54475394  0.02998443  1
  Cu  Cu56  1  0.69337842  0.14862348  0.02998443  1
  Cu  Cu57  1  0.45619589  0.14601749  0.53123872  1
  Cu  Cu58  1  0.68982259  0.54380411  0.53123872  1
  Cu  Cu59  1  0.85398251  0.31017741  0.53123872  1
  Cu  Cu60  1  0.53976732  0.68722339  0.96902534  1
  Cu  Cu61  1  0.14745507  0.46023268  0.96902534  1
  Cu  Cu62  1  0.31277661  0.85254493  0.96902534  1
  Cu  Cu63  1  0.54071531  0.85095587  0.46855441  1
  Cu  Cu64  1  0.31023956  0.45928469  0.46855441  1
  Cu  Cu65  1  0.14904413  0.68976044  0.46855441  1
  Cu  Cu66  1  0.12172514  0.63990487  0.36324264  1
  Cu  Cu67  1  0.51817873  0.87827486  0.36324264  1
  Cu  Cu68  1  0.36009513  0.48182127  0.36324264  1
  Cu  Cu69  1  0.12477552  0.48115449  0.86409276  1
  Cu  Cu70  1  0.35637797  0.87522448  0.86409276  1
  Cu  Cu71  1  0.51884551  0.64362203  0.86409276  1
  Cu  Cu72  1  0.02135124  0.82348163  0.40970747  1
  Cu  Cu73  1  0.80213039  0.97864876  0.40970747  1
  Cu  Cu74  1  0.17651837  0.19786961  0.40970747  1
  Cu  Cu75  1  0.02213192  0.19698623  0.91239938  1
  Cu  Cu76  1  0.17485432  0.97786808  0.91239938  1
  Cu  Cu77  1  0.80301377  0.82514568  0.91239938  1
  Cu  Cu78  1  0.97972604  0.17369315  0.58893761  1
  Cu  Cu79  1  0.19396710  0.02027396  0.58893761  1
  Cu  Cu80  1  0.82630685  0.80603290  0.58893761  1
  Cu  Cu81  1  0.97704420  0.80637902  0.08905612  1
  Cu  Cu82  1  0.82933482  0.02295580  0.08905612  1
  Cu  Cu83  1  0.19362098  0.17066518  0.08905612  1
  Cu  Cu84  1  0.68811588  0.16183170  0.74501099  1
  Cu  Cu85  1  0.47371682  0.31188412  0.74501099  1
  Cu  Cu86  1  0.83816830  0.52628318  0.74501099  1
  Cu  Cu87  1  0.68876901  0.52870226  0.24399356  1
  Cu  Cu88  1  0.83993424  0.31123099  0.24399356  1
  Cu  Cu89  1  0.47129774  0.16006576  0.24399356  1
  Cu  Cu90  1  0.64417884  0.50488911  0.92320824  1
  Cu  Cu91  1  0.86071128  0.35582116  0.92320824  1
  Cu  Cu92  1  0.49511089  0.13928872  0.92320824  1
  Cu  Cu93  1  0.64419910  0.13979832  0.42255694  1
  Cu  Cu94  1  0.49560021  0.35580090  0.42255694  1
  Cu  Cu95  1  0.86020168  0.50439979  0.42255694  1
  Cu  Cu96  1  0.35449350  0.48947635  0.07706161  1
  Cu  Cu97  1  0.13498185  0.64550650  0.07706161  1
  Cu  Cu98  1  0.51052365  0.86501815  0.07706161  1
  Cu  Cu99  1  0.35363964  0.85955669  0.57792222  1
  Cu  Cu100  1  0.50591605  0.64636036  0.57792222  1
  Cu  Cu101  1  0.14044331  0.49408395  0.57792222  1
  Cu  Cu102  1  0.31248812  0.83905668  0.25540023  1
  Cu  Cu103  1  0.52656757  0.68751188  0.25540023  1
  Cu  Cu104  1  0.16094332  0.47343243  0.25540023  1
  Cu  Cu105  1  0.31293516  0.47179106  0.75679307  1
  Cu  Cu106  1  0.15885491  0.68706484  0.75679307  1
  Cu  Cu107  1  0.52820893  0.84114509  0.75679307  1
