# generated using pymatgen
data_Cu12Ni3C4
_symmetry_space_group_name_H-M   'P 1'
_cell_length_a   9.56287700
_cell_length_b   12.10225100
_cell_length_c   16.87849400
_cell_angle_alpha   90.00000000
_cell_angle_beta   90.00000000
_cell_angle_gamma   90.00000000
_symmetry_Int_Tables_number   1
_chemical_formula_structural   Cu12Ni3C4
_chemical_formula_sum   'Cu96 Ni24 C32'
_cell_volume   1953.38756809
_cell_formula_units_Z   8
loop_
 _symmetry_equiv_pos_site_id
 _symmetry_equiv_pos_as_xyz
  1  'x, y, z'
loop_
 _atom_site_type_symbol
 _atom_site_label
 _atom_site_symmetry_multiplicity
 _atom_site_fract_x
 _atom_site_fract_y
 _atom_site_fract_z
 _atom_site_occupancy
  C  C0  1  0.83513400  0.60691200  0.26830900  1
  C  C1  1  0.33513400  0.39308800  0.23169100  1
  C  C2  1  0.66486600  0.10691200  0.73169100  1
  C  C3  1  0.16486600  0.89308800  0.76830900  1
  C  C4  1  0.16486600  0.39308800  0.73169100  1
  C  C5  1  0.66486600  0.60691200  0.76830900  1
  C  C6  1  0.33513400  0.89308800  0.26830900  1
  C  C7  1  0.83513400  0.10691200  0.23169100  1
  C  C8  1  0.10398600  0.75913600  0.06829800  1
  C  C9  1  0.60398600  0.24086400  0.43170200  1
  C  C10  1  0.39601400  0.25913600  0.93170200  1
  C  C11  1  0.89601400  0.74086400  0.56829800  1
  C  C12  1  0.89601400  0.24086400  0.93170200  1
  C  C13  1  0.39601400  0.75913600  0.56829800  1
  C  C14  1  0.60398600  0.74086400  0.06829800  1
  C  C15  1  0.10398600  0.25913600  0.43170200  1
  C  C16  1  0.88409200  0.42125800  0.05423900  1
  C  C17  1  0.38409200  0.57874200  0.44576100  1
  C  C18  1  0.61590800  0.92125800  0.94576100  1
  C  C19  1  0.11590800  0.07874200  0.55423900  1
  C  C20  1  0.11590800  0.57874200  0.94576100  1
  C  C21  1  0.61590800  0.42125800  0.55423900  1
  C  C22  1  0.38409200  0.07874200  0.05423900  1
  C  C23  1  0.88409200  0.92125800  0.44576100  1
  C  C24  1  0.61934500  0.41888000  0.99742800  1
  C  C25  1  0.11934500  0.58112000  0.50257200  1
  C  C26  1  0.88065500  0.91888000  0.00257200  1
  C  C27  1  0.38065500  0.08112000  0.49742800  1
  C  C28  1  0.38065500  0.58112000  0.00257200  1
  C  C29  1  0.88065500  0.41888000  0.49742800  1
  C  C30  1  0.11934500  0.08112000  0.99742800  1
  C  C31  1  0.61934500  0.91888000  0.50257200  1
  Ni  Ni32  1  0.17109700  0.65784900  0.16524400  1
  Ni  Ni33  1  0.67109700  0.34215100  0.33475600  1
  Ni  Ni34  1  0.32890300  0.15784900  0.83475600  1
  Ni  Ni35  1  0.82890300  0.84215100  0.66524400  1
  Ni  Ni36  1  0.82890300  0.34215100  0.83475600  1
  Ni  Ni37  1  0.32890300  0.65784900  0.66524400  1
  Ni  Ni38  1  0.67109700  0.84215100  0.16524400  1
  Ni  Ni39  1  0.17109700  0.15784900  0.33475600  1
  Ni  Ni40  1  0.09433800  0.48409400  0.39699700  1
  Ni  Ni41  1  0.59433800  0.51590600  0.10300300  1
  Ni  Ni42  1  0.40566200  0.98409400  0.60300300  1
  Ni  Ni43  1  0.90566200  0.01590600  0.89699700  1
  Ni  Ni44  1  0.90566200  0.51590600  0.60300300  1
  Ni  Ni45  1  0.40566200  0.48409400  0.89699700  1
  Ni  Ni46  1  0.59433800  0.01590600  0.39699700  1
  Ni  Ni47  1  0.09433800  0.98409400  0.10300300  1
  Ni  Ni48  1  0.98625600  0.36335300  0.15971300  1
  Ni  Ni49  1  0.48625600  0.63664700  0.34028700  1
  Ni  Ni50  1  0.51374400  0.86335300  0.84028700  1
  Ni  Ni51  1  0.01374400  0.13664700  0.65971300  1
  Ni  Ni52  1  0.01374400  0.63664700  0.84028700  1
  Ni  Ni53  1  0.51374400  0.36335300  0.65971300  1
  Ni  Ni54  1  0.48625600  0.13664700  0.15971300  1
  Ni  Ni55  1  0.98625600  0.86335300  0.34028700  1
  Cu  Cu56  1  0.13403500  0.33465000  0.16918400  1
  Cu  Cu57  1  0.63403500  0.66535000  0.33081600  1
  Cu  Cu58  1  0.36596500  0.83465000  0.83081600  1
  Cu  Cu59  1  0.86596500  0.16535000  0.66918400  1
  Cu  Cu60  1  0.86596500  0.66535000  0.83081600  1
  Cu  Cu61  1  0.36596500  0.33465000  0.66918400  1
  Cu  Cu62  1  0.63403500  0.16535000  0.16918400  1
  Cu  Cu63  1  0.13403500  0.83465000  0.33081600  1
  Cu  Cu64  1  0.03540200  0.66609200  0.20547800  1
  Cu  Cu65  1  0.53540200  0.33390800  0.29452200  1
  Cu  Cu66  1  0.46459800  0.16609200  0.79452200  1
  Cu  Cu67  1  0.96459800  0.83390800  0.70547800  1
  Cu  Cu68  1  0.96459800  0.33390800  0.79452200  1
  Cu  Cu69  1  0.46459800  0.66609200  0.70547800  1
  Cu  Cu70  1  0.53540200  0.83390800  0.20547800  1
  Cu  Cu71  1  0.03540200  0.16609200  0.29452200  1
  Cu  Cu72  1  0.94110500  0.44644900  0.21735200  1
  Cu  Cu73  1  0.44110500  0.55355100  0.28264800  1
  Cu  Cu74  1  0.55889500  0.94644900  0.78264800  1
  Cu  Cu75  1  0.05889500  0.05355100  0.71735200  1
  Cu  Cu76  1  0.05889500  0.55355100  0.78264800  1
  Cu  Cu77  1  0.55889500  0.44644900  0.71735200  1
  Cu  Cu78  1  0.44110500  0.05355100  0.21735200  1
  Cu  Cu79  1  0.94110500  0.94644900  0.28264800  1
  Cu  Cu80  1  0.76991400  0.75893000  0.19328000  1
  Cu  Cu81  1  0.26991400  0.24107000  0.30672000  1
  Cu  Cu82  1  0.73008600  0.25893000  0.80672000  1
  Cu  Cu83  1  0.23008600  0.74107000  0.69328000  1
  Cu  Cu84  1  0.23008600  0.24107000  0.80672000  1
  Cu  Cu85  1  0.73008600  0.75893000  0.69328000  1
  Cu  Cu86  1  0.26991400  0.74107000  0.19328000  1
  Cu  Cu87  1  0.76991400  0.25893000  0.30672000  1
  Cu  Cu88  1  0.69892400  0.54564600  0.16161100  1
  Cu  Cu89  1  0.19892400  0.45435400  0.33838900  1
  Cu  Cu90  1  0.80107600  0.04564600  0.83838900  1
  Cu  Cu91  1  0.30107600  0.95435400  0.66161100  1
  Cu  Cu92  1  0.30107600  0.45435400  0.83838900  1
  Cu  Cu93  1  0.80107600  0.54564600  0.66161100  1
  Cu  Cu94  1  0.19892400  0.95435400  0.16161100  1
  Cu  Cu95  1  0.69892400  0.04564600  0.33838900  1
  Cu  Cu96  1  0.14425600  0.68268600  0.07462300  1
  Cu  Cu97  1  0.64425600  0.31731400  0.42537700  1
  Cu  Cu98  1  0.35574400  0.18268600  0.92537700  1
  Cu  Cu99  1  0.85574400  0.81731400  0.57462300  1
  Cu  Cu100  1  0.85574400  0.31731400  0.92537700  1
  Cu  Cu101  1  0.35574400  0.68268600  0.57462300  1
  Cu  Cu102  1  0.64425600  0.81731400  0.07462300  1
  Cu  Cu103  1  0.14425600  0.18268600  0.42537700  1
  Cu  Cu104  1  0.98729300  0.55993000  0.36813600  1
  Cu  Cu105  1  0.48729300  0.44007000  0.13186400  1
  Cu  Cu106  1  0.51270700  0.05993000  0.63186400  1
  Cu  Cu107  1  0.01270700  0.94007000  0.86813600  1
  Cu  Cu108  1  0.01270700  0.44007000  0.63186400  1
  Cu  Cu109  1  0.51270700  0.55993000  0.86813600  1
  Cu  Cu110  1  0.48729300  0.94007000  0.36813600  1
  Cu  Cu111  1  0.98729300  0.05993000  0.13186400  1
  Cu  Cu112  1  0.98146300  0.41665800  0.07412000  1
  Cu  Cu113  1  0.48146300  0.58334200  0.42588000  1
  Cu  Cu114  1  0.51853700  0.91665800  0.92588000  1
  Cu  Cu115  1  0.01853700  0.08334200  0.57412000  1
  Cu  Cu116  1  0.01853700  0.58334200  0.92588000  1
  Cu  Cu117  1  0.51853700  0.41665800  0.57412000  1
  Cu  Cu118  1  0.48146300  0.08334200  0.07412000  1
  Cu  Cu119  1  0.98146300  0.91665800  0.42588000  1
  Cu  Cu120  1  0.22913300  0.54665000  0.16458200  1
  Cu  Cu121  1  0.72913300  0.45335000  0.33541800  1
  Cu  Cu122  1  0.27086700  0.04665000  0.83541800  1
  Cu  Cu123  1  0.77086700  0.95335000  0.66458200  1
  Cu  Cu124  1  0.77086700  0.45335000  0.83541800  1
  Cu  Cu125  1  0.27086700  0.54665000  0.66458200  1
  Cu  Cu126  1  0.72913300  0.95335000  0.16458200  1
  Cu  Cu127  1  0.22913300  0.04665000  0.33541800  1
  Cu  Cu128  1  0.89428400  0.26696100  0.15731000  1
  Cu  Cu129  1  0.39428400  0.73303900  0.34269000  1
  Cu  Cu130  1  0.60571600  0.76696100  0.84269000  1
  Cu  Cu131  1  0.10571600  0.23303900  0.65731000  1
  Cu  Cu132  1  0.10571600  0.73303900  0.84269000  1
  Cu  Cu133  1  0.60571600  0.26696100  0.65731000  1
  Cu  Cu134  1  0.39428400  0.23303900  0.15731000  1
  Cu  Cu135  1  0.89428400  0.76696100  0.34269000  1
  Cu  Cu136  1  0.03221500  0.38844900  0.43820200  1
  Cu  Cu137  1  0.53221500  0.61155100  0.06179800  1
  Cu  Cu138  1  0.46778500  0.88844900  0.56179800  1
  Cu  Cu139  1  0.96778500  0.11155100  0.93820200  1
  Cu  Cu140  1  0.96778500  0.61155100  0.56179800  1
  Cu  Cu141  1  0.46778500  0.38844900  0.93820200  1
  Cu  Cu142  1  0.53221500  0.11155100  0.43820200  1
  Cu  Cu143  1  0.03221500  0.88844900  0.06179800  1
  Cu  Cu144  1  0.68333000  0.44868900  0.03953000  1
  Cu  Cu145  1  0.18333000  0.55131100  0.46047000  1
  Cu  Cu146  1  0.81667000  0.94868900  0.96047000  1
  Cu  Cu147  1  0.31667000  0.05131100  0.53953000  1
  Cu  Cu148  1  0.31667000  0.55131100  0.96047000  1
  Cu  Cu149  1  0.81667000  0.44868900  0.53953000  1
  Cu  Cu150  1  0.18333000  0.05131100  0.03953000  1
  Cu  Cu151  1  0.68333000  0.94868900  0.46047000  1
