# generated using pymatgen
data_Cu2NiC23
_symmetry_space_group_name_H-M   'P 1'
_cell_length_a   18.26903524
_cell_length_b   9.14159123
_cell_length_c   22.86230100
_cell_angle_alpha   89.99979455
_cell_angle_beta   89.79861060
_cell_angle_gamma   120.05056554
_symmetry_Int_Tables_number   1
_chemical_formula_structural   Cu2NiC23
_chemical_formula_sum   'Cu18 Ni9 C207'
_cell_volume   3304.93471180
_cell_formula_units_Z   9
loop_
 _symmetry_equiv_pos_site_id
 _symmetry_equiv_pos_as_xyz
  1  'x, y, z'
loop_
 _atom_site_type_symbol
 _atom_site_label
 _atom_site_symmetry_multiplicity
 _atom_site_fract_x
 _atom_site_fract_y
 _atom_site_fract_z
 _atom_site_occupancy
  C  C0  1  0.31869828  0.00431548  0.24329060  1
  C  C1  1  0.19583791  0.37117364  0.24430436  1
  C  C2  1  0.68935133  0.36695644  0.24278062  1
  C  C3  1  0.99748113  0.63938979  0.24943079  1
  C  C4  1  0.31809047  0.61693984  0.75289520  1
  C  C5  1  0.81916922  0.62661905  0.74686586  1
  C  C6  1  0.99360084  0.36076732  0.74856232  1
  C  C7  1  0.49542697  0.37196638  0.74090494  1
  C  C8  1  0.18324984  0.01050883  0.74579609  1
  C  C9  1  0.68690792  0.01197582  0.74800996  1
  C  C10  1  0.64747628  0.34691983  0.57560323  1
  C  C11  1  0.32424326  0.68768665  0.07862283  1
  C  C12  1  0.82649145  0.69092439  0.08667452  1
  C  C13  1  0.16427861  0.31674835  0.92287175  1
  C  C14  1  0.99332774  0.30801288  0.42107081  1
  C  C15  1  0.16468586  0.02905695  0.41969219  1
  C  C16  1  0.66121267  0.02598790  0.41251642  1
  C  C17  1  0.84135217  0.66741648  0.41817455  1
  C  C18  1  0.00220742  0.00465053  0.50007268  1
  C  C19  1  0.49168980  0.01147710  0.49321970  1
  C  C20  1  0.00628390  0.02471212  0.99942123  1
  C  C21  1  0.50269634  0.02514028  0.99575212  1
  C  C22  1  0.34429366  0.35604611  0.83291941  1
  C  C23  1  0.83864463  0.33543405  0.82777676  1
  C  C24  1  0.33881280  0.36345716  0.32610540  1
  C  C25  1  0.83169353  0.33052423  0.32760604  1
  C  C26  1  0.16775069  0.66483676  0.15643927  1
  C  C27  1  0.66357571  0.66605400  0.15844198  1
  C  C28  1  0.16140608  0.65939313  0.65833675  1
  C  C29  1  0.65972364  0.66831903  0.65852905  1
  C  C30  1  0.99961682  0.99234457  0.35292084  1
  C  C31  1  0.99951877  0.00564454  0.84911941  1
  C  C32  1  0.50283378  0.99826325  0.85631509  1
  C  C33  1  0.00137184  0.00170621  0.65037852  1
  C  C34  1  0.50209295  0.00618982  0.64576064  1
  C  C35  1  0.00514978  0.99803842  0.14719718  1
  C  C36  1  0.50068824  0.00198758  0.14613844  1
  C  C37  1  0.33393076  0.33816541  0.97917447  1
  C  C38  1  0.82962640  0.32680619  0.98100672  1
  C  C39  1  0.33769855  0.33827167  0.48406357  1
  C  C40  1  0.83275457  0.33421643  0.47805668  1
  C  C41  1  0.17209388  0.66529317  0.31631229  1
  C  C42  1  0.67236341  0.66927878  0.31605722  1
  C  C43  1  0.15969000  0.64818359  0.81835282  1
  C  C44  1  0.66009151  0.65722342  0.81273562  1
  Ni  Ni45  1  0.49821610  0.00025196  0.35028027  1
  Ni  Ni46  1  0.34199135  0.35554288  0.68193889  1
  Ni  Ni47  1  0.83605653  0.33576025  0.69061653  1
  Ni  Ni48  1  0.32746786  0.34792201  0.18586136  1
  Ni  Ni49  1  0.82868620  0.34354108  0.17872620  1
  Ni  Ni50  1  0.16757340  0.62787253  0.01279473  1
  Ni  Ni51  1  0.65583691  0.62713645  0.01821528  1
  Ni  Ni52  1  0.15915879  0.65179357  0.51026621  1
  Ni  Ni53  1  0.65966344  0.64384319  0.51282124  1
  Cu  Cu54  1  0.15143816  0.00071448  0.25126183  1
  Cu  Cu55  1  0.35918376  0.71112884  0.25302638  1
  Cu  Cu56  1  0.85099798  0.69875702  0.24737305  1
  Cu  Cu57  1  0.15142224  0.29685038  0.74864029  1
  Cu  Cu58  1  0.64786384  0.29211325  0.74885267  1
  Cu  Cu59  1  0.00264660  0.70840670  0.75001453  1
  Cu  Cu60  1  0.49780531  0.70639528  0.74916270  1
  Cu  Cu61  1  0.85227773  0.99967682  0.74853245  1
  Cu  Cu62  1  0.48437398  0.34200288  0.58712968  1
  Cu  Cu63  1  0.18422092  0.33549306  0.08521032  1
  Cu  Cu64  1  0.68498058  0.33962441  0.08645104  1
  Cu  Cu65  1  0.31557673  0.67190187  0.92005548  1
  Cu  Cu66  1  0.01425961  0.36305770  0.91862279  1
  Cu  Cu67  1  0.51785881  0.36984121  0.91749098  1
  Cu  Cu68  1  0.80892835  0.95070440  0.42152895  1
  Cu  Cu69  1  0.16916249  0.37239217  0.41838760  1
  Cu  Cu70  1  0.65788576  0.35698252  0.41804333  1
  Cu  Cu71  1  0.02397495  0.66966506  0.41792026  1
  C  C72  1  0.64761786  0.99801902  0.25082795  1
  C  C73  1  0.99799615  0.29168422  0.25004146  1
  C  C74  1  0.50064648  0.29511863  0.25073717  1
  C  C75  1  0.35371353  0.99756137  0.75098091  1
  C  C76  1  0.98116219  0.33443545  0.58436718  1
  C  C77  1  0.18615085  0.03470060  0.58409791  1
  C  C78  1  0.68755392  0.03772466  0.58472691  1
  C  C79  1  0.32949764  0.62975430  0.58452551  1
  C  C80  1  0.83579705  0.63009849  0.58518908  1
  C  C81  1  0.48053400  0.62412956  0.08572073  1
  C  C82  1  0.98098673  0.62449823  0.08432660  1
  C  C83  1  0.33293443  0.04239212  0.08670282  1
  C  C84  1  0.83242939  0.04216988  0.08533035  1
  C  C85  1  0.81424033  0.66819548  0.91901223  1
  C  C86  1  0.16588771  0.95620141  0.91864887  1
  C  C87  1  0.66829813  0.95528654  0.91955659  1
  C  C88  1  0.31476475  0.96105429  0.41969502  1
  C  C89  1  0.52006120  0.66527840  0.41754814  1
  C  C90  1  0.10455612  0.02936683  0.30826193  1
  C  C91  1  0.61214189  0.02627594  0.30509255  1
  C  C92  1  0.41380978  0.81369816  0.30848329  1
  C  C93  1  0.90895216  0.79745387  0.30483889  1
  C  C94  1  0.48954874  0.19567160  0.30372383  1
  C  C95  1  0.98785443  0.19576779  0.30487729  1
  C  C96  1  0.10728705  0.18175389  0.80763990  1
  C  C97  1  0.59964224  0.16520766  0.80299455  1
  C  C98  1  0.48255019  0.79868803  0.80463165  1
  C  C99  1  0.98658390  0.79892059  0.80626576  1
  C  C100  1  0.40729828  0.02345452  0.80263921  1
  C  C101  1  0.91540940  0.03575760  0.80441356  1
  C  C102  1  0.39299430  0.96964419  0.69769341  1
  C  C103  1  0.89657623  0.95955976  0.69241871  1
  C  C104  1  0.08398287  0.20646262  0.69455838  1
  C  C105  1  0.58689936  0.21000258  0.69039632  1
  C  C106  1  0.02061410  0.83504743  0.69334652  1
  C  C107  1  0.51234326  0.82765181  0.69170419  1
  C  C108  1  0.40011343  0.83010768  0.19248163  1
  C  C109  1  0.89573542  0.81353093  0.18897668  1
  C  C110  1  0.01034707  0.20443379  0.19930236  1
  C  C111  1  0.51803674  0.21346860  0.19873535  1
  C  C112  1  0.08610676  0.97109486  0.19620858  1
  C  C113  1  0.59301152  0.98231052  0.19933988  1
  C  C114  1  0.43935205  0.35137395  0.64721390  1
  C  C115  1  0.93789959  0.34533677  0.63740267  1
  C  C116  1  0.23361407  0.11901386  0.63755202  1
  C  C117  1  0.73621314  0.12233987  0.63783632  1
  C  C118  1  0.31818139  0.53395170  0.63930819  1
  C  C119  1  0.82821012  0.52716808  0.63742585  1
  C  C120  1  0.44142720  0.52140105  0.13779687  1
  C  C121  1  0.94432963  0.52999778  0.13969713  1
  C  C122  1  0.32963641  0.12462471  0.14120203  1
  C  C123  1  0.82664089  0.12835900  0.13792647  1
  C  C124  1  0.23895924  0.36086649  0.14385788  1
  C  C125  1  0.73864027  0.36846944  0.14657000  1
  C  C126  1  0.23114432  0.31199184  0.02598502  1
  C  C127  1  0.73625247  0.31518302  0.03025742  1
  C  C128  1  0.42652125  0.54408904  0.03258039  1
  C  C129  1  0.92341893  0.53233020  0.03410998  1
  C  C130  1  0.34544116  0.14991239  0.03461493  1
  C  C131  1  0.84526761  0.14863233  0.03161647  1
  C  C132  1  0.22994218  0.14253924  0.53041993  1
  C  C133  1  0.73027925  0.14918588  0.53179812  1
  C  C134  1  0.34037347  0.53756203  0.53337538  1
  C  C135  1  0.84275298  0.54234309  0.53078983  1
  C  C136  1  0.42232429  0.31958575  0.53027391  1
  C  C137  1  0.92964444  0.31849266  0.53054486  1
  C  C138  1  0.27847968  0.70361707  0.97922515  1
  C  C139  1  0.77679929  0.69340291  0.97202792  1
  C  C140  1  0.07699619  0.45162982  0.97162114  1
  C  C141  1  0.57467778  0.45489327  0.97310416  1
  C  C142  1  0.15582995  0.85418252  0.96944550  1
  C  C143  1  0.66070271  0.85512173  0.97030771  1
  C  C144  1  0.27323253  0.85748302  0.47096885  1
  C  C145  1  0.76550040  0.82451634  0.47516565  1
  C  C146  1  0.14639109  0.45291198  0.47278843  1
  C  C147  1  0.64709633  0.43287127  0.47836727  1
  C  C148  1  0.08719464  0.72212088  0.47197929  1
  C  C149  1  0.57235193  0.69104208  0.46948294  1
  C  C150  1  0.06206167  0.63038629  0.35830671  1
  C  C151  1  0.55920558  0.63817799  0.36395504  1
  C  C152  1  0.26106449  0.88345290  0.36512701  1
  C  C153  1  0.74925122  0.87301119  0.36203849  1
  C  C154  1  0.18254083  0.48206241  0.35721883  1
  C  C155  1  0.67884219  0.48820131  0.36129207  1
  C  C156  1  0.05554428  0.47065442  0.85611695  1
  C  C157  1  0.56020894  0.48411551  0.85695244  1
  C  C158  1  0.17572019  0.88028917  0.86256769  1
  C  C159  1  0.67936643  0.88215293  0.86361137  1
  C  C160  1  0.25430237  0.64122600  0.86194093  1
  C  C161  1  0.76288670  0.64671340  0.86531312  1
  C  C162  1  0.00550082  0.82764546  0.41034083  1
  C  C163  1  0.51140521  0.81667244  0.41152510  1
  C  C164  1  0.40031522  0.98929481  0.41258702  1
  C  C165  1  0.90494513  0.98326605  0.41056172  1
  C  C166  1  0.08284335  0.18340226  0.41026141  1
  C  C167  1  0.58251522  0.16405348  0.40709570  1
  C  C168  1  0.00977658  0.17763534  0.91298942  1
  C  C169  1  0.50842197  0.18278820  0.90880612  1
  C  C170  1  0.09135797  0.98365935  0.91331726  1
  C  C171  1  0.59276074  0.97731184  0.91458790  1
  C  C172  1  0.41070832  0.82925582  0.91091650  1
  C  C173  1  0.90099001  0.81640869  0.91228722  1
  C  C174  1  0.49246426  0.16527716  0.58567994  1
  C  C175  1  0.98723058  0.17606005  0.58467524  1
  C  C176  1  0.10040518  0.02237578  0.58420465  1
  C  C177  1  0.60293244  0.03313818  0.58591938  1
  C  C178  1  0.40964087  0.79824467  0.58617175  1
  C  C179  1  0.91462922  0.79900800  0.58549211  1
  C  C180  1  0.48207220  0.79361755  0.08983192  1
  C  C181  1  0.97916146  0.79045384  0.08587856  1
  C  C182  1  0.41141602  0.02010636  0.08779150  1
  C  C183  1  0.90941812  0.02027088  0.08725954  1
  C  C184  1  0.08788534  0.16168216  0.08814743  1
  C  C185  1  0.59059560  0.16596072  0.08949611  1
  C  C186  1  0.34260476  0.14575052  0.74585841  1
  C  C187  1  0.84233999  0.16487280  0.74338014  1
  C  C188  1  0.24262296  0.30980990  0.74085162  1
  C  C189  1  0.74130797  0.31549024  0.74322125  1
  C  C190  1  0.41655253  0.51706134  0.74677877  1
  C  C191  1  0.92096441  0.52140130  0.74433053  1
  C  C192  1  0.34371412  0.52126780  0.24788887  1
  C  C193  1  0.84561211  0.51347858  0.24704394  1
  C  C194  1  0.42477771  0.30801129  0.24146753  1
  C  C195  1  0.92519075  0.31717064  0.24393076  1
  C  C196  1  0.24583208  0.16089479  0.24646091  1
  C  C197  1  0.73354819  0.14708909  0.24365463  1
  C  C198  1  0.31680205  0.48980348  0.92198288  1
  C  C199  1  0.82200176  0.51134974  0.92265937  1
  C  C200  1  0.42220655  0.34645072  0.92284517  1
  C  C201  1  0.92027154  0.34407687  0.92385771  1
  C  C202  1  0.24305635  0.13128844  0.92080200  1
  C  C203  1  0.74514731  0.13108810  0.92211217  1
  C  C204  1  0.31764437  0.12999994  0.42337105  1
  C  C205  1  0.82110047  0.14281570  0.42674838  1
  C  C206  1  0.24940057  0.33835767  0.42455623  1
  C  C207  1  0.74977976  0.35112881  0.42225950  1
  C  C208  1  0.43333967  0.51016155  0.42253524  1
  C  C209  1  0.92899172  0.49858128  0.42554588  1
  C  C210  1  0.17724274  0.50672156  0.08200264  1
  C  C211  1  0.68179263  0.51499390  0.08137636  1
  C  C212  1  0.06667964  0.65816575  0.07674682  1
  C  C213  1  0.56746212  0.65975299  0.07854883  1
  C  C214  1  0.25839512  0.87287425  0.08209172  1
  C  C215  1  0.75742115  0.87296622  0.07948162  1
  C  C216  1  0.17783322  0.86666776  0.57886372  1
  C  C217  1  0.67599437  0.87035633  0.57812214  1
  C  C218  1  0.25604633  0.65298041  0.57685336  1
  C  C219  1  0.75957752  0.64517448  0.58214358  1
  C  C220  1  0.06583917  0.48619568  0.58079122  1
  C  C221  1  0.57976245  0.50464383  0.58064101  1
  C  C222  1  0.15229876  0.82207886  0.25590014  1
  C  C223  1  0.65062299  0.83801565  0.25291395  1
  C  C224  1  0.26183940  0.69470370  0.25536738  1
  C  C225  1  0.75463395  0.67385431  0.25414191  1
  C  C226  1  0.07841884  0.46142150  0.25279217  1
  C  C227  1  0.57866429  0.46685190  0.25419458  1
  C  C228  1  0.16063909  0.48605972  0.75443561  1
  C  C229  1  0.65604384  0.47953048  0.75591045  1
  C  C230  1  0.09127729  0.70200227  0.75514683  1
  C  C231  1  0.58703229  0.70076694  0.75501143  1
  C  C232  1  0.26881947  0.84151472  0.75633940  1
  C  C233  1  0.76072462  0.82893510  0.75790780  1
