# generated using pymatgen
data_CuNi3C7
_symmetry_space_group_name_H-M   'P 1'
_cell_length_a   5.35139100
_cell_length_b   14.32613500
_cell_length_c   16.37865700
_cell_angle_alpha   90.00000000
_cell_angle_beta   90.00000000
_cell_angle_gamma   90.00000000
_symmetry_Int_Tables_number   1
_chemical_formula_structural   CuNi3C7
_chemical_formula_sum   'Cu8 Ni24 C56'
_cell_volume   1255.66564266
_cell_formula_units_Z   8
loop_
 _symmetry_equiv_pos_site_id
 _symmetry_equiv_pos_as_xyz
  1  'x, y, z'
loop_
 _atom_site_type_symbol
 _atom_site_label
 _atom_site_symmetry_multiplicity
 _atom_site_fract_x
 _atom_site_fract_y
 _atom_site_fract_z
 _atom_site_occupancy
  Ni  Ni0  1  0.82383000  0.63514300  0.65789600  1
  Ni  Ni1  1  0.32383000  0.36485700  0.84210400  1
  Ni  Ni2  1  0.67617000  0.13514300  0.34210400  1
  Ni  Ni3  1  0.17617000  0.86485700  0.15789600  1
  Ni  Ni4  1  0.17617000  0.36485700  0.34210400  1
  Ni  Ni5  1  0.67617000  0.63514300  0.15789600  1
  Ni  Ni6  1  0.32383000  0.86485700  0.65789600  1
  Ni  Ni7  1  0.82383000  0.13514300  0.84210400  1
  Ni  Ni8  1  0.84457600  0.96528900  0.59474900  1
  Ni  Ni9  1  0.34457600  0.03471100  0.90525100  1
  Ni  Ni10  1  0.65542400  0.46528900  0.40525100  1
  Ni  Ni11  1  0.15542400  0.53471100  0.09474900  1
  Ni  Ni12  1  0.15542400  0.03471100  0.40525100  1
  Ni  Ni13  1  0.65542400  0.96528900  0.09474900  1
  Ni  Ni14  1  0.34457600  0.53471100  0.59474900  1
  Ni  Ni15  1  0.84457600  0.46528900  0.90525100  1
  Ni  Ni16  1  0.85880100  0.67556700  0.97102500  1
  Ni  Ni17  1  0.35880100  0.32443300  0.52897500  1
  Ni  Ni18  1  0.64119900  0.17556700  0.02897500  1
  Ni  Ni19  1  0.14119900  0.82443300  0.47102500  1
  Ni  Ni20  1  0.14119900  0.32443300  0.02897500  1
  Ni  Ni21  1  0.64119900  0.67556700  0.47102500  1
  Ni  Ni22  1  0.35880100  0.82443300  0.97102500  1
  Ni  Ni23  1  0.85880100  0.17556700  0.52897500  1
  Cu  Cu24  1  0.87289900  0.84707200  0.81314300  1
  Cu  Cu25  1  0.37289900  0.15292800  0.68685700  1
  Cu  Cu26  1  0.62710100  0.34707200  0.18685700  1
  Cu  Cu27  1  0.12710100  0.65292800  0.31314300  1
  Cu  Cu28  1  0.12710100  0.15292800  0.18685700  1
  Cu  Cu29  1  0.62710100  0.84707200  0.31314300  1
  Cu  Cu30  1  0.37289900  0.65292800  0.81314300  1
  Cu  Cu31  1  0.87289900  0.34707200  0.68685700  1
  C  C32  1  0.63407200  0.90889100  0.66419500  1
  C  C33  1  0.13407200  0.09110900  0.83580500  1
  C  C34  1  0.86592800  0.40889100  0.33580500  1
  C  C35  1  0.36592800  0.59110900  0.16419500  1
  C  C36  1  0.36592800  0.09110900  0.33580500  1
  C  C37  1  0.86592800  0.90889100  0.16419500  1
  C  C38  1  0.13407200  0.59110900  0.66419500  1
  C  C39  1  0.63407200  0.40889100  0.83580500  1
  C  C40  1  0.62337900  0.53374300  0.65498200  1
  C  C41  1  0.12337900  0.46625700  0.84501800  1
  C  C42  1  0.87662100  0.03374300  0.34501800  1
  C  C43  1  0.37662100  0.96625700  0.15498200  1
  C  C44  1  0.37662100  0.46625700  0.34501800  1
  C  C45  1  0.87662100  0.53374300  0.15498200  1
  C  C46  1  0.12337900  0.96625700  0.65498200  1
  C  C47  1  0.62337900  0.03374300  0.84501800  1
  C  C48  1  0.57820500  0.75019400  0.91744600  1
  C  C49  1  0.07820500  0.24980600  0.58255400  1
  C  C50  1  0.92179500  0.25019400  0.08255400  1
  C  C51  1  0.42179500  0.74980600  0.41744600  1
  C  C52  1  0.42179500  0.24980600  0.08255400  1
  C  C53  1  0.92179500  0.75019400  0.41744600  1
  C  C54  1  0.07820500  0.74980600  0.91744600  1
  C  C55  1  0.57820500  0.25019400  0.58255400  1
  C  C56  1  0.77953500  0.70141900  0.56791500  1
  C  C57  1  0.27953500  0.29858100  0.93208500  1
  C  C58  1  0.72046500  0.20141900  0.43208500  1
  C  C59  1  0.22046500  0.79858100  0.06791500  1
  C  C60  1  0.22046500  0.29858100  0.43208500  1
  C  C61  1  0.72046500  0.70141900  0.06791500  1
  C  C62  1  0.27953500  0.79858100  0.56791500  1
  C  C63  1  0.77953500  0.20141900  0.93208500  1
  C  C64  1  0.71690000  0.57963200  0.91222600  1
  C  C65  1  0.21690000  0.42036800  0.58777400  1
  C  C66  1  0.78310000  0.07963200  0.08777400  1
  C  C67  1  0.28310000  0.92036800  0.41222600  1
  C  C68  1  0.28310000  0.42036800  0.08777400  1
  C  C69  1  0.78310000  0.57963200  0.41222600  1
  C  C70  1  0.21690000  0.92036800  0.91222600  1
  C  C71  1  0.71690000  0.07963200  0.58777400  1
  C  C72  1  0.62243800  0.90538400  0.00274500  1
  C  C73  1  0.12243800  0.09461600  0.49725500  1
  C  C74  1  0.87756200  0.40538400  0.99725500  1
  C  C75  1  0.37756200  0.59461600  0.50274500  1
  C  C76  1  0.37756200  0.09461600  0.99725500  1
  C  C77  1  0.87756200  0.90538400  0.50274500  1
  C  C78  1  0.12243800  0.59461600  0.00274500  1
  C  C79  1  0.62243800  0.40538400  0.49725500  1
  C  C80  1  0.76029100  0.69529100  0.74759300  1
  C  C81  1  0.26029100  0.30470900  0.75240700  1
  C  C82  1  0.73970900  0.19529100  0.25240700  1
  C  C83  1  0.23970900  0.80470900  0.24759300  1
  C  C84  1  0.23970900  0.30470900  0.25240700  1
  C  C85  1  0.73970900  0.69529100  0.24759300  1
  C  C86  1  0.26029100  0.80470900  0.74759300  1
  C  C87  1  0.76029100  0.19529100  0.75240700  1
