# generated using pymatgen
data_CuNiC18
_symmetry_space_group_name_H-M   'P 1'
_cell_length_a   15.59705824
_cell_length_b   8.99121640
_cell_length_c   8.96998079
_cell_angle_alpha   90.00000000
_cell_angle_beta   124.74501467
_cell_angle_gamma   90.00000000
_symmetry_Int_Tables_number   1
_chemical_formula_structural   CuNiC18
_chemical_formula_sum   'Cu4 Ni4 C72'
_cell_volume   1033.62763143
_cell_formula_units_Z   4
loop_
 _symmetry_equiv_pos_site_id
 _symmetry_equiv_pos_as_xyz
  1  'x, y, z'
loop_
 _atom_site_type_symbol
 _atom_site_label
 _atom_site_symmetry_multiplicity
 _atom_site_fract_x
 _atom_site_fract_y
 _atom_site_fract_z
 _atom_site_occupancy
  C  C0  1  0.25185129  0.72207826  0.98382255  1
  C  C1  1  0.75185129  0.77792174  0.48382255  1
  C  C2  1  0.75185129  0.22207826  0.98382255  1
  C  C3  1  0.25185129  0.27792174  0.48382255  1
  C  C4  1  0.50211712  0.11139112  0.74567096  1
  C  C5  1  0.50211712  0.88860888  0.24567096  1
  C  C6  1  0.00211712  0.61139112  0.74567096  1
  C  C7  1  0.00211712  0.38860888  0.24567096  1
  C  C8  1  0.18458954  0.94232985  0.28629029  1
  C  C9  1  0.18458954  0.05767015  0.78629029  1
  C  C10  1  0.68458954  0.44232985  0.28629029  1
  C  C11  1  0.68458954  0.55767015  0.78629029  1
  Ni  Ni12  1  0.89451557  0.75754082  0.94144496  1
  Ni  Ni13  1  0.89451557  0.24245918  0.44144496  1
  Ni  Ni14  1  0.39451557  0.25754082  0.94144496  1
  Ni  Ni15  1  0.39451557  0.74245918  0.44144496  1
  Cu  Cu16  1  0.10156605  0.75034648  0.55732076  1
  Cu  Cu17  1  0.10156605  0.24965352  0.05732076  1
  Cu  Cu18  1  0.60156605  0.25034648  0.55732076  1
  Cu  Cu19  1  0.60156605  0.74965352  0.05732076  1
  C  C20  1  0.00334380  0.95192488  0.76224192  1
  C  C21  1  0.00334380  0.04807512  0.26224192  1
  C  C22  1  0.50334380  0.45192488  0.76224192  1
  C  C23  1  0.50334380  0.54807512  0.26224192  1
  C  C24  1  0.35259280  0.89704532  0.76147958  1
  C  C25  1  0.64432310  0.89357308  0.74599459  1
  C  C26  1  0.64432310  0.10642692  0.24599459  1
  C  C27  1  0.35259280  0.10295468  0.26147958  1
  C  C28  1  0.85259280  0.39704532  0.76147958  1
  C  C29  1  0.14432310  0.39357308  0.74599459  1
  C  C30  1  0.14432310  0.60642692  0.24599459  1
  C  C31  1  0.85259280  0.60295468  0.26147958  1
  C  C32  1  0.15045374  0.56277217  0.73821488  1
  C  C33  1  0.84706675  0.57342056  0.75823185  1
  C  C34  1  0.84706675  0.42657944  0.25823185  1
  C  C35  1  0.15045374  0.43722783  0.23821488  1
  C  C36  1  0.65045374  0.06277217  0.73821488  1
  C  C37  1  0.34706675  0.07342056  0.75823185  1
  C  C38  1  0.34706675  0.92657944  0.25823185  1
  C  C39  1  0.65045374  0.93722783  0.23821488  1
  C  C40  1  0.44232984  0.55831340  0.59376944  1
  C  C41  1  0.56738754  0.54277539  0.93455192  1
  C  C42  1  0.56738754  0.45722461  0.43455192  1
  C  C43  1  0.44232984  0.44168660  0.09376944  1
  C  C44  1  0.94232984  0.05831340  0.59376944  1
  C  C45  1  0.06738754  0.04277539  0.93455192  1
  C  C46  1  0.06738754  0.95722461  0.43455192  1
  C  C47  1  0.94232984  0.94168660  0.09376944  1
  C  C48  1  0.25621344  0.83842336  0.74758887  1
  C  C49  1  0.73717171  0.81557281  0.75302740  1
  C  C50  1  0.73717171  0.18442719  0.25302740  1
  C  C51  1  0.25621344  0.16157664  0.24758887  1
  C  C52  1  0.75621344  0.33842336  0.74758887  1
  C  C53  1  0.23717171  0.31557281  0.75302740  1
  C  C54  1  0.23717171  0.68442719  0.25302740  1
  C  C55  1  0.75621344  0.66157664  0.24758887  1
  C  C56  1  0.35105318  0.85896872  0.58747527  1
  C  C57  1  0.64237520  0.84431805  0.90522291  1
  C  C58  1  0.64237520  0.15568195  0.40522291  1
  C  C59  1  0.35105318  0.14103128  0.08747527  1
  C  C60  1  0.85105318  0.35896872  0.58747527  1
  C  C61  1  0.14237520  0.34431805  0.90522291  1
  C  C62  1  0.14237520  0.65568195  0.40522291  1
  C  C63  1  0.85105318  0.64103128  0.08747527  1
  C  C64  1  0.45451368  0.84520444  0.93185827  1
  C  C65  1  0.54234877  0.83312586  0.56587066  1
  C  C66  1  0.54234877  0.16687414  0.06587066  1
  C  C67  1  0.45451368  0.15479556  0.43185827  1
  C  C68  1  0.95451368  0.34520444  0.93185827  1
  C  C69  1  0.04234877  0.33312586  0.56587066  1
  C  C70  1  0.04234877  0.66687414  0.06587066  1
  C  C71  1  0.95451368  0.65479556  0.43185827  1
  C  C72  1  0.07623360  0.84798799  0.74572582  1
  C  C73  1  0.91795327  0.85270262  0.75419709  1
  C  C74  1  0.91795327  0.14729738  0.25419709  1
  C  C75  1  0.07623360  0.15201201  0.24572582  1
  C  C76  1  0.57623360  0.34798799  0.74572582  1
  C  C77  1  0.41795327  0.35270262  0.75419709  1
  C  C78  1  0.41795327  0.64729738  0.25419709  1
  C  C79  1  0.57623360  0.65201201  0.24572582  1
