# generated using pymatgen
data_Cu3NiC31
_symmetry_space_group_name_H-M   'P 1'
_cell_length_a   18.20413352
_cell_length_b   9.12580313
_cell_length_c   23.96199482
_cell_angle_alpha   89.92980161
_cell_angle_beta   90.10035261
_cell_angle_gamma   120.16937848
_symmetry_Int_Tables_number   1
_chemical_formula_structural   Cu3NiC31
_chemical_formula_sum   'Cu18 Ni6 C186'
_cell_volume   3441.51950106
_cell_formula_units_Z   6
loop_
 _symmetry_equiv_pos_site_id
 _symmetry_equiv_pos_as_xyz
  1  'x, y, z'
loop_
 _atom_site_type_symbol
 _atom_site_label
 _atom_site_symmetry_multiplicity
 _atom_site_fract_x
 _atom_site_fract_y
 _atom_site_fract_z
 _atom_site_occupancy
  Ni  Ni0  1  0.99869545  0.98338375  0.49933396  1
  Ni  Ni1  1  0.50247646  0.01617761  0.99645079  1
  Ni  Ni2  1  0.34571893  0.33814624  0.83538850  1
  Ni  Ni3  1  0.83923331  0.36598178  0.83056647  1
  Ni  Ni4  1  0.34089464  0.31562800  0.33763340  1
  Ni  Ni5  1  0.84467040  0.34953959  0.34520725  1
  Cu  Cu6  1  0.00570722  0.99082095  0.36005700  1
  Cu  Cu7  1  0.50447158  0.01796792  0.85713878  1
  Cu  Cu8  1  0.00096415  0.99347510  0.64863441  1
  Cu  Cu9  1  0.50233301  0.00936880  0.14931611  1
  Cu  Cu10  1  0.32582819  0.33690505  0.68172832  1
  Cu  Cu11  1  0.84128260  0.34024245  0.68431389  1
  Cu  Cu12  1  0.34554882  0.33972845  0.18902754  1
  Cu  Cu13  1  0.82440006  0.31203715  0.18270267  1
  Cu  Cu14  1  0.33366846  0.33217565  0.98111135  1
  Cu  Cu15  1  0.84007849  0.33572627  0.98222397  1
  Cu  Cu16  1  0.34084847  0.34576510  0.48375707  1
  Cu  Cu17  1  0.82798987  0.32620287  0.48468404  1
  Cu  Cu18  1  0.16104259  0.65985545  0.01920319  1
  Cu  Cu19  1  0.66267352  0.67394789  0.52322389  1
  Cu  Cu20  1  0.16143422  0.67366683  0.31306503  1
  Cu  Cu21  1  0.66866654  0.66387939  0.30832214  1
  Cu  Cu22  1  0.16839334  0.67415303  0.80666292  1
  Cu  Cu23  1  0.66074915  0.64809017  0.81063145  1
  C  C24  1  0.49245670  0.00289663  0.35590889  1
  C  C25  1  0.99232505  0.98146204  0.85397141  1
  C  C26  1  0.49784308  0.99052454  0.64344561  1
  C  C27  1  0.99505642  0.00008987  0.14586789  1
  C  C28  1  0.67535586  0.66770765  0.01424298  1
  C  C29  1  0.17380574  0.68145611  0.51515438  1
  C  C30  1  0.49602690  0.28386404  0.25313874  1
  C  C31  1  0.99341140  0.70208912  0.75238819  1
  C  C32  1  0.68633873  0.04263185  0.58693958  1
  C  C33  1  0.32932269  0.62920434  0.58279765  1
  C  C34  1  0.82953679  0.03070912  0.08254427  1
  C  C35  1  0.81237399  0.66174882  0.91303458  1
  C  C36  1  0.52093210  0.37605166  0.91888947  1
  C  C37  1  0.31152779  0.96408007  0.41379616  1
  C  C38  1  0.01848088  0.65925646  0.41886353  1
  C  C39  1  0.14189000  0.00484885  0.24539429  1
  C  C40  1  0.64402487  0.00902033  0.25519737  1
  C  C41  1  0.35877017  0.71166445  0.25404320  1
  C  C42  1  0.86152430  0.71613451  0.24754209  1
  C  C43  1  0.99904527  0.27881832  0.24751130  1
  C  C44  1  0.14415019  0.27864919  0.75561360  1
  C  C45  1  0.64168037  0.27947425  0.74614011  1
  C  C46  1  0.49783032  0.71877412  0.74829847  1
  C  C47  1  0.36113016  0.00888560  0.74829727  1
  C  C48  1  0.85940036  0.00738265  0.75452184  1
  C  C49  1  0.47895836  0.32035066  0.58748780  1
  C  C50  1  0.98978093  0.34392925  0.57948115  1
  C  C51  1  0.18490627  0.02915636  0.57912121  1
  C  C52  1  0.83534718  0.63330797  0.58179327  1
  C  C53  1  0.48771555  0.63382354  0.07982835  1
  C  C54  1  0.98040915  0.63900065  0.08766003  1
  C  C55  1  0.33283629  0.03495906  0.08232119  1
  C  C56  1  0.18092777  0.32271950  0.08734492  1
  C  C57  1  0.68511481  0.34079610  0.07896263  1
  C  C58  1  0.31261612  0.66740219  0.91744612  1
  C  C59  1  0.02206971  0.36540871  0.91234279  1
  C  C60  1  0.16127176  0.96099378  0.91374831  1
  C  C61  1  0.66638591  0.94940461  0.91912867  1
  C  C62  1  0.81357987  0.95949674  0.41577265  1
  C  C63  1  0.16734287  0.38395480  0.41908824  1
  C  C64  1  0.66210627  0.36140043  0.41262456  1
  C  C65  1  0.52050791  0.67680601  0.41105763  1
  C  C66  1  0.10504348  0.02862902  0.29725499  1
  C  C67  1  0.59583045  0.01981262  0.30336626  1
  C  C68  1  0.41465910  0.80287229  0.30394845  1
  C  C69  1  0.91236622  0.79358445  0.29806093  1
  C  C70  1  0.48763374  0.15573424  0.30739318  1
  C  C71  1  0.98731516  0.17727358  0.29750471  1
  C  C72  1  0.09556508  0.17112427  0.80443085  1
  C  C73  1  0.60435541  0.18311357  0.79851648  1
  C  C74  1  0.48661868  0.79656486  0.79899969  1
  C  C75  1  0.98778701  0.81690434  0.80813844  1
  C  C76  1  0.41053015  0.03174887  0.80008345  1
  C  C77  1  0.91573718  0.02374357  0.80488659  1
  C  C78  1  0.40674042  0.99616437  0.69905516  1
  C  C79  1  0.89930699  0.99201282  0.70337086  1
  C  C80  1  0.09786660  0.20828588  0.70297877  1
  C  C81  1  0.58568640  0.18244719  0.69826380  1
  C  C82  1  0.00341703  0.81223304  0.69757204  1
  C  C83  1  0.50113160  0.82203184  0.69801818  1
  C  C84  1  0.39850033  0.80677064  0.20247547  1
  C  C85  1  0.90919777  0.82411205  0.19710622  1
  C  C86  1  0.00328797  0.18073418  0.19623957  1
  C  C87  1  0.50367648  0.19619045  0.19693836  1
  C  C88  1  0.08630473  0.99124751  0.19664198  1
  C  C89  1  0.59827006  0.98753308  0.20214249  1
  C  C90  1  0.43814734  0.35164768  0.63548135  1
  C  C91  1  0.95474261  0.37423165  0.63101772  1
  C  C92  1  0.23367282  0.09966196  0.63113099  1
  C  C93  1  0.74697854  0.13375969  0.63991462  1
  C  C94  1  0.30827899  0.50933059  0.63727691  1
  C  C95  1  0.82891807  0.53838932  0.63282627  1
  C  C96  1  0.44983004  0.53196678  0.13146618  1
  C  C97  1  0.94010026  0.52773170  0.13579977  1
  C  C98  1  0.32356829  0.11693247  0.13288812  1
  C  C99  1  0.81025409  0.10724748  0.13777761  1
  C  C100  1  0.23727261  0.35627060  0.13527942  1
  C  C101  1  0.73385401  0.36779074  0.13114074  1
  C  C102  1  0.21203063  0.27913976  0.03721387  1
  C  C103  1  0.72826956  0.31564535  0.03143173  1
  C  C104  1  0.42808182  0.54902273  0.03254145  1
  C  C105  1  0.92755375  0.57737134  0.03734746  1
  C  C106  1  0.34455698  0.14103973  0.03272510  1
  C  C107  1  0.85842323  0.15844329  0.03071719  1
  C  C108  1  0.22783257  0.13995398  0.53133925  1
  C  C109  1  0.72011122  0.15716862  0.53149660  1
  C  C110  1  0.35589506  0.55697590  0.53027386  1
  C  C111  1  0.85044160  0.55608131  0.53221069  1
  C  C112  1  0.42598613  0.27927882  0.53710643  1
  C  C113  1  0.93185586  0.31036823  0.53174486  1
  C  C114  1  0.27024320  0.68620291  0.96805577  1
  C  C115  1  0.76438500  0.68782611  0.97000811  1
  C  C116  1  0.07038399  0.43787672  0.96514605  1
  C  C117  1  0.58380842  0.49126546  0.97267896  1
  C  C118  1  0.14537017  0.85699587  0.96466928  1
  C  C119  1  0.66054414  0.84458521  0.96968756  1
  C  C120  1  0.26312985  0.84226585  0.46993683  1
  C  C121  1  0.77244515  0.85633864  0.46587072  1
  C  C122  1  0.16096198  0.47557686  0.46902439  1
  C  C123  1  0.64532176  0.42843967  0.46330679  1
  C  C124  1  0.08274600  0.67144013  0.47185484  1
  C  C125  1  0.56782866  0.70302753  0.46336624  1
  C  C126  1  0.05944247  0.64383342  0.36051558  1
  C  C127  1  0.56382883  0.65172148  0.36351805  1
  C  C128  1  0.25735547  0.87297149  0.35925755  1
  C  C129  1  0.76576398  0.87535077  0.36477569  1
  C  C130  1  0.17609902  0.47624132  0.36724785  1
  C  C131  1  0.67507442  0.47058407  0.36404280  1
  C  C132  1  0.06584473  0.48025481  0.86551439  1
  C  C133  1  0.55944219  0.47551491  0.86103697  1
  C  C134  1  0.17818533  0.88301932  0.86565115  1
  C  C135  1  0.67545636  0.87417042  0.86772350  1
  C  C136  1  0.26424894  0.65381324  0.86675078  1
  C  C137  1  0.75561240  0.64182537  0.85996699  1
  C  C138  1  0.01738657  0.83952042  0.42142591  1
  C  C139  1  0.51316122  0.83151677  0.40059556  1
  C  C140  1  0.40588353  0.96965196  0.40416132  1
  C  C141  1  0.90070138  0.98153360  0.41247122  1
  C  C142  1  0.08751040  0.21573206  0.41841705  1
  C  C143  1  0.58448133  0.18635397  0.40201299  1
  C  C144  1  0.01537231  0.19798490  0.90302964  1
  C  C145  1  0.51725952  0.19260243  0.92138575  1
  C  C146  1  0.08425806  0.97777434  0.90386584  1
  C  C147  1  0.58655630  0.95635604  0.91902142  1
  C  C148  1  0.39929001  0.81777443  0.91504424  1
  C  C149  1  0.90635038  0.84384745  0.90373392  1
  C  C150  1  0.48834833  0.16917880  0.60046750  1
  C  C151  1  0.00099031  0.19430007  0.58599328  1
  C  C152  1  0.09874130  0.00703726  0.58392547  1
  C  C153  1  0.58829075  0.01611988  0.60299058  1
  C  C154  1  0.41008191  0.82045279  0.60204845  1
  C  C155  1  0.90979248  0.81046518  0.58505391  1
  C  C156  1  0.49785656  0.80472700  0.08569689  1
  C  C157  1  0.99325890  0.81330808  0.10070501  1
  C  C158  1  0.40817302  0.01291688  0.08603991  1
  C  C159  1  0.91222953  0.00064603  0.10174583  1
  C  C160  1  0.09312403  0.16932925  0.10035443  1
  C  C161  1  0.59889945  0.19047500  0.08364894  1
  C  C162  1  0.34916944  0.15742375  0.74296764  1
  C  C163  1  0.85604713  0.16507484  0.75493111  1
  C  C164  1  0.22759764  0.28499937  0.75454597  1
  C  C165  1  0.72671098  0.29940060  0.74086436  1
  C  C166  1  0.42245553  0.54545103  0.74232343  1
  C  C167  1  0.90783053  0.52050257  0.75463962  1
  C  C168  1  0.35336831  0.54372601  0.25227651  1
  C  C169  1  0.85117613  0.54718682  0.23968567  1
  C  C170  1  0.40881274  0.29360590  0.25414184  1
  C  C171  1  0.92402979  0.29925825  0.23967749  1
  C  C172  1  0.22603448  0.15761924  0.23791242  1
  C  C173  1  0.72799114  0.17003545  0.25334503  1
  C  C174  1  0.31837168  0.51144105  0.92215224  1
  C  C175  1  0.83143678  0.51055903  0.92412737  1
  C  C176  1  0.42480310  0.34766117  0.92534732  1
  C  C177  1  0.93568477  0.34255462  0.91724403  1
  C  C178  1  0.23437265  0.13451572  0.92081002  1
  C  C179  1  0.74046399  0.12141034  0.92604320  1
  C  C180  1  0.33132616  0.15468843  0.42287785  1
  C  C181  1  0.82098246  0.12824754  0.41899390  1
  C  C182  1  0.24116259  0.35910338  0.42533937  1
  C  C183  1  0.73589625  0.33639053  0.41648135  1
  C  C184  1  0.43322053  0.52855119  0.41498309  1
  C  C185  1  0.92322038  0.49820899  0.42347578  1
  C  C186  1  0.16657979  0.46597118  0.07739104  1
  C  C187  1  0.67677280  0.49433993  0.06969423  1
  C  C188  1  0.06577708  0.66362367  0.07821668  1
  C  C189  1  0.57109208  0.64823820  0.06960119  1
  C  C190  1  0.25569767  0.86665399  0.07503189  1
  C  C191  1  0.75009628  0.84247889  0.06607097  1
  C  C192  1  0.17613216  0.85842329  0.56995400  1
  C  C193  1  0.66631505  0.85126439  0.57576247  1
  C  C194  1  0.24913862  0.65598863  0.56549531  1
  C  C195  1  0.75757299  0.64317698  0.57472966  1
  C  C196  1  0.07448835  0.49628888  0.56869154  1
  C  C197  1  0.56424043  0.46417891  0.57823462  1
  C  C198  1  0.14606326  0.84933177  0.24670155  1
  C  C199  1  0.65732196  0.86403445  0.26169154  1
  C  C200  1  0.27521599  0.69360819  0.26071696  1
  C  C201  1  0.78048737  0.71265568  0.24894061  1
  C  C202  1  0.07852332  0.44066798  0.24730084  1
  C  C203  1  0.57876527  0.46454945  0.26288337  1
  C  C204  1  0.15693193  0.44950282  0.76268984  1
  C  C205  1  0.64545061  0.44421427  0.74770486  1
  C  C206  1  0.07800159  0.69373015  0.76386765  1
  C  C207  1  0.57685932  0.71414737  0.74936430  1
  C  C208  1  0.27842642  0.85087684  0.75144025  1
  C  C209  1  0.77632594  0.85750523  0.76185648  1
