# generated using pymatgen
data_CuNiC14
_symmetry_space_group_name_H-M   'P 1'
_cell_length_a   9.90507800
_cell_length_b   11.08175400
_cell_length_c   13.42384500
_cell_angle_alpha   90.00000000
_cell_angle_beta   90.00000000
_cell_angle_gamma   90.00000000
_symmetry_Int_Tables_number   1
_chemical_formula_structural   CuNiC14
_chemical_formula_sum   'Cu4 Ni4 C56'
_cell_volume   1473.47690744
_cell_formula_units_Z   4
loop_
 _symmetry_equiv_pos_site_id
 _symmetry_equiv_pos_as_xyz
  1  'x, y, z'
loop_
 _atom_site_type_symbol
 _atom_site_label
 _atom_site_symmetry_multiplicity
 _atom_site_fract_x
 _atom_site_fract_y
 _atom_site_fract_z
 _atom_site_occupancy
  Ni  Ni0  1  0.25000000  0.00111300  0.18619000  1
  Ni  Ni1  1  0.25000000  0.49888700  0.68619000  1
  Ni  Ni2  1  0.75000000  0.50111300  0.31381000  1
  Ni  Ni3  1  0.75000000  0.99888700  0.81381000  1
  C  C4  1  0.92274800  0.67042900  0.82625900  1
  C  C5  1  0.54806600  0.63885800  0.36512600  1
  C  C6  1  0.04806600  0.36114200  0.63487400  1
  C  C7  1  0.45193400  0.13885800  0.13487400  1
  C  C8  1  0.75000000  0.33785900  0.46999000  1
  C  C9  1  0.25000000  0.66214100  0.53001000  1
  C  C10  1  0.25000000  0.83785900  0.03001000  1
  C  C11  1  0.75000000  0.16214100  0.96999000  1
  C  C12  1  0.07655300  0.34567000  0.47296500  1
  C  C13  1  0.57655300  0.65433000  0.52703500  1
  C  C14  1  0.92344700  0.84567000  0.02703500  1
  C  C15  1  0.42344700  0.15433000  0.97296500  1
  C  C16  1  0.92344700  0.65433000  0.52703500  1
  C  C17  1  0.42344700  0.34567000  0.47296500  1
  C  C18  1  0.07655300  0.15433000  0.97296500  1
  C  C19  1  0.57655300  0.84567000  0.02703500  1
  C  C20  1  0.25000000  0.22153400  0.44750600  1
  C  C21  1  0.75000000  0.77846600  0.55249400  1
  C  C22  1  0.75000000  0.72153400  0.05249400  1
  C  C23  1  0.25000000  0.27846600  0.94750600  1
  C  C24  1  0.58314400  0.21071000  0.43798000  1
  C  C25  1  0.08314400  0.78929000  0.56202000  1
  C  C26  1  0.41685600  0.71071000  0.06202000  1
  C  C27  1  0.91685600  0.28929000  0.93798000  1
  C  C28  1  0.41685600  0.78929000  0.56202000  1
  C  C29  1  0.91685600  0.21071000  0.43798000  1
  C  C30  1  0.58314400  0.28929000  0.93798000  1
  C  C31  1  0.08314400  0.71071000  0.06202000  1
  C  C32  1  0.25000000  0.39660600  0.08357100  1
  C  C33  1  0.75000000  0.60339400  0.91642900  1
  C  C34  1  0.75000000  0.89660600  0.41642900  1
  C  C35  1  0.25000000  0.10339400  0.58357100  1
  C  C36  1  0.57855600  0.41378500  0.07540400  1
  C  C37  1  0.07855600  0.58621500  0.92459600  1
  C  C38  1  0.42144400  0.91378500  0.42459600  1
  C  C39  1  0.92144400  0.08621500  0.57540400  1
  C  C40  1  0.42144400  0.58621500  0.92459600  1
  C  C41  1  0.92144400  0.41378500  0.07540400  1
  C  C42  1  0.57855600  0.08621500  0.57540400  1
  C  C43  1  0.07855600  0.91378500  0.42459600  1
  C  C44  1  0.75000000  0.34967800  0.16811100  1
  C  C45  1  0.25000000  0.65032200  0.83188900  1
  C  C46  1  0.25000000  0.84967800  0.33188900  1
  C  C47  1  0.75000000  0.15032200  0.66811100  1
  C  C48  1  0.07725200  0.32957100  0.17374100  1
  C  C49  1  0.57725200  0.67042900  0.82625900  1
  C  C50  1  0.92274800  0.82957100  0.32625900  1
  C  C51  1  0.42274800  0.17042900  0.67374100  1
  C  C52  1  0.45193400  0.36114200  0.63487400  1
  C  C53  1  0.42274800  0.32957100  0.17374100  1
  C  C54  1  0.07725200  0.17042900  0.67374100  1
  C  C55  1  0.57725200  0.82957100  0.32625900  1
  C  C56  1  0.04806600  0.13885800  0.13487400  1
  C  C57  1  0.54806600  0.86114200  0.86512600  1
  C  C58  1  0.95193400  0.63885800  0.36512600  1
  C  C59  1  0.95193400  0.86114200  0.86512600  1
  Cu  Cu60  1  0.75000000  0.09453300  0.17093100  1
  Cu  Cu61  1  0.25000000  0.90546700  0.82906900  1
  Cu  Cu62  1  0.25000000  0.59453300  0.32906900  1
  Cu  Cu63  1  0.75000000  0.40546700  0.67093100  1
