# generated using pymatgen
data_CuNiC
_symmetry_space_group_name_H-M   'P 1'
_cell_length_a   11.75861900
_cell_length_b   5.94241700
_cell_length_c   6.51588592
_cell_angle_alpha   81.34625647
_cell_angle_beta   90.00000000
_cell_angle_gamma   90.00000000
_symmetry_Int_Tables_number   1
_chemical_formula_structural   CuNiC
_chemical_formula_sum   'Cu6 Ni6 C6'
_cell_volume   450.11181230
_cell_formula_units_Z   6
loop_
 _symmetry_equiv_pos_site_id
 _symmetry_equiv_pos_as_xyz
  1  'x, y, z'
loop_
 _atom_site_type_symbol
 _atom_site_label
 _atom_site_symmetry_multiplicity
 _atom_site_fract_x
 _atom_site_fract_y
 _atom_site_fract_z
 _atom_site_occupancy
  Ni  Ni0  1  0.75000000  0.12162500  0.84428700  1
  Ni  Ni1  1  0.62848300  0.96603900  0.21751000  1
  Ni  Ni2  1  0.12848300  0.03396100  0.78249000  1
  Ni  Ni3  1  0.87151700  0.96603900  0.21751000  1
  Ni  Ni4  1  0.25000000  0.87837500  0.15571300  1
  Ni  Ni5  1  0.37151700  0.03396100  0.78249000  1
  C  C6  1  0.25000000  0.10266200  0.67745400  1
  C  C7  1  0.86445200  0.03642800  0.96924400  1
  C  C8  1  0.13554800  0.96357200  0.03075600  1
  C  C9  1  0.63554800  0.03642800  0.96924400  1
  C  C10  1  0.75000000  0.89733800  0.32254600  1
  C  C11  1  0.36445200  0.96357200  0.03075600  1
  Cu  Cu12  1  0.25000000  0.51559100  0.16280700  1
  Cu  Cu13  1  0.75000000  0.48440900  0.83719300  1
  Cu  Cu14  1  0.08435500  0.71886000  0.66745400  1
  Cu  Cu15  1  0.41564500  0.71886000  0.66745400  1
  Cu  Cu16  1  0.91564500  0.28114000  0.33254600  1
  Cu  Cu17  1  0.58435500  0.28114000  0.33254600  1
