# generated using pymatgen
data_Cu6Ni3C10
_symmetry_space_group_name_H-M   'P 1'
_cell_length_a   7.41601104
_cell_length_b   7.41601104
_cell_length_c   7.41601097
_cell_angle_alpha   97.23595281
_cell_angle_beta   97.23595281
_cell_angle_gamma   97.23594315
_symmetry_Int_Tables_number   1
_chemical_formula_structural   Cu6Ni3C10
_chemical_formula_sum   'Cu12 Ni6 C20'
_cell_volume   397.19970858
_cell_formula_units_Z   2
loop_
 _symmetry_equiv_pos_site_id
 _symmetry_equiv_pos_as_xyz
  1  'x, y, z'
loop_
 _atom_site_type_symbol
 _atom_site_label
 _atom_site_symmetry_multiplicity
 _atom_site_fract_x
 _atom_site_fract_y
 _atom_site_fract_z
 _atom_site_occupancy
  C  C0  1  0.00000000  0.00000000  0.00000000  1
  C  C1  1  0.50000000  0.50000000  0.50000000  1
  C  C2  1  0.64104200  0.44281800  0.20179800  1
  C  C3  1  0.20179800  0.64104200  0.44281800  1
  C  C4  1  0.44281800  0.20179800  0.64104200  1
  C  C5  1  0.35895800  0.55718200  0.79820200  1
  C  C6  1  0.79820200  0.35895800  0.55718200  1
  C  C7  1  0.55718200  0.79820200  0.35895800  1
  C  C8  1  0.43935100  0.31337300  0.17730900  1
  C  C9  1  0.17730900  0.43935100  0.31337300  1
  C  C10  1  0.31337300  0.17730900  0.43935100  1
  C  C11  1  0.56064900  0.68662700  0.82269100  1
  C  C12  1  0.82269100  0.56064900  0.68662700  1
  C  C13  1  0.68662700  0.82269100  0.56064900  1
  C  C14  1  0.61924100  0.25201700  0.29449700  1
  C  C15  1  0.29449700  0.61924100  0.25201700  1
  C  C16  1  0.38075900  0.74798300  0.70550300  1
  C  C17  1  0.70550300  0.38075900  0.74798300  1
  C  C18  1  0.74798300  0.70550300  0.38075900  1
  C  C19  1  0.25201700  0.29449700  0.61924100  1
  Ni  Ni20  1  0.75573700  0.05267400  0.87151700  1
  Ni  Ni21  1  0.05267400  0.87151700  0.75573800  1
  Ni  Ni22  1  0.94732600  0.12848300  0.24426300  1
  Ni  Ni23  1  0.24426300  0.94732600  0.12848300  1
  Ni  Ni24  1  0.12848300  0.24426300  0.94732600  1
  Ni  Ni25  1  0.87151700  0.75573800  0.05267400  1
  Cu  Cu26  1  0.55488700  0.36314200  0.27023300  1
  Cu  Cu27  1  0.27023300  0.55488700  0.36314200  1
  Cu  Cu28  1  0.36314200  0.27023300  0.55488700  1
  Cu  Cu29  1  0.44511300  0.63685800  0.72976700  1
  Cu  Cu30  1  0.72976700  0.44511300  0.63685800  1
  Cu  Cu31  1  0.63685800  0.72976700  0.44511300  1
  Cu  Cu32  1  0.08129100  0.79184800  0.61715500  1
  Cu  Cu33  1  0.61715500  0.08129100  0.79184800  1
  Cu  Cu34  1  0.79184800  0.61715500  0.08129100  1
  Cu  Cu35  1  0.91870900  0.20815200  0.38284500  1
  Cu  Cu36  1  0.38284500  0.91870900  0.20815200  1
  Cu  Cu37  1  0.20815200  0.38284500  0.91870900  1
