# generated using pymatgen
data_CuNiC9
_symmetry_space_group_name_H-M   'P 1'
_cell_length_a   7.05726817
_cell_length_b   7.10234673
_cell_length_c   5.81283444
_cell_angle_alpha   122.32835165
_cell_angle_beta   121.37876111
_cell_angle_gamma   96.35117457
_symmetry_Int_Tables_number   1
_chemical_formula_structural   CuNiC9
_chemical_formula_sum   'Cu1 Ni1 C9'
_cell_volume   176.99974587
_cell_formula_units_Z   1
loop_
 _symmetry_equiv_pos_site_id
 _symmetry_equiv_pos_as_xyz
  1  'x, y, z'
loop_
 _atom_site_type_symbol
 _atom_site_label
 _atom_site_symmetry_multiplicity
 _atom_site_fract_x
 _atom_site_fract_y
 _atom_site_fract_z
 _atom_site_occupancy
  C  C0  1  0.68751760  0.32014948  0.50819970  1
  C  C1  1  0.31248240  0.67985052  0.49180030  1
  Ni  Ni2  1  -0.00000000  0.00000000  0.50000000  1
  Cu  Cu3  1  0.50000000  0.50000000  -0.00000000  1
  C  C4  1  -0.00000000  0.00000000  -0.00000000  1
  C  C5  1  0.94606549  0.20331137  0.84288144  1
  C  C6  1  0.05393451  0.79668863  0.15711856  1
  C  C7  1  0.79966408  0.05690002  0.14573159  1
  C  C8  1  0.20033592  0.94309998  0.85426841  1
  C  C9  1  0.34244341  0.34539804  0.53160888  1
  C  C10  1  0.65755659  0.65460196  0.46839112  1
