# generated using pymatgen
data_Cu5Ni3C34
_symmetry_space_group_name_H-M   'P 1'
_cell_length_a   9.28561495
_cell_length_b   9.26854106
_cell_length_c   22.59739447
_cell_angle_alpha   89.80706295
_cell_angle_beta   90.17623000
_cell_angle_gamma   120.02039755
_symmetry_Int_Tables_number   1
_chemical_formula_structural   Cu5Ni3C34
_chemical_formula_sum   'Cu15 Ni9 C102'
_cell_volume   1683.90940836
_cell_formula_units_Z   3
loop_
 _symmetry_equiv_pos_site_id
 _symmetry_equiv_pos_as_xyz
  1  'x, y, z'
loop_
 _atom_site_type_symbol
 _atom_site_label
 _atom_site_symmetry_multiplicity
 _atom_site_fract_x
 _atom_site_fract_y
 _atom_site_fract_z
 _atom_site_occupancy
  C  C0  1  0.61577703  0.99831002  0.25137558  1
  C  C1  1  0.36766391  0.35666546  0.25488578  1
  C  C2  1  0.01323346  0.64353572  0.24823293  1
  C  C3  1  0.63993912  0.62077154  0.74567065  1
  C  C4  1  0.99931592  0.36559388  0.73750562  1
  C  C5  1  0.35542520  0.00835054  0.74172925  1
  C  C6  1  0.29640119  0.34199858  0.58102721  1
  C  C7  1  0.04422509  0.70513747  0.58141715  1
  C  C8  1  0.66225662  0.95756835  0.57727584  1
  C  C9  1  0.29634761  0.95311867  0.08225053  1
  C  C10  1  0.65760947  0.70214327  0.07820995  1
  C  C11  1  0.04425605  0.34038476  0.07852985  1
  C  C12  1  0.97060677  0.67981963  0.91529272  1
  C  C13  1  0.70359328  0.02293660  0.91989695  1
  C  C14  1  0.32023733  0.29213586  0.91435835  1
  C  C15  1  0.97882853  0.30344846  0.42244683  1
  C  C16  1  0.32693564  0.02614986  0.41855454  1
  C  C17  1  0.69764962  0.67637875  0.42254457  1
  C  C18  1  0.00109659  0.00110240  0.50159543  1
  C  C19  1  0.00052392  0.99811567  0.99921819  1
  C  C20  1  0.66486741  0.34445487  0.82995459  1
  C  C21  1  0.65397265  0.32178421  0.33833051  1
  C  C22  1  0.33198560  0.67743033  0.15967242  1
  C  C23  1  0.32733043  0.66119734  0.65452985  1
  C  C24  1  0.66578263  0.33192220  0.98069357  1
  C  C25  1  0.66754070  0.33516345  0.48317088  1
  C  C26  1  0.32301616  0.65778890  0.81847368  1
  Ni  Ni27  1  0.01139229  0.00273030  0.35358498  1
  Ni  Ni28  1  0.00821394  0.99684642  0.85032016  1
  Ni  Ni29  1  0.01643155  0.00523041  0.64467343  1
  Ni  Ni30  1  0.00948565  0.99628373  0.14152614  1
  Ni  Ni31  1  0.66593299  0.34222267  0.67970045  1
  Ni  Ni32  1  0.65438971  0.32344710  0.17745101  1
  Ni  Ni33  1  0.33223073  0.66481068  0.01650423  1
  Ni  Ni34  1  0.33502390  0.66998825  0.51503407  1
  Ni  Ni35  1  0.33049344  0.67777060  0.32709916  1
  Cu  Cu36  1  0.30030581  0.99863036  0.24926134  1
  Cu  Cu37  1  0.29816265  0.30158435  0.75145466  1
  Cu  Cu38  1  0.00156525  0.70032261  0.75117753  1
  Cu  Cu39  1  0.95985960  0.33225190  0.58540462  1
  Cu  Cu40  1  0.37742576  0.03993171  0.58477979  1
  Cu  Cu41  1  0.66621369  0.63217964  0.58420288  1
  Cu  Cu42  1  0.95593896  0.62054534  0.08498093  1
  Cu  Cu43  1  0.66804252  0.03756123  0.08412783  1
  Cu  Cu44  1  0.37380250  0.33754616  0.08298609  1
  Cu  Cu45  1  0.62734920  0.66571797  0.91786482  1
  Cu  Cu46  1  0.03206453  0.36754404  0.91905985  1
  Cu  Cu47  1  0.33819757  0.96173335  0.91839488  1
  Cu  Cu48  1  0.63726203  0.97261009  0.41608482  1
  Cu  Cu49  1  0.33863711  0.37403230  0.41609213  1
  Cu  Cu50  1  0.02811938  0.66032745  0.41681166  1
  C  C51  1  0.70299509  0.70431868  0.24927247  1
  C  C52  1  0.00021660  0.29640213  0.24911277  1
  C  C53  1  0.69659116  0.99204265  0.75191275  1
  C  C54  1  0.21725818  0.03431197  0.30704897  1
  C  C55  1  0.80243987  0.78749187  0.30293886  1
  C  C56  1  0.97522192  0.19257745  0.30250696  1
  C  C57  1  0.21821861  0.19225293  0.81141804  1
  C  C58  1  0.95983881  0.77465104  0.80997395  1
  C  C59  1  0.79936093  0.01729541  0.80595188  1
  C  C60  1  0.77228379  0.96574317  0.69883069  1
  C  C61  1  0.17498045  0.22928635  0.69390115  1
  C  C62  1  0.04733040  0.82224499  0.69339911  1
  C  C63  1  0.78183287  0.80753665  0.19514952  1
  C  C64  1  0.01581611  0.21331163  0.19483720  1
  C  C65  1  0.18280914  0.96278124  0.18993383  1
  C  C66  1  0.88291499  0.36071170  0.64613200  1
  C  C67  1  0.48281246  0.11392027  0.64603498  1
  C  C68  1  0.62979176  0.52787109  0.64588974  1
  C  C69  1  0.87910316  0.51443352  0.14595629  1
  C  C70  1  0.63458539  0.10787902  0.14537753  1
  C  C71  1  0.47903993  0.37464554  0.14437986  1
  C  C72  1  0.48103196  0.31493833  0.02666667  1
  C  C73  1  0.83213364  0.51434507  0.02728830  1
  C  C74  1  0.68876212  0.16454840  0.02654291  1
  C  C75  1  0.48364965  0.16395297  0.52818332  1
  C  C76  1  0.68528992  0.52403074  0.52817579  1
  C  C77  1  0.83649252  0.31682165  0.52850281  1
  C  C78  1  0.55460818  0.70325861  0.97658143  1
  C  C79  1  0.14812085  0.44061685  0.97642390  1
  C  C80  1  0.29947323  0.84901411  0.97672992  1
  C  C81  1  0.55835083  0.84994065  0.47248357  1
  C  C82  1  0.30077702  0.45497295  0.47281898  1
  C  C83  1  0.15318267  0.70441593  0.47236374  1
  C  C84  1  0.09243399  0.61086309  0.35631142  1
  C  C85  1  0.52325432  0.90652021  0.35567551  1
  C  C86  1  0.37960758  0.48902552  0.35539336  1
  C  C87  1  0.13502099  0.49869119  0.86212662  1
  C  C88  1  0.36491448  0.86177580  0.86114567  1
  C  C89  1  0.49804936  0.63774886  0.86123164  1
  C  C90  1  0.99637156  0.81829146  0.41209092  1
  C  C91  1  0.82454076  0.00006707  0.40842827  1
  C  C92  1  0.17597311  0.18666321  0.41306455  1
  C  C93  1  0.99855880  0.18005598  0.90828268  1
  C  C94  1  0.17948271  0.99076948  0.91290296  1
  C  C95  1  0.81238002  0.82711789  0.90948181  1
  C  C96  1  0.96134624  0.15597547  0.58388390  1
  C  C97  1  0.20074259  0.03881721  0.58089845  1
  C  C98  1  0.84113583  0.81062688  0.58399536  1
  C  C99  1  0.95627078  0.79772024  0.08124766  1
  C  C100  1  0.84361498  0.03435082  0.08426238  1
  C  C101  1  0.19536278  0.16286300  0.08058862  1
  C  C102  1  0.67479135  0.14030375  0.74832005  1
  C  C103  1  0.48327438  0.31956711  0.74783441  1
  C  C104  1  0.84453321  0.50829697  0.74786690  1
  C  C105  1  0.69373296  0.53853560  0.24678458  1
  C  C106  1  0.85255917  0.31989327  0.24673608  1
  C  C107  1  0.48828370  0.16975710  0.24753227  1
  C  C108  1  0.63644373  0.49004024  0.92209916  1
  C  C109  1  0.85273919  0.36595039  0.92229580  1
  C  C110  1  0.51342663  0.14571913  0.92218038  1
  C  C111  1  0.65190330  0.15768967  0.42619984  1
  C  C112  1  0.50708664  0.35452122  0.42471560  1
  C  C113  1  0.84332774  0.49161258  0.42631977  1
  C  C114  1  0.35198408  0.49972023  0.07817798  1
  C  C115  1  0.14032890  0.64282402  0.07998498  1
  C  C116  1  0.50427835  0.85453907  0.07845313  1
  C  C117  1  0.35560175  0.85520392  0.57918000  1
  C  C118  1  0.50177335  0.65053665  0.57779426  1
  C  C119  1  0.14328147  0.49712911  0.57927767  1
  C  C120  1  0.31584458  0.82712337  0.25391315  1
  C  C121  1  0.53274103  0.68177051  0.25236461  1
  C  C122  1  0.15644564  0.46159806  0.25269711  1
  C  C123  1  0.32094491  0.49384122  0.76073927  1
  C  C124  1  0.17772856  0.69000196  0.76119279  1
  C  C125  1  0.52761157  0.83806043  0.75818765  1
