# generated using pymatgen
data_Cu3NiC31
_symmetry_space_group_name_H-M   'P 1'
_cell_length_a   9.05463997
_cell_length_b   9.05463966
_cell_length_c   23.92352200
_cell_angle_alpha   90.00000000
_cell_angle_beta   90.00000000
_cell_angle_gamma   120.00000115
_symmetry_Int_Tables_number   1
_chemical_formula_structural   Cu3NiC31
_chemical_formula_sum   'Cu9 Ni3 C93'
_cell_volume   1698.62730766
_cell_formula_units_Z   3
loop_
 _symmetry_equiv_pos_site_id
 _symmetry_equiv_pos_as_xyz
  1  'x, y, z'
loop_
 _atom_site_type_symbol
 _atom_site_label
 _atom_site_symmetry_multiplicity
 _atom_site_fract_x
 _atom_site_fract_y
 _atom_site_fract_z
 _atom_site_occupancy
  Ni  Ni0  1  0.00000000  0.00000000  0.99421462  1
  Ni  Ni1  1  0.66666700  0.33333300  0.83929456  1
  Ni  Ni2  1  0.66666700  0.33333300  0.33324936  1
  Cu  Cu3  1  0.00000000  0.00000000  0.64729037  1
  Cu  Cu4  1  0.00000000  0.00000000  0.14743691  1
  Cu  Cu5  1  0.66666700  0.33333300  0.68742984  1
  Cu  Cu6  1  0.66666700  0.33333300  0.18536788  1
  Cu  Cu7  1  0.66666700  0.33333300  0.48019674  1
  Cu  Cu8  1  0.33333300  0.66666700  0.01806079  1
  Cu  Cu9  1  0.33333300  0.66666700  0.51740016  1
  Cu  Cu10  1  0.33333300  0.66666700  0.31210600  1
  Cu  Cu11  1  0.33333300  0.66666700  0.81510476  1
  C  C12  1  0.00000000  0.00000000  0.35393551  1
  C  C13  1  0.00000000  0.00000000  0.85094387  1
  C  C14  1  0.66666700  0.33333300  0.98213931  1
  C  C15  1  0.28752493  0.00434155  0.25341479  1
  C  C16  1  0.71681662  0.71247507  0.25341479  1
  C  C17  1  0.99565845  0.28318338  0.25341479  1
  C  C18  1  0.28708436  0.28463381  0.75345796  1
  C  C19  1  0.99754944  0.71291564  0.75345796  1
  C  C20  1  0.71536619  0.00245056  0.75345796  1
  C  C21  1  0.95951498  0.33430173  0.58334123  1
  C  C22  1  0.37478776  0.04048502  0.58334123  1
  C  C23  1  0.66569827  0.62521224  0.58334123  1
  C  C24  1  0.95158962  0.62111760  0.07985027  1
  C  C25  1  0.66952898  0.04841038  0.07985027  1
  C  C26  1  0.37888240  0.33047102  0.07985027  1
  C  C27  1  0.63728298  0.66666717  0.91665307  1
  C  C28  1  0.02938319  0.36271702  0.91665307  1
  C  C29  1  0.33333283  0.97061681  0.91665307  1
  C  C30  1  0.63550680  0.96115299  0.41418238  1
  C  C31  1  0.32564519  0.36449320  0.41418238  1
  C  C32  1  0.03884701  0.67435481  0.41418238  1
  C  C33  1  0.20360300  0.02715142  0.30206958  1
  C  C34  1  0.82354842  0.79639700  0.30206958  1
  C  C35  1  0.97284858  0.17645158  0.30206958  1
  C  C36  1  0.20306137  0.17678922  0.80217747  1
  C  C37  1  0.97372785  0.79693863  0.80217747  1
  C  C38  1  0.82321078  0.02627215  0.80217747  1
  C  C39  1  0.78971285  0.98093428  0.70099321  1
  C  C40  1  0.19122143  0.21028715  0.70099321  1
  C  C41  1  0.01906572  0.80877857  0.70099321  1
  C  C42  1  0.79126051  0.80851176  0.20072030  1
  C  C43  1  0.01725125  0.20873949  0.20072030  1
  C  C44  1  0.19148824  0.98274875  0.20072030  1
  C  C45  1  0.87913581  0.36067880  0.63347199  1
  C  C46  1  0.48154399  0.12086419  0.63347199  1
  C  C47  1  0.63932120  0.51845601  0.63347199  1
  C  C48  1  0.87696276  0.52454701  0.13246732  1
  C  C49  1  0.64758525  0.12303724  0.13246732  1
  C  C50  1  0.47545299  0.35241475  0.13246732  1
  C  C51  1  0.46329937  0.30685423  0.03126062  1
  C  C52  1  0.84355586  0.53670063  0.03126062  1
  C  C53  1  0.69314577  0.15644414  0.03126062  1
  C  C54  1  0.45491888  0.14770886  0.53340520  1
  C  C55  1  0.69279097  0.54508112  0.53340520  1
  C  C56  1  0.85229114  0.30720903  0.53340520  1
  C  C57  1  0.55448422  0.69357726  0.96657018  1
  C  C58  1  0.13909204  0.44551578  0.96657018  1
  C  C59  1  0.30642274  0.86090796  0.96657018  1
  C  C60  1  0.55387783  0.85937762  0.46539461  1
  C  C61  1  0.30549878  0.44612217  0.46539461  1
  C  C62  1  0.14062238  0.69450122  0.46539461  1
  C  C63  1  0.11977297  0.64025343  0.36564055  1
  C  C64  1  0.52047945  0.88022703  0.36564055  1
  C  C65  1  0.35974657  0.47952055  0.36564055  1
  C  C66  1  0.11215182  0.47249639  0.86680013  1
  C  C67  1  0.36034357  0.88784818  0.86680013  1
  C  C68  1  0.52750361  0.63965643  0.86680013  1
  C  C69  1  0.02228279  0.82448189  0.40553432  1
  C  C70  1  0.80219910  0.97771721  0.40553432  1
  C  C71  1  0.17551811  0.19780090  0.40553432  1
  C  C72  1  0.01501523  0.19327675  0.90931002  1
  C  C73  1  0.17826152  0.98498477  0.90931002  1
  C  C74  1  0.80672325  0.82173848  0.90931002  1
  C  C75  1  0.97639435  0.18221371  0.59072780  1
  C  C76  1  0.20581935  0.02360565  0.59072780  1
  C  C77  1  0.81778629  0.79418065  0.59072780  1
  C  C78  1  0.97104466  0.79485685  0.08571673  1
  C  C79  1  0.82381218  0.02895534  0.08571673  1
  C  C80  1  0.20514315  0.17618782  0.08571673  1
  C  C81  1  0.69592703  0.15698340  0.74784527  1
  C  C82  1  0.46105737  0.30407297  0.74784527  1
  C  C83  1  0.84301660  0.53894263  0.74784527  1
  C  C84  1  0.69631893  0.53787284  0.24768659  1
  C  C85  1  0.84155491  0.30368107  0.24768659  1
  C  C86  1  0.46212716  0.15844509  0.24768659  1
  C  C87  1  0.65161831  0.51154561  0.92405136  1
  C  C88  1  0.85992830  0.34838169  0.92405136  1
  C  C89  1  0.48845439  0.14007170  0.92405136  1
  C  C90  1  0.65083831  0.13341370  0.42043095  1
  C  C91  1  0.48257639  0.34916169  0.42043095  1
  C  C92  1  0.86658630  0.51742361  0.42043095  1
  C  C93  1  0.35865761  0.48188045  0.07379055  1
  C  C94  1  0.12322184  0.64134239  0.07379055  1
  C  C95  1  0.51811955  0.87677816  0.07379055  1
  C  C96  1  0.35808380  0.87152022  0.57559294  1
  C  C97  1  0.51343542  0.64191620  0.57559294  1
  C  C98  1  0.12847978  0.48656458  0.57559294  1
  C  C99  1  0.30815166  0.85299857  0.25873468  1
  C  C100  1  0.54484590  0.69184834  0.25873468  1
  C  C101  1  0.14700143  0.45515410  0.25873468  1
  C  C102  1  0.30778674  0.45650140  0.75953973  1
  C  C103  1  0.14871366  0.69221326  0.75953973  1
  C  C104  1  0.54349860  0.85128634  0.75953973  1
