# generated using pymatgen
data_Cu2Ni3C34
_symmetry_space_group_name_H-M   'P 1'
_cell_length_a   8.69735995
_cell_length_b   8.69664467
_cell_length_c   21.94281281
_cell_angle_alpha   89.93916832
_cell_angle_beta   90.20370614
_cell_angle_gamma   120.02264415
_symmetry_Int_Tables_number   1
_chemical_formula_structural   Cu2Ni3C34
_chemical_formula_sum   'Cu6 Ni9 C102'
_cell_volume   1437.01090769
_cell_formula_units_Z   3
loop_
 _symmetry_equiv_pos_site_id
 _symmetry_equiv_pos_as_xyz
  1  'x, y, z'
loop_
 _atom_site_type_symbol
 _atom_site_label
 _atom_site_symmetry_multiplicity
 _atom_site_fract_x
 _atom_site_fract_y
 _atom_site_fract_z
 _atom_site_occupancy
  C  C0  1  0.00055393  0.63511756  0.24981936  1
  C  C1  1  0.36796080  0.00066384  0.75068484  1
  C  C2  1  0.03206252  0.70014777  0.58264921  1
  C  C3  1  0.66369042  0.96618984  0.58428235  1
  C  C4  1  0.29751159  0.96776983  0.08207257  1
  C  C5  1  0.03530088  0.33558045  0.08373714  1
  C  C6  1  0.96750447  0.66697248  0.91751344  1
  C  C7  1  0.96561385  0.30024717  0.41577719  1
  C  C8  1  0.33572026  0.03346613  0.41658605  1
  C  C9  1  0.00012577  0.99765799  0.50006502  1
  C  C10  1  0.99555666  0.00020290  0.99885384  1
  C  C11  1  0.66686491  0.33083852  0.83373173  1
  C  C12  1  0.66210862  0.33296597  0.33224243  1
  C  C13  1  0.34547669  0.66593483  0.16743501  1
  C  C14  1  0.33398251  0.65387331  0.66784345  1
  C  C15  1  0.98814645  0.99414841  0.35229828  1
  C  C16  1  0.99762975  0.00108481  0.64834555  1
  C  C17  1  0.00156853  0.00236894  0.14616114  1
  C  C18  1  0.66601044  0.33239681  0.68800551  1
  C  C19  1  0.66642027  0.34050055  0.47937506  1
  C  C20  1  0.34062470  0.67372966  0.51972874  1
  Ni  Ni21  1  0.99968844  0.29349816  0.24954002  1
  Ni  Ni22  1  0.71217449  0.99613963  0.75341335  1
  Ni  Ni23  1  0.37480581  0.04857773  0.58330920  1
  Ni  Ni24  1  0.66120491  0.61864390  0.58456130  1
  Ni  Ni25  1  0.94789266  0.61729388  0.08124685  1
  Ni  Ni26  1  0.38883151  0.34335587  0.08290610  1
  Ni  Ni27  1  0.33888694  0.96019648  0.91640538  1
  Ni  Ni28  1  0.62005493  0.95005411  0.41423691  1
  Ni  Ni29  1  0.04403293  0.66748821  0.41525717  1
  Cu  Cu30  1  0.00401843  0.00758615  0.85369114  1
  Cu  Cu31  1  0.66723819  0.33318939  0.18509971  1
  Cu  Cu32  1  0.65481482  0.32743613  0.98050508  1
  Cu  Cu33  1  0.33181581  0.66479744  0.01866360  1
  Cu  Cu34  1  0.33116179  0.66305553  0.31387523  1
  Cu  Cu35  1  0.34183996  0.67174974  0.81500105  1
  C  C36  1  0.29830099  0.00569883  0.25003013  1
  C  C37  1  0.70258631  0.70799499  0.24920334  1
  C  C38  1  0.28551294  0.29356817  0.75281245  1
  C  C39  1  -0.00166819  0.70803905  0.75286413  1
  C  C40  1  0.95742694  0.33433734  0.58360914  1
  C  C41  1  0.66435217  0.04585342  0.08203075  1
  C  C42  1  0.61772571  0.66696486  0.91686476  1
  C  C43  1  0.04709482  0.37676650  0.91592246  1
  C  C44  1  0.33665748  0.38444135  0.41514116  1
  C  C45  1  0.21056941  0.03156195  0.30702486  1
  C  C46  1  0.82730755  0.79275997  0.30547151  1
  C  C47  1  0.96857409  0.16990490  0.30936995  1
  C  C48  1  0.20616636  0.16686880  0.80822624  1
  C  C49  1  0.96990342  0.79545904  0.80987744  1
  C  C50  1  0.84228801  0.03345168  0.81113466  1
  C  C51  1  0.79909844  0.96658464  0.69117674  1
  C  C52  1  0.17080687  0.20532077  0.69541344  1
  C  C53  1  0.03802935  0.82856689  0.69540951  1
  C  C54  1  0.79511744  0.82584905  0.19364409  1
  C  C55  1  0.03000325  0.19991222  0.18991253  1
  C  C56  1  0.17489179  0.96629899  0.19332915  1
  C  C57  1  0.87017128  0.36736275  0.63896730  1
  C  C58  1  0.50244019  0.13142180  0.64316753  1
  C  C59  1  0.63766089  0.49559070  0.64311788  1
  C  C60  1  0.87092928  0.49282693  0.14244371  1
  C  C61  1  0.62310503  0.12365354  0.13927373  1
  C  C62  1  0.50694764  0.37043997  0.14372642  1
  C  C63  1  0.46336433  0.28675263  0.02460547  1
  C  C64  1  0.82948347  0.52758312  0.02003395  1
  C  C65  1  0.70793868  0.16837787  0.02615800  1
  C  C66  1  0.46722796  0.16487617  0.52255710  1
  C  C67  1  0.70628593  0.53295496  0.52570655  1
  C  C68  1  0.84031652  0.29617493  0.52562777  1
  C  C69  1  0.53513198  0.70072061  0.97375880  1
  C  C70  1  0.15925744  0.45626014  0.97508664  1
  C  C71  1  0.29230921  0.82895483  0.97638544  1
  C  C72  1  0.53672639  0.83432549  0.47643263  1
  C  C73  1  0.29796275  0.46399301  0.47153548  1
  C  C74  1  0.16715837  0.70189297  0.47574941  1
  C  C75  1  0.12902140  0.62441622  0.35549677  1
  C  C76  1  0.48731056  0.85998710  0.35671595  1
  C  C77  1  0.36880532  0.49774897  0.35794694  1
  C  C78  1  0.13289577  0.50251243  0.86051008  1
  C  C79  1  0.36685370  0.86828371  0.85574771  1
  C  C80  1  0.50141199  0.62970340  0.85963551  1
  C  C81  1  0.03392699  0.84772118  0.40860024  1
  C  C82  1  0.81996354  0.97896339  0.40992380  1
  C  C83  1  0.17052620  0.19586584  0.40959839  1
  C  C84  1  0.02899077  0.19148574  0.91006418  1
  C  C85  1  0.15316657  0.97155180  0.90853768  1
  C  C86  1  0.80863019  0.83173387  0.91073079  1
  C  C87  1  0.97132300  0.16504997  0.59003558  1
  C  C88  1  0.17766393  0.01984525  0.59063614  1
  C  C89  1  0.83874605  0.81562240  0.59039701  1
  C  C90  1  0.97848235  0.81659883  0.08983002  1
  C  C91  1  0.83086606  0.02835009  0.08951696  1
  C  C92  1  0.18792095  0.16597119  0.09074048  1
  C  C93  1  0.68531790  0.16828219  0.74536329  1
  C  C94  1  0.46866514  0.30746768  0.74565418  1
  C  C95  1  0.83557101  0.52636729  0.74559954  1
  C  C96  1  0.69350687  0.52494151  0.24398915  1
  C  C97  1  0.82272802  0.31565363  0.24237532  1
  C  C98  1  0.48133315  0.17194110  0.24249099  1
  C  C99  1  0.64441850  0.50224344  0.92247238  1
  C  C100  1  0.86292200  0.36387888  0.92210749  1
  C  C101  1  0.51654194  0.15557339  0.92377100  1
  C  C102  1  0.64120453  0.14578854  0.42119687  1
  C  C103  1  0.49817340  0.35837586  0.42109108  1
  C  C104  1  0.85217332  0.48901954  0.42190034  1
  C  C105  1  0.35678839  0.51275825  0.07435559  1
  C  C106  1  0.15022683  0.64157740  0.07537449  1
  C  C107  1  0.49544710  0.86051212  0.07507320  1
  C  C108  1  0.35459471  0.85094183  0.57825939  1
  C  C109  1  0.49054225  0.64317679  0.57831334  1
  C  C110  1  0.13880093  0.50021122  0.57740732  1
  C  C111  1  0.30787014  0.83176021  0.25512749  1
  C  C112  1  0.52068568  0.69217767  0.25707183  1
  C  C113  1  0.17676497  0.49233588  0.25632844  1
  C  C114  1  0.30103372  0.47699680  0.75983490  1
  C  C115  1  0.17056548  0.69402720  0.75805934  1
  C  C116  1  0.51022752  0.82002723  0.75772955  1
