# generated using pymatgen
data_Cu7Ni4C67
_symmetry_space_group_name_H-M   'P 1'
_cell_length_a   18.08884341
_cell_length_b   9.03205242
_cell_length_c   22.49736617
_cell_angle_alpha   89.91033434
_cell_angle_beta   88.94585321
_cell_angle_gamma   119.78410740
_symmetry_Int_Tables_number   1
_chemical_formula_structural   Cu7Ni4C67
_chemical_formula_sum   'Cu21 Ni12 C201'
_cell_volume   3189.28772643
_cell_formula_units_Z   3
loop_
 _symmetry_equiv_pos_site_id
 _symmetry_equiv_pos_as_xyz
  1  'x, y, z'
loop_
 _atom_site_type_symbol
 _atom_site_label
 _atom_site_symmetry_multiplicity
 _atom_site_fract_x
 _atom_site_fract_y
 _atom_site_fract_z
 _atom_site_occupancy
  C  C0  1  0.18612634  0.37005216  0.24224712  1
  C  C1  1  0.68625910  0.37061099  0.24290475  1
  C  C2  1  0.99279965  0.63175335  0.25327240  1
  C  C3  1  0.49360710  0.63165064  0.25288408  1
  C  C4  1  0.49284400  0.35130893  0.75707215  1
  C  C5  1  0.18602996  0.00228868  0.74535464  1
  C  C6  1  0.68485898  0.00151491  0.74493057  1
  C  C7  1  0.65569937  0.34120267  0.58168637  1
  C  C8  1  0.01893051  0.70360432  0.57816515  1
  C  C9  1  0.82782104  0.96376022  0.58906671  1
  C  C10  1  0.48853534  0.67149452  0.91557214  1
  C  C11  1  0.99000137  0.67380741  0.91432179  1
  C  C12  1  0.85262333  0.03607254  0.90983510  1
  C  C13  1  0.15838752  0.29862580  0.92192716  1
  C  C14  1  0.48895366  0.30714540  0.41411209  1
  C  C15  1  0.98596789  0.30275592  0.41403870  1
  C  C16  1  0.35145938  0.66799861  0.40947085  1
  C  C17  1  0.85221743  0.66945423  0.41090349  1
  C  C18  1  0.01890660  0.00895310  0.49834086  1
  C  C19  1  0.51264480  0.99030256  0.49797722  1
  C  C20  1  0.00915805  0.01335700  0.00234247  1
  C  C21  1  0.51033990  0.03188198  0.99703087  1
  C  C22  1  0.33973712  0.32932584  0.83194528  1
  C  C23  1  0.84316329  0.34190571  0.82700146  1
  C  C24  1  0.33520888  0.32815826  0.32902118  1
  C  C25  1  0.83436942  0.32681075  0.33175046  1
  C  C26  1  0.17488265  0.66520935  0.16158618  1
  C  C27  1  0.67449118  0.66591643  0.16203795  1
  C  C28  1  0.17466230  0.67242536  0.66882448  1
  C  C29  1  0.67309214  0.68069683  0.66583058  1
  C  C30  1  0.99564898  0.97493204  0.64821511  1
  C  C31  1  0.49590789  0.97592657  0.64958196  1
  C  C32  1  0.99892662  0.01924951  0.14736399  1
  C  C33  1  0.49826663  0.01746263  0.14715084  1
  C  C34  1  0.32601255  0.30997724  0.97723894  1
  C  C35  1  0.82107489  0.31655492  0.97772473  1
  C  C36  1  0.32346677  0.32990262  0.47728134  1
  C  C37  1  0.82521824  0.34773094  0.47945002  1
  C  C38  1  0.16145430  0.63846735  0.31204440  1
  C  C39  1  0.66119734  0.63914853  0.31251542  1
  C  C40  1  0.15917136  0.68191814  0.81183136  1
  C  C41  1  0.66182725  0.68519309  0.81291599  1
  Ni  Ni42  1  0.00140687  0.99808082  0.35015558  1
  Ni  Ni43  1  0.50194504  0.99875671  0.34959308  1
  Ni  Ni44  1  0.99907333  0.00094557  0.84761149  1
  Ni  Ni45  1  0.49659567  0.00187477  0.85271985  1
  Ni  Ni46  1  0.33281397  0.32955615  0.68374662  1
  Ni  Ni47  1  0.83539758  0.33303189  0.68508873  1
  Ni  Ni48  1  0.33433535  0.34060933  0.18123412  1
  Ni  Ni49  1  0.83417554  0.34002815  0.18169202  1
  Ni  Ni50  1  0.16071848  0.65126734  0.01757626  1
  Ni  Ni51  1  0.65934045  0.64868961  0.01853094  1
  Ni  Ni52  1  0.16502732  0.67382674  0.51620660  1
  Ni  Ni53  1  0.66137006  0.66978154  0.51760811  1
  Cu  Cu54  1  0.35261053  0.71509821  0.25044011  1
  Cu  Cu55  1  0.85269188  0.71523715  0.25028221  1
  Cu  Cu56  1  0.99687988  0.29130344  0.25196329  1
  Cu  Cu57  1  0.49699656  0.29151568  0.25177256  1
  Cu  Cu58  1  0.99706886  0.69827731  0.75268429  1
  Cu  Cu59  1  0.49730221  0.70181176  0.75319080  1
  Cu  Cu60  1  0.35157606  0.99020290  0.74990972  1
  Cu  Cu61  1  0.85108583  0.99251154  0.75149658  1
  Cu  Cu62  1  0.18527769  0.03994423  0.58585183  1
  Cu  Cu63  1  0.68429524  0.04225148  0.58538857  1
  Cu  Cu64  1  0.83263251  0.62849935  0.58345890  1
  Cu  Cu65  1  0.18474282  0.33042083  0.08472695  1
  Cu  Cu66  1  0.68306963  0.32943281  0.08641707  1
  Cu  Cu67  1  0.01833445  0.37346676  0.91635826  1
  Cu  Cu68  1  0.51775901  0.37082930  0.91662292  1
  Cu  Cu69  1  0.16674973  0.95838300  0.91766528  1
  Cu  Cu70  1  0.66465139  0.95836799  0.91924313  1
  Cu  Cu71  1  0.16482853  0.37054147  0.41837161  1
  Cu  Cu72  1  0.66450094  0.36741772  0.41905950  1
  Cu  Cu73  1  0.01808087  0.66329646  0.41759827  1
  Cu  Cu74  1  0.51826532  0.66421989  0.41654323  1
  C  C75  1  0.14617825  0.99456641  0.24757663  1
  C  C76  1  0.64636561  0.99462415  0.24741732  1
  C  C77  1  0.14557125  0.29973568  0.74857929  1
  C  C78  1  0.64431616  0.29496310  0.74787572  1
  C  C79  1  0.47834901  0.32402278  0.58213436  1
  C  C80  1  0.98124799  0.32773316  0.58082967  1
  C  C81  1  0.33583698  0.62920275  0.58141177  1
  C  C82  1  0.48078400  0.63811587  0.08278945  1
  C  C83  1  0.98048878  0.63649195  0.08208835  1
  C  C84  1  0.33530165  0.04191432  0.08261480  1
  C  C85  1  0.83551074  0.04233488  0.08181424  1
  C  C86  1  0.31048219  0.65953034  0.91729025  1
  C  C87  1  0.81054502  0.65852214  0.91752507  1
  C  C88  1  0.31133766  0.96474872  0.41622489  1
  C  C89  1  0.81062469  0.96313087  0.41628972  1
  C  C90  1  0.11347073  0.03285489  0.30308014  1
  C  C91  1  0.61382918  0.03297823  0.30289163  1
  C  C92  1  0.40818735  0.77862286  0.31023093  1
  C  C93  1  0.90898511  0.77836136  0.30984647  1
  C  C94  1  0.48557056  0.19341668  0.31349842  1
  C  C95  1  0.98639175  0.19372328  0.31364592  1
  C  C96  1  0.11380062  0.20232870  0.80569615  1
  C  C97  1  0.60696085  0.18751477  0.80161072  1
  C  C98  1  0.48687083  0.78125752  0.81367438  1
  C  C99  1  0.98995031  0.78119844  0.81399075  1
  C  C100  1  0.41658225  0.04951335  0.80357589  1
  C  C101  1  0.90146892  0.02408905  0.81245209  1
  C  C102  1  0.40751403  0.97294918  0.69099703  1
  C  C103  1  0.90630582  0.97755468  0.69267319  1
  C  C104  1  0.09116506  0.20495966  0.69844190  1
  C  C105  1  0.59166340  0.21012930  0.69416738  1
  C  C106  1  0.01327560  0.82863911  0.69367815  1
  C  C107  1  0.51457352  0.83387526  0.69472846  1
  C  C108  1  0.40950149  0.84318606  0.19406856  1
  C  C109  1  0.90997798  0.84409212  0.19383630  1
  C  C110  1  0.01604994  0.19621963  0.19493979  1
  C  C111  1  0.51539575  0.19480366  0.19492772  1
  C  C112  1  0.09100742  0.97300951  0.19686907  1
  C  C113  1  0.59087426  0.97272570  0.19679540  1
  C  C114  1  0.44139118  0.34848066  0.63802777  1
  C  C115  1  0.94266720  0.35893993  0.63442155  1
  C  C116  1  0.23666773  0.11751874  0.64564821  1
  C  C117  1  0.73868762  0.11413054  0.64512069  1
  C  C118  1  0.32404167  0.52787891  0.63530627  1
  C  C119  1  0.81318736  0.50209154  0.63801188  1
  C  C120  1  0.44465957  0.53835715  0.13947397  1
  C  C121  1  0.94409908  0.53776646  0.13868696  1
  C  C122  1  0.32380379  0.11795877  0.13741515  1
  C  C123  1  0.82431949  0.12061210  0.13587825  1
  C  C124  1  0.23274266  0.34633658  0.14629386  1
  C  C125  1  0.73224987  0.34611053  0.14718712  1
  C  C126  1  0.23970547  0.30877417  0.02663755  1
  C  C127  1  0.74088221  0.30935552  0.02892648  1
  C  C128  1  0.43008474  0.54507750  0.03108999  1
  C  C129  1  0.92966078  0.54344813  0.03009432  1
  C  C130  1  0.34636321  0.15163925  0.02929619  1
  C  C131  1  0.84636555  0.14802882  0.02727970  1
  C  C132  1  0.24281376  0.17191102  0.52779310  1
  C  C133  1  0.74067514  0.18182866  0.52893357  1
  C  C134  1  0.34610715  0.54545633  0.52664373  1
  C  C135  1  0.84986697  0.54070915  0.52193725  1
  C  C136  1  0.42899224  0.31571665  0.52958620  1
  C  C137  1  0.93027598  0.30970519  0.52726333  1
  C  C138  1  0.27553444  0.68671128  0.97277086  1
  C  C139  1  0.77500500  0.69003342  0.97196187  1
  C  C140  1  0.08091577  0.43803626  0.97183723  1
  C  C141  1  0.57196249  0.44792203  0.97457131  1
  C  C142  1  0.14881360  0.83762679  0.97396819  1
  C  C143  1  0.65648577  0.84543506  0.97572247  1
  C  C144  1  0.27690373  0.86446788  0.47175822  1
  C  C145  1  0.77709831  0.86534947  0.47274792  1
  C  C146  1  0.15381557  0.46390465  0.47490937  1
  C  C147  1  0.65180052  0.45057626  0.47863564  1
  C  C148  1  0.06748466  0.69386952  0.47915151  1
  C  C149  1  0.57321668  0.69870127  0.47423383  1
  C  C150  1  0.07284670  0.64010647  0.36005781  1
  C  C151  1  0.56782301  0.63522052  0.35699614  1
  C  C152  1  0.25909103  0.88193111  0.36451335  1
  C  C153  1  0.75790299  0.87367711  0.36525756  1
  C  C154  1  0.18333780  0.49390723  0.35724673  1
  C  C155  1  0.68015018  0.49446706  0.35919798  1
  C  C156  1  0.07109033  0.50975381  0.85952030  1
  C  C157  1  0.56760165  0.50414800  0.85735318  1
  C  C158  1  0.18020145  0.87086201  0.85580703  1
  C  C159  1  0.68389707  0.87267731  0.85776822  1
  C  C160  1  0.25826713  0.63827814  0.86534446  1
  C  C161  1  0.75944653  0.63718099  0.86471837  1
  C  C162  1  0.99740674  0.81820682  0.41267025  1
  C  C163  1  0.49510225  0.81586843  0.41215565  1
  C  C164  1  0.39837258  0.98890469  0.41173978  1
  C  C165  1  0.89800041  0.98401601  0.41177363  1
  C  C166  1  0.08103518  0.18645497  0.41324479  1
  C  C167  1  0.58006171  0.18412449  0.41296930  1
  C  C168  1  0.00069396  0.17858849  0.91030984  1
  C  C169  1  0.49947399  0.17863585  0.91208982  1
  C  C170  1  0.08665279  0.99263234  0.91262425  1
  C  C171  1  0.58065501  0.97381401  0.91335782  1
  C  C172  1  0.39937324  0.80175665  0.91304092  1
  C  C173  1  0.89852245  0.80724459  0.91313757  1
  C  C174  1  0.48520246  0.16610640  0.58547009  1
  C  C175  1  0.98511891  0.16870113  0.58657276  1
  C  C176  1  0.09010955  0.02526422  0.58987336  1
  C  C177  1  0.59156079  0.03947094  0.59021013  1
  C  C178  1  0.41652330  0.79894539  0.58526124  1
  C  C179  1  0.92169334  0.81613512  0.58962228  1
  C  C180  1  0.48420845  0.80509400  0.08698473  1
  C  C181  1  0.98425534  0.80391578  0.08580769  1
  C  C182  1  0.41593278  0.03311403  0.08625259  1
  C  C183  1  0.91627105  0.03308939  0.08583527  1
  C  C184  1  0.08878993  0.15083230  0.09098339  1
  C  C185  1  0.58829911  0.15067238  0.09128919  1
  C  C186  1  0.33493773  0.15269860  0.74478333  1
  C  C187  1  0.82942541  0.14659373  0.74609378  1
  C  C188  1  0.23241170  0.31915523  0.74286019  1
  C  C189  1  0.73024103  0.31532975  0.74347197  1
  C  C190  1  0.42059443  0.50907849  0.74372474  1
  C  C191  1  0.91708564  0.51176599  0.74611368  1
  C  C192  1  0.33565038  0.51870519  0.24547533  1
  C  C193  1  0.83600225  0.51915605  0.24505309  1
  C  C194  1  0.42002211  0.33139543  0.24313366  1
  C  C195  1  0.92018522  0.33131272  0.24314672  1
  C  C196  1  0.23366326  0.14250597  0.24157067  1
  C  C197  1  0.73372357  0.14220764  0.24133864  1
  C  C198  1  0.31584365  0.49646804  0.92173458  1
  C  C199  1  0.82098356  0.50291102  0.92356390  1
  C  C200  1  0.42442643  0.37279530  0.92580896  1
  C  C201  1  0.92537740  0.36848523  0.92539514  1
  C  C202  1  0.25438130  0.15099256  0.92380028  1
  C  C203  1  0.75567594  0.14774483  0.92499478  1
  C  C204  1  0.32126090  0.14016721  0.42209830  1
  C  C205  1  0.82102148  0.13704405  0.42065497  1
  C  C206  1  0.25575669  0.36458163  0.42419328  1
  C  C207  1  0.75599789  0.36550523  0.42136239  1
  C  C208  1  0.42388910  0.47965326  0.42440029  1
  C  C209  1  0.92532163  0.47838791  0.42135844  1
  C  C210  1  0.17485401  0.49905028  0.08109724  1
  C  C211  1  0.67528914  0.49962659  0.08166095  1
  C  C212  1  0.06799660  0.66080341  0.08010944  1
  C  C213  1  0.56881127  0.66426708  0.08132334  1
  C  C214  1  0.26138354  0.87082926  0.07735554  1
  C  C215  1  0.76173689  0.86960711  0.07771845  1
  C  C216  1  0.16892860  0.84493665  0.58091446  1
  C  C217  1  0.67726103  0.85778255  0.57890653  1
  C  C218  1  0.26164224  0.65468346  0.57728798  1
  C  C219  1  0.75182757  0.65831694  0.57773701  1
  C  C220  1  0.06800432  0.48021084  0.57823105  1
  C  C221  1  0.56687550  0.47216012  0.58087724  1
  C  C222  1  0.14881454  0.83316749  0.25344057  1
  C  C223  1  0.64914208  0.83333371  0.25322918  1
  C  C224  1  0.25701195  0.69920631  0.25742172  1
  C  C225  1  0.75703213  0.69845793  0.25753574  1
  C  C226  1  0.08833124  0.48221219  0.25544443  1
  C  C227  1  0.58871610  0.48175939  0.25516950  1
  C  C228  1  0.15270056  0.46933935  0.75267783  1
  C  C229  1  0.64753903  0.46120784  0.75253458  1
  C  C230  1  0.09044791  0.70051001  0.75388059  1
  C  C231  1  0.58895752  0.69641613  0.75461634  1
  C  C232  1  0.25788996  0.81549240  0.75636038  1
  C  C233  1  0.75603098  0.81212648  0.75704012  1
