# generated using pymatgen
data_CuNi2C3
_symmetry_space_group_name_H-M   'P 1'
_cell_length_a   7.39768602
_cell_length_b   7.39768602
_cell_length_c   9.35353400
_cell_angle_alpha   90.00000000
_cell_angle_beta   90.00000000
_cell_angle_gamma   145.66205601
_symmetry_Int_Tables_number   1
_chemical_formula_structural   CuNi2C3
_chemical_formula_sum   'Cu2 Ni4 C6'
_cell_volume   288.73726349
_cell_formula_units_Z   2
loop_
 _symmetry_equiv_pos_site_id
 _symmetry_equiv_pos_as_xyz
  1  'x, y, z'
loop_
 _atom_site_type_symbol
 _atom_site_label
 _atom_site_symmetry_multiplicity
 _atom_site_fract_x
 _atom_site_fract_y
 _atom_site_fract_z
 _atom_site_occupancy
  Ni  Ni0  1  0.34264400  0.62232600  0.45785500  1
  Ni  Ni1  1  0.37767400  0.65735600  0.04214500  1
  Ni  Ni2  1  0.62232600  0.34264400  0.54214500  1
  Ni  Ni3  1  0.65735600  0.37767400  0.95785500  1
  Cu  Cu4  1  0.99345200  0.00654800  0.75000000  1
  Cu  Cu5  1  0.00654800  0.99345200  0.25000000  1
  C  C6  1  0.29261800  0.70738200  0.25000000  1
  C  C7  1  0.70738200  0.29261800  0.75000000  1
  C  C8  1  0.78807900  0.20565100  0.45966200  1
  C  C9  1  0.20565100  0.78807900  0.54033800  1
  C  C10  1  0.79434900  0.21192100  0.04033800  1
  C  C11  1  0.21192100  0.79434900  0.95966200  1
