# generated using pymatgen
data_Cu2Ni3C32
_symmetry_space_group_name_H-M   'P 1'
_cell_length_a   9.28053577
_cell_length_b   9.25159634
_cell_length_c   23.15320252
_cell_angle_alpha   90.00215632
_cell_angle_beta   90.09589410
_cell_angle_gamma   120.06678002
_symmetry_Int_Tables_number   1
_chemical_formula_structural   Cu2Ni3C32
_chemical_formula_sum   'Cu6 Ni9 C96'
_cell_volume   1720.43376489
_cell_formula_units_Z   3
loop_
 _symmetry_equiv_pos_site_id
 _symmetry_equiv_pos_as_xyz
  1  'x, y, z'
loop_
 _atom_site_type_symbol
 _atom_site_label
 _atom_site_symmetry_multiplicity
 _atom_site_fract_x
 _atom_site_fract_y
 _atom_site_fract_z
 _atom_site_occupancy
  Ni  Ni0  1  0.34380673  0.98621621  0.75299007  1
  Ni  Ni1  1  0.67640172  0.98608705  0.58732619  1
  Ni  Ni2  1  0.68729865  0.69561122  0.08149102  1
  Ni  Ni3  1  0.02903404  0.99936114  0.49990119  1
  Ni  Ni4  1  0.02063693  0.00541538  -0.00106495  1
  Ni  Ni5  1  0.68073393  0.35464143  0.83291023  1
  Ni  Ni6  1  0.66248797  0.33099449  0.33138392  1
  Ni  Ni7  1  0.32384243  0.66685898  0.16653580  1
  Ni  Ni8  1  0.33083845  0.64284274  0.66707211  1
  Cu  Cu9  1  0.00167894  0.99640176  0.64722755  1
  Cu  Cu10  1  0.01121372  0.01018806  0.14847147  1
  Cu  Cu11  1  0.66683904  0.32844704  0.97796057  1
  Cu  Cu12  1  0.66209834  0.33542710  0.47595696  1
  Cu  Cu13  1  0.33639814  0.66719380  0.31090715  1
  Cu  Cu14  1  0.34010934  0.66196089  0.81469659  1
  C  C15  1  0.00033214  0.00039420  0.35200747  1
  C  C16  1  0.99177942  0.99824661  0.85200712  1
  C  C17  1  0.66923356  0.33251692  0.68447505  1
  C  C18  1  0.67107318  0.33411805  0.18620251  1
  C  C19  1  0.32564369  0.66785467  0.01809193  1
  C  C20  1  0.33039620  0.66586580  0.51825933  1
  C  C21  1  0.71129224  0.01972947  0.74649737  1
  C  C22  1  0.37498911  0.02587843  0.58211230  1
  C  C23  1  0.96671817  0.61834365  0.08335430  1
  C  C24  1  0.30913198  0.02729519  0.25183773  1
  C  C25  1  0.72050184  0.69374497  0.24831462  1
  C  C26  1  0.97175280  0.28191893  0.25155642  1
  C  C27  1  0.30768261  0.28352031  0.75109131  1
  C  C28  1  0.97816962  0.69527430  0.75316167  1
  C  C29  1  0.96828252  0.35659535  0.58309219  1
  C  C30  1  0.64082861  0.61481487  0.58360840  1
  C  C31  1  0.64140770  0.02551057  0.08524067  1
  C  C32  1  0.38592643  0.35855137  0.08366625  1
  C  C33  1  0.64438551  0.69149432  0.91919395  1
  C  C34  1  0.05253288  0.35750262  0.91675854  1
  C  C35  1  0.30471983  0.94722866  0.91426341  1
  C  C36  1  0.64202800  0.94653981  0.41761712  1
  C  C37  1  0.30457424  0.35983711  0.41602836  1
  C  C38  1  0.05584587  0.69466213  0.41599027  1
  C  C39  1  0.19812289  0.03812073  0.30385751  1
  C  C40  1  0.84194225  0.80356755  0.30039700  1
  C  C41  1  0.96075925  0.16114571  0.30363867  1
  C  C42  1  0.20388383  0.16270075  0.80367936  1
  C  C43  1  0.96365551  0.80207019  0.80564046  1
  C  C44  1  0.84319201  0.03051541  0.80255075  1
  C  C45  1  0.77291193  0.98927207  0.68644394  1
  C  C46  1  0.21485553  0.20974075  0.69571103  1
  C  C47  1  0.02131620  0.80111050  0.69950621  1
  C  C48  1  0.78569842  0.78118291  0.19119857  1
  C  C49  1  -0.00350134  0.21553684  0.19558121  1
  C  C50  1  0.21326453  0.99677015  0.19639469  1
  C  C51  1  0.86855229  0.37726158  0.63697538  1
  C  C52  1  0.50523716  0.13824204  0.64080834  1
  C  C53  1  0.63099118  0.50225402  0.63757170  1
  C  C54  1  0.85793901  0.48732039  0.14042963  1
  C  C55  1  0.62633299  0.12869241  0.13845900  1
  C  C56  1  0.50491828  0.37289647  0.13694121  1
  C  C57  1  0.45676131  0.33198683  0.02905713  1
  C  C58  1  0.85030990  0.54096276  0.02910668  1
  C  C59  1  0.67619163  0.12510662  0.03094230  1
  C  C60  1  0.47097900  0.13140618  0.52760963  1
  C  C61  1  0.67605741  0.54882571  0.52961712  1
  C  C62  1  0.86479947  0.32577130  0.52992017  1
  C  C63  1  0.54670007  0.70588061  0.97350392  1
  C  C64  1  0.17405017  0.46643190  0.96959973  1
  C  C65  1  0.29891743  0.82422261  0.96643622  1
  C  C66  1  0.53981219  0.83037682  0.47233962  1
  C  C67  1  0.29207366  0.46326061  0.46953957  1
  C  C68  1  0.17404799  0.70615587  0.46996379  1
  C  C69  1  0.12917063  0.66980832  0.36206521  1
  C  C70  1  0.53979055  0.87318756  0.36416705  1
  C  C71  1  0.32760910  0.45549344  0.36139276  1
  C  C72  1  0.12009205  0.45428877  0.86192594  1
  C  C73  1  0.32714851  0.88079405  0.85750711  1
  C  C74  1  0.54973422  0.67170016  0.86421567  1
  C  C75  1  0.05288902  0.86492732  0.41008111  1
  C  C76  1  0.81304322  0.94641016  0.40921371  1
  C  C77  1  0.13471476  0.18589184  0.40971458  1
  C  C78  1  0.05406163  0.18724474  0.91067442  1
  C  C79  1  0.13612522  0.94766250  0.91297014  1
  C  C80  1  0.81758948  0.86276490  0.91180704  1
  C  C81  1  0.99326678  0.20808531  0.59235678  1
  C  C82  1  0.18651344  0.98303102  0.58410015  1
  C  C83  1  0.77261754  0.79891618  0.59043487  1
  C  C84  1  0.99545065  0.80354375  0.08948305  1
  C  C85  1  0.77375039  0.97600629  0.09445845  1
  C  C86  1  0.20533893  0.22382481  0.08998340  1
  C  C87  1  0.71449530  0.20425502  0.74089849  1
  C  C88  1  0.47869341  0.28311267  0.74746946  1
  C  C89  1  0.80942839  0.52843474  0.74582594  1
  C  C90  1  0.71569902  0.51958001  0.24458382  1
  C  C91  1  0.79928651  0.27978218  0.24613358  1
  C  C92  1  0.47798988  0.19780809  0.24640791  1
  C  C93  1  0.68281857  0.55076988  0.92294020  1
  C  C94  1  0.87445907  0.31623179  0.92504330  1
  C  C95  1  0.44776157  0.12259488  0.92330141  1
  C  C96  1  0.68516990  0.12625722  0.42507236  1
  C  C97  1  0.44326309  0.31988220  0.42214411  1
  C  C98  1  0.87826448  0.55600387  0.42387075  1
  C  C99  1  0.39232913  0.53438659  0.07856104  1
  C  C100  1  0.15043298  0.62503811  0.07213946  1
  C  C101  1  0.47054769  0.85311468  0.07708940  1
  C  C102  1  0.37998006  0.84400569  0.57525733  1
  C  C103  1  0.46863967  0.61305426  0.57653677  1
  C  C104  1  0.14266409  0.52105756  0.57644152  1
  C  C105  1  0.34730329  0.88745864  0.25972303  1
  C  C106  1  0.54325761  0.65684901  0.25647445  1
  C  C107  1  0.10913452  0.46122742  0.25910616  1
  C  C108  1  0.34511177  0.46241881  0.75585444  1
  C  C109  1  0.12213611  0.66357339  0.76282303  1
  C  C110  1  0.51744308  0.88231430  0.75480188  1
