# generated using pymatgen
data_CuNiC3
_symmetry_space_group_name_H-M   'P 1'
_cell_length_a   3.19554206
_cell_length_b   3.14025311
_cell_length_c   7.72765581
_cell_angle_alpha   79.53252230
_cell_angle_beta   78.12688595
_cell_angle_gamma   59.33644334
_symmetry_Int_Tables_number   1
_chemical_formula_structural   CuNiC3
_chemical_formula_sum   'Cu1 Ni1 C3'
_cell_volume   65.00395424
_cell_formula_units_Z   1
loop_
 _symmetry_equiv_pos_site_id
 _symmetry_equiv_pos_as_xyz
  1  'x, y, z'
loop_
 _atom_site_type_symbol
 _atom_site_label
 _atom_site_symmetry_multiplicity
 _atom_site_fract_x
 _atom_site_fract_y
 _atom_site_fract_z
 _atom_site_occupancy
  Ni  Ni0  1  0.26077300  0.25527800  0.22766100  1
  C  C1  1  0.48739200  0.46706500  0.55813300  1
  Cu  Cu2  1  0.02675400  0.02425100  0.92223800  1
  C  C3  1  0.11483000  0.10154700  0.66857600  1
  C  C4  1  0.88108400  0.90185800  0.34214200  1
