# generated using pymatgen
data_Cu(NiC10)3
_symmetry_space_group_name_H-M   'P 1'
_cell_length_a   8.83896677
_cell_length_b   8.85218832
_cell_length_c   22.78228993
_cell_angle_alpha   90.00915331
_cell_angle_beta   89.97100749
_cell_angle_gamma   119.99945201
_symmetry_Int_Tables_number   1
_chemical_formula_structural   Cu(NiC10)3
_chemical_formula_sum   'Cu3 Ni9 C90'
_cell_volume   1543.76962625
_cell_formula_units_Z   3
loop_
 _symmetry_equiv_pos_site_id
 _symmetry_equiv_pos_as_xyz
  1  'x, y, z'
loop_
 _atom_site_type_symbol
 _atom_site_label
 _atom_site_symmetry_multiplicity
 _atom_site_fract_x
 _atom_site_fract_y
 _atom_site_fract_z
 _atom_site_occupancy
  Ni  Ni0  1  0.00073067  0.00018744  0.85903588  1
  Ni  Ni1  1  0.99895844  0.00504443  0.64371854  1
  Ni  Ni2  1  0.00569434  0.00607484  0.14457504  1
  Ni  Ni3  1  0.65861953  0.33132414  0.97707031  1
  Ni  Ni4  1  0.67291193  0.32613110  0.47634115  1
  Ni  Ni5  1  0.33324724  0.66108678  0.02199793  1
  Ni  Ni6  1  0.33522074  0.66640999  0.52085546  1
  Ni  Ni7  1  0.34042548  0.67434701  0.30886081  1
  Ni  Ni8  1  0.33205746  0.66644677  0.81409744  1
  Cu  Cu9  1  0.99332565  0.99979423  0.35380318  1
  Cu  Cu10  1  0.67428232  0.33580564  0.68754846  1
  Cu  Cu11  1  0.66177042  0.33518782  0.18748396  1
  C  C12  1  0.95401543  0.33674030  0.58521495  1
  C  C13  1  0.38281425  0.33470204  0.08563628  1
  C  C14  1  0.62026571  0.66590277  0.91670883  1
  C  C15  1  0.04324996  0.37938108  0.91702187  1
  C  C16  1  0.33430502  0.95320641  0.91729079  1
  C  C17  1  0.62722503  0.95258429  0.41571471  1
  C  C18  1  0.29110134  0.00647702  0.25127659  1
  C  C19  1  0.71608192  0.70838289  0.25060063  1
  C  C20  1  0.99435777  0.28762550  0.25108583  1
  C  C21  1  0.29426621  0.28960850  0.74952659  1
  C  C22  1  0.99614210  0.70778878  0.74942793  1
  C  C23  1  0.71017468  0.00355022  0.74983899  1
  C  C24  1  0.38041521  0.04645813  0.58468949  1
  C  C25  1  0.66617950  0.61854496  0.58447633  1
  C  C26  1  0.95319521  0.61969194  0.08496535  1
  C  C27  1  0.66597226  0.04642563  0.08495824  1
  C  C28  1  0.33007278  0.37360106  0.41589869  1
  C  C29  1  0.04586150  0.67229701  0.41573469  1
  C  C30  1  0.20674976  0.02747312  0.30315231  1
  C  C31  1  0.82048635  0.79167411  0.30270104  1
  C  C32  1  0.97206279  0.18066264  0.30254696  1
  C  C33  1  0.20692326  0.17898049  0.80156555  1
  C  C34  1  0.97329668  0.79502223  0.80178542  1
  C  C35  1  0.82154848  0.02758542  0.80169467  1
  C  C36  1  0.79428788  0.97096391  0.69743061  1
  C  C37  1  0.17739825  0.20496730  0.69720235  1
  C  C38  1  0.02829271  0.82319839  0.69718768  1
  C  C39  1  0.79257736  0.82272725  0.19760721  1
  C  C40  1  0.02986868  0.20740785  0.19771045  1
  C  C41  1  0.17635176  0.96949086  0.19794686  1
  C  C42  1  0.87145678  0.36486225  0.63843832  1
  C  C43  1  0.48602027  0.12344172  0.63643197  1
  C  C44  1  0.63521616  0.51272637  0.63641101  1
  C  C45  1  0.87715352  0.51300956  0.13648155  1
  C  C46  1  0.63847290  0.12425696  0.13658987  1
  C  C47  1  0.49344743  0.36393330  0.13874576  1
  C  C48  1  0.46265676  0.30291551  0.02922664  1
  C  C49  1  0.84690977  0.54286079  0.03106366  1
  C  C50  1  0.69838034  0.15392612  0.03111441  1
  C  C51  1  0.45649540  0.15507215  0.53104384  1
  C  C52  1  0.69525909  0.54178507  0.53075917  1
  C  C53  1  0.83962679  0.30404719  0.52911543  1
  C  C54  1  0.53793604  0.69909739  0.97075507  1
  C  C55  1  0.16045804  0.46311716  0.97070985  1
  C  C56  1  0.30238928  0.83897770  0.97123366  1
  C  C57  1  0.53141430  0.83958475  0.47063154  1
  C  C58  1  0.30529881  0.45987731  0.46912719  1
  C  C59  1  0.15369063  0.69331177  0.46910075  1
  C  C60  1  0.12492413  0.63434503  0.36428000  1
  C  C61  1  0.50148323  0.86511589  0.36281791  1
  C  C62  1  0.36293389  0.48955852  0.36441342  1
  C  C63  1  0.12952928  0.49297525  0.86184500  1
  C  C64  1  0.36314994  0.86942965  0.86174874  1
  C  C65  1  0.50634814  0.63632731  0.86166851  1
  C  C66  1  0.02696589  0.82333420  0.40800585  1
  C  C67  1  0.80522113  0.97574187  0.40728196  1
  C  C68  1  0.17926992  0.20304301  0.40811303  1
  C  C69  1  0.02551149  0.19942226  0.90607020  1
  C  C70  1  0.17428625  0.97493240  0.90623744  1
  C  C71  1  0.80123310  0.82680388  0.90621358  1
  C  C72  1  0.97647971  0.17333708  0.59324515  1
  C  C73  1  0.20197758  0.02333266  0.59224059  1
  C  C74  1  0.82207757  0.79647309  0.59237800  1
  C  C75  1  0.97396314  0.79721462  0.09264040  1
  C  C76  1  0.82162457  0.02310087  0.09246024  1
  C  C77  1  0.19586767  0.17215699  0.09337565  1
  C  C78  1  0.69076600  0.15453260  0.74105072  1
  C  C79  1  0.46439101  0.30782020  0.74006256  1
  C  C80  1  0.84358064  0.53756950  0.74143324  1
  C  C81  1  0.69115728  0.53579475  0.24121719  1
  C  C82  1  0.84551651  0.31031048  0.24000657  1
  C  C83  1  0.46422875  0.15250426  0.24117203  1
  C  C84  1  0.64328627  0.50736388  0.92555895  1
  C  C85  1  0.86314199  0.35800024  0.92685321  1
  C  C86  1  0.49492212  0.13435395  0.92523790  1
  C  C87  1  0.63608757  0.13158126  0.42619360  1
  C  C88  1  0.49060821  0.36258877  0.42662899  1
  C  C89  1  0.87103358  0.51305259  0.42559702  1
  C  C90  1  0.35521662  0.49147887  0.07362215  1
  C  C91  1  0.13064934  0.64493960  0.07489026  1
  C  C92  1  0.51247481  0.87057069  0.07486369  1
  C  C93  1  0.35656979  0.86981323  0.57429689  1
  C  C94  1  0.51303663  0.64344309  0.57460144  1
  C  C95  1  0.13763253  0.49261662  0.57183233  1
  C  C96  1  0.30404404  0.84252103  0.25843899  1
  C  C97  1  0.53719496  0.69201243  0.25867767  1
  C  C98  1  0.15651155  0.46363677  0.25944085  1
  C  C99  1  0.30623011  0.46177597  0.75735478  1
  C  C100  1  0.15602423  0.69414443  0.75752912  1
  C  C101  1  0.53778247  0.84316485  0.75743837  1
