# generated using pymatgen
data_Cu2NiC18
_symmetry_space_group_name_H-M   'P 1'
_cell_length_a   9.48709935
_cell_length_b   9.47933138
_cell_length_c   22.76267906
_cell_angle_alpha   90.06158790
_cell_angle_beta   89.93405941
_cell_angle_gamma   119.95224364
_symmetry_Int_Tables_number   1
_chemical_formula_structural   Cu2NiC18
_chemical_formula_sum   'Cu12 Ni6 C108'
_cell_volume   1773.67315639
_cell_formula_units_Z   6
loop_
 _symmetry_equiv_pos_site_id
 _symmetry_equiv_pos_as_xyz
  1  'x, y, z'
loop_
 _atom_site_type_symbol
 _atom_site_label
 _atom_site_symmetry_multiplicity
 _atom_site_fract_x
 _atom_site_fract_y
 _atom_site_fract_z
 _atom_site_occupancy
  C  C0  1  0.63521582  0.99842231  0.25749662  1
  C  C1  1  0.35901976  0.36841447  0.25229256  1
  C  C2  1  0.00606955  0.62949310  0.25252108  1
  C  C3  1  0.63889307  0.63338806  0.73767687  1
  C  C4  1  0.98424867  0.35775477  0.74372058  1
  C  C5  1  0.38125832  0.01321214  0.74144849  1
  C  C6  1  0.29856720  0.32500135  0.58245638  1
  C  C7  1  0.03997174  0.71209361  0.58117229  1
  C  C8  1  0.66450955  0.96761851  0.58912447  1
  C  C9  1  0.28891972  0.97100130  0.08480565  1
  C  C10  1  0.68849759  0.70473542  0.08553680  1
  C  C11  1  0.02698132  0.32846549  0.09500820  1
  C  C12  1  0.97421019  0.67698077  0.92241011  1
  C  C13  1  0.69391821  0.03376220  0.90855166  1
  C  C14  1  0.33262729  0.29792062  0.91574313  1
  C  C15  1  0.96618392  0.30454356  0.40868480  1
  C  C16  1  0.32536748  0.02573828  0.41846169  1
  C  C17  1  0.70418296  0.66673359  0.41375930  1
  C  C18  1  0.00629565  0.99264682  0.49956210  1
  C  C19  1  0.00610199  0.99449349  0.00129314  1
  C  C20  1  0.66211535  0.32169572  0.83279761  1
  C  C21  1  0.67672647  0.33647312  0.33956864  1
  C  C22  1  0.32385152  0.66232300  0.16930600  1
  C  C23  1  0.33724015  0.67670635  0.66394678  1
  C  C24  1  0.00035107  0.00010176  0.83892936  1
  C  C25  1  0.67145640  0.33411244  0.18723856  1
  C  C26  1  0.66856344  0.33407443  0.99152605  1
  C  C27  1  0.33015813  0.67123446  0.01386581  1
  C  C28  1  0.33014913  0.67095826  0.51187475  1
  C  C29  1  0.33757643  0.67511032  0.81393108  1
  C  C30  1  0.99917785  -0.00018061  0.35052886  1
  C  C31  1  0.00031412  0.99918417  0.64706171  1
  C  C32  1  0.00128650  0.00162920  0.15572379  1
  C  C33  1  0.66307477  0.32533079  0.67954699  1
  C  C34  1  0.66503934  0.33149947  0.48338200  1
  C  C35  1  0.32100014  0.65929111  0.31839848  1
  Ni  Ni36  1  0.01112836  0.30032936  0.25427336  1
  Ni  Ni37  1  0.69880516  0.00790342  0.74485350  1
  Ni  Ni38  1  0.36709456  0.04204101  0.58224644  1
  Ni  Ni39  1  0.98301144  0.65782997  0.08696326  1
  Ni  Ni40  1  0.33421324  0.98774025  0.91595996  1
  Ni  Ni41  1  0.02163669  0.66601566  0.41671683  1
  Cu  Cu42  1  0.28628010  0.98755939  0.25444398  1
  Cu  Cu43  1  0.69900601  0.71398857  0.25377137  1
  Cu  Cu44  1  0.31003179  0.30383348  0.74290194  1
  Cu  Cu45  1  0.99062797  0.68845534  0.74294953  1
  Cu  Cu46  1  0.95391934  0.32274642  0.58294196  1
  Cu  Cu47  1  0.67510501  0.62858559  0.58336898  1
  Cu  Cu48  1  0.67754338  0.01756318  0.08719565  1
  Cu  Cu49  1  0.34306889  0.32448227  0.08766631  1
  Cu  Cu50  1  0.64863761  0.66485551  0.91625534  1
  Cu  Cu51  1  0.01793429  0.35099616  0.91493905  1
  Cu  Cu52  1  0.64009051  0.97431153  0.41447511  1
  Cu  Cu53  1  0.33491005  0.35903305  0.41519377  1
  C  C54  1  0.19235752  -0.00399616  0.30825374  1
  C  C55  1  0.80416232  0.80366726  0.30776725  1
  C  C56  1  0.00158399  0.18990091  0.31060598  1
  C  C57  1  0.24775559  0.22226569  0.80360413  1
  C  C58  1  0.97582045  0.75373689  0.80362145  1
  C  C59  1  0.78260850  0.02662942  0.80937292  1
  C  C60  1  0.81672863  0.99540986  0.69381710  1
  C  C61  1  0.19209225  0.19209958  0.69403896  1
  C  C62  1  0.00662247  0.81072678  0.69410564  1
  C  C63  1  0.78821781  0.80997324  0.19744803  1
  C  C64  1  0.02348611  0.20986462  0.19433514  1
  C  C65  1  0.19024075  0.97720292  0.19782763  1
  C  C66  1  0.86762453  0.33871497  0.63804397  1
  C  C67  1  0.47777401  0.13896732  0.63962942  1
  C  C68  1  0.66389742  0.52824238  0.63824838  1
  C  C69  1  0.88556526  0.53328602  0.14140851  1
  C  C70  1  0.64677564  0.10418143  0.13930792  1
  C  C71  1  0.45454900  0.34496879  0.14041817  1
  C  C72  1  0.42277106  0.30928222  0.03011385  1
  C  C73  1  0.88212867  0.57961079  0.02557442  1
  C  C74  1  0.69256293  0.11204821  0.02974142  1
  C  C75  1  0.46241814  0.15081009  0.52336828  1
  C  C76  1  0.68711476  0.54006809  0.52744952  1
  C  C77  1  0.85267243  0.31255574  0.52765107  1
  C  C78  1  0.56082657  0.66812142  0.97310155  1
  C  C79  1  0.11434340  0.43909523  0.97091551  1
  C  C80  1  0.32143435  0.88631845  0.97596038  1
  C  C81  1  0.57637452  0.87616841  0.47228606  1
  C  C82  1  0.30255853  0.42360128  0.47317307  1
  C  C83  1  0.12744574  0.70749949  0.47757962  1
  C  C84  1  0.12942410  0.64052853  0.36383615  1
  C  C85  1  0.52180636  0.87641453  0.36342745  1
  C  C86  1  0.35410233  0.47791454  0.36405899  1
  C  C87  1  0.11102365  0.44863578  0.85958932  1
  C  C88  1  0.34756739  0.89175780  0.85776598  1
  C  C89  1  0.54521928  0.65478326  0.86186150  1
  C  C90  1  0.99536070  0.82442634  0.40819369  1
  C  C91  1  0.81501353  0.00159750  0.40675364  1
  C  C92  1  0.18739413  0.18361316  0.40764986  1
  C  C93  1  -0.00168492  0.17899723  0.91581011  1
  C  C94  1  0.16944301  0.00294896  0.91557658  1
  C  C95  1  0.81737603  0.82192122  0.91579008  1
  C  C96  1  0.96782749  0.16471030  0.58498231  1
  C  C97  1  0.18279468  0.02305267  0.58499409  1
  C  C98  1  0.83058247  0.80252200  0.58526991  1
  C  C99  1  0.99122775  0.83417803  0.09362562  1
  C  C100  1  0.83966136  0.01679960  0.09347910  1
  C  C101  1  0.17667554  0.16507092  0.09223666  1
  C  C102  1  0.67955234  0.17138068  0.73979003  1
  C  C103  1  0.48484317  0.33015638  0.73733920  1
  C  C104  1  0.83608769  0.51885598  0.73682815  1
  C  C105  1  0.67358997  0.53798507  0.25418863  1
  C  C106  1  0.84698614  0.31997679  0.25743499  1
  C  C107  1  0.45854844  0.14235396  0.25538429  1
  C  C108  1  0.66795829  0.51226654  0.91417364  1
  C  C109  1  0.84937719  0.33998514  0.91419267  1
  C  C110  1  0.49927475  0.16747031  0.91529540  1
  C  C111  1  0.64828652  0.14310157  0.41838861  1
  C  C112  1  0.49626205  0.35268985  0.41807837  1
  C  C113  1  0.84392915  0.49501202  0.42019676  1
  C  C114  1  0.31899133  0.47431921  0.08753712  1
  C  C115  1  0.16648019  0.68117304  0.08879791  1
  C  C116  1  0.53403299  0.84021015  0.08637420  1
  C  C117  1  0.35135835  0.85984984  0.58412808  1
  C  C118  1  0.52024281  0.64618559  0.58260729  1
  C  C119  1  0.12865594  0.47390529  0.58190102  1
  C  C120  1  0.30517508  0.83260326  0.25677408  1
  C  C121  1  0.52890857  0.70232916  0.25644360  1
  C  C122  1  0.17737947  0.48503081  0.25654150  1
  C  C123  1  0.31670186  0.47061306  0.73903178  1
  C  C124  1  0.14453515  0.67027019  0.73947301  1
  C  C125  1  0.51934913  0.84114838  0.73896077  1
