# generated using pymatgen
data_Cu5Ni7C5
_symmetry_space_group_name_H-M   'P 1'
_cell_length_a   5.16810027
_cell_length_b   5.27099500
_cell_length_c   9.25178919
_cell_angle_alpha   74.88092091
_cell_angle_beta   90.57185140
_cell_angle_gamma   60.58851028
_symmetry_Int_Tables_number   1
_chemical_formula_structural   Cu5Ni7C5
_chemical_formula_sum   'Cu5 Ni7 C5'
_cell_volume   209.07039039
_cell_formula_units_Z   1
loop_
 _symmetry_equiv_pos_site_id
 _symmetry_equiv_pos_as_xyz
  1  'x, y, z'
loop_
 _atom_site_type_symbol
 _atom_site_label
 _atom_site_symmetry_multiplicity
 _atom_site_fract_x
 _atom_site_fract_y
 _atom_site_fract_z
 _atom_site_occupancy
  C  C0  1  0.06585700  0.76984100  0.36420500  1
  C  C1  1  0.69541700  0.50470800  0.24919100  1
  C  C2  1  0.45420800  0.02610800  0.48215600  1
  C  C3  1  0.28830200  0.51692100  0.74995500  1
  C  C4  1  0.99203000  0.99624000  0.97992600  1
  Ni  Ni5  1  0.46744900  0.74501300  0.38294700  1
  Ni  Ni6  1  0.39729800  0.72028000  0.09911100  1
  Ni  Ni7  1  0.37618000  0.77993400  0.65855200  1
  Ni  Ni8  1  0.68215100  0.16067300  0.35156900  1
  Ni  Ni9  1  0.62185100  0.27945000  0.91419400  1
  Ni  Ni10  1  0.03560100  0.76017100  0.87746700  1
  Ni  Ni11  1  0.10187000  0.34245000  0.39685800  1
  Cu  Cu12  1  0.93296600  0.69501200  0.58327000  1
  Cu  Cu13  1  0.87455900  0.79315000  0.16074200  1
  Cu  Cu14  1  0.98475300  0.22677300  0.13700600  1
  Cu  Cu15  1  0.49995100  0.22779700  0.63518100  1
  Cu  Cu16  1  0.14206000  0.21797700  0.84910000  1
