# generated using pymatgen
data_Cu2Ni2C13
_symmetry_space_group_name_H-M   'P 1'
_cell_length_a   5.21275465
_cell_length_b   5.48039353
_cell_length_c   7.54473600
_cell_angle_alpha   90.00000000
_cell_angle_beta   90.00000000
_cell_angle_gamma   89.97599059
_symmetry_Int_Tables_number   1
_chemical_formula_structural   Cu2Ni2C13
_chemical_formula_sum   'Cu2 Ni2 C13'
_cell_volume   215.53759816
_cell_formula_units_Z   1
loop_
 _symmetry_equiv_pos_site_id
 _symmetry_equiv_pos_as_xyz
  1  'x, y, z'
loop_
 _atom_site_type_symbol
 _atom_site_label
 _atom_site_symmetry_multiplicity
 _atom_site_fract_x
 _atom_site_fract_y
 _atom_site_fract_z
 _atom_site_occupancy
  C  C0  1  0.02079800  0.94242100  0.25000000  1
  Ni  Ni1  1  0.00300700  0.49475600  0.99660500  1
  Ni  Ni2  1  0.00300700  0.49475600  0.50339500  1
  Cu  Cu3  1  0.50441000  0.00273100  0.99519500  1
  Cu  Cu4  1  0.50441000  0.00273100  0.50480500  1
  C  C5  1  0.78454400  0.79379700  0.54140200  1
  C  C6  1  0.28563000  0.73289900  0.45154500  1
  C  C7  1  0.19225900  0.19139800  0.43785300  1
  C  C8  1  0.69386900  0.28640700  0.96182100  1
  C  C9  1  0.10049700  0.47813500  0.75000000  1
  C  C10  1  0.69386900  0.28640700  0.53817900  1
  C  C11  1  0.28563000  0.73289900  0.04845500  1
  C  C12  1  0.78454400  0.79379700  0.95859800  1
  C  C13  1  0.61968800  0.00970100  0.25000000  1
  C  C14  1  0.19225900  0.19139800  0.06214700  1
  C  C15  1  0.42632600  0.99437500  0.75000000  1
  C  C16  1  0.91775600  0.54758200  0.25000000  1
