# generated using pymatgen
data_Cu2NiC12
_symmetry_space_group_name_H-M   'P 1'
_cell_length_a   6.02489844
_cell_length_b   6.41133683
_cell_length_c   6.15876859
_cell_angle_alpha   60.79815162
_cell_angle_beta   59.20445620
_cell_angle_gamma   62.90280347
_symmetry_Int_Tables_number   1
_chemical_formula_structural   Cu2NiC12
_chemical_formula_sum   'Cu2 Ni1 C12'
_cell_volume   171.53822270
_cell_formula_units_Z   1
loop_
 _symmetry_equiv_pos_site_id
 _symmetry_equiv_pos_as_xyz
  1  'x, y, z'
loop_
 _atom_site_type_symbol
 _atom_site_label
 _atom_site_symmetry_multiplicity
 _atom_site_fract_x
 _atom_site_fract_y
 _atom_site_fract_z
 _atom_site_occupancy
  Ni  Ni0  1  0.12168200  0.63137700  0.11530400  1
  C  C1  1  0.29955100  0.15938500  0.27584100  1
  C  C2  1  0.62721000  0.12351600  0.62364100  1
  C  C3  1  0.62579200  0.62254800  0.12192500  1
  C  C4  1  0.62742100  0.62029200  0.61981100  1
  Cu  Cu5  1  0.96018400  0.08868400  0.97770100  1
  Cu  Cu6  1  0.12440400  0.62151100  0.62234200  1
  C  C7  1  0.38024300  0.40711800  0.34677400  1
  C  C8  1  0.38243800  0.40358000  0.86220000  1
  C  C9  1  0.42141700  0.79162000  0.38803100  1
  C  C10  1  0.89485700  0.37341200  0.36281600  1
  C  C11  1  0.34931100  0.88661600  0.87431200  1
  C  C12  1  0.83153000  0.44435900  0.85845800  1
  C  C13  1  0.86419300  0.85133300  0.38036000  1
  C  C14  1  0.86477000  0.84964700  0.89340300  1
