# generated using pymatgen
data_Cu(NiC)2
_symmetry_space_group_name_H-M   'P 1'
_cell_length_a   3.27938687
_cell_length_b   3.27939025
_cell_length_c   37.17536841
_cell_angle_alpha   88.26038508
_cell_angle_beta   91.73308824
_cell_angle_gamma   120.01771991
_symmetry_Int_Tables_number   1
_chemical_formula_structural   Cu(NiC)2
_chemical_formula_sum   'Cu2 Ni4 C4'
_cell_volume   345.96180531
_cell_formula_units_Z   2
loop_
 _symmetry_equiv_pos_site_id
 _symmetry_equiv_pos_as_xyz
  1  'x, y, z'
loop_
 _atom_site_type_symbol
 _atom_site_label
 _atom_site_symmetry_multiplicity
 _atom_site_fract_x
 _atom_site_fract_y
 _atom_site_fract_z
 _atom_site_occupancy
  C  C0  1  0.66915600  0.33092500  0.23252500  1
  C  C1  1  0.33339600  0.66642200  0.10971100  1
  C  C2  1  0.33425700  0.66559000  0.57819600  1
  C  C3  1  0.65550600  0.34474200  0.35771600  1
  Ni  Ni4  1  0.65638500  0.34353700  0.06425400  1
  Ni  Ni5  1  0.65738100  0.34259800  0.53242400  1
  Ni  Ni6  1  0.67720800  0.32247900  0.15531800  1
  Ni  Ni7  1  0.67794300  0.32179800  0.62395200  1
  Cu  Cu8  1  0.33180800  0.66834900  0.39904500  1
  Cu  Cu9  1  0.31244800  0.68787300  0.31622700  1
