# generated using pymatgen
data_Cu8Ni2C3
_symmetry_space_group_name_H-M   'P 1'
_cell_length_a   7.78924687
_cell_length_b   7.37509091
_cell_length_c   7.54972294
_cell_angle_alpha   79.56122090
_cell_angle_beta   102.64585268
_cell_angle_gamma   97.86452288
_symmetry_Int_Tables_number   1
_chemical_formula_structural   Cu8Ni2C3
_chemical_formula_sum   'Cu8 Ni2 C3'
_cell_volume   414.04045448
_cell_formula_units_Z   1
loop_
 _symmetry_equiv_pos_site_id
 _symmetry_equiv_pos_as_xyz
  1  'x, y, z'
loop_
 _atom_site_type_symbol
 _atom_site_label
 _atom_site_symmetry_multiplicity
 _atom_site_fract_x
 _atom_site_fract_y
 _atom_site_fract_z
 _atom_site_occupancy
  C  C0  1  0.81325700  0.06703600  0.79006100  1
  C  C1  1  0.80301100  0.14629500  0.24001400  1
  C  C2  1  0.20010500  0.85911800  0.75814500  1
  Ni  Ni3  1  0.76681900  0.35517700  0.00345400  1
  Ni  Ni4  1  0.25445000  0.67747600  0.00710800  1
  Cu  Cu5  1  0.83492000  0.88522000  0.10409300  1
  Cu  Cu6  1  0.53376000  0.99313100  0.27896700  1
  Cu  Cu7  1  0.10517500  0.15625300  0.35937000  1
  Cu  Cu8  1  0.78570200  0.29955700  0.49290900  1
  Cu  Cu9  1  0.22072500  0.68923200  0.53885600  1
  Cu  Cu10  1  0.88188400  0.80385200  0.66543000  1
  Cu  Cu11  1  0.47831200  0.02972700  0.72548400  1
  Cu  Cu12  1  0.13855200  0.13978300  0.84443900  1
