# generated using pymatgen
data_CuNi7C16
_symmetry_space_group_name_H-M   'P 1'
_cell_length_a   8.80037900
_cell_length_b   8.86348100
_cell_length_c   12.49874600
_cell_angle_alpha   90.00000000
_cell_angle_beta   90.00000000
_cell_angle_gamma   90.00000000
_symmetry_Int_Tables_number   1
_chemical_formula_structural   CuNi7C16
_chemical_formula_sum   'Cu4 Ni28 C64'
_cell_volume   974.92708624
_cell_formula_units_Z   4
loop_
 _symmetry_equiv_pos_site_id
 _symmetry_equiv_pos_as_xyz
  1  'x, y, z'
loop_
 _atom_site_type_symbol
 _atom_site_label
 _atom_site_symmetry_multiplicity
 _atom_site_fract_x
 _atom_site_fract_y
 _atom_site_fract_z
 _atom_site_occupancy
  C  C0  1  0.74792700  0.24202800  0.24515200  1
  C  C1  1  0.25207300  0.75797200  0.74515200  1
  C  C2  1  0.25207300  0.74202800  0.24515200  1
  C  C3  1  0.74792700  0.25797200  0.74515200  1
  C  C4  1  0.97946600  0.49898700  0.01372500  1
  C  C5  1  0.02053400  0.50101300  0.51372500  1
  C  C6  1  0.02053400  0.99898700  0.01372500  1
  C  C7  1  0.97946600  0.00101300  0.51372500  1
  C  C8  1  0.47963400  0.50179600  0.50957200  1
  C  C9  1  0.52036600  0.00179600  0.50957200  1
  C  C10  1  0.52036600  0.49820400  0.00957200  1
  C  C11  1  0.47963400  0.99820400  0.00957200  1
  Ni  Ni12  1  0.50347600  0.99871900  0.75774700  1
  Ni  Ni13  1  0.09712400  0.25762700  0.17962800  1
  Ni  Ni14  1  0.90287600  0.74237300  0.67962800  1
  Ni  Ni15  1  0.90287600  0.75762700  0.17962800  1
  Ni  Ni16  1  0.09712400  0.24237300  0.67962800  1
  Ni  Ni17  1  0.25006500  0.40641600  0.33057200  1
  Ni  Ni18  1  0.74993500  0.59358400  0.83057200  1
  Ni  Ni19  1  0.74993500  0.90641600  0.33057200  1
  Ni  Ni20  1  0.25006500  0.09358400  0.83057200  1
  Ni  Ni21  1  0.59906600  0.74271400  0.67901800  1
  Ni  Ni22  1  0.40093400  0.25728600  0.17901800  1
  Ni  Ni23  1  0.40093400  0.24271400  0.67901800  1
  Ni  Ni24  1  0.59906600  0.75728600  0.17901800  1
  Ni  Ni25  1  0.75049700  0.94988600  0.85785100  1
  Ni  Ni26  1  0.24950300  0.05011400  0.35785100  1
  Ni  Ni27  1  0.24950300  0.44988600  0.85785100  1
  Ni  Ni28  1  0.50347600  0.50128100  0.25774700  1
  Ni  Ni29  1  0.49652400  0.49871900  0.75774700  1
  Ni  Ni30  1  0.49652400  0.00128100  0.25774700  1
  Ni  Ni31  1  0.75049700  0.55011400  0.35785100  1
  Ni  Ni32  1  0.75333000  0.74296800  0.50617000  1
  Ni  Ni33  1  0.24667000  0.25703200  0.00617000  1
  Ni  Ni34  1  0.24667000  0.24296800  0.50617000  1
  Ni  Ni35  1  0.75333000  0.75703200  0.00617000  1
  Ni  Ni36  1  0.00283500  0.00157000  0.25979100  1
  Ni  Ni37  1  0.99716500  0.99843000  0.75979100  1
  Ni  Ni38  1  0.99716500  0.50157000  0.25979100  1
  Ni  Ni39  1  0.00283500  0.49843000  0.75979100  1
  Cu  Cu40  1  0.74926000  0.24886400  0.50975300  1
  Cu  Cu41  1  0.25074000  0.75113600  0.00975300  1
  Cu  Cu42  1  0.25074000  0.74886400  0.50975300  1
  Cu  Cu43  1  0.74926000  0.25113600  0.00975300  1
  C  C44  1  0.05507400  0.09736900  0.16992700  1
  C  C45  1  0.40642300  0.04377100  0.84831600  1
  C  C46  1  0.59357700  0.95622900  0.34831600  1
  C  C47  1  0.59357700  0.54377100  0.84831600  1
  C  C48  1  0.40642300  0.45622900  0.34831600  1
  C  C49  1  0.09296100  0.46206100  0.85883000  1
  C  C50  1  0.90703900  0.53793900  0.35883000  1
  C  C51  1  0.90703900  0.96206100  0.85883000  1
  C  C52  1  0.09296100  0.03793900  0.35883000  1
  C  C53  1  0.46290300  0.08952900  0.66320200  1
  C  C54  1  0.53709700  0.91047100  0.16320200  1
  C  C55  1  0.53709700  0.58952900  0.66320200  1
  C  C56  1  0.46290300  0.41047100  0.16320200  1
  C  C57  1  0.05507400  0.40263100  0.66992700  1
  C  C58  1  0.94492600  0.59736900  0.16992700  1
  C  C59  1  0.94492600  0.90263100  0.66992700  1
  C  C60  1  0.75031800  0.77486100  0.24616800  1
  C  C61  1  0.24968200  0.22513900  0.74616800  1
  C  C62  1  0.24968200  0.27486100  0.24616800  1
  C  C63  1  0.75031800  0.72513900  0.74616800  1
  C  C64  1  0.66680800  0.46627600  0.28523600  1
  C  C65  1  0.33319200  0.53372400  0.78523600  1
  C  C66  1  0.33319200  0.96627600  0.28523600  1
  C  C67  1  0.66680800  0.03372400  0.78523600  1
  C  C68  1  0.67726400  0.62039600  0.44219800  1
  C  C69  1  0.32273600  0.37960400  0.94219800  1
  C  C70  1  0.32273600  0.12039600  0.44219800  1
  C  C71  1  0.67726400  0.87960400  0.94219800  1
  C  C72  1  0.84154300  0.02993200  0.28460200  1
  C  C73  1  0.15845700  0.97006800  0.78460200  1
  C  C74  1  0.15845700  0.52993200  0.28460200  1
  C  C75  1  0.84154300  0.47006800  0.78460200  1
  C  C76  1  0.63787800  0.68778200  0.07631200  1
  C  C77  1  0.36212200  0.31221800  0.57631200  1
  C  C78  1  0.36212200  0.18778200  0.07631200  1
  C  C79  1  0.63787800  0.81221800  0.57631200  1
  C  C80  1  0.02379300  0.84088600  0.23355000  1
  C  C81  1  0.97620700  0.15911400  0.73355000  1
  C  C82  1  0.97620700  0.34088600  0.23355000  1
  C  C83  1  0.02379300  0.65911400  0.73355000  1
  C  C84  1  0.81688000  0.85812400  0.43295700  1
  C  C85  1  0.18312000  0.14187600  0.93295700  1
  C  C86  1  0.18312000  0.35812400  0.43295700  1
  C  C87  1  0.81688000  0.64187600  0.93295700  1
  C  C88  1  0.87484800  0.67818800  0.57270100  1
  C  C89  1  0.51276200  0.33595900  0.73602100  1
  C  C90  1  0.51276200  0.16404100  0.23602100  1
  C  C91  1  0.48723800  0.83595900  0.73602100  1
  C  C92  1  0.87484800  0.82181200  0.07270100  1
  C  C93  1  0.12515200  0.17818800  0.57270100  1
  C  C94  1  0.12515200  0.32181200  0.07270100  1
  C  C95  1  0.48723800  0.66404100  0.23602100  1
