# generated using pymatgen
data_Cu2NiC4
_symmetry_space_group_name_H-M   'P 1'
_cell_length_a   7.38648800
_cell_length_b   8.80241700
_cell_length_c   13.99064529
_cell_angle_alpha   71.95048281
_cell_angle_beta   90.00000000
_cell_angle_gamma   90.00000000
_symmetry_Int_Tables_number   1
_chemical_formula_structural   Cu2NiC4
_chemical_formula_sum   'Cu8 Ni4 C16'
_cell_volume   864.89198810
_cell_formula_units_Z   4
loop_
 _symmetry_equiv_pos_site_id
 _symmetry_equiv_pos_as_xyz
  1  'x, y, z'
loop_
 _atom_site_type_symbol
 _atom_site_label
 _atom_site_symmetry_multiplicity
 _atom_site_fract_x
 _atom_site_fract_y
 _atom_site_fract_z
 _atom_site_occupancy
  Ni  Ni0  1  0.74795600  0.20361300  0.35468100  1
  Ni  Ni1  1  0.24795600  0.79638700  0.14531900  1
  Ni  Ni2  1  0.25204400  0.79638700  0.64531900  1
  Ni  Ni3  1  0.75204400  0.20361300  0.85468100  1
  Cu  Cu4  1  0.63715800  0.55603000  0.13771600  1
  Cu  Cu5  1  0.13715800  0.44397000  0.36228400  1
  Cu  Cu6  1  0.36284200  0.44397000  0.86228400  1
  Cu  Cu7  1  0.86284200  0.55603000  0.63771600  1
  Cu  Cu8  1  0.64385400  0.05442000  0.12562400  1
  Cu  Cu9  1  0.14385400  0.94558000  0.37437600  1
  Cu  Cu10  1  0.35614600  0.94558000  0.87437600  1
  Cu  Cu11  1  0.85614600  0.05442000  0.62562400  1
  C  C12  1  0.76565700  0.93645500  0.44386900  1
  C  C13  1  0.26565700  0.06354500  0.05613100  1
  C  C14  1  0.23434300  0.06354500  0.55613100  1
  C  C15  1  0.73434300  0.93645500  0.94386900  1
  C  C16  1  0.52281300  0.26988600  0.73777400  1
  C  C17  1  0.02281300  0.73011400  0.76222600  1
  C  C18  1  0.47718700  0.73011400  0.26222600  1
  C  C19  1  0.97718700  0.26988600  0.23777400  1
  C  C20  1  0.51762600  0.74627000  0.73481800  1
  C  C21  1  0.01762600  0.25373000  0.76518200  1
  C  C22  1  0.48237400  0.25373000  0.26518200  1
  C  C23  1  0.98237400  0.74627000  0.23481800  1
  C  C24  1  0.72378000  0.36345300  0.95742300  1
  C  C25  1  0.22378000  0.63654700  0.54257700  1
  C  C26  1  0.27622000  0.63654700  0.04257700  1
  C  C27  1  0.77622000  0.36345300  0.45742300  1
