# generated using pymatgen
data_Cu2Ni3C32
_symmetry_space_group_name_H-M   'P 1'
_cell_length_a   8.80237373
_cell_length_b   8.79324147
_cell_length_c   22.83833674
_cell_angle_alpha   88.72605634
_cell_angle_beta   91.13399199
_cell_angle_gamma   119.98755676
_symmetry_Int_Tables_number   1
_chemical_formula_structural   Cu2Ni3C32
_chemical_formula_sum   'Cu6 Ni9 C96'
_cell_volume   1530.62631227
_cell_formula_units_Z   3
loop_
 _symmetry_equiv_pos_site_id
 _symmetry_equiv_pos_as_xyz
  1  'x, y, z'
loop_
 _atom_site_type_symbol
 _atom_site_label
 _atom_site_symmetry_multiplicity
 _atom_site_fract_x
 _atom_site_fract_y
 _atom_site_fract_z
 _atom_site_occupancy
  Ni  Ni0  1  0.36609133  0.36566093  0.25202560  1
  Ni  Ni1  1  0.68022427  0.00804612  0.92193947  1
  Ni  Ni2  1  0.97813141  0.30897706  0.41459118  1
  Ni  Ni3  1  0.00983041  0.99125060  0.48990606  1
  Ni  Ni4  1  0.00927602  0.98502944  0.00789813  1
  Ni  Ni5  1  0.65317869  0.33871530  0.83893362  1
  Ni  Ni6  1  0.66610938  0.33331701  0.33172914  1
  Ni  Ni7  1  0.33663669  0.70176291  0.17445765  1
  Ni  Ni8  1  0.33057828  0.66754237  0.66540075  1
  Cu  Cu9  1  0.00288980  0.99359347  0.85536166  1
  Cu  Cu10  1  0.99085176  0.01064344  0.64072394  1
  Cu  Cu11  1  0.67223903  0.32487741  0.68460793  1
  Cu  Cu12  1  0.33782852  0.67083560  0.03032785  1
  Cu  Cu13  1  0.32155797  0.66377927  0.50804265  1
  Cu  Cu14  1  0.34967689  0.67804298  0.82271878  1
  C  C15  1  0.01814805  0.00774190  0.34252813  1
  C  C16  1  0.00407885  0.01176494  0.15431321  1
  C  C17  1  0.66922177  0.30671285  0.18841300  1
  C  C18  1  0.66690977  0.32771146  0.99139771  1
  C  C19  1  0.66892212  0.35244333  0.47428742  1
  C  C20  1  0.30062304  0.65585027  0.31572724  1
  C  C21  1  0.28639901  0.99412187  0.24821069  1
  C  C22  1  -0.00005344  0.28889449  0.25089444  1
  C  C23  1  0.69138075  0.99314429  0.75364119  1
  C  C24  1  0.94997804  0.33198061  0.57044824  1
  C  C25  1  0.69372629  0.05876912  0.09020687  1
  C  C26  1  0.63305870  0.64608734  0.92613361  1
  C  C27  1  0.34950581  0.98689394  0.92604907  1
  C  C28  1  0.33317840  0.36549607  0.40760287  1
  C  C29  1  0.02431218  0.67300353  0.40890054  1
  C  C30  1  0.71521392  0.71850715  0.24773004  1
  C  C31  1  0.30149568  0.30801547  0.74889234  1
  C  C32  1  0.00552178  0.70005039  0.74871473  1
  C  C33  1  0.37946643  0.04964491  0.57295258  1
  C  C34  1  0.66902801  0.62380143  0.57444330  1
  C  C35  1  0.93207545  0.61463703  0.09251864  1
  C  C36  1  0.37937901  0.30997680  0.09232463  1
  C  C37  1  0.02095661  0.36959990  0.92336442  1
  C  C38  1  0.63343201  0.96441843  0.40840528  1
  C  C39  1  0.20980287  0.04453352  0.29977442  1
  C  C40  1  0.82641497  0.80706217  0.29938897  1
  C  C41  1  0.97072249  0.17389335  0.30642887  1
  C  C42  1  0.21318807  0.20652777  0.80186499  1
  C  C43  1  0.00990322  0.79432742  0.80191043  1
  C  C44  1  0.77540522  0.98689502  0.81293388  1
  C  C45  1  0.80207512  0.00030765  0.70089566  1
  C  C46  1  0.20996296  0.21451649  0.69486327  1
  C  C47  1  0.01088102  0.79747175  0.69478918  1
  C  C48  1  0.79841278  0.82442523  0.19392591  1
  C  C49  1  0.04425116  0.20671514  0.19904251  1
  C  C50  1  0.16634018  0.96143699  0.19389395  1
  C  C51  1  0.86283794  0.33185356  0.62792883  1
  C  C52  1  0.45943857  0.12721928  0.62991944  1
  C  C53  1  0.65912335  0.53503034  0.63049401  1
  C  C54  1  0.84223682  0.51165689  0.14574412  1
  C  C55  1  0.66623868  0.14914907  0.14204312  1
  C  C56  1  0.48607598  0.33336849  0.14639960  1
  C  C57  1  0.46555431  0.29478125  0.03945786  1
  C  C58  1  0.83260873  0.52636945  0.03832604  1
  C  C59  1  0.70984799  0.16286424  0.03224722  1
  C  C60  1  0.48304129  0.15894149  0.52246690  1
  C  C61  1  0.66464368  0.52032481  0.52334238  1
  C  C62  1  0.84558273  0.33725054  0.51524523  1
  C  C63  1  0.53527832  0.68537395  0.97303786  1
  C  C64  1  0.13462779  0.45275513  0.97387207  1
  C  C65  1  0.31167562  0.85876637  0.97720639  1
  C  C66  1  0.57098098  0.86923283  0.46464119  1
  C  C67  1  0.27934448  0.43310478  0.46064391  1
  C  C68  1  0.13157980  0.72112662  0.46595908  1
  C  C69  1  0.11979236  0.62266671  0.36215893  1
  C  C70  1  0.50927620  0.86740298  0.35980197  1
  C  C71  1  0.36338811  0.49172614  0.35382335  1
  C  C72  1  0.09669755  0.46525339  0.86764079  1
  C  C73  1  0.38090530  0.91025425  0.86946947  1
  C  C74  1  0.53388978  0.61383111  0.86674323  1
  C  C75  1  0.00171942  0.82945599  0.39169490  1
  C  C76  1  0.81226736  0.98986717  0.39971253  1
  C  C77  1  0.17073983  0.17999658  0.39731711  1
  C  C78  1  0.98908630  0.18705898  0.91981898  1
  C  C79  1  0.19970695  0.02650096  0.92109587  1
  C  C80  1  0.81575634  0.81503191  0.92231127  1
  C  C81  1  0.96194316  0.16241505  0.56748882  1
  C  C82  1  0.20201823  0.03069806  0.57051050  1
  C  C83  1  0.83666300  0.79360925  0.57212592  1
  C  C84  1  0.95036111  0.79135626  0.09374647  1
  C  C85  1  0.86288916  0.04529541  0.09814527  1
  C  C86  1  0.20366400  0.14816624  0.09639279  1
  C  C87  1  0.67173852  0.15747921  0.75540161  1
  C  C88  1  0.48180722  0.33608818  0.74995893  1
  C  C89  1  0.84082345  0.52878850  0.75151371  1
  C  C90  1  0.69018602  0.53647980  0.24502950  1
  C  C91  1  0.83667770  0.31029816  0.24162011  1
  C  C92  1  0.47574780  0.15936779  0.23983834  1
  C  C93  1  0.65310232  0.48697375  0.94098476  1
  C  C94  1  0.84798984  0.35780448  0.93017846  1
  C  C95  1  0.52491381  0.15895719  0.93646194  1
  C  C96  1  0.65277307  0.14391739  0.41274722  1
  C  C97  1  0.49933968  0.35126205  0.42042389  1
  C  C98  1  0.84218707  0.50179778  0.41766620  1
  C  C99  1  0.35466510  0.46411465  0.08866644  1
  C  C100  1  0.10926863  0.63144132  0.09105056  1
  C  C101  1  0.53080544  0.87248954  0.08828817  1
  C  C102  1  0.36655160  0.87590954  0.57268162  1
  C  C103  1  0.51919993  0.65426793  0.57215273  1
  C  C104  1  0.13558874  0.49370647  0.57336437  1
  C  C105  1  0.30213691  0.82803126  0.26214512  1
  C  C106  1  0.53627423  0.69670372  0.25252638  1
  C  C107  1  0.16704988  0.47605984  0.25973874  1
  C  C108  1  0.30659651  0.47757214  0.74874203  1
  C  C109  1  0.15686903  0.67202173  0.74929715  1
  C  C110  1  0.50977355  0.82789211  0.74740597  1
