# generated using pymatgen
data_Cu8NiC32
_symmetry_space_group_name_H-M   'P 1'
_cell_length_a   5.62045635
_cell_length_b   11.13120904
_cell_length_c   11.23482123
_cell_angle_alpha   54.14862720
_cell_angle_beta   54.12362705
_cell_angle_gamma   54.19999619
_symmetry_Int_Tables_number   1
_chemical_formula_structural   Cu8NiC32
_chemical_formula_sum   'Cu8 Ni1 C32'
_cell_volume   429.22293159
_cell_formula_units_Z   1
loop_
 _symmetry_equiv_pos_site_id
 _symmetry_equiv_pos_as_xyz
  1  'x, y, z'
loop_
 _atom_site_type_symbol
 _atom_site_label
 _atom_site_symmetry_multiplicity
 _atom_site_fract_x
 _atom_site_fract_y
 _atom_site_fract_z
 _atom_site_occupancy
  Ni  Ni0  1  0.30729200  0.16016300  0.66147300  1
  C  C1  1  0.35723500  0.17498100  0.16211500  1
  C  C2  1  0.01355200  0.00372200  0.51935500  1
  C  C3  1  0.12449700  0.58412200  0.06743000  1
  C  C4  1  0.14524500  0.57945900  0.56141300  1
  C  C5  1  0.87712300  0.40931700  0.42637000  1
  C  C6  1  0.84655900  0.43291400  0.92837600  1
  C  C7  1  0.82384400  0.91577800  0.41399300  1
  C  C8  1  0.83531300  0.93955200  0.91549300  1
  Cu  Cu9  1  0.14450100  0.06622100  0.07622300  1
  Cu  Cu10  1  0.33834500  0.67288300  0.17417600  1
  Cu  Cu11  1  0.50665600  0.24524000  0.73864000  1
  Cu  Cu12  1  0.64316900  0.33164000  0.31663400  1
  Cu  Cu13  1  0.34966200  0.66311400  0.67911300  1
  Cu  Cu14  1  0.65549600  0.33369900  0.83295200  1
  Cu  Cu15  1  0.65373000  0.81271000  0.31428300  1
  Cu  Cu16  1  0.63909100  0.82020500  0.83036200  1
  C  C17  1  0.06554200  0.37518200  0.21335100  1
  C  C18  1  0.42527500  0.02498500  0.36686000  1
  C  C19  1  0.72250600  0.22198400  0.04193700  1
  C  C20  1  0.23427500  0.29519300  0.45821700  1
  C  C21  1  0.55899000  0.47738800  0.11074800  1
  C  C22  1  0.05782300  0.38076500  0.72253500  1
  C  C23  1  0.04563000  0.86750700  0.22860900  1
  C  C24  1  0.95370100  0.10857400  0.29386400  1
  C  C25  1  0.45122900  0.02692900  0.86896700  1
  C  C26  1  0.42650500  0.52832200  0.38366100  1
  C  C27  1  0.76609900  0.21192600  0.51398200  1
  C  C28  1  0.75738900  0.71461200  0.02770600  1
  C  C29  1  0.21500000  0.28676500  0.98411000  1
  C  C30  1  0.22083700  0.78482800  0.47428900  1
  C  C31  1  0.56895500  0.46281500  0.61437200  1
  C  C32  1  0.56244000  0.97646300  0.11089600  1
  C  C33  1  0.05824000  0.87675500  0.71426500  1
  C  C34  1  0.90675200  0.12450800  0.79652100  1
  C  C35  1  0.94306600  0.60712200  0.27548700  1
  C  C36  1  0.43798400  0.52954500  0.88432800  1
  C  C37  1  0.75265200  0.70933500  0.53051200  1
  C  C38  1  0.21066100  0.78213300  0.96873400  1
  C  C39  1  0.62901500  0.96337200  0.60473600  1
  C  C40  1  0.94672300  0.61252000  0.78220900  1
