# generated using pymatgen
data_Cu2Ni8C5
_symmetry_space_group_name_H-M   'P 1'
_cell_length_a   5.36935880
_cell_length_b   5.24661076
_cell_length_c   7.35872565
_cell_angle_alpha   108.75208694
_cell_angle_beta   110.22826531
_cell_angle_gamma   90.53069018
_symmetry_Int_Tables_number   1
_chemical_formula_structural   Cu2Ni8C5
_chemical_formula_sum   'Cu2 Ni8 C5'
_cell_volume   182.49174347
_cell_formula_units_Z   1
loop_
 _symmetry_equiv_pos_site_id
 _symmetry_equiv_pos_as_xyz
  1  'x, y, z'
loop_
 _atom_site_type_symbol
 _atom_site_label
 _atom_site_symmetry_multiplicity
 _atom_site_fract_x
 _atom_site_fract_y
 _atom_site_fract_z
 _atom_site_occupancy
  C  C0  1  0.00000000  0.50000000  0.50000000  1
  C  C1  1  0.00000000  0.00000000  0.00000000  1
  C  C2  1  0.50000000  0.50000000  0.50000000  1
  C  C3  1  0.37620265  0.10981505  0.74940418  1
  C  C4  1  0.62379735  0.89018495  0.25059582  1
  Ni  Ni5  1  0.19649988  0.14904827  0.88387648  1
  Ni  Ni6  1  0.29105023  0.81715312  0.59130486  1
  Ni  Ni7  1  0.31221125  0.32046910  0.64052074  1
  Ni  Ni8  1  0.32389649  0.83806276  0.11723870  1
  Ni  Ni9  1  0.67610351  0.16193724  0.88276130  1
  Ni  Ni10  1  0.68778875  0.67953090  0.35947926  1
  Ni  Ni11  1  0.70894977  0.18284688  0.40869514  1
  Ni  Ni12  1  0.80350012  0.85095173  0.11612452  1
  Cu  Cu13  1  0.11467521  0.33185859  0.24988625  1
  Cu  Cu14  1  0.88532479  0.66814141  0.75011375  1
