# generated using pymatgen
data_Cu2Ni2C15
_symmetry_space_group_name_H-M   'P 1'
_cell_length_a   5.73019657
_cell_length_b   5.87393584
_cell_length_c   8.72770058
_cell_angle_alpha   85.00341567
_cell_angle_beta   90.00000000
_cell_angle_gamma   90.00000000
_symmetry_Int_Tables_number   1
_chemical_formula_structural   Cu2Ni2C15
_chemical_formula_sum   'Cu2 Ni2 C15'
_cell_volume   292.64765468
_cell_formula_units_Z   1
loop_
 _symmetry_equiv_pos_site_id
 _symmetry_equiv_pos_as_xyz
  1  'x, y, z'
loop_
 _atom_site_type_symbol
 _atom_site_label
 _atom_site_symmetry_multiplicity
 _atom_site_fract_x
 _atom_site_fract_y
 _atom_site_fract_z
 _atom_site_occupancy
  Ni  Ni0  1  0.25000000  0.81877898  0.09625830  1
  Ni  Ni1  1  0.75000000  0.24569612  0.00442634  1
  Cu  Cu2  1  0.75000000  0.76517127  0.24687508  1
  Cu  Cu3  1  0.25000000  0.11856142  0.74448079  1
  C  C4  1  0.75000000  0.24526213  0.50636533  1
  C  C5  1  0.25000000  0.75646396  0.48591033  1
  C  C6  1  0.25000000  0.53987607  0.82954216  1
  C  C7  1  0.25000000  0.28753714  0.25871601  1
  C  C8  1  0.75000000  0.72464846  0.74830607  1
  C  C9  1  0.75000000  0.76059317  0.96023442  1
  C  C10  1  0.52741067  0.94302262  0.62222826  1
  C  C11  1  0.01995983  0.49820540  0.34300428  1
  C  C12  1  0.51628529  0.46271524  0.69143041  1
  C  C13  1  0.98371471  0.46271524  0.69143041  1
  C  C14  1  0.97258933  0.94302262  0.62222826  1
  C  C15  1  0.01997062  0.04518955  0.30991821  1
  C  C16  1  0.48004017  0.49820540  0.34300428  1
  C  C17  1  0.25000000  0.33914567  0.03728487  1
  C  C18  1  0.48002938  0.04518955  0.30991821  1
