# generated using pymatgen
data_CuNi3C32
_symmetry_space_group_name_H-M   'P 1'
_cell_length_a   8.63937182
_cell_length_b   8.63937155
_cell_length_c   22.53827721
_cell_angle_alpha   90.00000000
_cell_angle_beta   90.00000000
_cell_angle_gamma   120.00000102
_symmetry_Int_Tables_number   1
_chemical_formula_structural   CuNi3C32
_chemical_formula_sum   'Cu3 Ni9 C96'
_cell_volume   1456.85275972
_cell_formula_units_Z   3
loop_
 _symmetry_equiv_pos_site_id
 _symmetry_equiv_pos_as_xyz
  1  'x, y, z'
loop_
 _atom_site_type_symbol
 _atom_site_label
 _atom_site_symmetry_multiplicity
 _atom_site_fract_x
 _atom_site_fract_y
 _atom_site_fract_z
 _atom_site_occupancy
  C  C0  1  0.00000000  0.00000000  0.50391847  1
  C  C1  1  0.00000000  0.00000000  0.00206616  1
  C  C2  1  0.66666700  0.33333300  0.83155996  1
  C  C3  1  0.66666700  0.33333300  0.33480068  1
  C  C4  1  0.33333300  0.66666700  0.17148743  1
  C  C5  1  0.33333300  0.66666700  0.66159303  1
  Ni  Ni6  1  0.00000000  0.00000000  0.64305604  1
  Ni  Ni7  1  0.00000000  0.00000000  0.15043172  1
  Ni  Ni8  1  0.66666700  0.33333300  0.68000220  1
  Ni  Ni9  1  0.66666700  0.33333300  0.18801477  1
  Ni  Ni10  1  0.66666700  0.33333300  0.98214739  1
  Ni  Ni11  1  0.66666700  0.33333300  0.48430441  1
  Ni  Ni12  1  0.33333300  0.66666700  0.52009475  1
  Ni  Ni13  1  0.33333300  0.66666700  0.31603440  1
  Ni  Ni14  1  0.33333300  0.66666700  0.81357132  1
  Cu  Cu15  1  0.00000000  0.00000000  0.35519095  1
  Cu  Cu16  1  0.00000000  0.00000000  0.84688685  1
  Cu  Cu17  1  0.33333300  0.66666700  0.02174618  1
  C  C18  1  0.28972685  0.99861443  0.24953093  1
  C  C19  1  0.70888758  0.71027315  0.24953093  1
  C  C20  1  0.00138557  0.29111242  0.24953093  1
  C  C21  1  0.29211730  0.29260298  0.74855004  1
  C  C22  1  0.00048568  0.70788270  0.74855004  1
  C  C23  1  0.70739702  -0.00048568  0.74855004  1
  C  C24  1  0.95922675  0.33429178  0.58332813  1
  C  C25  1  0.37506603  0.04077325  0.58332813  1
  C  C26  1  0.66570822  0.62493397  0.58332813  1
  C  C27  1  0.95515227  0.62497318  0.08260182  1
  C  C28  1  0.66982191  0.04484773  0.08260182  1
  C  C29  1  0.37502682  0.33017809  0.08260182  1
  C  C30  1  0.62337941  0.66563272  0.91583324  1
  C  C31  1  0.04225231  0.37662059  0.91583324  1
  C  C32  1  0.33436728  0.95774769  0.91583324  1
  C  C33  1  0.62207749  0.95852120  0.41580732  1
  C  C34  1  0.33644271  0.37792251  0.41580732  1
  C  C35  1  0.04147880  0.66355729  0.41580732  1
  C  C36  1  0.20099608  0.02555923  0.30377384  1
  C  C37  1  0.82456315  0.79900392  0.30377384  1
  C  C38  1  0.97444077  0.17543685  0.30377384  1
  C  C39  1  0.19888424  0.17360502  0.80496113  1
  C  C40  1  0.97472078  0.80111576  0.80496113  1
  C  C41  1  0.82639498  0.02527922  0.80496113  1
  C  C42  1  0.79330917  0.97164054  0.69765590  1
  C  C43  1  0.17833137  0.20669083  0.69765590  1
  C  C44  1  0.02835946  0.82166863  0.69765590  1
  C  C45  1  0.78966171  0.81832428  0.19624375  1
  C  C46  1  0.02866257  0.21033829  0.19624375  1
  C  C47  1  0.18167572  0.97133743  0.19624375  1
  C  C48  1  0.87987160  0.36246107  0.63788873  1
  C  C49  1  0.48259047  0.12012840  0.63788873  1
  C  C50  1  0.63753893  0.51740953  0.63788873  1
  C  C51  1  0.88374784  0.51479982  0.13584857  1
  C  C52  1  0.63105298  0.11625216  0.13584857  1
  C  C53  1  0.48520018  0.36894702  0.13584857  1
  C  C54  1  0.45552078  0.30635312  0.02869221  1
  C  C55  1  0.85083334  0.54447922  0.02869221  1
  C  C56  1  0.69364688  0.14916666  0.02869221  1
  C  C57  1  0.45551773  0.15023545  0.52995303  1
  C  C58  1  0.69471872  0.54448227  0.52995303  1
  C  C59  1  0.84976455  0.30528128  0.52995303  1
  C  C60  1  0.53870346  0.69640260  0.97065876  1
  C  C61  1  0.15769814  0.46129654  0.97065876  1
  C  C62  1  0.30359740  0.84230186  0.97065876  1
  C  C63  1  0.55093630  0.84840693  0.46905218  1
  C  C64  1  0.29746963  0.44906370  0.46905218  1
  C  C65  1  0.15159307  0.70253037  0.46905218  1
  C  C66  1  0.12177486  0.63953307  0.36204174  1
  C  C67  1  0.51775720  0.87822514  0.36204174  1
  C  C68  1  0.36046693  0.48224280  0.36204174  1
  C  C69  1  0.12478184  0.48523021  0.86344252  1
  C  C70  1  0.36044737  0.87521816  0.86344252  1
  C  C71  1  0.51476979  0.63955263  0.86344252  1
  C  C72  1  0.02231562  0.83185194  0.40667782  1
  C  C73  1  0.80953632  0.97768438  0.40667782  1
  C  C74  1  0.16814806  0.19046368  0.40667782  1
  C  C75  1  0.02729418  0.19541050  0.91066816  1
  C  C76  1  0.16811632  0.97270582  0.91066816  1
  C  C77  1  0.80458950  0.83188368  0.91066816  1
  C  C78  1  0.97739191  0.17266397  0.58997147  1
  C  C79  1  0.19527207  0.02260809  0.58997147  1
  C  C80  1  0.82733603  0.80472793  0.58997147  1
  C  C81  1  0.98347242  0.80673779  0.08889951  1
  C  C82  1  0.82326537  0.01652758  0.08889951  1
  C  C83  1  0.19326221  0.17673463  0.08889951  1
  C  C84  1  0.69575317  0.16336128  0.74717191  1
  C  C85  1  0.46760911  0.30424683  0.74717191  1
  C  C86  1  0.83663872  0.53239089  0.74717191  1
  C  C87  1  0.69520826  0.53286818  0.24507478  1
  C  C88  1  0.83766092  0.30479174  0.24507478  1
  C  C89  1  0.46713182  0.16233908  0.24507478  1
  C  C90  1  0.64509384  0.50929618  0.92424777  1
  C  C91  1  0.86420335  0.35490616  0.92424777  1
  C  C92  1  0.49070382  0.13579665  0.92424777  1
  C  C93  1  0.65046927  0.14042568  0.42224713  1
  C  C94  1  0.48995741  0.34953073  0.42224713  1
  C  C95  1  0.85957432  0.51004259  0.42224713  1
  C  C96  1  0.35588734  0.49869615  0.07342641  1
  C  C97  1  0.14280782  0.64411266  0.07342641  1
  C  C98  1  0.50130385  0.85719218  0.07342641  1
  C  C99  1  0.35611492  0.86080832  0.57720631  1
  C  C100  1  0.50469240  0.64388508  0.57720631  1
  C  C101  1  0.13919168  0.49530760  0.57720631  1
  C  C102  1  0.30811045  0.83908859  0.25726276  1
  C  C103  1  0.53097714  0.69188955  0.25726276  1
  C  C104  1  0.16091141  0.46902286  0.25726276  1
  C  C105  1  0.30707101  0.46737186  0.75897991  1
  C  C106  1  0.16029985  0.69292899  0.75897991  1
  C  C107  1  0.53262814  0.83970015  0.75897991  1
