# generated using pymatgen
data_Cu2Ni10C7
_symmetry_space_group_name_H-M   'P 1'
_cell_length_a   11.10648727
_cell_length_b   6.84246724
_cell_length_c   2.95189605
_cell_angle_alpha   89.98662439
_cell_angle_beta   90.01141049
_cell_angle_gamma   106.66276639
_symmetry_Int_Tables_number   1
_chemical_formula_structural   Cu2Ni10C7
_chemical_formula_sum   'Cu2 Ni10 C7'
_cell_volume   214.91171879
_cell_formula_units_Z   1
loop_
 _symmetry_equiv_pos_site_id
 _symmetry_equiv_pos_as_xyz
  1  'x, y, z'
loop_
 _atom_site_type_symbol
 _atom_site_label
 _atom_site_symmetry_multiplicity
 _atom_site_fract_x
 _atom_site_fract_y
 _atom_site_fract_z
 _atom_site_occupancy
  C  C0  1  0.82831300  0.66362800  0.51180000  1
  C  C1  1  0.04429900  0.03110200  0.01052200  1
  C  C2  1  0.34268300  0.15510600  0.51038500  1
  C  C3  1  0.02497500  0.49706400  0.51068300  1
  C  C4  1  0.64032900  0.30315000  0.01125000  1
  C  C5  1  0.32817600  0.68097800  0.01065700  1
  C  C6  1  0.62797700  0.83152600  0.51170800  1
  Ni  Ni7  1  0.15730200  0.05877000  0.51025200  1
  Ni  Ni8  1  0.02919200  0.32133600  0.01065300  1
  Ni  Ni9  1  0.96898700  0.66291500  0.01133300  1
  Ni  Ni10  1  0.63236300  0.01245200  0.01161400  1
  Ni  Ni11  1  0.52324500  0.28542900  0.51102400  1
  Ni  Ni12  1  0.21096800  0.62737800  0.51056600  1
  Ni  Ni13  1  0.44453400  0.70771500  0.51076700  1
  Ni  Ni14  1  0.75868500  0.36385400  0.51142600  1
  Ni  Ni15  1  0.69141100  0.67776100  0.01138200  1
  Ni  Ni16  1  0.34775600  0.97915200  0.01040700  1
  Cu  Cu17  1  0.32639700  0.35387300  0.01052500  1
  Cu  Cu18  1  0.90365900  0.96389800  0.51137900  1
