# generated using pymatgen
data_Cu6NiC27
_symmetry_space_group_name_H-M   'P 1'
_cell_length_a   8.69903168
_cell_length_b   8.69903140
_cell_length_c   22.41662176
_cell_angle_alpha   90.00000000
_cell_angle_beta   90.00000000
_cell_angle_gamma   120.00000106
_symmetry_Int_Tables_number   1
_chemical_formula_structural   Cu6NiC27
_chemical_formula_sum   'Cu18 Ni3 C81'
_cell_volume   1469.07037835
_cell_formula_units_Z   3
loop_
 _symmetry_equiv_pos_site_id
 _symmetry_equiv_pos_as_xyz
  1  'x, y, z'
loop_
 _atom_site_type_symbol
 _atom_site_label
 _atom_site_symmetry_multiplicity
 _atom_site_fract_x
 _atom_site_fract_y
 _atom_site_fract_z
 _atom_site_occupancy
  C  C0  1  0.00000000  0.00000000  0.85449626  1
  C  C1  1  0.00000000  0.00000000  0.63961824  1
  C  C2  1  0.00000000  0.00000000  0.14712371  1
  C  C3  1  0.66666700  0.33333300  0.97761235  1
  C  C4  1  0.66666700  0.33333300  0.47289708  1
  C  C5  1  0.33333300  0.66666700  0.02847788  1
  C  C6  1  0.33333300  0.66666700  0.52206436  1
  C  C7  1  0.33333300  0.66666700  0.30606215  1
  C  C8  1  0.33333300  0.66666700  0.80548031  1
  Ni  Ni9  1  0.00000000  0.00000000  0.35359822  1
  Ni  Ni10  1  0.66666700  0.33333300  0.68837017  1
  Ni  Ni11  1  0.66666700  0.33333300  0.19311107  1
  Cu  Cu12  1  0.29218101  0.01477418  0.25269154  1
  Cu  Cu13  1  0.72259317  0.70781899  0.25269154  1
  Cu  Cu14  1  0.98522582  0.27740683  0.25269154  1
  Cu  Cu15  1  0.29676809  0.28295937  0.74741807  1
  Cu  Cu16  1  0.98619128  0.70323191  0.74741807  1
  Cu  Cu17  1  0.71704063  0.01380872  0.74741807  1
  Cu  Cu18  1  0.94457228  0.33804753  0.58579913  1
  Cu  Cu19  1  0.39347625  0.05542772  0.58579913  1
  Cu  Cu20  1  0.66195247  0.60652375  0.58579913  1
  Cu  Cu21  1  0.94287256  0.61249873  0.08743814  1
  Cu  Cu22  1  0.66962716  0.05712744  0.08743814  1
  Cu  Cu23  1  0.38750127  0.33037284  0.08743814  1
  Cu  Cu24  1  0.61612702  0.66713177  0.91661338  1
  Cu  Cu25  1  0.05100375  0.38387298  0.91661338  1
  Cu  Cu26  1  0.33286823  0.94899625  0.91661338  1
  Cu  Cu27  1  0.62947387  0.94922930  0.41406221  1
  Cu  Cu28  1  0.31975443  0.37052613  0.41406221  1
  Cu  Cu29  1  0.05077070  0.68024557  0.41406221  1
  C  C30  1  0.19857235  0.03563039  0.30597107  1
  C  C31  1  0.83705805  0.80142765  0.30597107  1
  C  C32  1  0.96436961  0.16294195  0.30597107  1
  C  C33  1  0.20295720  0.16909711  0.80429765  1
  C  C34  1  0.96613991  0.79704280  0.80429765  1
  C  C35  1  0.83090289  0.03386009  0.80429765  1
  C  C36  1  0.80035495  0.96974955  0.69446366  1
  C  C37  1  0.16939460  0.19964505  0.69446366  1
  C  C38  1  0.03025045  0.83060540  0.69446366  1
  C  C39  1  0.80182006  0.83042604  0.19538802  1
  C  C40  1  0.02860597  0.19817994  0.19538802  1
  C  C41  1  0.16957396  0.97139403  0.19538802  1
  C  C42  1  0.86165557  0.36478728  0.64077945  1
  C  C43  1  0.50313271  0.13834443  0.64077945  1
  C  C44  1  0.63521272  0.49686729  0.64077945  1
  C  C45  1  0.85996145  0.49499854  0.14022819  1
  C  C46  1  0.63503809  0.14003855  0.14022819  1
  C  C47  1  0.50500146  0.36496191  0.14022819  1
  C  C48  1  0.46960344  0.30535375  0.02845021  1
  C  C49  1  0.83575131  0.53039656  0.02845021  1
  C  C50  1  0.69464625  0.16424869  0.02845021  1
  C  C51  1  0.46872876  0.16621502  0.52871357  1
  C  C52  1  0.69748726  0.53127124  0.52871357  1
  C  C53  1  0.83378498  0.30251274  0.52871357  1
  C  C54  1  0.53274825  0.69771000  0.97223821  1
  C  C55  1  0.16496075  0.46725175  0.97223821  1
  C  C56  1  0.30229000  0.83503925  0.97223821  1
  C  C57  1  0.53606453  0.83524430  0.47122021  1
  C  C58  1  0.29917877  0.46393547  0.47122021  1
  C  C59  1  0.16475570  0.70082123  0.47122021  1
  C  C60  1  0.13410617  0.63620614  0.36104725  1
  C  C61  1  0.50209897  0.86589383  0.36104725  1
  C  C62  1  0.36379386  0.49790103  0.36104725  1
  C  C63  1  0.13492901  0.49820057  0.86093822  1
  C  C64  1  0.36327056  0.86507099  0.86093822  1
  C  C65  1  0.50179943  0.63672944  0.86093822  1
  C  C66  1  0.02738044  0.83774642  0.40477441  1
  C  C67  1  0.81036599  0.97261956  0.40477441  1
  C  C68  1  0.16225358  0.18963401  0.40477441  1
  C  C69  1  0.02860423  0.19790361  0.90682910  1
  C  C70  1  0.16929939  0.97139577  0.90682910  1
  C  C71  1  0.80209639  0.83070061  0.90682910  1
  C  C72  1  0.96992735  0.17244190  0.59389679  1
  C  C73  1  0.20251455  0.03007265  0.59389679  1
  C  C74  1  0.82755810  0.79748545  0.59389679  1
  C  C75  1  0.97126359  0.80070449  0.09214768  1
  C  C76  1  0.82944089  0.02873641  0.09214768  1
  C  C77  1  0.19929551  0.17055911  0.09214768  1
  C  C78  1  0.69361968  0.17109354  0.73876551  1
  C  C79  1  0.47747486  0.30638032  0.73876551  1
  C  C80  1  0.82890646  0.52252514  0.73876551  1
  C  C81  1  0.69650213  0.52637736  0.23877338  1
  C  C82  1  0.82987622  0.30349787  0.23877338  1
  C  C83  1  0.47362264  0.17012378  0.23877338  1
  C  C84  1  0.63900421  0.50409039  0.92540973  1
  C  C85  1  0.86508718  0.36099579  0.92540973  1
  C  C86  1  0.49590961  0.13491282  0.92540973  1
  C  C87  1  0.64212064  0.13318749  0.42652053  1
  C  C88  1  0.49106785  0.35787936  0.42652053  1
  C  C89  1  0.86681251  0.50893215  0.42652053  1
  C  C90  1  0.36524823  0.49669298  0.07466885  1
  C  C91  1  0.13144375  0.63475177  0.07466885  1
  C  C92  1  0.50330702  0.86855625  0.07466885  1
  C  C93  1  0.36402084  0.86629757  0.57488157  1
  C  C94  1  0.50227573  0.63597916  0.57488157  1
  C  C95  1  0.13370243  0.49772427  0.57488157  1
  C  C96  1  0.30711248  0.84211742  0.25986878  1
  C  C97  1  0.53500394  0.69288752  0.25986878  1
  C  C98  1  0.15788258  0.46499606  0.25986878  1
  C  C99  1  0.30888979  0.46691837  0.75940158  1
  C  C100  1  0.15802758  0.69111021  0.75940158  1
  C  C101  1  0.53308163  0.84197242  0.75940158  1
