# generated using pymatgen
data_Cu4Ni2C9
_symmetry_space_group_name_H-M   'P 1'
_cell_length_a   7.79408700
_cell_length_b   6.08954100
_cell_length_c   8.93868571
_cell_angle_alpha   70.07227878
_cell_angle_beta   90.00000000
_cell_angle_gamma   90.00000000
_symmetry_Int_Tables_number   1
_chemical_formula_structural   Cu4Ni2C9
_chemical_formula_sum   'Cu8 Ni4 C18'
_cell_volume   398.84881587
_cell_formula_units_Z   2
loop_
 _symmetry_equiv_pos_site_id
 _symmetry_equiv_pos_as_xyz
  1  'x, y, z'
loop_
 _atom_site_type_symbol
 _atom_site_label
 _atom_site_symmetry_multiplicity
 _atom_site_fract_x
 _atom_site_fract_y
 _atom_site_fract_z
 _atom_site_occupancy
  C  C0  1  0.50000000  0.00000000  0.50000000  1
  C  C1  1  0.00000000  0.00000000  0.00000000  1
  C  C2  1  0.43990400  0.10968400  0.80538800  1
  C  C3  1  0.93990400  0.89031600  0.69461200  1
  C  C4  1  0.56009600  0.89031600  0.19461200  1
  C  C5  1  0.06009600  0.10968400  0.30538800  1
  C  C6  1  0.57158100  0.90377600  0.85210800  1
  C  C7  1  0.07158100  0.09622400  0.64789200  1
  C  C8  1  0.42841900  0.09622400  0.14789200  1
  C  C9  1  0.92841900  0.90377600  0.35210800  1
  C  C10  1  0.27162300  0.58109000  0.53046500  1
  C  C11  1  0.77162300  0.41891000  0.96953500  1
  C  C12  1  0.72837700  0.41891000  0.46953500  1
  C  C13  1  0.22837700  0.58109000  0.03046500  1
  C  C14  1  0.79841000  0.41767500  0.79701100  1
  C  C15  1  0.29841000  0.58232500  0.70298900  1
  C  C16  1  0.70159000  0.41767500  0.29701100  1
  C  C17  1  0.20159000  0.58232500  0.20298900  1
  Ni  Ni18  1  0.78396400  0.70165500  0.56602900  1
  Ni  Ni19  1  0.28396400  0.29834500  0.93397100  1
  Ni  Ni20  1  0.21603600  0.29834500  0.43397100  1
  Ni  Ni21  1  0.71603600  0.70165500  0.06602900  1
  Cu  Cu22  1  0.50481400  0.00677100  0.76134000  1
  Cu  Cu23  1  0.00481400  0.99322900  0.73866000  1
  Cu  Cu24  1  0.49518600  0.99322900  0.23866000  1
  Cu  Cu25  1  0.99518600  0.00677100  0.26134000  1
  Cu  Cu26  1  0.30875300  0.68199300  0.59028400  1
  Cu  Cu27  1  0.80875300  0.31800700  0.90971600  1
  Cu  Cu28  1  0.69124700  0.31800700  0.40971600  1
  Cu  Cu29  1  0.19124700  0.68199300  0.09028400  1
