# generated using pymatgen
data_Cu4Ni8C7
_symmetry_space_group_name_H-M   'P 1'
_cell_length_a   5.30642542
_cell_length_b   5.30643959
_cell_length_c   8.99770602
_cell_angle_alpha   91.69974133
_cell_angle_beta   88.30015593
_cell_angle_gamma   104.32988095
_symmetry_Int_Tables_number   1
_chemical_formula_structural   Cu4Ni8C7
_chemical_formula_sum   'Cu4 Ni8 C7'
_cell_volume   245.30341517
_cell_formula_units_Z   1
loop_
 _symmetry_equiv_pos_site_id
 _symmetry_equiv_pos_as_xyz
  1  'x, y, z'
loop_
 _atom_site_type_symbol
 _atom_site_label
 _atom_site_symmetry_multiplicity
 _atom_site_fract_x
 _atom_site_fract_y
 _atom_site_fract_z
 _atom_site_occupancy
  C  C0  1  0.69553104  0.30446589  0.01599859  1
  C  C1  1  0.02952507  0.97047380  0.00922348  1
  C  C2  1  0.99332052  0.00668120  0.33222023  1
  C  C3  1  0.98743080  0.01256991  0.64466306  1
  C  C4  1  0.44855164  0.55144778  0.82311868  1
  C  C5  1  0.39944567  0.60055325  0.17132922  1
  C  C6  1  0.58252033  0.41748059  0.51238352  1
  Ni  Ni7  1  0.16556807  0.83442625  0.16902265  1
  Ni  Ni8  1  0.13356272  0.86643589  0.49212681  1
  Ni  Ni9  1  0.32055516  0.29962687  0.99195422  1
  Ni  Ni10  1  0.30417277  0.30186084  0.66613628  1
  Ni  Ni11  1  0.70037268  0.67944313  0.99195465  1
  Ni  Ni12  1  0.69813766  0.69582746  0.66613597  1
  Ni  Ni13  1  0.86266280  0.13733571  0.15476995  1
  Ni  Ni14  1  0.82720465  0.17279930  0.49810891  1
  Cu  Cu15  1  0.18874528  0.81125508  0.84309034  1
  Cu  Cu16  1  0.33394331  0.30728447  0.33244273  1
  Cu  Cu17  1  0.69270184  0.66607617  0.33244958  1
  Cu  Cu18  1  0.84901299  0.15099242  0.84572612  1
