# generated using pymatgen
data_Cu5Ni9C97
_symmetry_space_group_name_H-M   'P 1'
_cell_length_a   9.02338682
_cell_length_b   9.01375204
_cell_length_c   22.91751078
_cell_angle_alpha   90.01617348
_cell_angle_beta   90.00645576
_cell_angle_gamma   119.84012662
_symmetry_Int_Tables_number   1
_chemical_formula_structural   Cu5Ni9C97
_chemical_formula_sum   'Cu5 Ni9 C97'
_cell_volume   1616.85328997
_cell_formula_units_Z   1
loop_
 _symmetry_equiv_pos_site_id
 _symmetry_equiv_pos_as_xyz
  1  'x, y, z'
loop_
 _atom_site_type_symbol
 _atom_site_label
 _atom_site_symmetry_multiplicity
 _atom_site_fract_x
 _atom_site_fract_y
 _atom_site_fract_z
 _atom_site_occupancy
  Ni  Ni0  1  0.98283921  0.63689006  0.24491106  1
  Ni  Ni1  1  0.65136212  0.67908123  0.07807849  1
  Ni  Ni2  1  0.31897187  0.30570480  0.91178878  1
  Ni  Ni3  1  0.00031884  0.99909765  0.49817758  1
  Ni  Ni4  1  0.99571156  0.99365563  0.99013133  1
  Ni  Ni5  1  0.67978402  0.33544655  0.82044620  1
  Ni  Ni6  1  0.64915151  0.31721784  0.32522936  1
  Ni  Ni7  1  0.32906817  0.66744712  0.15534860  1
  Ni  Ni8  1  0.33387824  0.66629285  0.67289855  1
  Cu  Cu9  1  0.99882182  0.00213264  0.36144110  1
  Cu  Cu10  1  0.99186909  0.99050904  0.85124041  1
  Cu  Cu11  1  0.66524831  0.33322520  0.68004159  1
  Cu  Cu12  1  0.65906600  0.32161326  0.18655445  1
  Cu  Cu13  1  0.32539094  0.67174474  0.01872568  1
  C  C14  1  0.99973082  0.00009425  0.65215867  1
  C  C15  1  0.00569628  0.00892521  0.14739916  1
  C  C16  1  0.67090247  0.32944370  0.98066712  1
  C  C17  1  0.66778565  0.33438348  0.48111806  1
  C  C18  1  0.33252941  0.66683006  0.52041953  1
  C  C19  1  0.33906523  0.66629234  0.31153808  1
  C  C20  1  0.33295342  0.66979715  0.81466647  1
  C  C21  1  0.28592683  0.99136839  0.25402641  1
  C  C22  1  0.70864888  0.71697662  0.25127922  1
  C  C23  1  0.01040452  0.29665575  0.25346720  1
  C  C24  1  0.29352109  0.30302513  0.75367407  1
  C  C25  1  0.00964483  0.70478753  0.75092889  1
  C  C26  1  0.69644845  0.99067661  0.75147069  1
  C  C27  1  0.96312655  0.32849542  0.58193975  1
  C  C28  1  0.36521332  0.03791917  0.58165757  1
  C  C29  1  0.67175427  0.63580103  0.58184483  1
  C  C30  1  0.95670268  0.63400008  0.08798433  1
  C  C31  1  0.67921689  0.04225985  0.08470108  1
  C  C32  1  0.36927217  0.32429799  0.08297771  1
  C  C33  1  0.62389140  0.65643465  0.92105542  1
  C  C34  1  0.03580281  0.37874477  0.91718868  1
  C  C35  1  0.34573959  0.97060506  0.91738938  1
  C  C36  1  0.61059248  0.95826731  0.41887093  1
  C  C37  1  0.34768749  0.38851060  0.41904439  1
  C  C38  1  0.04133933  0.65239015  0.41779711  1
  C  C39  1  0.19974185  0.00451291  0.30725194  1
  C  C40  1  0.81748777  0.80041878  0.30353248  1
  C  C41  1  0.98587281  0.19412904  0.30677077  1
  C  C42  1  0.21874530  0.21106357  0.80977864  1
  C  C43  1  0.99159316  0.78464544  0.80481739  1
  C  C44  1  0.79660467  0.01205745  0.80496536  1
  C  C45  1  0.80200010  0.97096074  0.69514385  1
  C  C46  1  0.16484005  0.19235717  0.69879536  1
  C  C47  1  0.02702070  0.82906851  0.69485665  1
  C  C48  1  0.79557864  0.82951716  0.19400431  1
  C  C49  1  0.02971537  0.20139178  0.19681739  1
  C  C50  1  0.16772260  0.96840929  0.19760517  1
  C  C51  1  0.90773479  0.37917656  0.63582853  1
  C  C52  1  0.47004134  0.09175863  0.63578659  1
  C  C53  1  0.62132734  0.53046055  0.63585977  1
  C  C54  1  0.87999607  0.54476531  0.14446506  1
  C  C55  1  0.65385173  0.11639356  0.13871581  1
  C  C56  1  0.47912104  0.35408328  0.13531043  1
  C  C57  1  0.46013753  0.29890775  0.02641102  1
  C  C58  1  0.83185875  0.52825601  0.03406931  1
  C  C59  1  0.69509159  0.15862152  0.02904781  1
  C  C60  1  0.46857160  0.16372288  0.52869233  1
  C  C61  1  0.69503421  0.53250765  0.52872013  1
  C  C62  1  0.83730345  0.30448945  0.52869161  1
  C  C63  1  0.54643027  0.66864353  0.97745724  1
  C  C64  1  0.14281957  0.45476583  0.97025034  1
  C  C65  1  0.31960857  0.87124606  0.97156191  1
  C  C66  1  0.50576787  0.84908837  0.47126159  1
  C  C67  1  0.34367104  0.49330445  0.47154033  1
  C  C68  1  0.15265138  0.65618553  0.46977756  1
  C  C69  1  0.12720135  0.63318873  0.36058110  1
  C  C70  1  0.50198959  0.86689564  0.36242462  1
  C  C71  1  0.36552304  0.49784711  0.36268727  1
  C  C72  1  0.13246372  0.49984863  0.86181864  1
  C  C73  1  0.36216750  0.86987323  0.86187891  1
  C  C74  1  0.49775592  0.63509142  0.86718758  1
  C  C75  1  0.02313218  0.80904990  0.42102017  1
  C  C76  1  0.78401662  0.97374870  0.42103089  1
  C  C77  1  0.19082019  0.21484275  0.42079038  1
  C  C78  1  0.00746573  0.20050691  0.90894342  1
  C  C79  1  0.20820428  0.01903631  0.91023719  1
  C  C80  1  0.80418305  0.80021310  0.91402615  1
  C  C81  1  0.97632880  0.16365464  0.58683738  1
  C  C82  1  0.18804578  0.02630587  0.58627964  1
  C  C83  1  0.83667261  0.81283728  0.58640041  1
  C  C84  1  0.95424669  0.81064875  0.08833918  1
  C  C85  1  0.85629854  0.04264278  0.08833656  1
  C  C86  1  0.19119307  0.15246893  0.09072348  1
  C  C87  1  0.66222988  0.13490340  0.74030132  1
  C  C88  1  0.46930309  0.33202664  0.74176434  1
  C  C89  1  0.86513166  0.52667127  0.74054194  1
  C  C90  1  0.67716309  0.53643090  0.24497900  1
  C  C91  1  0.87422095  0.34672133  0.24573089  1
  C  C92  1  0.46813911  0.13209163  0.24814156  1
  C  C93  1  0.62232157  0.47758198  0.92229649  1
  C  C94  1  0.85871441  0.37472279  0.92366662  1
  C  C95  1  0.52334096  0.14683886  0.92196258  1
  C  C96  1  0.61912040  0.13618604  0.42428012  1
  C  C97  1  0.51710248  0.38011670  0.42424230  1
  C  C98  1  0.86324625  0.48334524  0.42511133  1
  C  C99  1  0.33919097  0.47390886  0.07624607  1
  C  C100  1  0.13725033  0.67033620  0.08115189  1
  C  C101  1  0.54130734  0.85681030  0.07745026  1
  C  C102  1  0.33103518  0.85270740  0.56616931  1
  C  C103  1  0.52033273  0.66907004  0.56643392  1
  C  C104  1  0.14745272  0.47962365  0.56646779  1
  C  C105  1  0.28479640  0.81104149  0.25618877  1
  C  C106  1  0.52731027  0.70783226  0.25804189  1
  C  C107  1  0.18772767  0.47550147  0.25728212  1
  C  C108  1  0.29325096  0.47874224  0.75511073  1
  C  C109  1  0.18712541  0.70748849  0.75376013  1
  C  C110  1  0.52245778  0.81335054  0.75507104  1
