# generated using pymatgen
data_Cu4NiC21
_symmetry_space_group_name_H-M   'P 1'
_cell_length_a   17.94492666
_cell_length_b   8.97966100
_cell_length_c   22.64446456
_cell_angle_alpha   89.98481798
_cell_angle_beta   89.98213270
_cell_angle_gamma   120.03617202
_symmetry_Int_Tables_number   1
_chemical_formula_structural   Cu4NiC21
_chemical_formula_sum   'Cu36 Ni9 C189'
_cell_volume   3158.89966487
_cell_formula_units_Z   9
loop_
 _symmetry_equiv_pos_site_id
 _symmetry_equiv_pos_as_xyz
  1  'x, y, z'
loop_
 _atom_site_type_symbol
 _atom_site_label
 _atom_site_symmetry_multiplicity
 _atom_site_fract_x
 _atom_site_fract_y
 _atom_site_fract_z
 _atom_site_occupancy
  C  C0  1  0.32123303  0.01252001  0.24844740  1
  C  C1  1  0.68629112  0.35791628  0.24823785  1
  C  C2  1  0.31796752  0.62463718  0.74800876  1
  C  C3  1  0.81785042  0.62431618  0.74796993  1
  C  C4  1  0.15464097  0.34929416  0.57892446  1
  C  C5  1  0.65446979  0.34838477  0.57814927  1
  C  C6  1  0.01933901  0.69046152  0.57922035  1
  C  C7  1  0.51954459  0.69119171  0.57919137  1
  C  C8  1  0.32571793  0.96033859  0.57909138  1
  C  C9  1  0.82561691  0.96178897  0.57905947  1
  C  C10  1  0.15449280  0.96061805  0.07901455  1
  C  C11  1  0.65509626  0.96178808  0.07948578  1
  C  C12  1  0.32557063  0.68957545  0.07950944  1
  C  C13  1  0.82586536  0.69072688  0.07903990  1
  C  C14  1  0.01903158  0.34853276  0.07924673  1
  C  C15  1  0.51914581  0.34801469  0.07978628  1
  C  C16  1  0.65949064  0.02716491  0.41130924  1
  C  C17  1  0.35345663  0.67969061  0.41053448  1
  C  C18  1  0.00016659  0.99916907  0.49383838  1
  C  C19  1  0.49950076  0.01365663  0.48863345  1
  C  C20  1  0.99998785  0.99970249  0.99526562  1
  C  C21  1  0.50000054  0.99964487  0.99551704  1
  C  C22  1  0.33371813  0.32099901  0.82817656  1
  C  C23  1  0.83363099  0.32109134  0.82816518  1
  C  C24  1  0.33513229  0.33845858  0.32375834  1
  C  C25  1  0.84299256  0.34057520  0.32438501  1
  C  C26  1  0.16236973  0.65480283  0.16420082  1
  C  C27  1  0.66572268  0.67731498  0.16410584  1
  C  C28  1  0.16171473  0.66747615  0.66497026  1
  C  C29  1  0.66179449  0.66766454  0.66499039  1
  C  C30  1  0.00015403  0.99959170  0.35175946  1
  C  C31  1  0.00070600  0.00214949  0.85362814  1
  C  C32  1  0.50072950  0.00233969  0.85356060  1
  C  C33  1  0.00127504  0.00293839  0.65034528  1
  C  C34  1  0.50140753  0.00206696  0.64972164  1
  C  C35  1  0.99989347  0.00000860  0.15026122  1
  C  C36  1  0.50006755  0.99733473  0.15108232  1
  C  C37  1  0.33314006  0.33410173  0.97851694  1
  C  C38  1  0.83341300  0.33434096  0.97860023  1
  C  C39  1  0.33261888  0.32462407  0.47915173  1
  C  C40  1  0.83595541  0.34024573  0.47879291  1
  C  C41  1  0.16408401  0.66125988  0.31390494  1
  C  C42  1  0.66506106  0.66809422  0.31495819  1
  C  C43  1  0.16418223  0.66759167  0.81598368  1
  C  C44  1  0.66406393  0.66731885  0.81602944  1
  Ni  Ni45  1  0.49929215  0.00688001  0.34778094  1
  Ni  Ni46  1  0.33373012  0.32447511  0.68534372  1
  Ni  Ni47  1  0.83372974  0.32414130  0.68513833  1
  Ni  Ni48  1  0.33439295  0.34549032  0.18416308  1
  Ni  Ni49  1  0.83726656  0.32936313  0.18463409  1
  Ni  Ni50  1  0.16652128  0.66682959  0.00967195  1
  Ni  Ni51  1  0.66651884  0.66691676  0.00963966  1
  Ni  Ni52  1  0.16478017  0.66609933  0.50932880  1
  Ni  Ni53  1  0.66718343  0.66378965  0.50921759  1
  Cu  Cu54  1  0.14862632  0.00144530  0.25011945  1
  Cu  Cu55  1  0.64896027  0.00243133  0.25227374  1
  Cu  Cu56  1  0.35233612  0.70142613  0.25311055  1
  Cu  Cu57  1  0.85209308  0.70274644  0.25034267  1
  Cu  Cu58  1  0.99816658  0.29272810  0.25022342  1
  Cu  Cu59  1  0.49885568  0.29459524  0.25052828  1
  Cu  Cu60  1  0.14867951  0.29649915  0.75044190  1
  Cu  Cu61  1  0.64858354  0.29625257  0.75031914  1
  Cu  Cu62  1  0.99964189  0.70527772  0.74989756  1
  Cu  Cu63  1  0.49964744  0.70529841  0.74990006  1
  Cu  Cu64  1  0.35265635  0.00157763  0.75032116  1
  Cu  Cu65  1  0.85249222  0.00154417  0.75043869  1
  Cu  Cu66  1  0.47992907  0.33535456  0.58554017  1
  Cu  Cu67  1  0.97976386  0.33533188  0.58505455  1
  Cu  Cu68  1  0.18719908  0.03991089  0.58537907  1
  Cu  Cu69  1  0.68767127  0.04088376  0.58378468  1
  Cu  Cu70  1  0.33295577  0.62584593  0.58515660  1
  Cu  Cu71  1  0.83293975  0.62701812  0.58682839  1
  Cu  Cu72  1  0.47966941  0.62445191  0.08440907  1
  Cu  Cu73  1  0.97926529  0.62451330  0.08488159  1
  Cu  Cu74  1  0.33282983  0.04018657  0.08606189  1
  Cu  Cu75  1  0.83285432  0.04100349  0.08439247  1
  Cu  Cu76  1  0.18734441  0.33371538  0.08447675  1
  Cu  Cu77  1  0.68719055  0.33430856  0.08607849  1
  Cu  Cu78  1  0.31325828  0.66730001  0.91764295  1
  Cu  Cu79  1  0.81320994  0.66709343  0.91765288  1
  Cu  Cu80  1  0.02001387  0.37284957  0.91935795  1
  Cu  Cu81  1  0.52000696  0.37281085  0.91944733  1
  Cu  Cu82  1  0.16624190  0.96003279  0.91926977  1
  Cu  Cu83  1  0.66621968  0.96019944  0.91926095  1
  Cu  Cu84  1  0.31394315  0.95767304  0.41737900  1
  Cu  Cu85  1  0.81389923  0.95992575  0.41955586  1
  Cu  Cu86  1  0.16583110  0.37228493  0.41966040  1
  Cu  Cu87  1  0.66534708  0.36987004  0.41813087  1
  Cu  Cu88  1  0.02093091  0.67016615  0.41888189  1
  Cu  Cu89  1  0.51912244  0.66741744  0.41965398  1
  C  C90  1  0.09826457  0.01596714  0.30280853  1
  C  C91  1  0.60698636  0.02666950  0.30744622  1
  C  C92  1  0.40360807  0.78615687  0.30916715  1
  C  C93  1  0.90973979  0.80362952  0.30302077  1
  C  C94  1  0.48495381  0.17976235  0.30340270  1
  C  C95  1  0.99220618  0.17917574  0.30315128  1
  C  C96  1  0.09821022  0.18050806  0.80262957  1
  C  C97  1  0.59820807  0.18060075  0.80265052  1
  C  C98  1  0.49039524  0.80517024  0.80195471  1
  C  C99  1  0.99046020  0.80532389  0.80193478  1
  C  C100  1  0.41022756  0.01510577  0.80313100  1
  C  C101  1  0.91026019  0.01527917  0.80311735  1
  C  C102  1  0.39477500  0.97134848  0.69353957  1
  C  C103  1  0.89456763  0.97132437  0.69362487  1
  C  C104  1  0.09419709  0.21263429  0.69303057  1
  C  C105  1  0.59402910  0.21226989  0.69298342  1
  C  C106  1  0.01261982  0.81500189  0.69246653  1
  C  C107  1  0.51264858  0.81482653  0.69246171  1
  C  C108  1  0.39620987  0.82088229  0.19695850  1
  C  C109  1  0.89444176  0.81239959  0.19331294  1
  C  C110  1  0.01124050  0.20905822  0.19290901  1
  C  C111  1  0.51560520  0.21187268  0.19351307  1
  C  C112  1  0.09384230  0.97716838  0.19310376  1
  C  C113  1  0.59172205  0.97548665  0.19554961  1
  C  C114  1  0.43941824  0.36784405  0.63894904  1
  C  C115  1  0.93951271  0.36773318  0.63871715  1
  C  C116  1  0.24342804  0.12171256  0.63888098  1
  C  C117  1  0.74476257  0.12520800  0.63683736  1
  C  C118  1  0.31916568  0.51857434  0.64061301  1
  C  C119  1  0.81895306  0.52139167  0.64263125  1
  C  C120  1  0.43985905  0.51194030  0.13819867  1
  C  C121  1  0.93874761  0.51275396  0.13889377  1
  C  C122  1  0.31841996  0.11607540  0.14233292  1
  C  C123  1  0.81629763  0.12000046  0.13839387  1
  C  C124  1  0.24306038  0.36424962  0.13846850  1
  C  C125  1  0.73986297  0.36363418  0.14221967  1
  C  C126  1  0.22941892  0.30108089  0.02918279  1
  C  C127  1  0.73191782  0.30325133  0.03185385  1
  C  C128  1  0.42082751  0.54093842  0.02916380  1
  C  C129  1  0.92089590  0.54090906  0.02949527  1
  C  C130  1  0.34855138  0.16096869  0.03194272  1
  C  C131  1  0.84977961  0.15895275  0.02928890  1
  C  C132  1  0.22915488  0.15689770  0.52967164  1
  C  C133  1  0.72783563  0.15351627  0.52684423  1
  C  C134  1  0.34820220  0.53996784  0.52945698  1
  C  C135  1  0.84885531  0.53763465  0.53239609  1
  C  C136  1  0.42079886  0.30042852  0.52999421  1
  C  C137  1  0.92101766  0.30151804  0.52953947  1
  C  C138  1  0.27657839  0.69493482  0.97476730  1
  C  C139  1  0.77658805  0.69477450  0.97476324  1
  C  C140  1  0.06946679  0.44326800  0.97700515  1
  C  C141  1  0.56953351  0.44334557  0.97706182  1
  C  C142  1  0.15174941  0.86084233  0.97693159  1
  C  C143  1  0.65172972  0.86100797  0.97689391  1
  C  C144  1  0.27416876  0.85232930  0.47436486  1
  C  C145  1  0.77888359  0.86252218  0.47763893  1
  C  C146  1  0.15161482  0.44220633  0.47756772  1
  C  C147  1  0.65533111  0.44852269  0.47574765  1
  C  C148  1  0.06877622  0.69712137  0.47734407  1
  C  C149  1  0.57191474  0.69570283  0.47628872  1
  C  C150  1  0.06767414  0.64545292  0.36541187  1
  C  C151  1  0.56587513  0.64341160  0.36558382  1
  C  C152  1  0.25696973  0.86818908  0.36211074  1
  C  C153  1  0.75293187  0.86683711  0.36650397  1
  C  C154  1  0.18037502  0.49335509  0.36643831  1
  C  C155  1  0.67712309  0.48355872  0.36296687  1
  C  C156  1  0.06709531  0.48952152  0.86531341  1
  C  C157  1  0.56694616  0.48964923  0.86538370  1
  C  C158  1  0.17760520  0.86613667  0.86522027  1
  C  C159  1  0.67773214  0.86640327  0.86519951  1
  C  C160  1  0.25755998  0.64523049  0.86198633  1
  C  C161  1  0.75752895  0.64502814  0.86198779  1
  C  C162  1  0.00888405  0.82760996  0.40914989  1
  C  C163  1  0.50788621  0.82575943  0.41284132  1
  C  C164  1  0.40303819  0.97444633  0.41165516  1
  C  C165  1  0.90483615  0.98505587  0.40930885  1
  C  C166  1  0.08794462  0.19002974  0.40948337  1
  C  C167  1  0.58879094  0.18505402  0.41228769  1
  C  C168  1  0.00872704  0.19139534  0.90938439  1
  C  C169  1  0.50870458  0.19138059  0.90942979  1
  C  C170  1  0.08697029  0.98309156  0.90907222  1
  C  C171  1  0.58691059  0.98311847  0.90902690  1
  C  C172  1  0.40468526  0.82650223  0.90882605  1
  C  C173  1  0.90470723  0.82627138  0.90881066  1
  C  C174  1  0.48652188  0.16643165  0.58977195  1
  C  C175  1  0.98654643  0.16635579  0.58954577  1
  C  C176  1  0.09603522  0.02680331  0.58919298  1
  C  C177  1  0.59660397  0.02777013  0.58891478  1
  C  C178  1  0.41726228  0.80889954  0.58896427  1
  C  C179  1  0.91750100  0.80968894  0.58924452  1
  C  C180  1  0.48628197  0.80686712  0.08934965  1
  C  C181  1  0.98659817  0.80767223  0.08928868  1
  C  C182  1  0.41712163  0.02538810  0.08938281  1
  C  C183  1  0.91720403  0.02649257  0.08916646  1
  C  C184  1  0.09573395  0.16519183  0.08905936  1
  C  C185  1  0.59591079  0.16486139  0.08912292  1
  C  C186  1  0.34326623  0.15939026  0.74709396  1
  C  C187  1  0.84316085  0.15933351  0.74697058  1
  C  C188  1  0.23913369  0.32159605  0.74742774  1
  C  C189  1  0.73904849  0.32118025  0.74745953  1
  C  C190  1  0.41711629  0.53123775  0.74670478  1
  C  C191  1  0.91720637  0.53119237  0.74676016  1
  C  C192  1  0.33955241  0.52235529  0.24561213  1
  C  C193  1  0.83972685  0.52253661  0.24779750  1
  C  C194  1  0.41916029  0.31212022  0.24347980  1
  C  C195  1  0.91873471  0.31028484  0.24763598  1
  C  C196  1  0.23921517  0.15569826  0.24777300  1
  C  C197  1  0.73696246  0.16499438  0.24490918  1
  C  C198  1  0.32186832  0.50275269  0.92144875  1
  C  C199  1  0.82178277  0.50260078  0.92151880  1
  C  C200  1  0.42915364  0.35526724  0.92219730  1
  C  C201  1  0.92921865  0.35585081  0.92196695  1
  C  C202  1  0.24885023  0.14110085  0.92207653  1
  C  C203  1  0.74861496  0.14163855  0.92221038  1
  C  C204  1  0.32058713  0.13833440  0.42193996  1
  C  C205  1  0.81841995  0.13858625  0.42256726  1
  C  C206  1  0.25114854  0.36466477  0.42303655  1
  C  C207  1  0.74912678  0.35368102  0.42197468  1
  C  C208  1  0.42741333  0.50398650  0.42307735  1
  C  C209  1  0.92997409  0.50436747  0.42185574  1
  C  C210  1  0.17322636  0.48935885  0.07766949  1
  C  C211  1  0.67356058  0.48977528  0.07799814  1
  C  C212  1  0.07129869  0.65297607  0.07806331  1
  C  C213  1  0.57184030  0.65424010  0.07749490  1
  C  C214  1  0.25501564  0.85698055  0.07805393  1
  C  C215  1  0.75522429  0.85669771  0.07740800  1
  C  C216  1  0.17304944  0.85691035  0.57830121  1
  C  C217  1  0.67301262  0.85691373  0.57794675  1
  C  C218  1  0.25509696  0.65322414  0.57825832  1
  C  C219  1  0.75511225  0.65313536  0.57877275  1
  C  C220  1  0.07156858  0.48985388  0.57793000  1
  C  C221  1  0.57154475  0.48955079  0.57806889  1
  C  C222  1  0.15556688  0.83492201  0.25584549  1
  C  C223  1  0.65572163  0.83514461  0.25604954  1
  C  C224  1  0.26342936  0.69925406  0.25570957  1
  C  C225  1  0.76138459  0.68678647  0.25662248  1
  C  C226  1  0.08247603  0.47109944  0.25629892  1
  C  C227  1  0.58520031  0.47194899  0.25562607  1
  C  C228  1  0.15655186  0.47757583  0.75600811  1
  C  C229  1  0.65658883  0.47754519  0.75605103  1
  C  C230  1  0.08233260  0.69156482  0.75575003  1
  C  C231  1  0.58227215  0.69141218  0.75579801  1
  C  C232  1  0.26491278  0.82901115  0.75608799  1
  C  C233  1  0.76483381  0.82892554  0.75612360  1
