# generated using pymatgen
data_CuNiC
_symmetry_space_group_name_H-M   'P 1'
_cell_length_a   3.81427900
_cell_length_b   6.43128100
_cell_length_c   7.32752100
_cell_angle_alpha   90.00000000
_cell_angle_beta   90.00000000
_cell_angle_gamma   90.00000000
_symmetry_Int_Tables_number   1
_chemical_formula_structural   CuNiC
_chemical_formula_sum   'Cu4 Ni4 C4'
_cell_volume   179.74921984
_cell_formula_units_Z   4
loop_
 _symmetry_equiv_pos_site_id
 _symmetry_equiv_pos_as_xyz
  1  'x, y, z'
loop_
 _atom_site_type_symbol
 _atom_site_label
 _atom_site_symmetry_multiplicity
 _atom_site_fract_x
 _atom_site_fract_y
 _atom_site_fract_z
 _atom_site_occupancy
  Ni  Ni0  1  0.75000000  0.52422600  0.82782200  1
  Ni  Ni1  1  0.25000000  0.97577400  0.32782200  1
  Ni  Ni2  1  0.75000000  0.02422600  0.67217800  1
  Ni  Ni3  1  0.25000000  0.47577400  0.17217800  1
  C  C4  1  0.25000000  0.23260100  0.87601900  1
  C  C5  1  0.25000000  0.73260100  0.62398100  1
  C  C6  1  0.75000000  0.76739900  0.12398100  1
  C  C7  1  0.75000000  0.26739900  0.37601900  1
  Cu  Cu8  1  0.25000000  0.85461400  0.93510400  1
  Cu  Cu9  1  0.25000000  0.35461400  0.56489600  1
  Cu  Cu10  1  0.75000000  0.64538600  0.43510400  1
  Cu  Cu11  1  0.75000000  0.14538600  0.06489600  1
