# generated using pymatgen
data_CuNi2C3
_symmetry_space_group_name_H-M   'P 1'
_cell_length_a   8.88468087
_cell_length_b   8.88468087
_cell_length_c   8.88468087
_cell_angle_alpha   135.82085912
_cell_angle_beta   135.74664516
_cell_angle_gamma   64.31485463
_symmetry_Int_Tables_number   1
_chemical_formula_structural   CuNi2C3
_chemical_formula_sum   'Cu2 Ni4 C6'
_cell_volume   336.39889723
_cell_formula_units_Z   2
loop_
 _symmetry_equiv_pos_site_id
 _symmetry_equiv_pos_as_xyz
  1  'x, y, z'
loop_
 _atom_site_type_symbol
 _atom_site_label
 _atom_site_symmetry_multiplicity
 _atom_site_fract_x
 _atom_site_fract_y
 _atom_site_fract_z
 _atom_site_occupancy
  Ni  Ni0  1  0.17730900  0.93906700  0.76175800  1
  Ni  Ni1  1  0.82269100  0.06093300  0.23824200  1
  Ni  Ni2  1  0.32269100  0.58444900  0.26175800  1
  Ni  Ni3  1  0.67730900  0.41555100  0.73824200  1
  Cu  Cu4  1  0.75000000  0.00000000  0.75000000  1
  Cu  Cu5  1  0.25000000  0.00000000  0.25000000  1
  C  C6  1  0.25000000  0.50000000  0.75000000  1
  C  C7  1  0.75000000  0.50000000  0.25000000  1
  C  C8  1  0.40077500  0.18557300  0.78479800  1
  C  C9  1  0.59922500  0.81442700  0.21520200  1
  C  C10  1  0.09922500  0.38402200  0.28479800  1
  C  C11  1  0.90077500  0.61597800  0.71520200  1
