# generated using pymatgen
data_CuNiC6
_symmetry_space_group_name_H-M   'P 1'
_cell_length_a   3.47056312
_cell_length_b   3.47056272
_cell_length_c   10.62379937
_cell_angle_alpha   99.60312761
_cell_angle_beta   99.60311186
_cell_angle_gamma   88.77798255
_symmetry_Int_Tables_number   1
_chemical_formula_structural   CuNiC6
_chemical_formula_sum   'Cu1 Ni1 C6'
_cell_volume   124.39769295
_cell_formula_units_Z   1
loop_
 _symmetry_equiv_pos_site_id
 _symmetry_equiv_pos_as_xyz
  1  'x, y, z'
loop_
 _atom_site_type_symbol
 _atom_site_label
 _atom_site_symmetry_multiplicity
 _atom_site_fract_x
 _atom_site_fract_y
 _atom_site_fract_z
 _atom_site_occupancy
  C  C0  1  0.38169925  0.38169925  0.76339751  1
  C  C1  1  0.61830075  0.61830075  0.23660249  1
  Ni  Ni2  1  0.25000000  0.75000000  0.50000000  1
  Cu  Cu3  1  0.00000000  0.00000000  0.00000000  1
  C  C4  1  0.94924946  0.44924946  0.89849892  1
  C  C5  1  0.55075054  0.05075054  0.10150108  1
  C  C6  1  0.19228176  0.19228176  0.38456253  1
  C  C7  1  0.80771824  0.80771824  0.61543747  1
