# generated using pymatgen
data_Cu9Ni3C62
_symmetry_space_group_name_H-M   'P 1'
_cell_length_a   18.00600179
_cell_length_b   8.93772985
_cell_length_c   23.04376295
_cell_angle_alpha   90.32986979
_cell_angle_beta   90.19267643
_cell_angle_gamma   119.91784392
_symmetry_Int_Tables_number   1
_chemical_formula_structural   Cu9Ni3C62
_chemical_formula_sum   'Cu27 Ni9 C186'
_cell_volume   3214.17153062
_cell_formula_units_Z   3
loop_
 _symmetry_equiv_pos_site_id
 _symmetry_equiv_pos_as_xyz
  1  'x, y, z'
loop_
 _atom_site_type_symbol
 _atom_site_label
 _atom_site_symmetry_multiplicity
 _atom_site_fract_x
 _atom_site_fract_y
 _atom_site_fract_z
 _atom_site_occupancy
  C  C0  1  0.99986507  0.63294654  0.25320340  1
  C  C1  1  0.49751471  0.62143815  0.24294735  1
  C  C2  1  0.00223696  0.37193203  0.74319261  1
  C  C3  1  0.50023218  0.37111719  0.75234217  1
  C  C4  1  0.67149553  0.31438734  0.90895757  1
  C  C5  1  0.16992364  0.03214788  0.41331869  1
  C  C6  1  0.99159453  0.01120894  0.50026629  1
  C  C7  1  0.50515680  0.01180702  0.50004866  1
  C  C8  1  0.00302776  0.99393594  0.99250164  1
  C  C9  1  0.49214063  0.97212519  0.99343276  1
  C  C10  1  0.31033262  0.30589747  0.82924824  1
  C  C11  1  0.83480882  0.35365991  0.83395815  1
  C  C12  1  0.33075723  0.31283306  0.33692018  1
  C  C13  1  0.81967418  0.32885058  0.33596849  1
  C  C14  1  0.17617979  0.65330085  0.16730238  1
  C  C15  1  0.66585007  0.66206441  0.16675764  1
  C  C16  1  0.16485267  0.65673999  0.67488883  1
  C  C17  1  0.67835264  0.70187710  0.66985898  1
  C  C18  1  0.49990395  0.01376046  0.35939602  1
  C  C19  1  0.00721880  0.99522509  0.85616095  1
  C  C20  1  0.00401130  0.02083266  0.64866924  1
  C  C21  1  0.50406421  0.99535941  0.64736357  1
  C  C22  1  0.00402910  0.01175594  0.14633269  1
  C  C23  1  0.49919789  0.99238974  0.14486780  1
  C  C24  1  0.32624222  0.33365976  0.98218175  1
  C  C25  1  0.82663270  0.31953857  0.48453227  1
  C  C26  1  0.16553697  0.66339499  0.01644966  1
  C  C27  1  0.66819771  0.67347758  0.01654288  1
  C  C28  1  0.16838549  0.66330432  0.51868599  1
  C  C29  1  0.66465524  0.66145743  0.51900001  1
  C  C30  1  0.99539510  0.00128695  0.34798019  1
  C  C31  1  0.49504600  0.98926040  0.84715045  1
  C  C32  1  0.31657484  0.32630626  0.68775187  1
  C  C33  1  0.83696119  0.31716221  0.67151492  1
  C  C34  1  0.33470561  0.35511977  0.16877612  1
  C  C35  1  0.83010988  0.33096460  0.18093796  1
  C  C36  1  0.83973000  0.35117111  0.98026151  1
  C  C37  1  0.33833417  0.32701506  0.48374901  1
  C  C38  1  0.17685545  0.67678740  0.32287133  1
  C  C39  1  0.67354381  0.66039240  0.32200256  1
  C  C40  1  0.17155690  0.67324044  0.81432803  1
  C  C41  1  0.68286807  0.68415538  0.82010004  1
  Ni  Ni42  1  0.15204209  0.31006439  0.75410967  1
  Ni  Ni43  1  0.98190545  0.33802975  0.58596627  1
  Ni  Ni44  1  0.68599904  0.03582223  0.58716664  1
  Ni  Ni45  1  0.48307825  0.61954017  0.08731583  1
  Ni  Ni46  1  0.18647426  0.33946746  0.08715979  1
  Ni  Ni47  1  0.81354754  0.66002531  0.91579496  1
  Ni  Ni48  1  0.17264626  0.95692839  0.91287317  1
  Ni  Ni49  1  0.31050741  0.96782103  0.41622026  1
  Ni  Ni50  1  0.67389497  0.38067999  0.41328188  1
  Cu  Cu51  1  0.14740339  -0.00017836  0.25276267  1
  Cu  Cu52  1  0.64847216  0.00024825  0.25064083  1
  Cu  Cu53  1  0.35291036  0.70617109  0.25138432  1
  Cu  Cu54  1  0.85302324  0.70515112  0.24906677  1
  Cu  Cu55  1  0.99905400  0.29829607  0.25207147  1
  Cu  Cu56  1  0.49905628  0.29564969  0.24997527  1
  Cu  Cu57  1  0.64776716  0.29601645  0.75315590  1
  Cu  Cu58  1  0.99485878  0.70015070  0.74772606  1
  Cu  Cu59  1  0.50262770  0.70413065  0.75221791  1
  Cu  Cu60  1  0.35610533  0.00403731  0.74919129  1
  Cu  Cu61  1  0.85172864  -0.00086261  0.75184098  1
  Cu  Cu62  1  0.47743282  0.33315024  0.58708834  1
  Cu  Cu63  1  0.18722037  0.04160801  0.58207401  1
  Cu  Cu64  1  0.33438773  0.61811566  0.58224583  1
  Cu  Cu65  1  0.83348087  0.62650579  0.58508605  1
  Cu  Cu66  1  0.97878154  0.62239981  0.08696249  1
  Cu  Cu67  1  0.33273837  0.04102856  0.08530839  1
  Cu  Cu68  1  0.83311833  0.04901539  0.08394805  1
  Cu  Cu69  1  0.68815286  0.33438562  0.08387784  1
  Cu  Cu70  1  0.31733187  0.67435478  0.91422882  1
  Cu  Cu71  1  0.01555799  0.36964236  0.91475495  1
  Cu  Cu72  1  0.51876945  0.36888288  0.91314216  1
  Cu  Cu73  1  0.66388781  0.96191371  0.91440018  1
  Cu  Cu74  1  0.81534841  0.95831326  0.41355569  1
  Cu  Cu75  1  0.16379135  0.36648872  0.41359054  1
  Cu  Cu76  1  0.01918805  0.66863426  0.41271027  1
  Cu  Cu77  1  0.51872592  0.66218578  0.41286511  1
  C  C78  1  0.10609067  0.01700242  0.30657646  1
  C  C79  1  0.60563340  0.02097165  0.30219133  1
  C  C80  1  0.40817710  0.80373808  0.30196488  1
  C  C81  1  0.90696493  0.78439330  0.30170972  1
  C  C82  1  0.49644829  0.19431964  0.30227120  1
  C  C83  1  0.98790268  0.19346268  0.30381813  1
  C  C84  1  0.09755834  0.18206460  0.80769821  1
  C  C85  1  0.60647291  0.19661635  0.80688471  1
  C  C86  1  0.49145495  0.78687748  0.80435465  1
  C  C87  1  0.98894457  0.78906249  0.80132724  1
  C  C88  1  0.40928007  0.03029617  0.80212985  1
  C  C89  1  0.90404363  0.00831744  0.80289596  1
  C  C90  1  0.40287109  0.98597821  0.69766849  1
  C  C91  1  0.89376268  0.98039415  0.69762164  1
  C  C92  1  0.08927174  0.21017303  0.69564876  1
  C  C93  1  0.58934357  0.19295875  0.70197748  1
  C  C94  1  0.99978670  0.80608582  0.69635979  1
  C  C95  1  0.51021578  0.81100647  0.69921637  1
  C  C96  1  0.39783713  0.81063493  0.19781538  1
  C  C97  1  0.89912622  0.81199058  0.19732315  1
  C  C98  1  0.00686644  0.20773937  0.19894122  1
  C  C99  1  0.50613311  0.20339062  0.19776427  1
  C  C100  1  0.08870975  0.98533187  0.20177456  1
  C  C101  1  0.59267951  0.97933600  0.19812512  1
  C  C102  1  0.44053279  0.35868334  0.64017895  1
  C  C103  1  0.94994851  0.36966859  0.64780269  1
  C  C104  1  0.24172803  0.12251891  0.63318819  1
  C  C105  1  0.73832240  0.11497642  0.64571368  1
  C  C106  1  0.32500418  0.52033248  0.63500707  1
  C  C107  1  0.81885201  0.52398025  0.63694675  1
  C  C108  1  0.45017704  0.52655618  0.14957898  1
  C  C109  1  0.94291840  0.52581877  0.14154989  1
  C  C110  1  0.32059519  0.11592206  0.13824723  1
  C  C111  1  0.82183585  0.12557865  0.13782169  1
  C  C112  1  0.23755018  0.36464123  0.14645553  1
  C  C113  1  0.74020753  0.35954929  0.13641218  1
  C  C114  1  0.22948355  0.30702460  0.02910951  1
  C  C115  1  0.72182366  0.29995266  0.03090809  1
  C  C116  1  0.42011876  0.52102040  0.03250892  1
  C  C117  1  0.92551005  0.53989127  0.03600464  1
  C  C118  1  0.34524795  0.14476210  0.03287356  1
  C  C119  1  0.84566916  0.15196546  0.03207100  1
  C  C120  1  0.22090661  0.14084813  0.52819136  1
  C  C121  1  0.72785927  0.15171213  0.52855506  1
  C  C122  1  0.34661442  0.54128482  0.52913479  1
  C  C123  1  0.84296457  0.54265879  0.53176473  1
  C  C124  1  0.42690440  0.30913033  0.53425496  1
  C  C125  1  0.92033473  0.31654329  0.53053766  1
  C  C126  1  0.27273944  0.68774665  0.96774419  1
  C  C127  1  0.76571172  0.68773277  0.97368829  1
  C  C128  1  0.07252086  0.45989866  0.96708461  1
  C  C129  1  0.57743464  0.46476531  0.96409493  1
  C  C130  1  0.16181090  0.84742056  0.97325546  1
  C  C131  1  0.65138579  0.85219403  0.96736937  1
  C  C132  1  0.26477724  0.84327564  0.47230478  1
  C  C133  1  0.76991155  0.85369408  0.46564587  1
  C  C134  1  0.15199818  0.45196032  0.46624552  1
  C  C135  1  0.65975459  0.47167398  0.47123695  1
  C  C136  1  0.07773796  0.69092801  0.46284156  1
  C  C137  1  0.57516129  0.68802871  0.46438175  1
  C  C138  1  0.05364154  0.64041717  0.35790707  1
  C  C139  1  0.55721308  0.64282332  0.35870924  1
  C  C140  1  0.24908355  0.88970014  0.35947774  1
  C  C141  1  0.76463908  0.88645747  0.35998327  1
  C  C142  1  0.17086583  0.46453696  0.36068015  1
  C  C143  1  0.68350843  0.48169019  0.35441993  1
  C  C144  1  0.05288030  0.46632613  0.86178714  1
  C  C145  1  0.55350889  0.46618353  0.85930141  1
  C  C146  1  0.18093548  0.86228254  0.85677952  1
  C  C147  1  0.67024867  0.87573203  0.86185434  1
  C  C148  1  0.26774759  0.64757741  0.86190113  1
  C  C149  1  0.74666892  0.60609725  0.86149444  1
  C  C150  1  0.01646335  0.83343023  0.41102566  1
  C  C151  1  0.51238591  0.82382072  0.41024431  1
  C  C152  1  0.40543694  0.98068717  0.41018159  1
  C  C153  1  0.90066973  0.97007334  0.41118259  1
  C  C154  1  0.08672048  0.18795266  0.41115476  1
  C  C155  1  0.58726458  0.18456073  0.41177132  1
  C  C156  1  0.00927864  0.19640471  0.91391023  1
  C  C157  1  0.51632564  0.19886703  0.91187896  1
  C  C158  1  0.08675396  0.97966111  0.91267973  1
  C  C159  1  0.58733131  0.98672460  0.91240581  1
  C  C160  1  0.40345948  0.83303284  0.91315330  1
  C  C161  1  0.90602786  0.83616893  0.90984678  1
  C  C162  1  0.48830129  0.17603167  0.59185093  1
  C  C163  1  0.98796079  0.15771604  0.58634799  1
  C  C164  1  0.09856926  0.01507986  0.59035857  1
  C  C165  1  0.58813046  0.01322496  0.58959474  1
  C  C166  1  0.41032793  0.79847553  0.58875663  1
  C  C167  1  0.91171275  0.79992170  0.58844970  1
  C  C168  1  0.49129066  0.81629882  0.09031529  1
  C  C169  1  0.98793158  0.79949917  0.09243690  1
  C  C170  1  0.41196399  0.02258143  0.08962541  1
  C  C171  1  0.90919822  0.02254601  0.09119737  1
  C  C172  1  0.08845743  0.16503165  0.09057523  1
  C  C173  1  0.59892748  0.18115877  0.09268047  1
  C  C174  1  0.35340704  0.16741424  0.74283576  1
  C  C175  1  0.84945707  0.16213913  0.74990797  1
  C  C176  1  0.24415162  0.32230211  0.74874603  1
  C  C177  1  0.73312686  0.31979480  0.74687094  1
  C  C178  1  0.42750447  0.52950330  0.74490535  1
  C  C179  1  0.91727943  0.52713648  0.74620676  1
  C  C180  1  0.35001003  0.53855479  0.24942555  1
  C  C181  1  0.84693799  0.53153007  0.24297464  1
  C  C182  1  0.41998834  0.30598869  0.24916421  1
  C  C183  1  0.92252263  0.32024152  0.24541886  1
  C  C184  1  0.23310587  0.14778980  0.24663388  1
  C  C185  1  0.73402347  0.15396236  0.24439077  1
  C  C186  1  0.32923717  0.52007733  0.92165512  1
  C  C187  1  0.82102950  0.48619967  0.92377611  1
  C  C188  1  0.43287667  0.34521425  0.92395528  1
  C  C189  1  0.92994539  0.34805113  0.92395951  1
  C  C190  1  0.25719076  0.15130567  0.92081325  1
  C  C191  1  0.74171528  0.13205514  0.92195209  1
  C  C192  1  0.32066558  0.15826768  0.42421592  1
  C  C193  1  0.82756263  0.13621993  0.42039569  1
  C  C194  1  0.24148507  0.35151466  0.42037154  1
  C  C195  1  0.75746642  0.35615496  0.42068814  1
  C  C196  1  0.43286349  0.51277515  0.42081721  1
  C  C197  1  0.93276147  0.51925756  0.42194295  1
  C  C198  1  0.17275098  0.50547158  0.07779426  1
  C  C199  1  0.67714620  0.48918981  0.07879869  1
  C  C200  1  0.06679438  0.64709494  0.08036282  1
  C  C201  1  0.57996680  0.65220057  0.07714352  1
  C  C202  1  0.25850445  0.86253552  0.07797128  1
  C  C203  1  0.75565994  0.87210619  0.07842274  1
  C  C204  1  0.17662428  0.86428810  0.57623029  1
  C  C205  1  0.67206837  0.84177442  0.57588065  1
  C  C206  1  0.25662136  0.63873024  0.57685534  1
  C  C207  1  0.75785932  0.65414043  0.57701248  1
  C  C208  1  0.07843584  0.50135660  0.57415355  1
  C  C209  1  0.56637723  0.48687666  0.57988131  1
  C  C210  1  0.14550425  0.83087074  0.25108837  1
  C  C211  1  0.65122754  0.83702711  0.25337776  1
  C  C212  1  0.26766846  0.69090434  0.25355960  1
  C  C213  1  0.76840621  0.69251115  0.25120412  1
  C  C214  1  0.07729313  0.47126528  0.25469208  1
  C  C215  1  0.57578316  0.47124385  0.25163102  1
  C  C216  1  0.15178759  0.49213498  0.75736010  1
  C  C217  1  0.64561214  0.46110589  0.75182975  1
  C  C218  1  0.07293446  0.68590516  0.74896180  1
  C  C219  1  0.58177696  0.69114962  0.75450745  1
  C  C220  1  0.27141956  0.85076301  0.74997414  1
  C  C221  1  0.76456894  0.84488117  0.75344715  1
