# generated using pymatgen
data_CuNi11C7
_symmetry_space_group_name_H-M   'P 1'
_cell_length_a   7.27891011
_cell_length_b   5.91637306
_cell_length_c   5.74173525
_cell_angle_alpha   80.61060725
_cell_angle_beta   71.67177816
_cell_angle_gamma   69.63266986
_symmetry_Int_Tables_number   1
_chemical_formula_structural   CuNi11C7
_chemical_formula_sum   'Cu1 Ni11 C7'
_cell_volume   219.64702850
_cell_formula_units_Z   1
loop_
 _symmetry_equiv_pos_site_id
 _symmetry_equiv_pos_as_xyz
  1  'x, y, z'
loop_
 _atom_site_type_symbol
 _atom_site_label
 _atom_site_symmetry_multiplicity
 _atom_site_fract_x
 _atom_site_fract_y
 _atom_site_fract_z
 _atom_site_occupancy
  C  C0  1  0.98184770  0.52823463  0.02650644  1
  C  C1  1  0.81143840  0.67034341  0.64454188  1
  C  C2  1  0.66087495  0.26981906  0.39068989  1
  C  C3  1  0.33941872  0.73014064  0.60384398  1
  C  C4  1  0.17788448  0.31616191  0.39564355  1
  C  C5  1  0.50000007  0.99554162  -0.00118840  1
  C  C6  1  0.99624953  0.04257655  0.96713080  1
  Ni  Ni7  1  0.65654505  0.00630944  0.64293896  1
  Ni  Ni8  1  0.28765071  0.91839278  0.88872274  1
  Ni  Ni9  1  0.95310252  0.22351122  0.24165326  1
  Ni  Ni10  1  0.62699308  0.54570400  0.56035218  1
  Ni  Ni11  1  0.04200884  0.78981069  0.76725360  1
  Ni  Ni12  1  0.37524182  0.43807406  0.44398508  1
  Ni  Ni13  1  0.70613987  0.10374774  0.10039911  1
  Ni  Ni14  1  0.34524161  0.98566325  0.34695416  1
  Ni  Ni15  1  0.69019679  0.66665036  0.98252559  1
  Ni  Ni16  1  0.99722040  0.34214464  0.73004429  1
  Ni  Ni17  1  0.99145072  0.64659428  0.33210692  1
  Cu  Cu18  1  0.29567776  0.35200574  0.00732497  1
