# generated using pymatgen
data_Cu4Ni2C3
_symmetry_space_group_name_H-M   'P 1'
_cell_length_a   6.43314500
_cell_length_b   7.50207600
_cell_length_c   15.55898400
_cell_angle_alpha   90.00000000
_cell_angle_beta   90.00000000
_cell_angle_gamma   90.00000000
_symmetry_Int_Tables_number   1
_chemical_formula_structural   Cu4Ni2C3
_chemical_formula_sum   'Cu16 Ni8 C12'
_cell_volume   750.90679442
_cell_formula_units_Z   4
loop_
 _symmetry_equiv_pos_site_id
 _symmetry_equiv_pos_as_xyz
  1  'x, y, z'
loop_
 _atom_site_type_symbol
 _atom_site_label
 _atom_site_symmetry_multiplicity
 _atom_site_fract_x
 _atom_site_fract_y
 _atom_site_fract_z
 _atom_site_occupancy
  C  C0  1  0.02867900  0.79796700  0.15624100  1
  C  C1  1  0.52867900  0.70203300  0.84375900  1
  C  C2  1  0.97132100  0.29796700  0.34375900  1
  C  C3  1  0.47132100  0.20203300  0.65624100  1
  C  C4  1  0.48556400  0.36446600  0.11687400  1
  C  C5  1  0.98556400  0.13553400  0.88312600  1
  C  C6  1  0.51443600  0.86446600  0.38312600  1
  C  C7  1  0.01443600  0.63553400  0.61687400  1
  C  C8  1  0.00578100  0.81632700  0.38800500  1
  C  C9  1  0.50578100  0.68367300  0.61199500  1
  C  C10  1  0.99421900  0.31632700  0.11199500  1
  C  C11  1  0.49421900  0.18367300  0.88800500  1
  Ni  Ni12  1  0.39770000  0.50597100  0.26578200  1
  Ni  Ni13  1  0.89770000  0.99402900  0.73421800  1
  Ni  Ni14  1  0.60230000  0.00597100  0.23421800  1
  Ni  Ni15  1  0.10230000  0.49402900  0.76578200  1
  Ni  Ni16  1  0.56975400  0.66514500  0.05222100  1
  Ni  Ni17  1  0.06975400  0.83485500  0.94777900  1
  Ni  Ni18  1  0.43024600  0.16514500  0.44777900  1
  Ni  Ni19  1  0.93024600  0.33485500  0.55222100  1
  Cu  Cu20  1  0.61913800  0.32789700  0.84872200  1
  Cu  Cu21  1  0.11913800  0.17210300  0.15127800  1
  Cu  Cu22  1  0.38086200  0.82789700  0.65127800  1
  Cu  Cu23  1  0.88086200  0.67210300  0.34872200  1
  Cu  Cu24  1  0.36923100  0.24656300  0.96301400  1
  Cu  Cu25  1  0.86923100  0.25343700  0.03698600  1
  Cu  Cu26  1  0.63076900  0.74656300  0.53698600  1
  Cu  Cu27  1  0.13076900  0.75343700  0.46301400  1
  Cu  Cu28  1  0.34329900  0.10576400  0.82439900  1
  Cu  Cu29  1  0.84329900  0.39423600  0.17560100  1
  Cu  Cu30  1  0.65670100  0.60576400  0.67560100  1
  Cu  Cu31  1  0.15670100  0.89423600  0.32439900  1
  Cu  Cu32  1  0.64249600  0.03755800  0.91510300  1
  Cu  Cu33  1  0.14249600  0.46244200  0.08489700  1
  Cu  Cu34  1  0.35750400  0.53755800  0.58489700  1
  Cu  Cu35  1  0.85750400  0.96244200  0.41510300  1
