# generated using pymatgen
data_CuNiC6
_symmetry_space_group_name_H-M   'P 1'
_cell_length_a   5.11829800
_cell_length_b   5.11829800
_cell_length_c   9.70782700
_cell_angle_alpha   90.00000000
_cell_angle_beta   90.00000000
_cell_angle_gamma   90.00000000
_symmetry_Int_Tables_number   1
_chemical_formula_structural   CuNiC6
_chemical_formula_sum   'Cu2 Ni2 C12'
_cell_volume   254.31569556
_cell_formula_units_Z   2
loop_
 _symmetry_equiv_pos_site_id
 _symmetry_equiv_pos_as_xyz
  1  'x, y, z'
loop_
 _atom_site_type_symbol
 _atom_site_label
 _atom_site_symmetry_multiplicity
 _atom_site_fract_x
 _atom_site_fract_y
 _atom_site_fract_z
 _atom_site_occupancy
  Ni  Ni0  1  0.00000000  0.00000000  0.00000000  1
  Ni  Ni1  1  0.00000000  0.00000000  0.50000000  1
  Cu  Cu2  1  0.50000000  0.50000000  0.25000000  1
  Cu  Cu3  1  0.50000000  0.50000000  0.75000000  1
  C  C4  1  0.80984700  0.19015300  0.86063900  1
  C  C5  1  0.19015300  0.80984700  0.86063900  1
  C  C6  1  0.19015300  0.80984700  0.13936100  1
  C  C7  1  0.19015300  0.19015300  0.36063900  1
  C  C8  1  0.73362900  0.73362900  0.00000000  1
  C  C9  1  0.26637100  0.73362900  0.50000000  1
  C  C10  1  0.73362900  0.26637100  0.50000000  1
  C  C11  1  0.26637100  0.26637100  0.00000000  1
  C  C12  1  0.80984700  0.19015300  0.13936100  1
  C  C13  1  0.80984700  0.80984700  0.63936100  1
  C  C14  1  0.19015300  0.19015300  0.63936100  1
  C  C15  1  0.80984700  0.80984700  0.36063900  1
