# generated using pymatgen
data_CuNiC16
_symmetry_space_group_name_H-M   'P 1'
_cell_length_a   9.23191369
_cell_length_b   9.30619011
_cell_length_c   23.91897005
_cell_angle_alpha   90.23820538
_cell_angle_beta   90.00000000
_cell_angle_gamma   119.73632682
_symmetry_Int_Tables_number   1
_chemical_formula_structural   CuNiC16
_chemical_formula_sum   'Cu6 Ni6 C96'
_cell_volume   1784.34800804
_cell_formula_units_Z   6
loop_
 _symmetry_equiv_pos_site_id
 _symmetry_equiv_pos_as_xyz
  1  'x, y, z'
loop_
 _atom_site_type_symbol
 _atom_site_label
 _atom_site_symmetry_multiplicity
 _atom_site_fract_x
 _atom_site_fract_y
 _atom_site_fract_z
 _atom_site_occupancy
  C  C0  1  0.03389506  0.01177723  0.49974503  1
  C  C1  1  0.97788217  0.01177723  0.99974503  1
  C  C2  1  0.70329467  0.33492551  0.83162034  1
  C  C3  1  0.63163184  0.33492551  0.33162034  1
  C  C4  1  0.34312645  0.70537107  0.16539308  1
  C  C5  1  0.36224362  0.70537107  0.66539308  1
  Ni  Ni6  1  0.99844205  0.99832815  0.64626388  1
  Ni  Ni7  1  0.99988610  0.99832815  0.14626388  1
  Ni  Ni8  1  0.67779733  0.32312802  0.97927213  1
  Ni  Ni9  1  0.64533170  0.32312802  0.47927213  1
  Ni  Ni10  1  0.33679486  0.66897327  0.31279592  1
  Ni  Ni11  1  0.33217741  0.66897327  0.81279592  1
  Cu  Cu12  1  0.02280510  0.01324976  0.35219778  1
  Cu  Cu13  1  0.99044466  0.01324976  0.85219778  1
  Cu  Cu14  1  0.65604146  0.30697817  0.68475501  1
  Cu  Cu15  1  0.65093771  0.30697817  0.18475501  1
  Cu  Cu16  1  0.33096019  0.66434984  0.01805392  1
  Cu  Cu17  1  0.33338865  0.66434984  0.51805392  1
  C  C18  1  0.30324082  0.01058200  0.24869114  1
  C  C19  1  0.70734118  0.01058200  0.74869114  1
  C  C20  1  0.37139304  0.01996466  0.58263707  1
  C  C21  1  0.64857262  0.01996466  0.08263707  1
  C  C22  1  0.04928133  0.36793874  0.91554633  1
  C  C23  1  0.31865641  0.36793874  0.41554633  1
  C  C24  1  0.71754039  0.69312732  0.25125253  1
  C  C25  1  0.97794955  0.28386209  0.25152040  1
  C  C26  1  0.30591254  0.28386209  0.75152040  1
  C  C27  1  0.97558694  0.69312732  0.75125253  1
  C  C28  1  0.97042188  0.35543385  0.58341706  1
  C  C29  1  0.64593061  0.61786235  0.58419267  1
  C  C30  1  0.97193274  0.61786235  0.08419267  1
  C  C31  1  0.38501297  0.35543385  0.08341706  1
  C  C32  1  0.63919418  0.68685765  0.91837168  1
  C  C33  1  0.30890389  0.94975352  0.91889564  1
  C  C34  1  0.64084863  0.94975352  0.41889564  1
  C  C35  1  0.04766247  0.68685765  0.41837168  1
  C  C36  1  0.19986367  0.02808448  0.30488029  1
  C  C37  1  0.81812967  0.78601163  0.30157387  1
  C  C38  1  0.96197216  0.17753504  0.30117174  1
  C  C39  1  0.21556288  0.17753504  0.80117174  1
  C  C40  1  0.96788196  0.78601163  0.80157387  1
  C  C41  1  0.82822081  0.02808448  0.80488029  1
  C  C42  1  0.79491453  0.99328174  0.69362863  1
  C  C43  1  0.21101102  0.21206329  0.70008584  1
  C  C44  1  0.00048148  0.78925199  0.70001358  1
  C  C45  1  0.78877051  0.78925199  0.20001358  1
  C  C46  1  0.00105226  0.21206329  0.20008584  1
  C  C47  1  0.19836722  0.99328174  0.19362863  1
  C  C48  1  0.87884966  0.36921123  0.63386814  1
  C  C49  1  0.49419373  0.12841348  0.63839960  1
  C  C50  1  0.63211990  0.51676958  0.63417287  1
  C  C51  1  0.88465068  0.51676958  0.13417287  1
  C  C52  1  0.63422075  0.12841348  0.13839960  1
  C  C53  1  0.49036256  0.36921123  0.13386814  1
  C  C54  1  0.46001263  0.33580611  0.03229470  1
  C  C55  1  0.87444018  0.54838639  0.03291861  1
  C  C56  1  0.67319354  0.13060559  0.02854787  1
  C  C57  1  0.45741305  0.13060559  0.52854787  1
  C  C58  1  0.67394720  0.54838639  0.53291861  1
  C  C59  1  0.87579448  0.33580611  0.53229470  1
  C  C60  1  0.54898377  0.70631740  0.96789711  1
  C  C61  1  0.16619933  0.47286997  0.97132251  1
  C  C62  1  0.30167351  0.84524812  0.96833000  1
  C  C63  1  0.54357361  0.84524812  0.46833000  1
  C  C64  1  0.30666964  0.47286997  0.47132251  1
  C  C65  1  0.15733263  0.70631740  0.46789711  1
  C  C66  1  0.11933758  0.66544284  0.36667347  1
  C  C67  1  0.54181811  0.88434936  0.36762043  1
  C  C68  1  0.33033315  0.46760046  0.35991935  1
  C  C69  1  0.13726632  0.46760046  0.85991935  1
  C  C70  1  0.34253024  0.88434936  0.86762043  1
  C  C71  1  0.54610426  0.66544284  0.86667347  1
  C  C72  1  0.03615590  0.84322065  0.41363202  1
  C  C73  1  0.80096291  0.94798457  0.41406469  1
  C  C74  1  0.14393484  0.18036838  0.40987988  1
  C  C75  1  0.03643354  0.18036838  0.90987988  1
  C  C76  1  0.14702166  0.94798457  0.91406469  1
  C  C77  1  0.80706474  0.84322065  0.91363202  1
  C  C78  1  0.99926905  0.21392610  0.58886778  1
  C  C79  1  0.18352831  0.99037316  0.58620453  1
  C  C80  1  0.78377078  0.78990348  0.58871434  1
  C  C81  1  0.00613271  0.78990348  0.08871434  1
  C  C82  1  0.80684485  0.99037316  0.08620453  1
  C  C83  1  0.21465705  0.21392610  0.08886778  1
  C  C84  1  0.70231369  0.18854509  0.74294819  1
  C  C85  1  0.47339088  0.29357356  0.74656949  1
  C  C86  1  0.81720642  0.52984736  0.74648385  1
  C  C87  1  0.71264194  0.52984736  0.24648385  1
  C  C88  1  0.82018367  0.29357356  0.24656949  1
  C  C89  1  0.48623239  0.18854509  0.24294819  1
  C  C90  1  0.66526002  0.54507969  0.92565922  1
  C  C91  1  0.85981536  0.33658972  0.91569319  1
  C  C92  1  0.44497790  0.12196660  0.92550592  1
  C  C93  1  0.67698971  0.12196660  0.42550592  1
  C  C94  1  0.47677536  0.33658972  0.41569319  1
  C  C95  1  0.87982067  0.54507969  0.42565922  1
  C  C96  1  0.37527228  0.51219320  0.07963592  1
  C  C97  1  0.13823261  0.62353264  0.07825005  1
  C  C98  1  0.47333371  0.83984168  0.07553569  1
  C  C99  1  0.36650697  0.83984168  0.57553569  1
  C  C100  1  0.48529904  0.62353264  0.57825005  1
  C  C101  1  0.13691992  0.51219320  0.57963592  1
  C  C102  1  0.33824431  0.85733381  0.25212135  1
  C  C103  1  0.54470397  0.66293099  0.25499198  1
  C  C104  1  0.11867728  0.45307740  0.25730168  1
  C  C105  1  0.33439911  0.45307740  0.75730168  1
  C  C106  1  0.11822602  0.66293099  0.75499198  1
  C  C107  1  0.51908850  0.85733381  0.75212135  1
