# generated using pymatgen
data_Cu3Ni3C5
_symmetry_space_group_name_H-M   'P 1'
_cell_length_a   5.90351497
_cell_length_b   5.88047624
_cell_length_c   5.73823517
_cell_angle_alpha   75.77175572
_cell_angle_beta   58.29628909
_cell_angle_gamma   58.03125407
_symmetry_Int_Tables_number   1
_chemical_formula_structural   Cu3Ni3C5
_chemical_formula_sum   'Cu3 Ni3 C5'
_cell_volume   143.63030907
_cell_formula_units_Z   1
loop_
 _symmetry_equiv_pos_site_id
 _symmetry_equiv_pos_as_xyz
  1  'x, y, z'
loop_
 _atom_site_type_symbol
 _atom_site_label
 _atom_site_symmetry_multiplicity
 _atom_site_fract_x
 _atom_site_fract_y
 _atom_site_fract_z
 _atom_site_occupancy
  C  C0  1  0.81995774  0.81815009  0.57289019  1
  C  C1  1  0.40221990  0.40949968  0.74267653  1
  C  C2  1  0.16075153  0.21885084  0.34485217  1
  C  C3  1  0.65273329  0.58016445  0.14051904  1
  C  C4  1  0.02704960  0.00874237  0.95504885  1
  Ni  Ni5  1  0.40932361  0.76104846  0.94132664  1
  Ni  Ni6  1  0.02491558  0.33731427  0.77922970  1
  Ni  Ni7  1  0.76288587  0.21966850  0.31194484  1
  Cu  Cu8  1  0.63736859  0.07086124  0.95606498  1
  Cu  Cu9  1  0.27531123  0.79537992  0.51405423  1
  Cu  Cu10  1  0.93085007  0.65452118  0.17809383  1
