# generated using pymatgen
data_Cu2NiC16
_symmetry_space_group_name_H-M   'P 1'
_cell_length_a   8.98042359
_cell_length_b   8.98042329
_cell_length_c   23.02200879
_cell_angle_alpha   90.01833946
_cell_angle_beta   89.98166055
_cell_angle_gamma   119.78964059
_symmetry_Int_Tables_number   1
_chemical_formula_structural   Cu2NiC16
_chemical_formula_sum   'Cu12 Ni6 C96'
_cell_volume   1611.32866375
_cell_formula_units_Z   6
loop_
 _symmetry_equiv_pos_site_id
 _symmetry_equiv_pos_as_xyz
  1  'x, y, z'
loop_
 _atom_site_type_symbol
 _atom_site_label
 _atom_site_symmetry_multiplicity
 _atom_site_fract_x
 _atom_site_fract_y
 _atom_site_fract_z
 _atom_site_occupancy
  C  C0  1  0.00064586  0.63357127  0.25048759  1
  C  C1  1  0.36642873  0.99935414  0.75048759  1
  C  C2  1  0.66395658  0.96894486  0.58581745  1
  C  C3  1  0.03105514  0.33604342  0.08581745  1
  C  C4  1  0.97361868  0.66987266  0.91889525  1
  C  C5  1  0.33012734  0.02638132  0.41889525  1
  C  C6  1  0.00453794  0.99594090  0.50034887  1
  C  C7  1  0.00405910  0.99546206  0.00034887  1
  C  C8  1  0.66493740  0.32593648  0.83374738  1
  C  C9  1  0.67406352  0.33506260  0.33374738  1
  C  C10  1  0.34482594  0.67109217  0.16680623  1
  C  C11  1  0.32890783  0.65517406  0.66680623  1
  C  C12  1  0.99260249  0.00186124  0.35309793  1
  C  C13  1  0.99813876  0.00739751  0.85309793  1
  C  C14  1  0.00333741  0.99893265  0.64743853  1
  C  C15  1  0.00106735  0.99666259  0.14743853  1
  C  C16  1  0.66951928  0.33371604  0.68612211  1
  C  C17  1  0.66628396  0.33048072  0.18612211  1
  C  C18  1  0.65920112  0.32895099  0.98071745  1
  C  C19  1  0.67104901  0.34079888  0.48071745  1
  C  C20  1  0.33504014  0.67494591  0.01960609  1
  C  C21  1  0.32505409  0.66495986  0.51960609  1
  C  C22  1  0.33037840  0.65929035  0.31388771  1
  C  C23  1  0.34070965  0.66962160  0.81388771  1
  Ni  Ni24  1  0.00024167  0.29173145  0.24835056  1
  Ni  Ni25  1  0.70826855  0.99975833  0.74835056  1
  Ni  Ni26  1  0.37297830  0.04250456  0.58215650  1
  Ni  Ni27  1  0.95749544  0.62702170  0.08215650  1
  Ni  Ni28  1  0.33465737  0.96234152  0.91502976  1
  Ni  Ni29  1  0.03765848  0.66534263  0.41502976  1
  Cu  Cu30  1  0.29242888  0.00245135  0.25172971  1
  Cu  Cu31  1  0.70864776  0.71101670  0.24970115  1
  Cu  Cu32  1  0.28898330  0.29135224  0.74970115  1
  Cu  Cu33  1  0.99754865  0.70757112  0.75172971  1
  Cu  Cu34  1  0.95843856  0.33455990  0.58360763  1
  Cu  Cu35  1  0.66690776  0.62373938  0.58382850  1
  Cu  Cu36  1  0.66544010  0.04156144  0.08360763  1
  Cu  Cu37  1  0.37626062  0.33309224  0.08382850  1
  Cu  Cu38  1  0.62392182  0.66674315  0.91687177  1
  Cu  Cu39  1  0.04484052  0.37652331  0.91774879  1
  Cu  Cu40  1  0.62347669  0.95515948  0.41774879  1
  Cu  Cu41  1  0.33325685  0.37607818  0.41687177  1
  C  C42  1  0.20728510  0.02428380  0.30697139  1
  C  C43  1  0.82615060  0.79238401  0.30337852  1
  C  C44  1  0.97467940  0.17322401  0.30459852  1
  C  C45  1  0.20761599  0.17384940  0.80337852  1
  C  C46  1  0.97571620  0.79271490  0.80697139  1
  C  C47  1  0.82677599  0.02532060  0.80459852  1
  C  C48  1  0.79401182  0.97471009  0.68946079  1
  C  C49  1  0.17823229  0.20294550  0.69560183  1
  C  C50  1  0.03238829  0.82772049  0.69848125  1
  C  C51  1  0.79705450  0.82176771  0.19560183  1
  C  C52  1  0.02528991  0.20598818  0.18946079  1
  C  C53  1  0.17227951  0.96761171  0.19848125  1
  C  C54  1  0.87434126  0.36226277  0.63761894  1
  C  C55  1  0.49534751  0.13188882  0.63963881  1
  C  C56  1  0.64380876  0.51494504  0.63795019  1
  C  C57  1  0.86811118  0.50465249  0.13963881  1
  C  C58  1  0.63773723  0.12565874  0.13761894  1
  C  C59  1  0.48505496  0.35619124  0.13795019  1
  C  C60  1  0.46046110  0.30541002  0.02947313  1
  C  C61  1  0.84465689  0.53532119  0.02399497  1
  C  C62  1  0.69578519  0.15750036  0.03002178  1
  C  C63  1  0.46467881  0.15534311  0.52399497  1
  C  C64  1  0.69458998  0.53953890  0.52947313  1
  C  C65  1  0.84249964  0.30421481  0.53002178  1
  C  C66  1  0.53828235  0.69034376  0.97103272  1
  C  C67  1  0.15192248  0.45762386  0.97347846  1
  C  C68  1  0.30114673  0.83441122  0.97066969  1
  C  C69  1  0.54237614  0.84807752  0.47347846  1
  C  C70  1  0.30965624  0.46171765  0.47103272  1
  C  C71  1  0.16558878  0.69885327  0.47066969  1
  C  C72  1  0.12953682  0.64208774  0.35684609  1
  C  C73  1  0.50687392  0.86859240  0.36467501  1
  C  C74  1  0.36080229  0.48703192  0.36260567  1
  C  C75  1  0.13140760  0.49312608  0.86467501  1
  C  C76  1  0.35791226  0.87046318  0.85684609  1
  C  C77  1  0.51296808  0.63919771  0.86260567  1
  C  C78  1  0.03045618  0.84370978  0.41012862  1
  C  C79  1  0.80346147  0.97675613  0.41097250  1
  C  C80  1  0.17477813  0.19349607  0.41025234  1
  C  C81  1  0.02324387  0.19653853  0.91097250  1
  C  C82  1  0.15629022  0.96954382  0.91012862  1
  C  C83  1  0.80650393  0.82522187  0.91025234  1
  C  C84  1  0.96791986  0.16710340  0.58966671  1
  C  C85  1  0.18161172  0.01878958  0.58902419  1
  C  C86  1  0.82530329  0.80796445  0.58929269  1
  C  C87  1  0.98121042  0.81838828  0.08902419  1
  C  C88  1  0.83289660  0.03208014  0.08966671  1
  C  C89  1  0.19203555  0.17469671  0.08929269  1
  C  C90  1  0.67945134  0.16802205  0.74458396  1
  C  C91  1  0.46830168  0.30616374  0.74280403  1
  C  C92  1  0.83734602  0.53065243  0.74367377  1
  C  C93  1  0.69383626  0.53169832  0.24280403  1
  C  C94  1  0.83197795  0.32054866  0.24458396  1
  C  C95  1  0.46934757  0.16265398  0.24367377  1
  C  C96  1  0.65081351  0.50843930  0.92233164  1
  C  C97  1  0.86602874  0.36515318  0.92350261  1
  C  C98  1  0.50458484  0.15073939  0.92207294  1
  C  C99  1  0.63484682  0.13397126  0.42350261  1
  C  C100  1  0.49156070  0.34918649  0.42233164  1
  C  C101  1  0.84926061  0.49541516  0.42207294  1
  C  C102  1  0.35288936  0.49276983  0.07689360  1
  C  C103  1  0.14538035  0.63381349  0.07751257  1
  C  C104  1  0.50934939  0.86139451  0.07663611  1
  C  C105  1  0.36618651  0.85461965  0.57751257  1
  C  C106  1  0.50723017  0.64711064  0.57689360  1
  C  C107  1  0.13860549  0.49065061  0.57663611  1
  C  C108  1  0.30864334  0.83842607  0.25695691  1
  C  C109  1  0.53120786  0.69412227  0.25676479  1
  C  C110  1  0.16849416  0.48722838  0.25443530  1
  C  C111  1  0.30587773  0.46879214  0.75676479  1
  C  C112  1  0.16157393  0.69135666  0.75695691  1
  C  C113  1  0.51277162  0.83150584  0.75443530  1
