# generated using pymatgen
data_Cu(NiC4)2
_symmetry_space_group_name_H-M   'P 1'
_cell_length_a   7.26098154
_cell_length_b   6.33501162
_cell_length_c   6.33501135
_cell_angle_alpha   59.95496912
_cell_angle_beta   63.74051235
_cell_angle_gamma   63.74051444
_symmetry_Int_Tables_number   1
_chemical_formula_structural   Cu(NiC4)2
_chemical_formula_sum   'Cu1 Ni2 C8'
_cell_volume   216.86040643
_cell_formula_units_Z   1
loop_
 _symmetry_equiv_pos_site_id
 _symmetry_equiv_pos_as_xyz
  1  'x, y, z'
loop_
 _atom_site_type_symbol
 _atom_site_label
 _atom_site_symmetry_multiplicity
 _atom_site_fract_x
 _atom_site_fract_y
 _atom_site_fract_z
 _atom_site_occupancy
  Ni  Ni0  1  0.83538745  0.72205192  0.72205192  1
  Ni  Ni1  1  0.04573818  0.31943595  0.31943595  1
  Cu  Cu2  1  0.08325340  0.97233544  0.97233544  1
  C  C3  1  0.65096862  0.11966200  0.11966200  1
  C  C4  1  0.41174140  0.52883399  0.52883399  1
  C  C5  1  0.22044918  0.74084092  0.74084092  1
  C  C6  1  0.23279374  0.73635009  0.28502548  1
  C  C7  1  0.80622022  0.21961795  0.76475464  1
  C  C8  1  0.23279374  0.28502548  0.73635009  1
  C  C9  1  0.80985084  0.21609163  0.21609163  1
  C  C10  1  0.80622022  0.76475464  0.21961795  1
