# generated using pymatgen
data_CuNiC30
_symmetry_space_group_name_H-M   'P 1'
_cell_length_a   10.16173100
_cell_length_b   10.16173100
_cell_length_c   10.16173100
_cell_angle_alpha   90.00000000
_cell_angle_beta   90.00000000
_cell_angle_gamma   90.00000000
_symmetry_Int_Tables_number   1
_chemical_formula_structural   CuNiC30
_chemical_formula_sum   'Cu4 Ni4 C120'
_cell_volume   1049.30823788
_cell_formula_units_Z   4
loop_
 _symmetry_equiv_pos_site_id
 _symmetry_equiv_pos_as_xyz
  1  'x, y, z'
loop_
 _atom_site_type_symbol
 _atom_site_label
 _atom_site_symmetry_multiplicity
 _atom_site_fract_x
 _atom_site_fract_y
 _atom_site_fract_z
 _atom_site_occupancy
  Ni  Ni0  1  0.00000000  0.00000000  0.00000000  1
  Ni  Ni1  1  0.50000000  0.00000000  0.50000000  1
  Ni  Ni2  1  0.50000000  0.50000000  0.00000000  1
  Ni  Ni3  1  0.00000000  0.50000000  0.50000000  1
  Cu  Cu4  1  0.50000000  0.50000000  0.50000000  1
  Cu  Cu5  1  0.00000000  0.50000000  0.00000000  1
  Cu  Cu6  1  0.00000000  0.00000000  0.50000000  1
  Cu  Cu7  1  0.50000000  0.00000000  0.00000000  1
  C  C8  1  0.73729900  0.04634100  0.10119300  1
  C  C9  1  0.23729900  0.45365900  0.89880700  1
  C  C10  1  0.26270100  0.54634100  0.39880700  1
  C  C11  1  0.45365900  0.89880700  0.23729900  1
  C  C12  1  0.39880700  0.26270100  0.54634100  1
  C  C13  1  0.89880700  0.23729900  0.45365900  1
  C  C14  1  0.04634100  0.10119300  0.73729900  1
  C  C15  1  0.10119300  0.73729900  0.04634100  1
  C  C16  1  0.54634100  0.39880700  0.26270100  1
  C  C17  1  0.95365900  0.60119300  0.76270100  1
  C  C18  1  0.60119300  0.76270100  0.95365900  1
  C  C19  1  0.76270100  0.95365900  0.60119300  1
  C  C20  1  0.26270100  0.95365900  0.89880700  1
  C  C21  1  0.76270100  0.54634100  0.10119300  1
  C  C22  1  0.73729900  0.45365900  0.60119300  1
  C  C23  1  0.54634100  0.10119300  0.76270100  1
  C  C24  1  0.60119300  0.73729900  0.45365900  1
  C  C25  1  0.10119300  0.76270100  0.54634100  1
  C  C26  1  0.95365900  0.89880700  0.26270100  1
  C  C27  1  0.89880700  0.26270100  0.95365900  1
  C  C28  1  0.45365900  0.60119300  0.73729900  1
  C  C29  1  0.04634100  0.39880700  0.23729900  1
  C  C30  1  0.39880700  0.23729900  0.04634100  1
  C  C31  1  0.23729900  0.04634100  0.39880700  1
  C  C32  1  0.63275800  0.03812200  0.22519600  1
  C  C33  1  0.13275800  0.46187800  0.77480400  1
  C  C34  1  0.36724200  0.53812200  0.27480400  1
  C  C35  1  0.46187800  0.77480400  0.13275800  1
  C  C36  1  0.27480400  0.36724200  0.53812200  1
  C  C37  1  0.77480400  0.13275800  0.46187800  1
  C  C38  1  0.03812200  0.22519600  0.63275800  1
  C  C39  1  0.67323900  0.36923400  0.35900400  1
  C  C40  1  0.22519600  0.63275800  0.03812200  1
  C  C41  1  0.96187800  0.72519600  0.86724200  1
  C  C42  1  0.72519600  0.86724200  0.96187800  1
  C  C43  1  0.86724200  0.96187800  0.72519600  1
  C  C44  1  0.36724200  0.96187800  0.77480400  1
  C  C45  1  0.86724200  0.53812200  0.22519600  1
  C  C46  1  0.63275800  0.46187800  0.72519600  1
  C  C47  1  0.53812200  0.22519600  0.86724200  1
  C  C48  1  0.72519600  0.63275800  0.46187800  1
  C  C49  1  0.22519600  0.86724200  0.53812200  1
  C  C50  1  0.96187800  0.77480400  0.36724200  1
  C  C51  1  0.77480400  0.36724200  0.96187800  1
  C  C52  1  0.46187800  0.72519600  0.63275800  1
  C  C53  1  0.03812200  0.27480400  0.13275800  1
  C  C54  1  0.27480400  0.13275800  0.03812200  1
  C  C55  1  0.13275800  0.03812200  0.27480400  1
  C  C56  1  0.64099600  0.17323900  0.13076600  1
  C  C57  1  0.14099600  0.32676100  0.86923400  1
  C  C58  1  0.35900400  0.67323900  0.36923400  1
  C  C59  1  0.32676100  0.86923400  0.14099600  1
  C  C60  1  0.36923400  0.35900400  0.67323900  1
  C  C61  1  0.86923400  0.14099600  0.32676100  1
  C  C62  1  0.17323900  0.13076600  0.64099600  1
  C  C63  1  0.13076600  0.64099600  0.17323900  1
  C  C64  1  0.14099600  0.17323900  0.36923400  1
  C  C65  1  0.36923400  0.14099600  0.17323900  1
  C  C66  1  0.17323900  0.36923400  0.14099600  1
  C  C67  1  0.32676100  0.63076600  0.64099600  1
  C  C68  1  0.86923400  0.35900400  0.82676100  1
  C  C69  1  0.82676100  0.86923400  0.35900400  1
  C  C70  1  0.13076600  0.85900400  0.67323900  1
  C  C71  1  0.63076600  0.64099600  0.32676100  1
  C  C72  1  0.67323900  0.13076600  0.85900400  1
  C  C73  1  0.64099600  0.32676100  0.63076600  1
  C  C74  1  0.85900400  0.67323900  0.13076600  1
  C  C75  1  0.35900400  0.82676100  0.86923400  1
  C  C76  1  0.85900400  0.82676100  0.63076600  1
  C  C77  1  0.63076600  0.85900400  0.82676100  1
  C  C78  1  0.82676100  0.63076600  0.85900400  1
  C  C79  1  0.53812200  0.27480400  0.36724200  1
  C  C80  1  0.86981300  0.14400000  0.42809900  1
  C  C81  1  0.36981300  0.35600000  0.57190100  1
  C  C82  1  0.13018700  0.64400000  0.07190100  1
  C  C83  1  0.35600000  0.57190100  0.36981300  1
  C  C84  1  0.07190100  0.13018700  0.64400000  1
  C  C85  1  0.57190100  0.36981300  0.35600000  1
  C  C86  1  0.14400000  0.42809900  0.86981300  1
  C  C87  1  0.42809900  0.86981300  0.14400000  1
  C  C88  1  0.64400000  0.07190100  0.13018700  1
  C  C89  1  0.85600000  0.92809900  0.63018700  1
  C  C90  1  0.92809900  0.63018700  0.85600000  1
  C  C91  1  0.63018700  0.85600000  0.92809900  1
  C  C92  1  0.13018700  0.85600000  0.57190100  1
  C  C93  1  0.63018700  0.64400000  0.42809900  1
  C  C94  1  0.86981300  0.35600000  0.92809900  1
  C  C95  1  0.64400000  0.42809900  0.63018700  1
  C  C96  1  0.92809900  0.86981300  0.35600000  1
  C  C97  1  0.42809900  0.63018700  0.64400000  1
  C  C98  1  0.85600000  0.57190100  0.13018700  1
  C  C99  1  0.57190100  0.13018700  0.85600000  1
  C  C100  1  0.35600000  0.92809900  0.86981300  1
  C  C101  1  0.14400000  0.07190100  0.36981300  1
  C  C102  1  0.07190100  0.36981300  0.14400000  1
  C  C103  1  0.36981300  0.14400000  0.07190100  1
  C  C104  1  0.61865500  0.14122800  0.56305200  1
  C  C105  1  0.11865500  0.35877200  0.43694800  1
  C  C106  1  0.38134500  0.64122800  0.93694800  1
  C  C107  1  0.35877200  0.43694800  0.11865500  1
  C  C108  1  0.11865500  0.14122800  0.93694800  1
  C  C109  1  0.43694800  0.11865500  0.35877200  1
  C  C110  1  0.14122800  0.56305200  0.61865500  1
  C  C111  1  0.56305200  0.61865500  0.14122800  1
  C  C112  1  0.64122800  0.93694800  0.38134500  1
  C  C113  1  0.85877200  0.06305200  0.88134500  1
  C  C114  1  0.06305200  0.88134500  0.85877200  1
  C  C115  1  0.88134500  0.85877200  0.06305200  1
  C  C116  1  0.38134500  0.85877200  0.43694800  1
  C  C117  1  0.88134500  0.64122800  0.56305200  1
  C  C118  1  0.61865500  0.35877200  0.06305200  1
  C  C119  1  0.64122800  0.56305200  0.88134500  1
  C  C120  1  0.06305200  0.61865500  0.35877200  1
  C  C121  1  0.56305200  0.88134500  0.64122800  1
  C  C122  1  0.85877200  0.43694800  0.38134500  1
  C  C123  1  0.43694800  0.38134500  0.85877200  1
  C  C124  1  0.35877200  0.06305200  0.61865500  1
  C  C125  1  0.14122800  0.93694800  0.11865500  1
  C  C126  1  0.93694800  0.11865500  0.14122800  1
  C  C127  1  0.93694800  0.38134500  0.64122800  1
