# generated using pymatgen
data_Cu5NiC2
_symmetry_space_group_name_H-M   'P 1'
_cell_length_a   10.07392986
_cell_length_b   10.07392986
_cell_length_c   10.07392986
_cell_angle_alpha   127.38042207
_cell_angle_beta   127.38042207
_cell_angle_gamma   77.63089198
_symmetry_Int_Tables_number   1
_chemical_formula_structural   Cu5NiC2
_chemical_formula_sum   'Cu10 Ni2 C4'
_cell_volume   625.94424925
_cell_formula_units_Z   2
loop_
 _symmetry_equiv_pos_site_id
 _symmetry_equiv_pos_as_xyz
  1  'x, y, z'
loop_
 _atom_site_type_symbol
 _atom_site_label
 _atom_site_symmetry_multiplicity
 _atom_site_fract_x
 _atom_site_fract_y
 _atom_site_fract_z
 _atom_site_occupancy
  C  C0  1  0.24603300  0.24603300  0.00000000  1
  C  C1  1  0.74603300  0.74603300  0.00000000  1
  C  C2  1  0.99567400  0.99567400  0.00000000  1
  C  C3  1  0.49567400  0.49567400  0.00000000  1
  Ni  Ni4  1  0.24707000  0.74707000  0.50000000  1
  Ni  Ni5  1  0.74707000  0.24707000  0.50000000  1
  Cu  Cu6  1  0.96053600  0.46053600  0.15374000  1
  Cu  Cu7  1  0.46053600  0.30679600  0.50000000  1
  Cu  Cu8  1  0.80679600  0.96053600  0.50000000  1
  Cu  Cu9  1  0.30679600  0.80679600  0.84626000  1
  Cu  Cu10  1  0.68654200  0.18654200  0.15305400  1
  Cu  Cu11  1  0.18654200  0.03348800  0.50000000  1
  Cu  Cu12  1  0.53348800  0.68654200  0.50000000  1
  Cu  Cu13  1  0.03348800  0.53348800  0.84694600  1
  Cu  Cu14  1  0.99696100  0.49696100  0.50000000  1
  Cu  Cu15  1  0.49696100  0.99696100  0.50000000  1
