# generated using pymatgen
data_Cu2Ni2C7
_symmetry_space_group_name_H-M   'P 1'
_cell_length_a   10.97531900
_cell_length_b   10.97531900
_cell_length_c   10.52050500
_cell_angle_alpha   90.00000000
_cell_angle_beta   90.00000000
_cell_angle_gamma   90.00000000
_symmetry_Int_Tables_number   1
_chemical_formula_structural   Cu2Ni2C7
_chemical_formula_sum   'Cu8 Ni8 C28'
_cell_volume   1267.27506874
_cell_formula_units_Z   4
loop_
 _symmetry_equiv_pos_site_id
 _symmetry_equiv_pos_as_xyz
  1  'x, y, z'
loop_
 _atom_site_type_symbol
 _atom_site_label
 _atom_site_symmetry_multiplicity
 _atom_site_fract_x
 _atom_site_fract_y
 _atom_site_fract_z
 _atom_site_occupancy
  Ni  Ni0  1  0.26705400  0.39042900  0.34959000  1
  Ni  Ni1  1  0.89042900  0.23294600  0.34959000  1
  Ni  Ni2  1  0.10957100  0.76705400  0.34959000  1
  Ni  Ni3  1  0.73294600  0.60957100  0.34959000  1
  Ni  Ni4  1  0.23294600  0.10957100  0.65041000  1
  Ni  Ni5  1  0.60957100  0.26705400  0.65041000  1
  Ni  Ni6  1  0.39042900  0.73294600  0.65041000  1
  Ni  Ni7  1  0.76705400  0.89042900  0.65041000  1
  Cu  Cu8  1  0.12826000  0.42068200  0.89226800  1
  Cu  Cu9  1  0.92068200  0.37174000  0.89226800  1
  Cu  Cu10  1  0.07931800  0.62826000  0.89226800  1
  Cu  Cu11  1  0.87174000  0.57931800  0.89226800  1
  Cu  Cu12  1  0.37174000  0.07931800  0.10773200  1
  Cu  Cu13  1  0.57931800  0.12826000  0.10773200  1
  Cu  Cu14  1  0.42068200  0.87174000  0.10773200  1
  Cu  Cu15  1  0.62826000  0.92068200  0.10773200  1
  C  C16  1  0.00000000  0.50000000  0.32809700  1
  C  C17  1  0.50000000  0.00000000  0.67190300  1
  C  C18  1  0.50000000  0.50000000  0.50000000  1
  C  C19  1  0.00000000  0.00000000  0.50000000  1
  C  C20  1  0.38770500  0.19825000  0.44020100  1
  C  C21  1  0.69825000  0.11229500  0.44020100  1
  C  C22  1  0.30175000  0.88770500  0.44020100  1
  C  C23  1  0.61229500  0.80175000  0.44020100  1
  C  C24  1  0.11229500  0.30175000  0.55979900  1
  C  C25  1  0.80175000  0.38770500  0.55979900  1
  C  C26  1  0.19825000  0.61229500  0.55979900  1
  C  C27  1  0.88770500  0.69825000  0.55979900  1
  C  C28  1  0.12830800  0.23302300  0.22661500  1
  C  C29  1  0.73302300  0.37169200  0.22661500  1
  C  C30  1  0.26697700  0.62830800  0.22661500  1
  C  C31  1  0.87169200  0.76697700  0.22661500  1
  C  C32  1  0.90031300  0.85447800  0.85450800  1
  C  C33  1  0.35447800  0.59968700  0.85450800  1
  C  C34  1  0.64552200  0.40031300  0.85450800  1
  C  C35  1  0.09968700  0.14552200  0.85450800  1
  C  C36  1  0.59968700  0.64552200  0.14549200  1
  C  C37  1  0.14552200  0.90031300  0.14549200  1
  C  C38  1  0.85447800  0.09968700  0.14549200  1
  C  C39  1  0.40031300  0.35447800  0.14549200  1
  C  C40  1  0.62830800  0.73302300  0.77338500  1
  C  C41  1  0.23302300  0.87169200  0.77338500  1
  C  C42  1  0.76697700  0.12830800  0.77338500  1
  C  C43  1  0.37169200  0.26697700  0.77338500  1
