# generated using pymatgen
data_Cu3Ni7C31
_symmetry_space_group_name_H-M   'P 1'
_cell_length_a   9.07254980
_cell_length_b   9.07481548
_cell_length_c   22.39972679
_cell_angle_alpha   90.02371311
_cell_angle_beta   90.01680081
_cell_angle_gamma   120.04612874
_symmetry_Int_Tables_number   1
_chemical_formula_structural   Cu3Ni7C31
_chemical_formula_sum   'Cu9 Ni21 C93'
_cell_volume   1596.38761282
_cell_formula_units_Z   3
loop_
 _symmetry_equiv_pos_site_id
 _symmetry_equiv_pos_as_xyz
  1  'x, y, z'
loop_
 _atom_site_type_symbol
 _atom_site_label
 _atom_site_symmetry_multiplicity
 _atom_site_fract_x
 _atom_site_fract_y
 _atom_site_fract_z
 _atom_site_occupancy
  Ni  Ni0  1  0.63717533  0.00832693  0.24592031  1
  Ni  Ni1  1  0.37086869  0.36172084  0.24619671  1
  Ni  Ni2  1  0.99071494  0.62931974  0.24546032  1
  Ni  Ni3  1  0.63611024  0.62784917  0.74643429  1
  Ni  Ni4  1  0.99153520  0.36372100  0.74740252  1
  Ni  Ni5  1  0.37383378  0.00837838  0.74683238  1
  Ni  Ni6  1  0.02891929  0.69665796  0.58433403  1
  Ni  Ni7  1  0.66460991  0.96965263  0.58412037  1
  Ni  Ni8  1  0.30607203  0.97071843  0.08432704  1
  Ni  Ni9  1  0.66737877  0.69536267  0.08465078  1
  Ni  Ni10  1  0.69688897  0.03158943  0.91892878  1
  Ni  Ni11  1  0.33211580  0.30127027  0.91837266  1
  Ni  Ni12  1  0.96837253  0.29381816  0.41305860  1
  Ni  Ni13  1  0.32512404  0.03119479  0.41337768  1
  Ni  Ni14  1  0.70764764  0.67569928  0.41300151  1
  Ni  Ni15  1  0.00997992  0.01057216  0.49810501  1
  Ni  Ni16  1  0.00003695  0.99968706  0.00140498  1
  Ni  Ni17  1  0.67714815  0.34447315  0.83250083  1
  Ni  Ni18  1  0.66678570  0.33341465  0.32799874  1
  Ni  Ni19  1  0.32142219  0.65405066  0.16429647  1
  Ni  Ni20  1  0.33275356  0.65448768  0.66446626  1
  Cu  Cu21  1  0.99935936  0.99357752  0.85192071  1
  Cu  Cu22  1  0.00579943  0.00625967  0.64805516  1
  Cu  Cu23  1  0.00058171  0.00672691  0.14943847  1
  Cu  Cu24  1  0.67595342  0.34003591  0.98347957  1
  Cu  Cu25  1  0.66319327  0.33318081  0.48390521  1
  Cu  Cu26  1  0.32470644  0.66084395  0.01763119  1
  Cu  Cu27  1  0.33285155  0.66071959  0.51821342  1
  Cu  Cu28  1  0.33355951  0.66694539  0.31591569  1
  Cu  Cu29  1  0.32987760  0.66632091  0.81644226  1
  C  C30  1  0.00053994  0.00024379  0.34496439  1
  C  C31  1  0.66368996  0.33358031  0.67864790  1
  C  C32  1  0.67028176  0.33393997  0.17825196  1
  C  C33  1  0.29647405  0.00101290  0.25105667  1
  C  C34  1  0.70427045  0.70356252  0.25131428  1
  C  C35  1  0.99885414  0.29563925  0.25278323  1
  C  C36  1  0.29574785  0.29538871  0.75151630  1
  C  C37  1  -0.00038160  0.70410943  0.74853139  1
  C  C38  1  0.70488167  0.00028989  0.75009312  1
  C  C39  1  0.96136635  0.33418876  0.58450483  1
  C  C40  1  0.37040592  0.03642283  0.58403430  1
  C  C41  1  0.66588349  0.62961666  0.58516098  1
  C  C42  1  0.96341549  0.62966543  0.08632961  1
  C  C43  1  0.66608133  0.03660998  0.08357786  1
  C  C44  1  0.37305530  0.33414515  0.08386886  1
  C  C45  1  0.62756617  0.66637091  0.91688955  1
  C  C46  1  0.03690290  0.37023424  0.91470193  1
  C  C47  1  0.33333402  0.96348888  0.91720226  1
  C  C48  1  0.62959521  0.96307349  0.41738097  1
  C  C49  1  0.33310847  0.37045559  0.41568091  1
  C  C50  1  0.03738864  0.66668544  0.41744316  1
  C  C51  1  0.21684087  0.02770609  0.30818905  1
  C  C52  1  0.81094515  0.78378774  0.30842197  1
  C  C53  1  0.97142084  0.19266086  0.31082239  1
  C  C54  1  0.21178441  0.18923388  0.80854858  1
  C  C55  1  0.97701541  0.79751712  0.80241984  1
  C  C56  1  0.81535957  0.02201749  0.80595962  1
  C  C57  1  0.78953721  0.97329929  0.69397219  1
  C  C58  1  0.17811777  0.20557680  0.69742097  1
  C  C59  1  0.02715813  0.81178320  0.69144188  1
  C  C60  1  0.79186257  0.81724319  0.19597115  1
  C  C61  1  0.02688979  0.20388615  0.19947355  1
  C  C62  1  0.18284350  0.97476665  0.19564169  1
  C  C63  1  0.88260329  0.36342889  0.64093795  1
  C  C64  1  0.47827603  0.11343716  0.64056489  1
  C  C65  1  0.64355522  0.52861156  0.64243003  1
  C  C66  1  0.88945943  0.53233191  0.14457107  1
  C  C67  1  0.63543429  0.11403708  0.14002114  1
  C  C68  1  0.48175283  0.36381776  0.14026070  1
  C  C69  1  0.46040449  0.30834394  0.02806275  1
  C  C70  1  0.84447439  0.53877790  0.03262930  1
  C  C71  1  0.68616065  0.14377435  0.02705500  1
  C  C72  1  0.45771354  0.14362062  0.52760175  1
  C  C73  1  0.69202691  0.54326304  0.52934921  1
  C  C74  1  0.84804391  0.30864183  0.52881625  1
  C  C75  1  0.54078243  0.69137048  0.97227698  1
  C  C76  1  0.15388799  0.46000157  0.96823588  1
  C  C77  1  0.31496407  0.85758210  0.97318538  1
  C  C78  1  0.54027038  0.85285653  0.47299624  1
  C  C79  1  0.30989076  0.46329066  0.46940774  1
  C  C80  1  0.14760639  0.68872751  0.47322781  1
  C  C81  1  0.12258149  0.64014885  0.36152456  1
  C  C82  1  0.51822728  0.87769729  0.36132677  1
  C  C83  1  0.36096740  0.47789493  0.35856778  1
  C  C84  1  0.11650340  0.47193377  0.85669199  1
  C  C85  1  0.35872497  0.87848706  0.86092288  1
  C  C86  1  0.51585786  0.64058774  0.86075683  1
  C  C87  1  0.01842796  0.82646324  0.41324313  1
  C  C88  1  0.80842270  0.98197943  0.41359727  1
  C  C89  1  0.17448119  0.19083555  0.41235125  1
  C  C90  1  0.01834696  0.18945618  0.91186653  1
  C  C91  1  0.17797673  0.99072488  0.91267826  1
  C  C92  1  0.80439422  0.82972163  0.91162345  1
  C  C93  1  0.97392553  0.16980864  0.58862897  1
  C  C94  1  0.18783289  0.01026571  0.58783199  1
  C  C95  1  0.83038871  0.81039480  0.58771310  1
  C  C96  1  0.98005573  0.81021242  0.08877830  1
  C  C97  1  0.82200579  0.00952635  0.08796527  1
  C  C98  1  0.19611356  0.16947695  0.08854746  1
  C  C99  1  0.68537470  0.15957213  0.74603557  1
  C  C100  1  0.47418278  0.31446996  0.74628573  1
  C  C101  1  0.84090586  0.52498876  0.74540783  1
  C  C102  1  0.68069354  0.52322505  0.24540054  1
  C  C103  1  0.84128908  0.31718986  0.24533705  1
  C  C104  1  0.47692490  0.15792971  0.24484307  1
  C  C105  1  0.64116575  0.50361214  0.92238785  1
  C  C106  1  0.85553759  0.34365352  0.92139266  1
  C  C107  1  0.49710509  0.14274465  0.92123137  1
  C  C108  1  0.64550308  0.14219311  0.42200450  1
  C  C109  1  0.49602508  0.35467339  0.42201563  1
  C  C110  1  0.85786111  0.50385416  0.42239803  1
  C  C111  1  0.35551358  0.49497645  0.07652247  1
  C  C112  1  0.14672063  0.66009981  0.07829951  1
  C  C113  1  0.50415815  0.85458938  0.07780098  1
  C  C114  1  0.35018643  0.85473762  0.57838579  1
  C  C115  1  0.51298272  0.66063201  0.57853762  1
  C  C116  1  0.13979074  0.49497313  0.57742831  1
  C  C117  1  0.31159170  0.83626955  0.25495931  1
  C  C118  1  0.52429163  0.68864584  0.25495385  1
  C  C119  1  0.16275356  0.47616927  0.25570143  1
  C  C120  1  0.31352424  0.47555995  0.75520379  1
  C  C121  1  0.16321024  0.68870904  0.75447396  1
  C  C122  1  0.52518681  0.83688985  0.75500496  1
