# generated using pymatgen
data_Cu2NiC18
_symmetry_space_group_name_H-M   'P 1'
_cell_length_a   9.02279081
_cell_length_b   9.01316128
_cell_length_c   22.17776769
_cell_angle_alpha   90.00271183
_cell_angle_beta   89.82173228
_cell_angle_gamma   120.01605493
_symmetry_Int_Tables_number   1
_chemical_formula_structural   Cu2NiC18
_chemical_formula_sum   'Cu12 Ni6 C108'
_cell_volume   1561.68503184
_cell_formula_units_Z   6
loop_
 _symmetry_equiv_pos_site_id
 _symmetry_equiv_pos_as_xyz
  1  'x, y, z'
loop_
 _atom_site_type_symbol
 _atom_site_label
 _atom_site_symmetry_multiplicity
 _atom_site_fract_x
 _atom_site_fract_y
 _atom_site_fract_z
 _atom_site_occupancy
  C  C0  1  0.63527326  0.00135637  0.25183216  1
  C  C1  1  0.36407716  0.36688125  0.24975802  1
  C  C2  1  0.00180839  0.62838590  0.25063285  1
  C  C3  1  0.63506910  0.63671499  0.74796401  1
  C  C4  1  0.99630732  0.36241629  0.75024209  1
  C  C5  1  0.37265101  0.00218680  0.74894628  1
  C  C6  1  0.29927425  0.32980497  0.58272051  1
  C  C7  1  0.03747522  0.70566263  0.58254621  1
  C  C8  1  0.66529437  0.96618107  0.58609245  1
  C  C9  1  0.29725691  0.96524259  0.08280698  1
  C  C10  1  0.67113707  0.69855480  0.08325928  1
  C  C11  1  0.03178905  0.33508562  0.08662134  1
  C  C12  1  0.97230541  0.67086893  0.91902783  1
  C  C13  1  0.69444819  0.03193118  0.91418503  1
  C  C14  1  0.33331333  0.29727921  0.91673842  1
  C  C15  1  0.96620477  0.30192898  0.41422895  1
  C  C16  1  0.33062096  0.03098463  0.41864282  1
  C  C17  1  0.70200293  0.66666946  0.41664571  1
  C  C18  1  0.00296063  0.99813664  0.49977163  1
  C  C19  1  0.00272434  0.99680647  0.00112638  1
  C  C20  1  0.66420662  0.32685591  0.83226800  1
  C  C21  1  0.67169609  0.33434190  0.33479589  1
  C  C22  1  0.32745073  0.66285076  0.16794121  1
  C  C23  1  0.33767655  0.67292279  0.66628383  1
  C  C24  1  0.99888129  0.00051749  0.84914567  1
  C  C25  1  0.67524372  0.33576927  0.18587311  1
  C  C26  1  0.66840506  0.33614294  0.98430014  1
  C  C27  1  0.32778042  0.66956395  0.01780893  1
  C  C28  1  0.32946925  0.67335188  0.51709233  1
  C  C29  1  0.33989487  0.67640682  0.81444291  1
  C  C30  1  0.99892692  0.99731921  0.34949873  1
  C  C31  1  0.00236143  0.99935852  0.64974715  1
  C  C32  1  0.00172229  0.99990225  0.15179229  1
  C  C33  1  0.66491778  0.32385822  0.68252896  1
  C  C34  1  0.66676537  0.33520304  0.48434884  1
  C  C35  1  0.31999413  0.65595604  0.31753312  1
  Ni  Ni36  1  0.00449366  0.28830936  0.25162288  1
  Ni  Ni37  1  0.71071796  0.00534575  0.74642675  1
  Ni  Ni38  1  0.37466252  0.04648342  0.58399428  1
  Ni  Ni39  1  0.96440016  0.63738326  0.08516321  1
  Ni  Ni40  1  0.33350946  0.96671075  0.91652585  1
  Ni  Ni41  1  0.03327217  0.66671447  0.41551441  1
  Cu  Cu42  1  0.28828806  0.99663082  0.25117272  1
  Cu  Cu43  1  0.70677326  0.71240984  0.25136486  1
  Cu  Cu44  1  0.29547151  0.29254946  0.74744604  1
  Cu  Cu45  1  0.99453276  0.70299337  0.74723803  1
  Cu  Cu46  1  0.95442034  0.33033929  0.58376766  1
  Cu  Cu47  1  0.66960604  0.62201730  0.58454205  1
  Cu  Cu48  1  0.67064858  0.03723623  0.08462153  1
  Cu  Cu49  1  0.36855406  0.33001075  0.08503830  1
  Cu  Cu50  1  0.62730856  0.66591351  0.91678175  1
  Cu  Cu51  1  0.03958691  0.37201513  0.91630460  1
  Cu  Cu52  1  0.62660931  0.95903039  0.41475256  1
  Cu  Cu53  1  0.33392594  0.37290539  0.41575551  1
  C  C54  1  0.20661600  0.02956077  0.30748873  1
  C  C55  1  0.82330533  0.79056877  0.30730209  1
  C  C56  1  0.96757389  0.16566790  0.31069974  1
  C  C57  1  0.21741412  0.18096344  0.80433424  1
  C  C58  1  0.96462627  0.78245977  0.80440277  1
  C  C59  1  0.82468973  0.03929077  0.80728696  1
  C  C60  1  0.80115164  0.96768905  0.68850583  1
  C  C61  1  0.17913039  0.20863290  0.69170779  1
  C  C62  1  0.03288948  0.82212469  0.69167893  1
  C  C63  1  0.78771122  0.82400594  0.19414583  1
  C  C64  1  0.03849283  0.20399396  0.19099675  1
  C  C65  1  0.17573578  0.96222420  0.19427286  1
  C  C66  1  0.87671521  0.36869462  0.64012302  1
  C  C67  1  0.49575077  0.12925397  0.64312091  1
  C  C68  1  0.63919944  0.50841423  0.64107547  1
  C  C69  1  0.87609451  0.51188884  0.14316280  1
  C  C70  1  0.63437811  0.11782742  0.14013728  1
  C  C71  1  0.48192806  0.35956835  0.14072520  1
  C  C72  1  0.44970897  0.29893295  0.02809981  1
  C  C73  1  0.84533904  0.55441750  0.02522713  1
  C  C74  1  0.70048377  0.14963319  0.02802010  1
  C  C75  1  0.46000616  0.16729367  0.52366449  1
  C  C76  1  0.70243617  0.54304748  0.52714742  1
  C  C77  1  0.84166684  0.29887573  0.52700027  1
  C  C78  1  0.54556176  0.69444196  0.97307283  1
  C  C79  1  0.15112668  0.45227712  0.97254216  1
  C  C80  1  0.29948368  0.84576382  0.97560482  1
  C  C81  1  0.54755300  0.84644109  0.47173899  1
  C  C82  1  0.30220995  0.45373934  0.47229779  1
  C  C83  1  0.15483654  0.70669338  0.47480919  1
  C  C84  1  0.11956137  0.62637782  0.35694817  1
  C  C85  1  0.50982095  0.87396482  0.35892209  1
  C  C86  1  0.36969221  0.49045860  0.35948937  1
  C  C87  1  0.12220003  0.48322774  0.85969902  1
  C  C88  1  0.36724158  0.87889922  0.85722127  1
  C  C89  1  0.51483637  0.63452689  0.86028198  1
  C  C90  1  0.01568142  0.84056865  0.40825978  1
  C  C91  1  0.80776528  0.97817981  0.40996035  1
  C  C92  1  0.17106294  0.19240649  0.40984002  1
  C  C93  1  0.01943550  0.19126690  0.91198820  1
  C  C94  1  0.16115751  0.98295289  0.91202162  1
  C  C95  1  0.80654206  0.82826744  0.91119898  1
  C  C96  1  0.97183685  0.16737027  0.58895587  1
  C  C97  1  0.18065971  0.02523443  0.59002771  1
  C  C98  1  0.83178536  0.80392696  0.58870253  1
  C  C99  1  0.98137212  0.82790150  0.09223177  1
  C  C100  1  0.83461735  0.02309140  0.09025262  1
  C  C101  1  0.18822401  0.16730945  0.08950954  1
  C  C102  1  0.69249418  0.17921247  0.74264501  1
  C  C103  1  0.47785230  0.31553423  0.74229751  1
  C  C104  1  0.83074939  0.52445136  0.74117464  1
  C  C105  1  0.68356350  0.52941429  0.24606103  1
  C  C106  1  0.83245748  0.30837753  0.24783111  1
  C  C107  1  0.46756028  0.15996737  0.24569606  1
  C  C108  1  0.64699194  0.50479963  0.92082075  1
  C  C109  1  0.86029774  0.35545841  0.92177488  1
  C  C110  1  0.50614427  0.15558950  0.92097356  1
  C  C111  1  0.64324521  0.13942719  0.42088725  1
  C  C112  1  0.49678131  0.35509223  0.42061448  1
  C  C113  1  0.84240744  0.49165285  0.42375753  1
  C  C114  1  0.35275023  0.49257359  0.07900376  1
  C  C115  1  0.15252853  0.65119274  0.08112103  1
  C  C116  1  0.51165148  0.85603420  0.07904758  1
  C  C117  1  0.35561388  0.85474903  0.57979034  1
  C  C118  1  0.50691897  0.63916735  0.57915982  1
  C  C119  1  0.13699511  0.48998113  0.57843820  1
  C  C120  1  0.31109682  0.83644743  0.25655669  1
  C  C121  1  0.52755466  0.69684804  0.25754065  1
  C  C122  1  0.17847376  0.48185456  0.25574168  1
  C  C123  1  0.30993781  0.47101766  0.75294829  1
  C  C124  1  0.15440734  0.68092504  0.75263611  1
  C  C125  1  0.52005096  0.83151581  0.75035589  1
