# generated using pymatgen
data_Cu6NiC12
_symmetry_space_group_name_H-M   'P 1'
_cell_length_a   4.80605805
_cell_length_b   4.80608688
_cell_length_c   8.94254776
_cell_angle_alpha   89.99902199
_cell_angle_beta   90.00069472
_cell_angle_gamma   101.28715106
_symmetry_Int_Tables_number   1
_chemical_formula_structural   Cu6NiC12
_chemical_formula_sum   'Cu6 Ni1 C12'
_cell_volume   202.56281714
_cell_formula_units_Z   1
loop_
 _symmetry_equiv_pos_site_id
 _symmetry_equiv_pos_as_xyz
  1  'x, y, z'
loop_
 _atom_site_type_symbol
 _atom_site_label
 _atom_site_symmetry_multiplicity
 _atom_site_fract_x
 _atom_site_fract_y
 _atom_site_fract_z
 _atom_site_occupancy
  Ni  Ni0  1  0.70758104  0.29242495  0.66656117  1
  Cu  Cu1  1  0.00102789  0.99897206  0.00741594  1
  Cu  Cu2  1  0.00102695  0.99897265  0.32567270  1
  Cu  Cu3  1  0.07026707  0.92973389  0.66662339  1
  Cu  Cu4  1  0.57302714  0.42697247  0.16650835  1
  Cu  Cu5  1  0.43871919  0.56128200  0.85415730  1
  Cu  Cu6  1  0.43873181  0.56126603  0.47891574  1
  C  C7  1  0.17768814  0.82231366  0.84649168  1
  C  C8  1  0.17775207  0.82224861  0.48664309  1
  C  C9  1  0.31381788  0.30667947  0.32394724  1
  C  C10  1  0.31386375  0.30671769  0.00913106  1
  C  C11  1  0.28645105  0.31367728  0.66651821  1
  C  C12  1  0.68632368  0.71354785  0.66651969  1
  C  C13  1  0.69328223  0.68613738  0.00913152  1
  C  C14  1  0.69332116  0.68617950  0.32394753  1
  C  C15  1  0.82570102  0.17429822  0.16651231  1
  C  C16  1  0.18528890  0.81471256  0.16652068  1
  C  C17  1  0.80528435  0.19471157  0.85428215  1
  C  C18  1  0.80528869  0.19470717  0.47878927  1
