# generated using pymatgen
data_Cu6Ni7C65
_symmetry_space_group_name_H-M   'P 1'
_cell_length_a   17.42562594
_cell_length_b   8.79895971
_cell_length_c   21.86691898
_cell_angle_alpha   90.25244552
_cell_angle_beta   89.33267059
_cell_angle_gamma   120.20708154
_symmetry_Int_Tables_number   1
_chemical_formula_structural   Cu6Ni7C65
_chemical_formula_sum   'Cu18 Ni21 C195'
_cell_volume   2897.32921712
_cell_formula_units_Z   3
loop_
 _symmetry_equiv_pos_site_id
 _symmetry_equiv_pos_as_xyz
  1  'x, y, z'
loop_
 _atom_site_type_symbol
 _atom_site_label
 _atom_site_symmetry_multiplicity
 _atom_site_fract_x
 _atom_site_fract_y
 _atom_site_fract_z
 _atom_site_occupancy
  C  C0  1  0.81586717  0.01061701  0.24868898  1
  C  C1  1  0.18879638  0.37557612  0.24722626  1
  C  C2  1  0.68852535  0.36402942  0.25266612  1
  C  C3  1  0.99439543  0.61568319  0.25253904  1
  C  C4  1  0.49499007  0.62757050  0.24608609  1
  C  C5  1  0.31646993  0.62144332  0.74893854  1
  C  C6  1  0.99470408  0.36049390  0.74715902  1
  C  C7  1  0.49441534  0.37506952  0.75212174  1
  C  C8  1  0.19065523  0.01629316  0.74913745  1
  C  C9  1  0.68911390  0.00084270  0.74778629  1
  C  C10  1  0.15176131  0.33263387  0.58134931  1
  C  C11  1  0.01503732  0.69252943  0.58487562  1
  C  C12  1  0.48519792  0.66393587  0.91668481  1
  C  C13  1  0.99042777  0.67505095  0.92005447  1
  C  C14  1  0.84917012  0.02972423  0.91508510  1
  C  C15  1  0.49074356  0.30740585  0.42010794  1
  C  C16  1  0.16433856  0.02703670  0.41789331  1
  C  C17  1  0.34885748  0.66595001  0.41497819  1
  C  C18  1  0.99119862  0.99522684  0.49896204  1
  C  C19  1  0.51129742  0.00936963  0.49816716  1
  C  C20  1  0.01005234  0.01283708  0.99813725  1
  C  C21  1  0.50182039  0.01429310  0.00081330  1
  C  C22  1  0.32888856  0.32075819  0.83174010  1
  C  C23  1  0.82991902  0.33585647  0.83193262  1
  C  C24  1  0.33494415  0.33348091  0.33046165  1
  C  C25  1  0.83242306  0.33554051  0.33226918  1
  C  C26  1  0.17400659  0.67364832  0.16303203  1
  C  C27  1  0.66298381  0.66677884  0.16162448  1
  C  C28  1  0.17077305  0.67757908  0.66406527  1
  C  C29  1  0.67240154  0.67329304  0.66326371  1
  C  C30  1  0.32994077  0.32050039  0.69005109  1
  C  C31  1  0.83853335  0.32280221  0.68136450  1
  C  C32  1  0.34121582  0.35496764  0.17997202  1
  C  C33  1  0.83292352  0.33324060  0.19037409  1
  C  C34  1  0.16115897  0.67202982  0.01314718  1
  C  C35  1  0.66060437  0.65168427  0.51279361  1
  Ni  Ni36  1  0.64072584  0.99139716  0.25196722  1
  Ni  Ni37  1  0.35379683  0.71901804  0.25358577  1
  Ni  Ni38  1  0.85653793  0.72015664  0.25219711  1
  Ni  Ni39  1  0.00418631  0.28931339  0.25301197  1
  Ni  Ni40  1  0.14149153  0.29264720  0.75309282  1
  Ni  Ni41  1  0.50406453  0.71855592  0.75242296  1
  Ni  Ni42  1  0.35711940  0.99381929  0.75299346  1
  Ni  Ni43  1  0.85581976  0.98791971  0.75194211  1
  Ni  Ni44  1  0.97698142  0.33417659  0.57984299  1
  Ni  Ni45  1  0.18853975  0.03622240  0.58505495  1
  Ni  Ni46  1  0.48266108  0.62312086  0.08015088  1
  Ni  Ni47  1  0.80534445  0.66418159  0.91724664  1
  Ni  Ni48  1  0.02514147  0.37909723  0.91965980  1
  Ni  Ni49  1  0.52430948  0.37162575  0.91365343  1
  Ni  Ni50  1  0.16866770  0.96672007  0.91685556  1
  Ni  Ni51  1  0.66452189  0.96215529  0.91709517  1
  Ni  Ni52  1  0.30878749  0.94835587  0.41582785  1
  Ni  Ni53  1  0.16191407  0.37336634  0.41763815  1
  Ni  Ni54  1  0.66857518  0.37098255  0.41644368  1
  Ni  Ni55  1  0.01944852  0.66521520  0.41288071  1
  Ni  Ni56  1  0.52422447  0.67006171  0.41983592  1
  Cu  Cu57  1  0.99586571  0.99667202  0.35546725  1
  Cu  Cu58  1  0.50410235  0.98985475  0.35804855  1
  Cu  Cu59  1  0.00256852  0.01603629  0.85831421  1
  Cu  Cu60  1  0.49997654  0.00361754  0.85500972  1
  Cu  Cu61  1  0.00015980  0.02797240  0.64457083  1
  Cu  Cu62  1  0.49862018  0.98779367  0.65058842  1
  Cu  Cu63  1  0.99663664  0.01247478  0.14954890  1
  Cu  Cu64  1  0.49239382  0.95337141  0.14629684  1
  Cu  Cu65  1  0.33997361  0.31834386  0.98010177  1
  Cu  Cu66  1  0.83052703  0.33908038  0.97490808  1
  Cu  Cu67  1  0.32751000  0.32216007  0.47547598  1
  Cu  Cu68  1  0.83773892  0.34712272  0.47669143  1
  Cu  Cu69  1  0.65615465  0.65899517  0.01017504  1
  Cu  Cu70  1  0.16018291  0.66972318  0.51351894  1
  Cu  Cu71  1  0.16909667  0.65824093  0.31700421  1
  Cu  Cu72  1  0.66688714  0.66208031  0.31673839  1
  Cu  Cu73  1  0.16737052  0.67262517  0.81710693  1
  Cu  Cu74  1  0.67112158  0.68467544  0.81713645  1
  C  C75  1  0.14441795  0.99820063  0.24861266  1
  C  C76  1  0.49850523  0.27976528  0.25008038  1
  C  C77  1  0.64411227  0.28989547  0.74905220  1
  C  C78  1  0.99795000  0.71362367  0.75093623  1
  C  C79  1  0.48072917  0.32614015  0.58578836  1
  C  C80  1  0.68303007  0.03968818  0.58459977  1
  C  C81  1  0.33790315  0.63449323  0.58277686  1
  C  C82  1  0.83072620  0.62451479  0.58497917  1
  C  C83  1  0.97959910  0.63383830  0.08568956  1
  C  C84  1  0.33567678  0.03899016  0.08595573  1
  C  C85  1  0.83448342  0.03914950  0.08247467  1
  C  C86  1  0.18341824  0.32632310  0.08485873  1
  C  C87  1  0.68645477  0.33454905  0.08321409  1
  C  C88  1  0.31227421  0.66603777  0.91721071  1
  C  C89  1  0.81296677  0.96133350  0.41738048  1
  C  C90  1  0.10740801  0.03328360  0.30614377  1
  C  C91  1  0.59741530  0.04034460  0.30889632  1
  C  C92  1  0.41887932  0.80782396  0.31178789  1
  C  C93  1  0.92299602  0.80755307  0.30998310  1
  C  C94  1  0.48758366  0.18329462  0.30746803  1
  C  C95  1  0.98611824  0.15720916  0.31024535  1
  C  C96  1  0.09485409  0.15199495  0.80779631  1
  C  C97  1  0.60633236  0.17591986  0.80457361  1
  C  C98  1  0.48693218  0.81024009  0.81249198  1
  C  C99  1  0.98747831  0.79275695  0.80704659  1
  C  C100  1  0.42373243  0.03390938  0.80990973  1
  C  C101  1  0.91814975  0.02865473  0.81177708  1
  C  C102  1  0.39899868  0.94730512  0.69101990  1
  C  C103  1  0.90090595  0.95787425  0.68912306  1
  C  C104  1  0.08237415  0.21869365  0.68848648  1
  C  C105  1  0.58555871  0.20871403  0.69374956  1
  C  C106  1  0.01382348  0.82085281  0.69439863  1
  C  C107  1  0.53070673  0.85264792  0.69229555  1
  C  C108  1  0.39396743  0.83539521  0.19003298  1
  C  C109  1  0.89896039  0.85191719  0.19109344  1
  C  C110  1  0.03055906  0.21179577  0.19137480  1
  C  C111  1  0.51555111  0.20053509  0.19535501  1
  C  C112  1  0.08465441  0.96393274  0.19461185  1
  C  C113  1  0.57771842  0.94738151  0.19013588  1
  C  C114  1  0.43825178  0.34733079  0.64094289  1
  C  C115  1  0.95072243  0.39224450  0.64304738  1
  C  C116  1  0.24045321  0.11029413  0.64673073  1
  C  C117  1  0.73031533  0.12009248  0.64244275  1
  C  C118  1  0.32476969  0.53017857  0.63815159  1
  C  C119  1  0.81772129  0.51813916  0.63987110  1
  C  C120  1  0.45171630  0.52758669  0.14528300  1
  C  C121  1  0.93483327  0.52692006  0.14037938  1
  C  C122  1  0.32039990  0.12081472  0.14009027  1
  C  C123  1  0.82383522  0.11897734  0.13901307  1
  C  C124  1  0.23053633  0.34032209  0.14275874  1
  C  C125  1  0.73712291  0.35872903  0.13948298  1
  C  C126  1  0.22662033  0.29724125  0.03014894  1
  C  C127  1  0.72987687  0.29909107  0.02789704  1
  C  C128  1  0.41409479  0.52411588  0.02131680  1
  C  C129  1  0.92534820  0.55241243  0.02812425  1
  C  C130  1  0.35113660  0.14973475  0.02821538  1
  C  C131  1  0.84833746  0.14914150  0.02640249  1
  C  C132  1  0.23073592  0.17410482  0.52448128  1
  C  C133  1  0.72484751  0.15313525  0.52983949  1
  C  C134  1  0.35099973  0.55330457  0.52584790  1
  C  C135  1  0.84969466  0.54432981  0.52849498  1
  C  C136  1  0.42661682  0.29823967  0.52843774  1
  C  C137  1  0.90854443  0.29953380  0.52328834  1
  C  C138  1  0.27435843  0.69424990  0.97173464  1
  C  C139  1  0.76309757  0.71395924  0.97648301  1
  C  C140  1  0.08210335  0.45019196  0.97873356  1
  C  C141  1  0.58408637  0.45455028  0.97419428  1
  C  C142  1  0.14099016  0.84227363  0.97489142  1
  C  C143  1  0.63958132  0.82542416  0.97345082  1
  C  C144  1  0.26609270  0.81587823  0.47449867  1
  C  C145  1  0.77506135  0.85658638  0.47218956  1
  C  C146  1  0.14900150  0.46377476  0.47859207  1
  C  C147  1  0.64139105  0.44111015  0.47469167  1
  C  C148  1  0.08241604  0.71573832  0.47373380  1
  C  C149  1  0.58140953  0.71496018  0.47882994  1
  C  C150  1  0.06540696  0.63324000  0.35213125  1
  C  C151  1  0.56242342  0.61708401  0.35682578  1
  C  C152  1  0.24100503  0.86819121  0.35796637  1
  C  C153  1  0.76051226  0.88184616  0.35958848  1
  C  C154  1  0.18982866  0.50031078  0.35721525  1
  C  C155  1  0.68808847  0.49654101  0.35335266  1
  C  C156  1  0.06313813  0.50830867  0.85706668  1
  C  C157  1  0.56492674  0.50612123  0.85402704  1
  C  C158  1  0.18802087  0.88037427  0.85339733  1
  C  C159  1  0.69219198  0.88983427  0.85575118  1
  C  C160  1  0.25949662  0.63973023  0.85936452  1
  C  C161  1  0.74306859  0.62279191  0.85733700  1
  C  C162  1  0.01266676  0.84598297  0.40802200  1
  C  C163  1  0.50329003  0.82979412  0.41126189  1
  C  C164  1  0.40875327  0.97988193  0.40872210  1
  C  C165  1  0.90355906  0.97964824  0.41169939  1
  C  C166  1  0.07822472  0.17326406  0.41017713  1
  C  C167  1  0.57686645  0.17939598  0.40619265  1
  C  C168  1  0.00370904  0.17681977  0.91162791  1
  C  C169  1  0.51190473  0.17628207  0.90844756  1
  C  C170  1  0.07681524  0.97483066  0.90611980  1
  C  C171  1  0.57476231  0.97318825  0.90945445  1
  C  C172  1  0.40372458  0.82589582  0.91145296  1
  C  C173  1  0.90631570  0.83521676  0.90999730  1
  C  C174  1  0.48684530  0.15857788  0.58899219  1
  C  C175  1  0.98727885  0.15693651  0.58318809  1
  C  C176  1  0.08464834  0.01167317  0.59033913  1
  C  C177  1  0.59145990  0.03027910  0.58753466  1
  C  C178  1  0.42076132  0.81381056  0.58530735  1
  C  C179  1  0.91723299  0.79908717  0.58739887  1
  C  C180  1  0.48877590  0.82098014  0.08165599  1
  C  C181  1  0.98599774  0.81276988  0.08873455  1
  C  C182  1  0.42225493  0.03780188  0.08881248  1
  C  C183  1  0.92010796  0.02992064  0.08476274  1
  C  C184  1  0.09183186  0.15236211  0.08703767  1
  C  C185  1  0.59616535  0.17521781  0.08634736  1
  C  C186  1  0.34672892  0.16414397  0.75160338  1
  C  C187  1  0.84266503  0.16057482  0.74887191  1
  C  C188  1  0.23970497  0.32210322  0.74942070  1
  C  C189  1  0.73268229  0.30906878  0.74242383  1
  C  C190  1  0.41734058  0.52830147  0.74667094  1
  C  C191  1  0.91982456  0.53430685  0.74786583  1
  C  C192  1  0.34146690  0.52145745  0.25026776  1
  C  C193  1  0.84396204  0.52698818  0.24745598  1
  C  C194  1  0.42045560  0.30391541  0.24668501  1
  C  C195  1  0.91726071  0.30662540  0.24802207  1
  C  C196  1  0.23268280  0.15605393  0.24224129  1
  C  C197  1  0.73826002  0.16061019  0.24638958  1
  C  C198  1  0.32331460  0.50870779  0.91849809  1
  C  C199  1  0.82184486  0.49669704  0.92647255  1
  C  C200  1  0.42680073  0.36176733  0.92229022  1
  C  C201  1  0.92304297  0.36082164  0.92494931  1
  C  C202  1  0.25687577  0.16685643  0.92636706  1
  C  C203  1  0.75491357  0.15248440  0.92708414  1
  C  C204  1  0.32007248  0.14623318  0.42436088  1
  C  C205  1  0.82155721  0.13786111  0.41961780  1
  C  C206  1  0.25279334  0.35585292  0.42339613  1
  C  C207  1  0.75515827  0.34265582  0.42520042  1
  C  C208  1  0.42197889  0.48393503  0.42560839  1
  C  C209  1  0.92349913  0.48775935  0.42155652  1
  C  C210  1  0.17364063  0.48004224  0.08046197  1
  C  C211  1  0.68164585  0.49620381  0.07506775  1
  C  C212  1  0.06783616  0.65374716  0.08248647  1
  C  C213  1  0.58310344  0.64611459  0.07246182  1
  C  C214  1  0.26015441  0.86241176  0.07837529  1
  C  C215  1  0.75669201  0.86230464  0.07736737  1
  C  C216  1  0.17470490  0.83931600  0.57319945  1
  C  C217  1  0.67379882  0.86648453  0.58025215  1
  C  C218  1  0.25673923  0.64900137  0.57799781  1
  C  C219  1  0.75604521  0.65248768  0.57759067  1
  C  C220  1  0.07924522  0.50776409  0.57152232  1
  C  C221  1  0.56959435  0.48123452  0.58186646  1
  C  C222  1  0.14858131  0.83521219  0.25225300  1
  C  C223  1  0.64798309  0.81104841  0.26021716  1
  C  C224  1  0.25582465  0.70297848  0.25783870  1
  C  C225  1  0.75723157  0.70461979  0.25769688  1
  C  C226  1  0.09292955  0.48772325  0.25736104  1
  C  C227  1  0.58205025  0.46317547  0.25211894  1
  C  C228  1  0.14765067  0.48716661  0.76060570  1
  C  C229  1  0.64763042  0.46001597  0.75393746  1
  C  C230  1  0.08184561  0.69933554  0.75258200  1
  C  C231  1  0.59335556  0.69790992  0.75732326  1
  C  C232  1  0.25772397  0.81091241  0.75764529  1
  C  C233  1  0.75704099  0.80957846  0.75604038  1
