# generated using pymatgen
data_Cu4NiC2
_symmetry_space_group_name_H-M   'P 1'
_cell_length_a   4.97515421
_cell_length_b   4.97515421
_cell_length_c   8.35554300
_cell_angle_alpha   90.00000000
_cell_angle_beta   90.00000000
_cell_angle_gamma   120.00000286
_symmetry_Int_Tables_number   1
_chemical_formula_structural   Cu4NiC2
_chemical_formula_sum   'Cu8 Ni2 C4'
_cell_volume   179.10940534
_cell_formula_units_Z   2
loop_
 _symmetry_equiv_pos_site_id
 _symmetry_equiv_pos_as_xyz
  1  'x, y, z'
loop_
 _atom_site_type_symbol
 _atom_site_label
 _atom_site_symmetry_multiplicity
 _atom_site_fract_x
 _atom_site_fract_y
 _atom_site_fract_z
 _atom_site_occupancy
  C  C0  1  0.00000000  0.00000000  0.00000000  1
  C  C1  1  0.00000000  0.00000000  0.50000000  1
  C  C2  1  0.33333300  0.66666700  0.04886100  1
  C  C3  1  0.66666700  0.33333300  0.95113900  1
  Ni  Ni4  1  0.66666700  0.33333300  0.27963400  1
  Ni  Ni5  1  0.33333300  0.66666700  0.72036600  1
  Cu  Cu6  1  0.84726900  0.15273100  0.77032100  1
  Cu  Cu7  1  0.84726900  0.69453800  0.77032100  1
  Cu  Cu8  1  0.30546200  0.15273100  0.77032100  1
  Cu  Cu9  1  0.69453800  0.84726900  0.22967900  1
  Cu  Cu10  1  0.15273100  0.30546200  0.22967900  1
  Cu  Cu11  1  0.15273100  0.84726900  0.22967900  1
  Cu  Cu12  1  0.66666700  0.33333300  0.45262800  1
  Cu  Cu13  1  0.33333300  0.66666700  0.54737200  1
