# generated using pymatgen
data_Cu4Ni8C7
_symmetry_space_group_name_H-M   'P 1'
_cell_length_a   5.09600985
_cell_length_b   5.09600607
_cell_length_c   8.82164329
_cell_angle_alpha   90.73263910
_cell_angle_beta   89.26731549
_cell_angle_gamma   105.71371917
_symmetry_Int_Tables_number   1
_chemical_formula_structural   Cu4Ni8C7
_chemical_formula_sum   'Cu4 Ni8 C7'
_cell_volume   220.50163216
_cell_formula_units_Z   1
loop_
 _symmetry_equiv_pos_site_id
 _symmetry_equiv_pos_as_xyz
  1  'x, y, z'
loop_
 _atom_site_type_symbol
 _atom_site_label
 _atom_site_symmetry_multiplicity
 _atom_site_fract_x
 _atom_site_fract_y
 _atom_site_fract_z
 _atom_site_occupancy
  C  C0  1  0.29855246  0.70144754  0.32695553  1
  C  C1  1  0.99216323  0.00783677  0.99729350  1
  C  C2  1  0.96587739  0.03412261  0.33596509  1
  C  C3  1  0.00857711  0.99142289  0.66331867  1
  C  C4  1  0.59649670  0.40350330  0.15828260  1
  C  C5  1  0.47024739  0.52975261  0.84036049  1
  C  C6  1  0.54456875  0.45543125  0.51500230  1
  Ni  Ni7  1  0.13004592  0.86995408  0.48333735  1
  Ni  Ni8  1  0.30565756  0.31043281  0.33318763  1
  Ni  Ni9  1  0.31187498  0.29839110  0.99944900  1
  Ni  Ni10  1  0.30250775  0.31354703  0.67195626  1
  Ni  Ni11  1  0.68645297  0.69749225  0.67195526  1
  Ni  Ni12  1  0.70160890  0.68812502  0.99944800  1
  Ni  Ni13  1  0.68956620  0.69434344  0.33318763  1
  Ni  Ni14  1  0.81809626  0.18190374  0.17134593  1
  Cu  Cu15  1  0.16784440  0.83215460  0.15604482  1
  Cu  Cu16  1  0.18109414  0.81890686  0.82639047  1
  Cu  Cu17  1  0.83886454  0.16113446  0.83154072  1
  Cu  Cu18  1  0.79545935  0.20454165  0.50640675  1
