# generated using pymatgen
data_Cu2Ni2C13
_symmetry_space_group_name_H-M   'P 1'
_cell_length_a   6.03054173
_cell_length_b   7.59125306
_cell_length_c   12.01509943
_cell_angle_alpha   83.52626177
_cell_angle_beta   75.47390079
_cell_angle_gamma   63.30864477
_symmetry_Int_Tables_number   1
_chemical_formula_structural   Cu2Ni2C13
_chemical_formula_sum   'Cu2 Ni2 C13'
_cell_volume   475.72123120
_cell_formula_units_Z   1
loop_
 _symmetry_equiv_pos_site_id
 _symmetry_equiv_pos_as_xyz
  1  'x, y, z'
loop_
 _atom_site_type_symbol
 _atom_site_label
 _atom_site_symmetry_multiplicity
 _atom_site_fract_x
 _atom_site_fract_y
 _atom_site_fract_z
 _atom_site_occupancy
  C  C0  1  0.17898500  0.24975600  0.64214800  1
  C  C1  1  0.80574600  0.75003000  0.38859500  1
  C  C2  1  0.55343900  0.25021900  0.89217200  1
  C  C3  1  0.44918300  0.74949200  0.10267100  1
  C  C4  1  0.75089700  0.25007600  0.49767600  1
  Ni  Ni5  1  0.37550900  0.25004200  0.24849400  1
  Ni  Ni6  1  0.62615600  0.75000100  0.74729900  1
  Cu  Cu7  1  0.88977500  0.25009800  0.21982800  1
  Cu  Cu8  1  0.12331400  0.75014400  0.75248700  1
  C  C9  1  0.89861500  0.54143500  0.86149400  1
  C  C10  1  0.78047200  0.96319500  0.62570900  1
  C  C11  1  0.59354100  0.53683000  0.62568700  1
  C  C12  1  0.23976600  0.95826000  0.86160500  1
  C  C13  1  0.10652300  0.46821300  0.13614400  1
  C  C14  1  0.75672900  0.03201900  0.13607600  1
  C  C15  1  0.44130400  0.42972500  0.37816400  1
  C  C16  1  0.18004600  0.07046500  0.37819500  1
