# generated using pymatgen
data_CuNiC4
_symmetry_space_group_name_H-M   'P 1'
_cell_length_a   10.49283700
_cell_length_b   3.17566100
_cell_length_c   12.68830044
_cell_angle_alpha   84.18267331
_cell_angle_beta   90.00000000
_cell_angle_gamma   90.00000000
_symmetry_Int_Tables_number   1
_chemical_formula_structural   CuNiC4
_chemical_formula_sum   'Cu8 Ni8 C32'
_cell_volume   420.61830094
_cell_formula_units_Z   8
loop_
 _symmetry_equiv_pos_site_id
 _symmetry_equiv_pos_as_xyz
  1  'x, y, z'
loop_
 _atom_site_type_symbol
 _atom_site_label
 _atom_site_symmetry_multiplicity
 _atom_site_fract_x
 _atom_site_fract_y
 _atom_site_fract_z
 _atom_site_occupancy
  C  C0  1  0.07930200  0.70698200  0.08816200  1
  C  C1  1  0.57930200  0.29301800  0.41183800  1
  C  C2  1  0.92069800  0.29301800  0.91183800  1
  C  C3  1  0.42069800  0.70698200  0.58816200  1
  C  C4  1  0.36242900  0.23272200  0.99510200  1
  C  C5  1  0.86242900  0.76727800  0.50489800  1
  C  C6  1  0.63757100  0.76727800  0.00489800  1
  C  C7  1  0.13757100  0.23272200  0.49510200  1
  Ni  Ni8  1  0.16799000  0.75948300  0.86171200  1
  Ni  Ni9  1  0.66799000  0.24051700  0.63828800  1
  Ni  Ni10  1  0.83201000  0.24051700  0.13828800  1
  Ni  Ni11  1  0.33201000  0.75948300  0.36171200  1
  Ni  Ni12  1  0.04808600  0.62739400  0.69296900  1
  Ni  Ni13  1  0.54808600  0.37260600  0.80703100  1
  Ni  Ni14  1  0.95191400  0.37260600  0.30703100  1
  Ni  Ni15  1  0.45191400  0.62739400  0.19296900  1
  Cu  Cu16  1  0.24350000  0.13778900  0.16183400  1
  Cu  Cu17  1  0.74350000  0.86221100  0.33816600  1
  Cu  Cu18  1  0.75650000  0.86221100  0.83816600  1
  Cu  Cu19  1  0.25650000  0.13778900  0.66183400  1
  Cu  Cu20  1  0.11820900  0.68326900  0.30671500  1
  Cu  Cu21  1  0.61820900  0.31673100  0.19328500  1
  Cu  Cu22  1  0.88179100  0.31673100  0.69328500  1
  Cu  Cu23  1  0.38179100  0.68326900  0.80671500  1
  C  C24  1  0.06250800  0.77752600  0.92394300  1
  C  C25  1  0.56250800  0.22247400  0.57605700  1
  C  C26  1  0.93749200  0.22247400  0.07605700  1
  C  C27  1  0.43749200  0.77752600  0.42394300  1
  C  C28  1  0.29154200  0.76902700  0.89837500  1
  C  C29  1  0.79154200  0.23097300  0.60162500  1
  C  C30  1  0.70845800  0.23097300  0.10162500  1
  C  C31  1  0.20845800  0.76902700  0.39837500  1
  C  C32  1  0.15398900  0.73146900  0.75146500  1
  C  C33  1  0.65398900  0.26853100  0.74853500  1
  C  C34  1  0.84601100  0.26853100  0.24853500  1
  C  C35  1  0.34601100  0.73146900  0.25146500  1
  C  C36  1  0.45013700  0.60153300  0.75367100  1
  C  C37  1  0.95013700  0.39846700  0.74632900  1
  C  C38  1  0.54986300  0.39846700  0.24632900  1
  C  C39  1  0.04986300  0.60153300  0.25367100  1
  C  C40  1  0.04375900  0.72015500  0.58540700  1
  C  C41  1  0.54375900  0.27984500  0.91459300  1
  C  C42  1  0.95624100  0.27984500  0.41459300  1
  C  C43  1  0.45624100  0.72015500  0.08540700  1
  C  C44  1  0.29472700  0.20395900  0.59172400  1
  C  C45  1  0.79472700  0.79604100  0.90827600  1
  C  C46  1  0.70527300  0.79604100  0.40827600  1
  C  C47  1  0.20527300  0.20395900  0.09172400  1
