# generated using pymatgen
data_CuNiC18
_symmetry_space_group_name_H-M   'P 1'
_cell_length_a   8.86660019
_cell_length_b   8.87236546
_cell_length_c   22.18351203
_cell_angle_alpha   90.10023720
_cell_angle_beta   89.08772642
_cell_angle_gamma   119.99465944
_symmetry_Int_Tables_number   1
_chemical_formula_structural   CuNiC18
_chemical_formula_sum   'Cu6 Ni6 C108'
_cell_volume   1511.17455653
_cell_formula_units_Z   6
loop_
 _symmetry_equiv_pos_site_id
 _symmetry_equiv_pos_as_xyz
  1  'x, y, z'
loop_
 _atom_site_type_symbol
 _atom_site_label
 _atom_site_symmetry_multiplicity
 _atom_site_fract_x
 _atom_site_fract_y
 _atom_site_fract_z
 _atom_site_occupancy
  C  C0  1  0.63446849  0.99876564  0.25253011  1
  C  C1  1  0.36439868  0.36567388  0.24827429  1
  C  C2  1  0.00202731  0.63426063  0.25057412  1
  C  C3  1  0.63405527  0.63299850  0.74819765  1
  C  C4  1  0.99627999  0.36384412  0.74980250  1
  C  C5  1  0.36856976  0.00528696  0.75018737  1
  C  C6  1  0.29906464  0.33332442  0.58386185  1
  C  C7  1  0.03258891  0.70203250  0.58320659  1
  C  C8  1  0.67000168  0.96629663  0.58318707  1
  C  C9  1  0.03816917  0.33840151  0.08513275  1
  C  C10  1  0.97554413  0.66764061  0.91737670  1
  C  C11  1  0.33413971  0.03027879  0.41675896  1
  C  C12  1  0.98931927  0.99457404  0.49786470  1
  C  C13  1  0.01632101  0.00634431  0.99982325  1
  C  C14  1  0.66086494  0.32067207  0.83256853  1
  C  C15  1  0.67886881  0.33928305  0.33755312  1
  C  C16  1  0.33316804  0.66596807  0.16602668  1
  C  C17  1  0.33465960  0.66661344  0.66617851  1
  C  C18  1  0.28604860  0.99963854  0.25455413  1
  C  C19  1  0.71131328  0.71405730  0.25137098  1
  C  C20  1  0.99968469  0.28257935  0.25237752  1
  C  C21  1  0.29603964  0.29570233  0.74638409  1
  C  C22  1  0.99414046  0.70851899  0.74791153  1
  C  C23  1  0.70806563  0.00013175  0.74852598  1
  C  C24  1  0.95846435  0.33359711  0.58413209  1
  C  C25  1  0.38262099  0.05317550  0.58300648  1
  C  C26  1  0.66586394  0.61853048  0.58208059  1
  C  C27  1  0.95667005  0.63005966  0.08171127  1
  C  C28  1  0.37442423  0.33581187  0.08299376  1
  C  C29  1  0.04379863  0.37217360  0.91453528  1
  C  C30  1  0.33642930  0.95701276  0.91415170  1
  C  C31  1  0.63368739  0.96501800  0.41906108  1
  C  C32  1  0.03227992  0.66329183  0.41979798  1
  Ni  Ni33  1  0.01003272  0.01118426  0.85064224  1
  Ni  Ni34  1  0.00998045  0.99567186  0.14803040  1
  Ni  Ni35  1  0.66648282  0.34118048  0.18766565  1
  Ni  Ni36  1  0.66115536  0.32754524  0.97829671  1
  Ni  Ni37  1  0.32096735  0.65890386  0.01872687  1
  Ni  Ni38  1  0.32916445  0.67043373  0.31740497  1
  Cu  Cu39  1  0.98009200  0.98060925  0.35210997  1
  Cu  Cu40  1  0.99957962  0.00060130  0.64695230  1
  Cu  Cu41  1  0.66692610  0.33463205  0.68423438  1
  Cu  Cu42  1  0.68739947  0.33349470  0.48449097  1
  Cu  Cu43  1  0.33849045  0.68557983  0.52131100  1
  Cu  Cu44  1  0.31884996  0.67234872  0.80940886  1
  C  C45  1  0.66380645  0.03518988  0.08365560  1
  C  C46  1  0.62124502  0.66894179  0.91485557  1
  C  C47  1  0.33372253  0.37458883  0.41883272  1
  C  C48  1  0.19924359  0.04243178  0.31358395  1
  C  C49  1  0.83961708  0.79347571  0.30887994  1
  C  C50  1  0.96185054  0.15198725  0.30964035  1
  C  C51  1  0.22669332  0.17009882  0.80521514  1
  C  C52  1  0.94869559  0.77935210  0.80958834  1
  C  C53  1  0.83167555  0.04603211  0.80657049  1
  C  C54  1  0.79310362  0.95588341  0.68884712  1
  C  C55  1  0.16484970  0.21041829  0.68870942  1
  C  C56  1  0.04141836  0.84015575  0.68951359  1
  C  C57  1  0.78310501  0.83781273  0.19189837  1
  C  C58  1  0.03903657  0.21398687  0.18880402  1
  C  C59  1  0.17017133  0.95030129  0.19451344  1
  C  C60  1  0.87551843  0.37873467  0.64359074  1
  C  C61  1  0.50595161  0.13102451  0.64247169  1
  C  C62  1  0.62421961  0.49751745  0.64324594  1
  C  C63  1  0.88266553  0.50149796  0.14199520  1
  C  C64  1  0.63261369  0.11032735  0.13963725  1
  C  C65  1  0.48163882  0.36556957  0.14564578  1
  C  C66  1  0.45644695  0.29293707  0.02423439  1
  C  C67  1  0.84400699  0.54102409  0.02103582  1
  C  C68  1  0.70070194  0.14994597  0.02977849  1
  C  C69  1  0.46726705  0.17684326  0.52301013  1
  C  C70  1  0.70693840  0.52715880  0.52529065  1
  C  C71  1  0.82944370  0.28389772  0.52716533  1
  C  C72  1  0.54607455  0.69624683  0.97044918  1
  C  C73  1  0.15250543  0.44582485  0.97608146  1
  C  C74  1  0.29898131  0.83729933  0.97390657  1
  C  C75  1  0.53751012  0.83511240  0.47822717  1
  C  C76  1  0.30467516  0.45888044  0.47273561  1
  C  C77  1  0.16893501  0.70638258  0.47717927  1
  C  C78  1  0.10780986  0.62300505  0.35783576  1
  C  C79  1  0.51133937  0.88921858  0.35908411  1
  C  C80  1  0.36469941  0.47973399  0.36211016  1
  C  C81  1  0.13554325  0.50436631  0.85510555  1
  C  C82  1  0.36655035  0.86552413  0.85313864  1
  C  C83  1  0.51532460  0.64123061  0.86026218  1
  C  C84  1  0.03337313  0.85061942  0.41149779  1
  C  C85  1  0.82547012  0.98086281  0.41133404  1
  C  C86  1  0.17617158  0.20051374  0.41447798  1
  C  C87  1  0.01551986  0.17733358  0.91268930  1
  C  C88  1  0.15157401  0.95836688  0.91114189  1
  C  C89  1  0.79880147  0.82297084  0.91142362  1
  C  C90  1  0.97716915  0.15819063  0.59125868  1
  C  C91  1  0.18492215  0.02737982  0.59030414  1
  C  C92  1  0.84053589  0.81439342  0.58980822  1
  C  C93  1  0.96717461  0.81728599  0.08447932  1
  C  C94  1  0.82589788  0.02680559  0.08757340  1
  C  C95  1  0.17360574  0.17094732  0.08512711  1
  C  C96  1  0.68628240  0.17303155  0.74035989  1
  C  C97  1  0.49006044  0.31489657  0.73920385  1
  C  C98  1  0.82396790  0.51302803  0.74083275  1
  C  C99  1  0.69424086  0.52162033  0.24955213  1
  C  C100  1  0.82425688  0.30101438  0.24748873  1
  C  C101  1  0.48119537  0.17130479  0.24837617  1
  C  C102  1  0.64197484  0.51154553  0.91799744  1
  C  C103  1  0.85693232  0.37169190  0.91795570  1
  C  C104  1  0.50944477  0.14931451  0.91670071  1
  C  C105  1  0.63562656  0.15234085  0.42755974  1
  C  C106  1  0.49014028  0.35579714  0.42248234  1
  C  C107  1  0.83999440  0.48868726  0.42712047  1
  C  C108  1  0.36067829  0.51366181  0.07928584  1
  C  C109  1  0.14826953  0.64295276  0.08166866  1
  C  C110  1  0.51028287  0.86422231  0.07763656  1
  C  C111  1  0.35916113  0.85459433  0.57781428  1
  C  C112  1  0.48919573  0.63899239  0.57486904  1
  C  C113  1  0.15394928  0.50902444  0.57389859  1
  C  C114  1  0.31178880  0.82942209  0.25591428  1
  C  C115  1  0.51514967  0.68608752  0.25795284  1
  C  C116  1  0.17302022  0.47684420  0.25700123  1
  C  C117  1  0.31463113  0.48988939  0.75709742  1
  C  C118  1  0.17229691  0.69169510  0.75305015  1
  C  C119  1  0.51382112  0.82093315  0.75643304  1
