# generated using pymatgen
data_Cu6NiC12
_symmetry_space_group_name_H-M   'P 1'
_cell_length_a   5.22574641
_cell_length_b   14.89451329
_cell_length_c   3.07157872
_cell_angle_alpha   90.00000000
_cell_angle_beta   90.00000000
_cell_angle_gamma   101.75115508
_symmetry_Int_Tables_number   1
_chemical_formula_structural   Cu6NiC12
_chemical_formula_sum   'Cu6 Ni1 C12'
_cell_volume   234.06546434
_cell_formula_units_Z   1
loop_
 _symmetry_equiv_pos_site_id
 _symmetry_equiv_pos_as_xyz
  1  'x, y, z'
loop_
 _atom_site_type_symbol
 _atom_site_label
 _atom_site_symmetry_multiplicity
 _atom_site_fract_x
 _atom_site_fract_y
 _atom_site_fract_z
 _atom_site_occupancy
  Ni  Ni0  1  0.00000000  0.50000000  0.97641158  1
  Cu  Cu1  1  0.00000000  -0.00000000  -0.00409553  1
  Cu  Cu2  1  0.17059172  0.29092159  0.99106100  1
  Cu  Cu3  1  0.82940828  0.70907841  0.99106100  1
  Cu  Cu4  1  0.65027432  0.15394584  0.49577460  1
  Cu  Cu5  1  0.50000000  0.50000000  0.47728165  1
  Cu  Cu6  1  0.34972568  0.84605416  0.49577460  1
  C  C7  1  0.13629551  0.93695129  0.49579862  1
  C  C8  1  0.18503300  0.77564283  0.99577288  1
  C  C9  1  0.29802730  0.42989534  0.97788677  1
  C  C10  1  0.70197270  0.57010466  0.97788677  1
  C  C11  1  0.81496700  0.22435717  0.99577288  1
  C  C12  1  0.86370449  0.06304871  0.49579862  1
  C  C13  1  0.37933235  0.24831705  0.49237638  1
  C  C14  1  0.20048871  0.57023139  0.47677278  1
  C  C15  1  0.38658179  0.09507750  0.99559163  1
  C  C16  1  0.61341821  0.90492250  0.99559163  1
  C  C17  1  0.79951129  0.42976861  0.47677278  1
  C  C18  1  0.62066765  0.75168295  0.49237638  1
