# generated using pymatgen
data_Cu2Ni4C45
_symmetry_space_group_name_H-M   'P 1'
_cell_length_a   8.75800496
_cell_length_b   8.75800468
_cell_length_c   22.54966491
_cell_angle_alpha   90.00000000
_cell_angle_beta   90.00000000
_cell_angle_gamma   120.00000105
_symmetry_Int_Tables_number   1
_chemical_formula_structural   Cu2Ni4C45
_chemical_formula_sum   'Cu4 Ni8 C90'
_cell_volume   1497.89399430
_cell_formula_units_Z   2
loop_
 _symmetry_equiv_pos_site_id
 _symmetry_equiv_pos_as_xyz
  1  'x, y, z'
loop_
 _atom_site_type_symbol
 _atom_site_label
 _atom_site_symmetry_multiplicity
 _atom_site_fract_x
 _atom_site_fract_y
 _atom_site_fract_z
 _atom_site_occupancy
  Ni  Ni0  1  -0.00000000  0.00000000  0.64182691  1
  Ni  Ni1  1  -0.00000000  0.00000000  0.14182691  1
  Ni  Ni2  1  0.66666700  0.33333300  0.97593512  1
  Ni  Ni3  1  0.66666700  0.33333300  0.47593512  1
  Ni  Ni4  1  0.33333300  0.66666700  0.02245221  1
  Ni  Ni5  1  0.33333300  0.66666700  0.52245221  1
  Ni  Ni6  1  0.33333300  0.66666700  0.31140564  1
  Ni  Ni7  1  0.33333300  0.66666700  0.81140564  1
  Cu  Cu8  1  -0.00000000  0.00000000  0.35916881  1
  Cu  Cu9  1  -0.00000000  0.00000000  0.85916881  1
  Cu  Cu10  1  0.66666700  0.33333300  0.68338582  1
  Cu  Cu11  1  0.66666700  0.33333300  0.18338582  1
  C  C12  1  0.95149162  0.33541968  0.58460551  1
  C  C13  1  0.38392906  0.04850838  0.58460551  1
  C  C14  1  0.66458032  0.61607094  0.58460551  1
  C  C15  1  0.95149162  0.61607094  0.08460551  1
  C  C16  1  0.66458032  0.04850838  0.08460551  1
  C  C17  1  0.38392906  0.33541968  0.08460551  1
  C  C18  1  0.62235839  0.66951551  0.91639831  1
  C  C19  1  0.04715612  0.37764161  0.91639831  1
  C  C20  1  0.33048449  0.95284388  0.91639831  1
  C  C21  1  0.62235839  0.95284388  0.41639831  1
  C  C22  1  0.33048449  0.37764161  0.41639831  1
  C  C23  1  0.04715612  0.66951551  0.41639831  1
  C  C24  1  0.29055896  0.00436333  0.25103736  1
  C  C25  1  0.71380437  0.70944104  0.25103736  1
  C  C26  1  0.99563667  0.28619563  0.25103736  1
  C  C27  1  0.29055896  0.28619563  0.75103736  1
  C  C28  1  0.99563667  0.70944104  0.75103736  1
  C  C29  1  0.71380437  0.00436333  0.75103736  1
  C  C30  1  0.20692407  0.02643852  0.30325912  1
  C  C31  1  0.81951445  0.79307593  0.30325912  1
  C  C32  1  0.97356148  0.18048555  0.30325912  1
  C  C33  1  0.20692407  0.18048555  0.80325912  1
  C  C34  1  0.97356148  0.79307593  0.80325912  1
  C  C35  1  0.81951445  0.02643852  0.80325912  1
  C  C36  1  0.79640579  0.96905374  0.69662852  1
  C  C37  1  0.17264795  0.20359421  0.69662852  1
  C  C38  1  0.03094626  0.82735205  0.69662852  1
  C  C39  1  0.79640579  0.82735205  0.19662852  1
  C  C40  1  0.03094626  0.20359421  0.19662852  1
  C  C41  1  0.17264795  0.96905374  0.19662852  1
  C  C42  1  0.88235803  0.37197368  0.63980090  1
  C  C43  1  0.48961665  0.11764197  0.63980090  1
  C  C44  1  0.62802632  0.51038335  0.63980090  1
  C  C45  1  0.88235803  0.51038335  0.13980090  1
  C  C46  1  0.62802632  0.11764197  0.13980090  1
  C  C47  1  0.48961665  0.37197368  0.13980090  1
  C  C48  1  0.46566090  0.30035380  0.02855626  1
  C  C49  1  0.83469390  0.53433910  0.02855626  1
  C  C50  1  0.69964620  0.16530610  0.02855626  1
  C  C51  1  0.46566090  0.16530610  0.52855626  1
  C  C52  1  0.69964620  0.53433910  0.52855626  1
  C  C53  1  0.83469390  0.30035380  0.52855626  1
  C  C54  1  0.52560059  0.68844016  0.97102362  1
  C  C55  1  0.16283857  0.47439941  0.97102362  1
  C  C56  1  0.31155984  0.83716143  0.97102362  1
  C  C57  1  0.52560059  0.83716143  0.47102362  1
  C  C58  1  0.31155984  0.47439941  0.47102362  1
  C  C59  1  0.16283857  0.68844016  0.47102362  1
  C  C60  1  0.13563251  0.63270543  0.36126289  1
  C  C61  1  0.49707192  0.86436749  0.36126289  1
  C  C62  1  0.36729457  0.50292808  0.36126289  1
  C  C63  1  0.13563251  0.50292808  0.86126289  1
  C  C64  1  0.36729457  0.86436749  0.86126289  1
  C  C65  1  0.49707192  0.63270543  0.86126289  1
  C  C66  1  0.02709360  0.82634407  0.40879273  1
  C  C67  1  0.79925047  0.97290640  0.40879273  1
  C  C68  1  0.17365593  0.20074953  0.40879273  1
  C  C69  1  0.02709360  0.20074953  0.90879273  1
  C  C70  1  0.17365593  0.97290640  0.90879273  1
  C  C71  1  0.79925047  0.82634407  0.90879273  1
  C  C72  1  0.97511307  0.16917780  0.59382553  1
  C  C73  1  0.19406473  0.02488693  0.59382553  1
  C  C74  1  0.83082220  0.80593527  0.59382553  1
  C  C75  1  0.97511307  0.80593527  0.09382553  1
  C  C76  1  0.83082220  0.02488693  0.09382553  1
  C  C77  1  0.19406473  0.16917780  0.09382553  1
  C  C78  1  0.68582268  0.15101798  0.74132768  1
  C  C79  1  0.46519629  0.31417731  0.74132768  1
  C  C80  1  0.84898202  0.53480371  0.74132768  1
  C  C81  1  0.68582269  0.53480371  0.24132768  1
  C  C82  1  0.84898202  0.31417731  0.24132768  1
  C  C83  1  0.46519629  0.15101798  0.24132768  1
  C  C84  1  0.63054774  0.49715282  0.92684993  1
  C  C85  1  0.86660608  0.36945226  0.92684993  1
  C  C86  1  0.50284718  0.13339392  0.92684993  1
  C  C87  1  0.63054774  0.13339392  0.42684993  1
  C  C88  1  0.50284718  0.36945226  0.42684993  1
  C  C89  1  0.86660608  0.49715282  0.42684993  1
  C  C90  1  0.35114059  0.49042611  0.07076408  1
  C  C91  1  0.13928452  0.64885941  0.07076408  1
  C  C92  1  0.50957389  0.86071548  0.07076408  1
  C  C93  1  0.35114059  0.86071548  0.57076408  1
  C  C94  1  0.50957389  0.64885941  0.57076408  1
  C  C95  1  0.13928452  0.49042611  0.57076408  1
  C  C96  1  0.30128330  0.83523599  0.25780938  1
  C  C97  1  0.53395169  0.69871670  0.25780938  1
  C  C98  1  0.16476401  0.46604831  0.25780938  1
  C  C99  1  0.30128330  0.46604831  0.75780938  1
  C  C100  1  0.16476401  0.69871670  0.75780938  1
  C  C101  1  0.53395169  0.83523599  0.75780938  1
