# generated using pymatgen
data_Cu2NiC8
_symmetry_space_group_name_H-M   'P 1'
_cell_length_a   6.32099681
_cell_length_b   5.34035645
_cell_length_c   5.25305886
_cell_angle_alpha   90.00000000
_cell_angle_beta   90.00000000
_cell_angle_gamma   90.00016670
_symmetry_Int_Tables_number   1
_chemical_formula_structural   Cu2NiC8
_chemical_formula_sum   'Cu2 Ni1 C8'
_cell_volume   177.32423047
_cell_formula_units_Z   1
loop_
 _symmetry_equiv_pos_site_id
 _symmetry_equiv_pos_as_xyz
  1  'x, y, z'
loop_
 _atom_site_type_symbol
 _atom_site_label
 _atom_site_symmetry_multiplicity
 _atom_site_fract_x
 _atom_site_fract_y
 _atom_site_fract_z
 _atom_site_occupancy
  C  C0  1  0.74399280  1.00000000  0.50000000  1
  C  C1  1  0.53514780  0.50000100  0.50000000  1
  Ni  Ni2  1  0.50451616  0.00000000  -0.00000000  1
  Cu  Cu3  1  0.20344536  1.00000000  0.50000000  1
  Cu  Cu4  1  0.85607964  0.49999900  -0.00000000  1
  C  C5  1  0.65682604  0.73788761  0.74899000  1
  C  C6  1  0.65682604  0.73788761  0.25101000  1
  C  C7  1  0.19974252  0.00000000  -0.00000000  1
  C  C8  1  0.25177054  0.50000100  0.50000000  1
  C  C9  1  0.65682705  0.26211139  0.25101000  1
  C  C10  1  0.65682705  0.26211139  0.74899000  1
