# generated using pymatgen
data_Cu2NiC18
_symmetry_space_group_name_H-M   'P 1'
_cell_length_a   9.08731958
_cell_length_b   9.09486051
_cell_length_c   22.04053777
_cell_angle_alpha   89.95903349
_cell_angle_beta   90.00000000
_cell_angle_gamma   119.97257600
_symmetry_Int_Tables_number   1
_chemical_formula_structural   Cu2NiC18
_chemical_formula_sum   'Cu12 Ni6 C108'
_cell_volume   1577.99078259
_cell_formula_units_Z   6
loop_
 _symmetry_equiv_pos_site_id
 _symmetry_equiv_pos_as_xyz
  1  'x, y, z'
loop_
 _atom_site_type_symbol
 _atom_site_label
 _atom_site_symmetry_multiplicity
 _atom_site_fract_x
 _atom_site_fract_y
 _atom_site_fract_z
 _atom_site_occupancy
  C  C0  1  0.61653852  0.99717199  0.25747018  1
  C  C1  1  0.36026991  0.34407069  0.25273848  1
  C  C2  1  0.01085917  0.64961771  0.23828076  1
  C  C3  1  0.63875855  0.64961771  0.73828076  1
  C  C4  1  0.98380078  0.34407069  0.75273848  1
  C  C5  1  0.38063347  0.99717199  0.75747018  1
  C  C6  1  0.31986150  0.34594128  0.58660043  1
  C  C7  1  0.01385331  0.69255772  0.57993705  1
  C  C8  1  0.66732056  0.94834287  0.58363406  1
  C  C9  1  0.28102331  0.94834287  0.08363406  1
  C  C10  1  0.67870541  0.69255772  0.07993705  1
  C  C11  1  0.02608078  0.34594128  0.08660043  1
  C  C12  1  0.98491021  0.68058346  0.92783061  1
  C  C13  1  0.68128299  0.02889332  0.90585150  1
  C  C14  1  0.33309764  0.28741182  0.91650443  1
  C  C15  1  0.95431318  0.28741182  0.41650443  1
  C  C16  1  0.34760933  0.02889332  0.40585150  1
  C  C17  1  0.69567225  0.68058346  0.42783061  1
  C  C18  1  0.97295926  0.98400183  0.49946817  1
  C  C19  1  0.01104257  0.98400183  0.99946817  1
  C  C20  1  0.65634157  0.30772676  0.83345939  1
  C  C21  1  0.65138619  0.30772676  0.33345939  1
  C  C22  1  0.31742830  0.67832423  0.16689288  1
  C  C23  1  0.36089493  0.67832423  0.66689288  1
  C  C24  1  0.00433541  0.00082037  0.34907437  1
  C  C25  1  0.99648496  0.00082037  0.84907437  1
  C  C26  1  0.98204209  0.98583829  0.65017089  1
  C  C27  1  0.00379620  0.98583829  0.15017089  1
  C  C28  1  0.66443189  0.33057363  0.68286539  1
  C  C29  1  0.66614274  0.33057363  0.18286539  1
  C  C30  1  0.66553925  0.33254764  0.98408923  1
  C  C31  1  0.66700939  0.33254764  0.48408923  1
  C  C32  1  0.31931894  0.67625139  0.01596316  1
  C  C33  1  0.35693145  0.67625139  0.51596316  1
  C  C34  1  0.34210963  0.68897133  0.31799202  1
  C  C35  1  0.34686070  0.68897133  0.81799202  1
  Ni  Ni36  1  0.30085875  0.00201799  0.25013293  1
  Ni  Ni37  1  0.70115923  0.00201799  0.75013293  1
  Ni  Ni38  1  0.66675597  0.62710897  0.58331698  1
  Ni  Ni39  1  0.96035400  0.62710897  0.08331698  1
  Ni  Ni40  1  0.33266970  0.97240923  0.91687920  1
  Ni  Ni41  1  0.63973853  0.97240923  0.41687920  1
  Cu  Cu42  1  0.70249323  0.70295247  0.25037670  1
  Cu  Cu43  1  0.00103821  0.29351886  0.24981986  1
  Cu  Cu44  1  0.29248065  0.29351886  0.74981986  1
  Cu  Cu45  1  0.00045924  0.70295247  0.75037670  1
  Cu  Cu46  1  0.96646003  0.33658772  0.58307690  1
  Cu  Cu47  1  0.36761107  0.03739980  0.58356774  1
  Cu  Cu48  1  0.66978974  0.03739980  0.08356774  1
  Cu  Cu49  1  0.37012868  0.33658772  0.08307690  1
  Cu  Cu50  1  0.62382869  0.66387563  0.91715446  1
  Cu  Cu51  1  0.04252617  0.37334594  0.91607668  1
  Cu  Cu52  1  0.33081878  0.37334594  0.41607668  1
  Cu  Cu53  1  0.04004594  0.66387563  0.41715446  1
  C  C54  1  0.21563510  0.03464201  0.31074460  1
  C  C55  1  0.80725993  0.78593869  0.30478306  1
  C  C56  1  0.97628030  0.18756746  0.30437373  1
  C  C57  1  0.21128717  0.18756746  0.80437373  1
  C  C58  1  0.97867876  0.78593869  0.80478306  1
  C  C59  1  0.81900691  0.03464201  0.81074460  1
  C  C60  1  0.79131146  0.97649816  0.69040842  1
  C  C61  1  0.19151316  0.21109322  0.69440612  1
  C  C62  1  0.03333622  0.81109412  0.69550189  1
  C  C63  1  0.77775790  0.81109412  0.19550189  1
  C  C64  1  0.01958006  0.21109322  0.19440612  1
  C  C65  1  0.18518669  0.97649816  0.19040842  1
  C  C66  1  0.88552802  0.35811692  0.63827920  1
  C  C67  1  0.47647665  0.11367936  0.63772555  1
  C  C68  1  0.63986226  0.51032868  0.64342854  1
  C  C69  1  0.87046742  0.51032868  0.14342854  1
  C  C70  1  0.63720371  0.11367936  0.13772555  1
  C  C71  1  0.47258990  0.35811692  0.13827920  1
  C  C72  1  0.44739723  0.30467776  0.02898569  1
  C  C73  1  0.84455971  0.53766797  0.02298879  1
  C  C74  1  0.69221904  0.13992656  0.02846223  1
  C  C75  1  0.44770852  0.13992656  0.52846223  1
  C  C76  1  0.69310925  0.53766797  0.52298879  1
  C  C77  1  0.85728153  0.30467776  0.52898569  1
  C  C78  1  0.54094306  0.68324566  0.97234597  1
  C  C79  1  0.14833716  0.45341191  0.97101246  1
  C  C80  1  0.30036465  0.85484732  0.97680591  1
  C  C81  1  0.55448167  0.85484732  0.47680591  1
  C  C82  1  0.30507376  0.45341191  0.47101246  1
  C  C83  1  0.14230160  0.68324566  0.47234597  1
  C  C84  1  0.12016411  0.63769244  0.36249758  1
  C  C85  1  0.52142611  0.88729787  0.35707215  1
  C  C86  1  0.34898837  0.47555928  0.36104092  1
  C  C87  1  0.12656992  0.47555928  0.86104092  1
  C  C88  1  0.36587076  0.88729787  0.85707215  1
  C  C89  1  0.51752733  0.63769244  0.86249758  1
  C  C90  1  0.02439140  0.81946530  0.41229627  1
  C  C91  1  0.83085396  0.99086791  0.41073555  1
  C  C92  1  0.17857838  0.20037808  0.41281863  1
  C  C93  1  0.02179970  0.20037808  0.91281863  1
  C  C94  1  0.16001395  0.99086791  0.91073555  1
  C  C95  1  0.79507391  0.81946530  0.91229627  1
  C  C96  1  0.99769910  0.19075627  0.58807318  1
  C  C97  1  0.19961639  0.02857907  0.59068687  1
  C  C98  1  0.84112915  0.81825271  0.58559692  1
  C  C99  1  0.97712356  0.81825271  0.08559692  1
  C  C100  1  0.82896268  0.02857907  0.09068687  1
  C  C101  1  0.19305717  0.19075627  0.08807318  1
  C  C102  1  0.67850686  0.17284758  0.74482697  1
  C  C103  1  0.46611400  0.31574368  0.74662309  1
  C  C104  1  0.84383094  0.53391261  0.74475891  1
  C  C105  1  0.69008267  0.53391261  0.24475891  1
  C  C106  1  0.84963069  0.31574368  0.24662309  1
  C  C107  1  0.49434173  0.17284758  0.24482697  1
  C  C108  1  0.64538268  0.51232104  0.92076362  1
  C  C109  1  0.87146514  0.35747658  0.92058239  1
  C  C110  1  0.50576169  0.16329733  0.92243949  1
  C  C111  1  0.65753664  0.16329733  0.42243949  1
  C  C112  1  0.48601244  0.35747658  0.42058239  1
  C  C113  1  0.86693937  0.51232104  0.42076362  1
  C  C114  1  0.36179826  0.49589725  0.07618779  1
  C  C115  1  0.15187139  0.64446591  0.08127510  1
  C  C116  1  0.52375706  0.86024763  0.07815867  1
  C  C117  1  0.33648958  0.86024763  0.57815867  1
  C  C118  1  0.49259352  0.64446591  0.58127510  1
  C  C119  1  0.13409799  0.49589725  0.57618779  1
  C  C120  1  0.31377299  0.82604665  0.25265559  1
  C  C121  1  0.52608999  0.67388589  0.25593533  1
  C  C122  1  0.15826294  0.46341016  0.25549835  1
  C  C123  1  0.30514621  0.46341016  0.75549835  1
  C  C124  1  0.14779490  0.67388589  0.75593533  1
  C  C125  1  0.51227266  0.82604665  0.75265559  1
