# generated using pymatgen
data_Cu2Ni2C9
_symmetry_space_group_name_H-M   'P 1'
_cell_length_a   5.69742932
_cell_length_b   5.69743050
_cell_length_c   6.10674358
_cell_angle_alpha   90.00000000
_cell_angle_beta   90.00000000
_cell_angle_gamma   59.43730749
_symmetry_Int_Tables_number   1
_chemical_formula_structural   Cu2Ni2C9
_chemical_formula_sum   'Cu2 Ni2 C9'
_cell_volume   170.68988697
_cell_formula_units_Z   1
loop_
 _symmetry_equiv_pos_site_id
 _symmetry_equiv_pos_as_xyz
  1  'x, y, z'
loop_
 _atom_site_type_symbol
 _atom_site_label
 _atom_site_symmetry_multiplicity
 _atom_site_fract_x
 _atom_site_fract_y
 _atom_site_fract_z
 _atom_site_occupancy
  C  C0  1  0.15039902  0.15039902  0.25000000  1
  Ni  Ni1  1  0.41336388  0.41336388  0.25000000  1
  Ni  Ni2  1  0.61992183  0.61992183  0.75000000  1
  Cu  Cu3  1  0.92827086  0.92827086  0.95544284  1
  Cu  Cu4  1  0.92827086  0.92827086  0.54455716  1
  C  C5  1  0.30278440  0.30278440  0.03809919  1
  C  C6  1  0.30278440  0.30278440  0.46190081  1
  C  C7  1  0.21445085  0.77910059  0.25000000  1
  C  C8  1  0.25185733  0.77565085  0.75000000  1
  C  C9  1  0.77910059  0.21445085  0.25000000  1
  C  C10  1  0.77565085  0.25185733  0.75000000  1
  C  C11  1  0.72698856  0.72698856  0.97124933  1
  C  C12  1  0.72698856  0.72698856  0.52875067  1
