# generated using pymatgen
data_CuNiC18
_symmetry_space_group_name_H-M   'P 1'
_cell_length_a   9.00917091
_cell_length_b   8.99549579
_cell_length_c   22.25782628
_cell_angle_alpha   90.00000000
_cell_angle_beta   90.17826087
_cell_angle_gamma   119.94980290
_symmetry_Int_Tables_number   1
_chemical_formula_structural   CuNiC18
_chemical_formula_sum   'Cu6 Ni6 C108'
_cell_volume   1562.93156924
_cell_formula_units_Z   6
loop_
 _symmetry_equiv_pos_site_id
 _symmetry_equiv_pos_as_xyz
  1  'x, y, z'
loop_
 _atom_site_type_symbol
 _atom_site_label
 _atom_site_symmetry_multiplicity
 _atom_site_fract_x
 _atom_site_fract_y
 _atom_site_fract_z
 _atom_site_occupancy
  C  C0  1  0.98155613  0.96478547  0.49181429  1
  C  C1  1  0.98155613  0.01677067  0.99181429  1
  C  C2  1  0.66698660  0.33816021  0.82499419  1
  C  C3  1  0.66698660  0.32882538  0.32499419  1
  C  C4  1  0.32876218  0.66194809  0.15834058  1
  C  C5  1  0.32876218  0.66681509  0.65834058  1
  C  C6  1  0.37042035  0.35977286  0.24528370  1
  C  C7  1  0.98697888  0.63301016  0.24546365  1
  C  C8  1  0.98697888  0.35396872  0.74546365  1
  C  C9  1  0.37042035  0.01064748  0.74528370  1
  C  C10  1  0.31059687  0.34581599  0.57879934  1
  C  C11  1  0.65668675  0.96515643  0.57860216  1
  C  C12  1  0.31059687  0.96477988  0.07879934  1
  C  C13  1  0.65668675  0.69152933  0.07860216  1
  C  C14  1  0.97897347  0.68184760  0.91134368  1
  C  C15  1  0.32299048  0.29774399  0.91272760  1
  C  C16  1  0.97897347  0.29712688  0.41134368  1
  C  C17  1  0.32299048  0.02524749  0.41272760  1
  Ni  Ni18  1  0.99710449  0.99246620  0.64836410  1
  Ni  Ni19  1  0.99710449  0.00463829  0.14836410  1
  Ni  Ni20  1  0.67166007  0.32789216  0.98153559  1
  Ni  Ni21  1  0.67166007  0.34376691  0.48153559  1
  Ni  Ni22  1  0.34218138  0.67283572  0.31502201  1
  Ni  Ni23  1  0.34218138  0.66934666  0.81502201  1
  Cu  Cu24  1  0.99151821  0.99383276  0.35070655  1
  Cu  Cu25  1  0.99151821  0.99768544  0.85070655  1
  Cu  Cu26  1  0.66900721  0.34204921  0.68411457  1
  Cu  Cu27  1  0.66900721  0.32695699  0.18411457  1
  Cu  Cu28  1  0.33001371  0.66153647  0.01766424  1
  Cu  Cu29  1  0.33001371  0.66847825  0.51766424  1
  C  C30  1  0.29575737  0.00207126  0.25232540  1
  C  C31  1  0.70581898  0.70385526  0.24967951  1
  C  C32  1  0.99904201  0.29702313  0.25519690  1
  C  C33  1  0.29575737  0.29368610  0.75232540  1
  C  C34  1  0.99904201  0.70201889  0.75519690  1
  C  C35  1  0.70581898  0.00196372  0.74967951  1
  C  C36  1  0.96432202  0.33496801  0.58638641  1
  C  C37  1  0.37278281  0.03872755  0.58565760  1
  C  C38  1  0.66286749  0.62790229  0.58548321  1
  C  C39  1  0.96432202  0.62935301  0.08638641  1
  C  C40  1  0.66286749  0.03496420  0.08548321  1
  C  C41  1  0.37278281  0.33405426  0.08565760  1
  C  C42  1  0.63230000  0.66922591  0.92214944  1
  C  C43  1  0.04172952  0.37312513  0.91616584  1
  C  C44  1  0.33289593  0.96301482  0.91893517  1
  C  C45  1  0.63230000  0.96307509  0.42214944  1
  C  C46  1  0.33289593  0.36988211  0.41893517  1
  C  C47  1  0.04172952  0.66860539  0.41616584  1
  C  C48  1  0.20954109  0.02303635  0.30807665  1
  C  C49  1  0.82175540  0.79573045  0.30248334  1
  C  C50  1  0.98507837  0.20124662  0.31304876  1
  C  C51  1  0.20954109  0.18650475  0.80807665  1
  C  C52  1  0.98507837  0.78383175  0.81304876  1
  C  C53  1  0.82175540  0.02602495  0.80248334  1
  C  C54  1  0.78665559  0.97847094  0.69031085  1
  C  C55  1  0.17698432  0.20342370  0.69570021  1
  C  C56  1  0.02285419  0.82310077  0.70068323  1
  C  C57  1  0.78665559  0.80818465  0.19031085  1
  C  C58  1  0.02285419  0.19975342  0.20068323  1
  C  C59  1  0.17698432  0.97356062  0.19570021  1
  C  C60  1  0.87834668  0.34882300  0.64311180  1
  C  C61  1  0.47935408  0.12499138  0.64180968  1
  C  C62  1  0.63863195  0.51606628  0.63933594  1
  C  C63  1  0.87834668  0.52952268  0.14311180  1
  C  C64  1  0.63863195  0.12256467  0.13933594  1
  C  C65  1  0.47935408  0.35436169  0.14180968  1
  C  C66  1  0.46418489  0.30603435  0.02951891  1
  C  C67  1  0.84898294  0.53752707  0.02965832  1
  C  C68  1  0.68737675  0.14450145  0.02751709  1
  C  C69  1  0.46418489  0.15814954  0.52951891  1
  C  C70  1  0.68737675  0.54287430  0.52751709  1
  C  C71  1  0.84898294  0.31145487  0.52965832  1
  C  C72  1  0.55112277  0.68385462  0.97984794  1
  C  C73  1  0.15718030  0.46449408  0.96933454  1
  C  C74  1  0.31398479  0.85676503  0.97464626  1
  C  C75  1  0.55112277  0.86726914  0.47984794  1
  C  C76  1  0.31398479  0.45722076  0.47464626  1
  C  C77  1  0.15718030  0.69268722  0.46933454  1
  C  C78  1  0.12409157  0.63986951  0.35774604  1
  C  C79  1  0.51001883  0.86794154  0.36739189  1
  C  C80  1  0.35252800  0.48025343  0.36147920  1
  C  C81  1  0.12409157  0.48422306  0.85774604  1
  C  C82  1  0.35252800  0.87227556  0.86147920  1
  C  C83  1  0.51001883  0.64207829  0.86739189  1
  C  C84  1  0.01826022  0.82480256  0.40949648  1
  C  C85  1  0.81395054  0.99402041  0.41353043  1
  C  C86  1  0.17600592  0.18840839  0.41331645  1
  C  C87  1  0.01826022  0.19345766  0.90949648  1
  C  C88  1  0.17600592  0.98759753  0.91331645  1
  C  C89  1  0.81395054  0.81993013  0.91353043  1
  C  C90  1  0.97389536  0.16346458  0.58732756  1
  C  C91  1  0.19395059  0.02968724  0.58867342  1
  C  C92  1  0.82740744  0.81042867  0.58830177  1
  C  C93  1  0.97389536  0.81043077  0.08732756  1
  C  C94  1  0.82740744  0.01697877  0.08830177  1
  C  C95  1  0.19395059  0.16426335  0.08867342  1
  C  C96  1  0.67897267  0.15775522  0.74470028  1
  C  C97  1  0.47254566  0.31256390  0.74478479  1
  C  C98  1  0.84959454  0.51891583  0.74696244  1
  C  C99  1  0.67897267  0.52121645  0.24470028  1
  C  C100  1  0.84959454  0.33067771  0.24696244  1
  C  C101  1  0.47254566  0.15998076  0.24478479  1
  C  C102  1  0.64186575  0.49778611  0.92210835  1
  C  C103  1  0.86432228  0.36643433  0.92112243  1
  C  C104  1  0.49594116  0.14741042  0.92066829  1
  C  C105  1  0.64186575  0.14407864  0.42210835  1
  C  C106  1  0.49594116  0.34852974  0.42066829  1
  C  C107  1  0.86432228  0.49788695  0.42112243  1
  C  C108  1  0.35230552  0.49129621  0.07821076  1
  C  C109  1  0.14778372  0.66298085  0.07955468  1
  C  C110  1  0.50740702  0.85371427  0.07876425  1
  C  C111  1  0.35230552  0.86101031  0.57821076  1
  C  C112  1  0.50740702  0.65369376  0.57876425  1
  C  C113  1  0.14778372  0.48480387  0.57955468  1
  C  C114  1  0.30497201  0.83214416  0.25510126  1
  C  C115  1  0.52250689  0.68402770  0.25441230  1
  C  C116  1  0.17138730  0.47672620  0.25450765  1
  C  C117  1  0.30497201  0.47282885  0.75510126  1
  C  C118  1  0.17138730  0.69466210  0.75450765  1
  C  C119  1  0.52250689  0.83848019  0.75441230  1
