# generated using pymatgen
data_CuNiC9
_symmetry_space_group_name_H-M   'P 1'
_cell_length_a   6.11800974
_cell_length_b   6.95129639
_cell_length_c   7.24707160
_cell_angle_alpha   134.42435400
_cell_angle_beta   126.77125818
_cell_angle_gamma   68.30036381
_symmetry_Int_Tables_number   1
_chemical_formula_structural   CuNiC9
_chemical_formula_sum   'Cu1 Ni1 C9'
_cell_volume   175.66127953
_cell_formula_units_Z   1
loop_
 _symmetry_equiv_pos_site_id
 _symmetry_equiv_pos_as_xyz
  1  'x, y, z'
loop_
 _atom_site_type_symbol
 _atom_site_label
 _atom_site_symmetry_multiplicity
 _atom_site_fract_x
 _atom_site_fract_y
 _atom_site_fract_z
 _atom_site_occupancy
  C  C0  1  0.32676475  0.81918480  0.58199071  1
  C  C1  1  0.67323525  0.18081520  0.41800929  1
  Ni  Ni2  1  0.00000000  0.50000000  0.50000000  1
  Cu  Cu3  1  0.00000000  -0.00000000  -0.00000000  1
  C  C4  1  0.50000000  0.50000000  -0.00000000  1
  C  C5  1  0.81233997  0.67197636  0.74555227  1
  C  C6  1  0.31857443  0.78853693  0.91823201  1
  C  C7  1  0.68142557  0.21146307  0.08176799  1
  C  C8  1  0.18766003  0.32802364  0.25444773  1
  C  C9  1  0.18032501  0.19833599  0.55616690  1
  C  C10  1  0.81967499  0.80166401  0.44383310  1
