# generated using pymatgen
data_Cu12Ni3C
_symmetry_space_group_name_H-M   'P 1'
_cell_length_a   9.45847420
_cell_length_b   9.45847420
_cell_length_c   5.57080000
_cell_angle_alpha   90.00000000
_cell_angle_beta   90.00000000
_cell_angle_gamma   120.00000142
_symmetry_Int_Tables_number   1
_chemical_formula_structural   Cu12Ni3C
_chemical_formula_sum   'Cu24 Ni6 C2'
_cell_volume   431.60886853
_cell_formula_units_Z   2
loop_
 _symmetry_equiv_pos_site_id
 _symmetry_equiv_pos_as_xyz
  1  'x, y, z'
loop_
 _atom_site_type_symbol
 _atom_site_label
 _atom_site_symmetry_multiplicity
 _atom_site_fract_x
 _atom_site_fract_y
 _atom_site_fract_z
 _atom_site_occupancy
  C  C0  1  0.33333300  0.66666700  0.75000000  1
  C  C1  1  0.66666700  0.33333300  0.25000000  1
  Ni  Ni2  1  0.70467000  0.60891900  0.75000000  1
  Ni  Ni3  1  0.09575100  0.70467000  0.25000000  1
  Ni  Ni4  1  0.60891900  0.90424900  0.25000000  1
  Ni  Ni5  1  0.39108100  0.09575100  0.75000000  1
  Ni  Ni6  1  0.90424900  0.29533000  0.75000000  1
  Ni  Ni7  1  0.29533000  0.39108100  0.25000000  1
  Cu  Cu8  1  0.80766500  0.78070100  0.75000000  1
  Cu  Cu9  1  0.02696400  0.80766500  0.25000000  1
  Cu  Cu10  1  0.78070100  0.97303600  0.25000000  1
  Cu  Cu11  1  0.21929900  0.02696400  0.75000000  1
  Cu  Cu12  1  0.97303600  0.19233500  0.75000000  1
  Cu  Cu13  1  0.19233500  0.21929900  0.25000000  1
  Cu  Cu14  1  0.79821900  0.26031700  0.53768100  1
  Cu  Cu15  1  0.53790200  0.79821900  0.03768100  1
  Cu  Cu16  1  0.46872400  0.44276000  0.25000000  1
  Cu  Cu17  1  0.02596400  0.46872400  0.75000000  1
  Cu  Cu18  1  0.44276000  0.97403600  0.75000000  1
  Cu  Cu19  1  0.55724000  0.02596400  0.25000000  1
  Cu  Cu20  1  0.97403600  0.53127600  0.25000000  1
  Cu  Cu21  1  0.53127600  0.55724000  0.75000000  1
  Cu  Cu22  1  0.79821900  0.26031700  0.96231900  1
  Cu  Cu23  1  0.53790200  0.79821900  0.46231900  1
  Cu  Cu24  1  0.26031700  0.46209800  0.46231900  1
  Cu  Cu25  1  0.73968300  0.53790200  0.96231900  1
  Cu  Cu26  1  0.46209800  0.20178100  0.96231900  1
  Cu  Cu27  1  0.20178100  0.73968300  0.46231900  1
  Cu  Cu28  1  0.20178100  0.73968300  0.03768100  1
  Cu  Cu29  1  0.46209800  0.20178100  0.53768100  1
  Cu  Cu30  1  0.73968300  0.53790200  0.53768100  1
  Cu  Cu31  1  0.26031700  0.46209800  0.03768100  1
