# generated using pymatgen
data_Cu4NiC8
_symmetry_space_group_name_H-M   'P 1'
_cell_length_a   5.33014520
_cell_length_b   9.78435318
_cell_length_c   2.95637100
_cell_angle_alpha   90.00000000
_cell_angle_beta   90.00000000
_cell_angle_gamma   95.69961044
_symmetry_Int_Tables_number   1
_chemical_formula_structural   Cu4NiC8
_chemical_formula_sum   'Cu4 Ni1 C8'
_cell_volume   153.41849699
_cell_formula_units_Z   1
loop_
 _symmetry_equiv_pos_site_id
 _symmetry_equiv_pos_as_xyz
  1  'x, y, z'
loop_
 _atom_site_type_symbol
 _atom_site_label
 _atom_site_symmetry_multiplicity
 _atom_site_fract_x
 _atom_site_fract_y
 _atom_site_fract_z
 _atom_site_occupancy
  Ni  Ni0  1  0.50000000  0.50000000  0.51473700  1
  Cu  Cu1  1  0.00000000  0.00000000  0.01013000  1
  Cu  Cu2  1  0.00000000  0.50000000  0.01472200  1
  Cu  Cu3  1  0.59957700  0.22122600  0.51278700  1
  Cu  Cu4  1  0.40042300  0.77877400  0.51278700  1
  C  C5  1  0.13710600  0.89531400  0.51038100  1
  C  C6  1  0.34460100  0.62407700  0.01409000  1
  C  C7  1  0.65539900  0.37592300  0.01409000  1
  C  C8  1  0.86289400  0.10468600  0.51038100  1
  C  C9  1  0.17764200  0.38466200  0.51469100  1
  C  C10  1  0.35749000  0.13293000  0.01159000  1
  C  C11  1  0.64251000  0.86707000  0.01159000  1
  C  C12  1  0.82235800  0.61533800  0.51469100  1
