# generated using pymatgen
data_Cu3Ni9C7
_symmetry_space_group_name_H-M   'P 1'
_cell_length_a   7.35969320
_cell_length_b   5.70855058
_cell_length_c   5.89231255
_cell_angle_alpha   78.72245941
_cell_angle_beta   68.92669138
_cell_angle_gamma   72.61299557
_symmetry_Int_Tables_number   1
_chemical_formula_structural   Cu3Ni9C7
_chemical_formula_sum   'Cu3 Ni9 C7'
_cell_volume   219.36194648
_cell_formula_units_Z   1
loop_
 _symmetry_equiv_pos_site_id
 _symmetry_equiv_pos_as_xyz
  1  'x, y, z'
loop_
 _atom_site_type_symbol
 _atom_site_label
 _atom_site_symmetry_multiplicity
 _atom_site_fract_x
 _atom_site_fract_y
 _atom_site_fract_z
 _atom_site_occupancy
  C  C0  1  0.33459300  0.66149100  0.15536600  1
  C  C1  1  0.83395000  0.67198400  0.67034200  1
  C  C2  1  0.32694400  0.72581700  0.62921800  1
  C  C3  1  0.66762200  0.37321600  0.31669700  1
  C  C4  1  0.13392800  0.29522900  0.35644700  1
  C  C5  1  0.52245200  0.01913500  0.01133700  1
  C  C6  1  0.98678700  0.94690400  0.04646300  1
  Ni  Ni7  1  0.28567800  0.91510600  0.89311500  1
  Ni  Ni8  1  0.94819000  0.23119800  0.23653100  1
  Ni  Ni9  1  0.63192300  0.58699700  0.54554800  1
  Ni  Ni10  1  0.69762600  0.11341000  0.12774600  1
  Ni  Ni11  1  0.03050300  0.76080400  0.77988200  1
  Ni  Ni12  1  0.38035000  0.43473700  0.43918700  1
  Ni  Ni13  1  0.63985100  0.65779100  0.01846200  1
  Ni  Ni14  1  0.31600900  0.96617200  0.33551800  1
  Ni  Ni15  1  0.02935400  0.66771900  0.31776100  1
  Cu  Cu16  1  0.34048600  0.36938500  0.00121200  1
  Cu  Cu17  1  0.67384000  0.03343200  0.65557300  1
  Cu  Cu18  1  0.97917200  0.30756500  0.70169000  1
