# generated using pymatgen
data_CuNiC5
_symmetry_space_group_name_H-M   'P 1'
_cell_length_a   5.03773600
_cell_length_b   8.12173700
_cell_length_c   18.88610800
_cell_angle_alpha   90.00000000
_cell_angle_beta   90.00000000
_cell_angle_gamma   90.00000000
_symmetry_Int_Tables_number   1
_chemical_formula_structural   CuNiC5
_chemical_formula_sum   'Cu8 Ni8 C40'
_cell_volume   772.72826030
_cell_formula_units_Z   8
loop_
 _symmetry_equiv_pos_site_id
 _symmetry_equiv_pos_as_xyz
  1  'x, y, z'
loop_
 _atom_site_type_symbol
 _atom_site_label
 _atom_site_symmetry_multiplicity
 _atom_site_fract_x
 _atom_site_fract_y
 _atom_site_fract_z
 _atom_site_occupancy
  C  C0  1  0.69626300  0.32285000  0.84884500  1
  C  C1  1  0.19626300  0.67715000  0.15115500  1
  C  C2  1  0.19626300  0.17715000  0.34884500  1
  C  C3  1  0.69626300  0.82285000  0.65115500  1
  C  C4  1  0.19677600  0.48931600  0.44329400  1
  C  C5  1  0.69677600  0.51068400  0.55670600  1
  C  C6  1  0.69677600  0.01068400  0.94329400  1
  C  C7  1  0.19677600  0.98931600  0.05670600  1
  Ni  Ni8  1  0.19318800  0.23260000  0.92908600  1
  Ni  Ni9  1  0.69318800  0.76740000  0.07091400  1
  Ni  Ni10  1  0.69318800  0.26740000  0.42908600  1
  Ni  Ni11  1  0.19318800  0.73260000  0.57091400  1
  Ni  Ni12  1  0.69022300  0.71270300  0.82030800  1
  Ni  Ni13  1  0.19022300  0.28729700  0.17969200  1
  Ni  Ni14  1  0.19022300  0.78729700  0.32030800  1
  Ni  Ni15  1  0.69022300  0.21270300  0.67969200  1
  Cu  Cu16  1  0.23536700  0.53267200  0.72882000  1
  Cu  Cu17  1  0.73536700  0.46732800  0.27118000  1
  Cu  Cu18  1  0.73536700  0.96732800  0.22882000  1
  Cu  Cu19  1  0.23536700  0.03267200  0.77118000  1
  Cu  Cu20  1  0.25569400  0.67284600  0.94572100  1
  Cu  Cu21  1  0.75569400  0.32715400  0.05427900  1
  Cu  Cu22  1  0.75569400  0.82715400  0.44572100  1
  Cu  Cu23  1  0.25569400  0.17284600  0.55427900  1
  C  C24  1  0.07886400  0.24824000  0.85242600  1
  C  C25  1  0.57886400  0.75176000  0.14757400  1
  C  C26  1  0.57886400  0.25176000  0.35242600  1
  C  C27  1  0.07886400  0.74824000  0.64757400  1
  C  C28  1  0.11609100  0.39346200  0.97161800  1
  C  C29  1  0.61609100  0.60653800  0.02838200  1
  C  C30  1  0.61609100  0.10653800  0.47161800  1
  C  C31  1  0.11609100  0.89346200  0.52838200  1
  C  C32  1  0.57992100  0.23101300  0.75701600  1
  C  C33  1  0.07992100  0.76898700  0.24298400  1
  C  C34  1  0.07992100  0.26898700  0.25701600  1
  C  C35  1  0.57992100  0.73101300  0.74298400  1
  C  C36  1  0.55871800  0.05456300  0.64758900  1
  C  C37  1  0.05871800  0.94543700  0.35241100  1
  C  C38  1  0.05871800  0.44543700  0.14758900  1
  C  C39  1  0.55871800  0.55456300  0.85241100  1
  C  C40  1  0.99751400  0.19446700  0.68220900  1
  C  C41  1  0.49751400  0.80553300  0.31779100  1
  C  C42  1  0.49751400  0.30553300  0.18220900  1
  C  C43  1  0.99751400  0.69446700  0.81779100  1
  C  C44  1  0.60860500  0.36390600  0.63505800  1
  C  C45  1  0.10860500  0.63609400  0.36494200  1
  C  C46  1  0.10860500  0.13609400  0.13505800  1
  C  C47  1  0.60860500  0.86390600  0.86494200  1
  C  C48  1  0.49911200  0.71652100  0.57312000  1
  C  C49  1  0.99911200  0.28347900  0.42688000  1
  C  C50  1  0.99911200  0.78347900  0.07312000  1
  C  C51  1  0.49911200  0.21652100  0.92688000  1
  C  C52  1  0.06166500  0.58562600  0.53228900  1
  C  C53  1  0.56166500  0.41437400  0.46771100  1
  C  C54  1  0.56166500  0.91437400  0.03228900  1
  C  C55  1  0.06166500  0.08562600  0.96771100  1
