# generated using pymatgen
data_Cu4Ni6C17
_symmetry_space_group_name_H-M   'P 1'
_cell_length_a   15.47389200
_cell_length_b   5.27710400
_cell_length_c   8.38263431
_cell_angle_alpha   76.05794466
_cell_angle_beta   90.00000000
_cell_angle_gamma   90.00000000
_symmetry_Int_Tables_number   1
_chemical_formula_structural   Cu4Ni6C17
_chemical_formula_sum   'Cu8 Ni12 C34'
_cell_volume   664.33804814
_cell_formula_units_Z   2
loop_
 _symmetry_equiv_pos_site_id
 _symmetry_equiv_pos_as_xyz
  1  'x, y, z'
loop_
 _atom_site_type_symbol
 _atom_site_label
 _atom_site_symmetry_multiplicity
 _atom_site_fract_x
 _atom_site_fract_y
 _atom_site_fract_z
 _atom_site_occupancy
  C  C0  1  0.00000000  0.00000000  0.00000000  1
  C  C1  1  0.50000000  0.00000000  0.50000000  1
  Ni  Ni2  1  0.73240100  0.82450600  0.29798700  1
  Ni  Ni3  1  0.23240100  0.17549400  0.20201300  1
  Ni  Ni4  1  0.26759900  0.17549400  0.70201300  1
  Ni  Ni5  1  0.76759900  0.82450600  0.79798700  1
  Ni  Ni6  1  0.73732900  0.43092800  0.15987100  1
  Ni  Ni7  1  0.23732900  0.56907200  0.34012900  1
  Ni  Ni8  1  0.26267100  0.56907200  0.84012900  1
  Ni  Ni9  1  0.76267100  0.43092800  0.65987100  1
  Ni  Ni10  1  0.02322200  0.71709900  0.61149800  1
  Ni  Ni11  1  0.52322200  0.28290100  0.88850200  1
  Ni  Ni12  1  0.97677800  0.28290100  0.38850200  1
  Ni  Ni13  1  0.47677800  0.71709900  0.11149800  1
  Cu  Cu14  1  0.83193900  0.12632300  0.24926500  1
  Cu  Cu15  1  0.33193900  0.87367700  0.25073500  1
  Cu  Cu16  1  0.16806100  0.87367700  0.75073500  1
  Cu  Cu17  1  0.66806100  0.12632300  0.74926500  1
  Cu  Cu18  1  0.91394100  0.57893000  0.76621900  1
  Cu  Cu19  1  0.41394100  0.42107000  0.73378100  1
  Cu  Cu20  1  0.08605900  0.42107000  0.23378100  1
  Cu  Cu21  1  0.58605900  0.57893000  0.26621900  1
  C  C22  1  0.17950200  0.37907300  0.27270600  1
  C  C23  1  0.82049800  0.62092700  0.72729400  1
  C  C24  1  0.55951000  0.71204200  0.39210100  1
  C  C25  1  0.05951000  0.28795800  0.10789900  1
  C  C26  1  0.44049000  0.28795800  0.60789900  1
  C  C27  1  0.94049000  0.71204200  0.89210100  1
  C  C28  1  0.56367600  0.30145900  0.30716300  1
  C  C29  1  0.06367600  0.69854100  0.19283700  1
  C  C30  1  0.43632400  0.69854100  0.69283700  1
  C  C31  1  0.32049800  0.37907300  0.77270600  1
  C  C32  1  0.54189300  0.71290800  0.09906000  1
  C  C33  1  0.04189300  0.28709200  0.40094000  1
  C  C34  1  0.45810700  0.28709200  0.90094000  1
  C  C35  1  0.95810700  0.71290800  0.59906000  1
  C  C36  1  0.61336700  0.97971700  0.66328100  1
  C  C37  1  0.11336700  0.02028300  0.83671900  1
  C  C38  1  0.38663300  0.02028300  0.33671900  1
  C  C39  1  0.88663300  0.97971700  0.16328100  1
  C  C40  1  0.62682400  0.26816100  0.85595000  1
  C  C41  1  0.12682400  0.73183900  0.64405000  1
  C  C42  1  0.37317600  0.73183900  0.14405000  1
  C  C43  1  0.87317600  0.26816100  0.35595000  1
  C  C44  1  0.72120900  0.31323800  0.61368000  1
  C  C45  1  0.22120900  0.68676200  0.88632000  1
  C  C46  1  0.27879100  0.68676200  0.38632000  1
  C  C47  1  0.77879100  0.31323800  0.11368000  1
  C  C48  1  0.73399700  0.94185100  0.85790600  1
  C  C49  1  0.23399700  0.05814900  0.64209400  1
  C  C50  1  0.26600300  0.05814900  0.14209400  1
  C  C51  1  0.76600300  0.94185100  0.35790600  1
  C  C52  1  0.93632400  0.30145900  0.80716300  1
  C  C53  1  0.67950200  0.62092700  0.22729400  1
