# generated using pymatgen
data_Cu2Ni5C11
_symmetry_space_group_name_H-M   'P 1'
_cell_length_a   10.35080960
_cell_length_b   10.35080960
_cell_length_c   10.43678294
_cell_angle_alpha   73.44302028
_cell_angle_beta   73.44302028
_cell_angle_gamma   19.86763023
_symmetry_Int_Tables_number   1
_chemical_formula_structural   Cu2Ni5C11
_chemical_formula_sum   'Cu4 Ni10 C22'
_cell_volume   363.76396012
_cell_formula_units_Z   2
loop_
 _symmetry_equiv_pos_site_id
 _symmetry_equiv_pos_as_xyz
  1  'x, y, z'
loop_
 _atom_site_type_symbol
 _atom_site_label
 _atom_site_symmetry_multiplicity
 _atom_site_fract_x
 _atom_site_fract_y
 _atom_site_fract_z
 _atom_site_occupancy
  C  C0  1  0.31380500  0.99118000  0.07240200  1
  C  C1  1  0.00882000  0.68619500  0.42759800  1
  C  C2  1  0.68619500  0.00882000  0.92759800  1
  C  C3  1  0.99118000  0.31380500  0.57240200  1
  C  C4  1  0.74673200  0.25326800  0.25000000  1
  C  C5  1  0.25326800  0.74673200  0.75000000  1
  Ni  Ni6  1  0.46489400  0.01519600  0.36287400  1
  Ni  Ni7  1  0.98480400  0.53510600  0.13712600  1
  Ni  Ni8  1  0.53510600  0.98480400  0.63712600  1
  Ni  Ni9  1  0.01519600  0.46489400  0.86287400  1
  Ni  Ni10  1  0.77253500  0.60998700  0.24260400  1
  Ni  Ni11  1  0.39001300  0.22746500  0.25739600  1
  Ni  Ni12  1  0.00000000  0.00000000  0.50000000  1
  Ni  Ni13  1  0.60998700  0.77253500  0.74260400  1
  Ni  Ni14  1  0.22746500  0.39001300  0.75739600  1
  Ni  Ni15  1  0.00000000  0.00000000  0.00000000  1
  Cu  Cu16  1  0.35335500  0.83346200  0.39452200  1
  Cu  Cu17  1  0.83346200  0.35335500  0.89452200  1
  Cu  Cu18  1  0.64664500  0.16653800  0.60547800  1
  Cu  Cu19  1  0.16653800  0.64664500  0.10547800  1
  C  C20  1  0.67445700  0.18010000  0.70996300  1
  C  C21  1  0.82510700  0.06627900  0.49026200  1
  C  C22  1  0.06627900  0.82510700  0.99026200  1
  C  C23  1  0.17489300  0.93372100  0.50973800  1
  C  C24  1  0.81990000  0.32554300  0.79003700  1
  C  C25  1  0.75666400  0.54761400  0.89599300  1
  C  C26  1  0.18010000  0.67445700  0.20996300  1
  C  C27  1  0.32554300  0.81990000  0.29003700  1
  C  C28  1  0.55277900  0.87086000  0.64685600  1
  C  C29  1  0.12914000  0.44722100  0.85314400  1
  C  C30  1  0.44722100  0.12914000  0.35314400  1
  C  C31  1  0.87086000  0.55277900  0.14685600  1
  C  C32  1  0.24333600  0.45238600  0.10400700  1
  C  C33  1  0.45238600  0.24333600  0.60400700  1
  C  C34  1  0.93372100  0.17489300  0.00973800  1
  C  C35  1  0.54761400  0.75666400  0.39599300  1
