# generated using pymatgen
data_Cu2NiC8
_symmetry_space_group_name_H-M   'P 1'
_cell_length_a   15.31485967
_cell_length_b   10.90816282
_cell_length_c   10.76156937
_cell_angle_alpha   151.85039099
_cell_angle_beta   161.76428616
_cell_angle_gamma   15.80263026
_symmetry_Int_Tables_number   1
_chemical_formula_structural   Cu2NiC8
_chemical_formula_sum   'Cu2 Ni1 C8'
_cell_volume   141.87383422
_cell_formula_units_Z   1
loop_
 _symmetry_equiv_pos_site_id
 _symmetry_equiv_pos_as_xyz
  1  'x, y, z'
loop_
 _atom_site_type_symbol
 _atom_site_label
 _atom_site_symmetry_multiplicity
 _atom_site_fract_x
 _atom_site_fract_y
 _atom_site_fract_z
 _atom_site_occupancy
  Ni  Ni0  1  0.11452189  0.83049180  0.38932497  1
  Cu  Cu1  1  0.92279966  0.79964896  0.65083302  1
  Cu  Cu2  1  0.03109012  0.20732743  0.31160904  1
  C  C3  1  0.88160717  0.54699656  0.67160982  1
  C  C4  1  0.99581919  0.57868264  0.26786129  1
  C  C5  1  0.58530716  0.11127957  0.31914509  1
  C  C6  1  0.45818848  0.47170064  0.69718158  1
  C  C7  1  0.58542900  0.86135516  0.38118641  1
  C  C8  1  0.32521931  0.91844359  0.61603434  1
  C  C9  1  0.50037082  0.56632110  0.27464528  1
  C  C10  1  0.48714921  0.10180255  0.74556816  1
