# generated using pymatgen
data_Cu4NiC8
_symmetry_space_group_name_H-M   'P 1'
_cell_length_a   4.27997979
_cell_length_b   9.66600533
_cell_length_c   3.85086784
_cell_angle_alpha   90.00000000
_cell_angle_beta   80.78352214
_cell_angle_gamma   90.00000000
_symmetry_Int_Tables_number   1
_chemical_formula_structural   Cu4NiC8
_chemical_formula_sum   'Cu4 Ni1 C8'
_cell_volume   157.25491305
_cell_formula_units_Z   1
loop_
 _symmetry_equiv_pos_site_id
 _symmetry_equiv_pos_as_xyz
  1  'x, y, z'
loop_
 _atom_site_type_symbol
 _atom_site_label
 _atom_site_symmetry_multiplicity
 _atom_site_fract_x
 _atom_site_fract_y
 _atom_site_fract_z
 _atom_site_occupancy
  C  C0  1  0.37599999  0.25000000  0.46788281  1
  C  C1  1  0.67037490  0.75000000  0.62847308  1
  Ni  Ni2  1  0.99254136  0.25000000  0.06856701  1
  Cu  Cu3  1  0.20945723  0.58755092  0.16085053  1
  Cu  Cu4  1  0.20945723  0.91244908  0.16085053  1
  Cu  Cu5  1  0.74170774  0.06084455  0.79400275  1
  Cu  Cu6  1  0.74170774  0.43915545  0.79400275  1
  C  C7  1  0.25441797  0.08519133  0.92538680  1
  C  C8  1  0.18980680  0.75000000  0.40442256  1
  C  C9  1  0.25441797  0.41480767  0.92538680  1
  C  C10  1  0.84248590  0.25000000  0.58143259  1
  C  C11  1  0.71416958  0.57889204  0.12770438  1
  C  C12  1  0.71416958  0.92110796  0.12770438  1
