# generated using pymatgen
data_CuNi2C15
_symmetry_space_group_name_H-M   'P 1'
_cell_length_a   6.02410532
_cell_length_b   5.51525488
_cell_length_c   7.89990686
_cell_angle_alpha   104.02109846
_cell_angle_beta   106.63017386
_cell_angle_gamma   106.88699078
_symmetry_Int_Tables_number   1
_chemical_formula_structural   CuNi2C15
_chemical_formula_sum   'Cu1 Ni2 C15'
_cell_volume   224.97992618
_cell_formula_units_Z   1
loop_
 _symmetry_equiv_pos_site_id
 _symmetry_equiv_pos_as_xyz
  1  'x, y, z'
loop_
 _atom_site_type_symbol
 _atom_site_label
 _atom_site_symmetry_multiplicity
 _atom_site_fract_x
 _atom_site_fract_y
 _atom_site_fract_z
 _atom_site_occupancy
  C  C0  1  0.49802500  0.51038700  0.99775500  1
  Ni  Ni1  1  0.84719000  0.40657300  0.78924900  1
  Ni  Ni2  1  0.14391500  0.61438400  0.20092700  1
  Cu  Cu3  1  0.99423300  0.00971400  0.99202200  1
  C  C4  1  0.26876300  0.85382200  0.69014400  1
  C  C5  1  0.73165500  0.16613000  0.30484400  1
  C  C6  1  0.21951800  0.41244900  0.63141700  1
  C  C7  1  0.74330400  0.60105600  0.38190800  1
  C  C8  1  0.51908800  0.14737800  0.83552900  1
  C  C9  1  0.48262600  0.86851000  0.16822500  1
  C  C10  1  0.37157900  0.57969800  0.71556300  1
  C  C11  1  0.61245000  0.43069300  0.28279800  1
  C  C12  1  0.01195900  0.79035300  0.75240800  1
  C  C13  1  0.97487100  0.23075600  0.22914100  1
  C  C14  1  0.17619900  0.82263100  0.45983500  1
  C  C15  1  0.84926000  0.20910200  0.53784000  1
  C  C16  1  0.14089900  0.34962700  0.96765500  1
  C  C17  1  0.85196500  0.67173700  0.02107300  1
