# generated using pymatgen
data_CuNiC2
_symmetry_space_group_name_H-M   'P 1'
_cell_length_a   5.13620100
_cell_length_b   6.00889600
_cell_length_c   13.88847700
_cell_angle_alpha   90.00000000
_cell_angle_beta   90.00000000
_cell_angle_gamma   90.00000000
_symmetry_Int_Tables_number   1
_chemical_formula_structural   CuNiC2
_chemical_formula_sum   'Cu8 Ni8 C16'
_cell_volume   428.63864408
_cell_formula_units_Z   8
loop_
 _symmetry_equiv_pos_site_id
 _symmetry_equiv_pos_as_xyz
  1  'x, y, z'
loop_
 _atom_site_type_symbol
 _atom_site_label
 _atom_site_symmetry_multiplicity
 _atom_site_fract_x
 _atom_site_fract_y
 _atom_site_fract_z
 _atom_site_occupancy
  Ni  Ni0  1  0.81995000  0.93252400  0.05719300  1
  Ni  Ni1  1  0.81995000  0.43252400  0.44280700  1
  Ni  Ni2  1  0.31995000  0.56747600  0.05719300  1
  Ni  Ni3  1  0.68005000  0.93252400  0.55719300  1
  Ni  Ni4  1  0.18005000  0.06747600  0.94280700  1
  Ni  Ni5  1  0.18005000  0.56747600  0.55719300  1
  Ni  Ni6  1  0.68005000  0.43252400  0.94280700  1
  Ni  Ni7  1  0.31995000  0.06747600  0.44280700  1
  C  C8  1  0.01595500  0.69532600  0.16582700  1
  C  C9  1  0.48404500  0.19532600  0.83417300  1
  C  C10  1  0.51595500  0.30467400  0.33417300  1
  C  C11  1  0.99025000  0.80682200  0.44375000  1
  C  C12  1  0.01595500  0.19532600  0.33417300  1
  C  C13  1  0.51595500  0.80467400  0.16582700  1
  C  C14  1  0.48404500  0.69532600  0.66582700  1
  C  C15  1  0.98404500  0.30467400  0.83417300  1
  C  C16  1  0.00975000  0.19317800  0.55625000  1
  C  C17  1  0.99025000  0.30682200  0.05625000  1
  C  C18  1  0.49025000  0.69317800  0.44375000  1
  C  C19  1  0.50975000  0.80682200  0.94375000  1
  C  C20  1  0.49025000  0.19317800  0.05625000  1
  C  C21  1  0.00975000  0.69317800  0.94375000  1
  C  C22  1  0.50975000  0.30682200  0.55625000  1
  C  C23  1  0.98404500  0.80467400  0.66582700  1
  Cu  Cu24  1  0.68380800  0.93009500  0.31680800  1
  Cu  Cu25  1  0.18380800  0.06990500  0.18319200  1
  Cu  Cu26  1  0.81619200  0.43009500  0.68319200  1
  Cu  Cu27  1  0.31619200  0.56990500  0.81680800  1
  Cu  Cu28  1  0.31619200  0.06990500  0.68319200  1
  Cu  Cu29  1  0.81619200  0.93009500  0.81680800  1
  Cu  Cu30  1  0.18380800  0.56990500  0.31680800  1
  Cu  Cu31  1  0.68380800  0.43009500  0.18319200  1
