# generated using pymatgen
data_Cu(NiC11)3
_symmetry_space_group_name_H-M   'P 1'
_cell_length_a   8.95313221
_cell_length_b   8.95612298
_cell_length_c   23.34727698
_cell_angle_alpha   89.96890678
_cell_angle_beta   90.05136530
_cell_angle_gamma   120.00360099
_symmetry_Int_Tables_number   1
_chemical_formula_structural   Cu(NiC11)3
_chemical_formula_sum   'Cu3 Ni9 C99'
_cell_volume   1621.23502041
_cell_formula_units_Z   3
loop_
 _symmetry_equiv_pos_site_id
 _symmetry_equiv_pos_as_xyz
  1  'x, y, z'
loop_
 _atom_site_type_symbol
 _atom_site_label
 _atom_site_symmetry_multiplicity
 _atom_site_fract_x
 _atom_site_fract_y
 _atom_site_fract_z
 _atom_site_occupancy
  Ni  Ni0  1  0.63449892  0.99856442  0.24861866  1
  Ni  Ni1  1  0.36483974  0.36442976  0.24829845  1
  Ni  Ni2  1  0.02675447  0.69507017  0.58769942  1
  Ni  Ni3  1  0.99889208  0.01098252  0.49886963  1
  Ni  Ni4  1  0.99990220  0.99911653  0.99782587  1
  Ni  Ni5  1  0.66578816  0.33228220  0.82751854  1
  Ni  Ni6  1  0.68034134  0.34589326  0.33200109  1
  Ni  Ni7  1  0.32128523  0.66563312  0.15917953  1
  Ni  Ni8  1  0.34583758  0.66541548  0.66424501  1
  Cu  Cu9  1  0.66694499  0.33361539  0.98623410  1
  Cu  Cu10  1  0.66225694  0.32848685  0.48122296  1
  Cu  Cu11  1  0.33322891  0.66668503  0.80957096  1
  C  C12  1  0.99968251  0.99629796  0.35146162  1
  C  C13  1  0.00017901  0.00103998  0.84852652  1
  C  C14  1  0.99956865  0.00567134  0.65223319  1
  C  C15  1  0.00029463  0.99679609  0.15035311  1
  C  C16  1  0.66294107  0.32979501  0.68648629  1
  C  C17  1  0.67524863  0.34105779  0.17756817  1
  C  C18  1  0.33266857  0.66671280  0.01671473  1
  C  C19  1  0.34104325  0.66560402  0.51497034  1
  C  C20  1  0.32552819  0.66586493  0.31750576  1
  C  C21  1  0.29150897  0.99979954  0.25046891  1
  C  C22  1  0.70932790  0.70727437  0.25067665  1
  C  C23  1  0.99908809  0.28982897  0.25052666  1
  C  C24  1  0.29269058  0.27530328  0.74671596  1
  C  C25  1  0.98268365  0.70695847  0.74546497  1
  C  C26  1  0.72457031  0.01729714  0.74661950  1
  C  C27  1  0.97184580  0.33376553  0.58700627  1
  C  C28  1  0.36046689  0.02720845  0.58768716  1
  C  C29  1  0.66696970  0.63840945  0.58739932  1
  C  C30  1  0.97620506  0.64270748  0.08815286  1
  C  C31  1  0.66649167  0.02338491  0.08985149  1
  C  C32  1  0.35689470  0.33350789  0.08978370  1
  C  C33  1  0.63960391  0.68367858  0.91840235  1
  C  C34  1  0.04400601  0.36032415  0.91836452  1
  C  C35  1  0.31635699  0.95599075  0.91829776  1
  C  C36  1  0.62620188  0.94446833  0.41202521  1
  C  C37  1  0.31864257  0.37383887  0.41209273  1
  C  C38  1  0.05413049  0.68103311  0.41482532  1
  C  C39  1  0.21233314  0.02974236  0.30164569  1
  C  C40  1  0.81281962  0.78609503  0.30247452  1
  C  C41  1  0.96784813  0.17980109  0.30182346  1
  C  C42  1  0.21097012  0.18416359  0.80053960  1
  C  C43  1  0.97358636  0.79266024  0.79804686  1
  C  C44  1  0.81598971  0.02719174  0.80046949  1
  C  C45  1  0.80901891  0.99808565  0.69596082  1
  C  C46  1  0.18942938  0.19028795  0.69601343  1
  C  C47  1  0.00129042  0.80701738  0.69288501  1
  C  C48  1  0.78872448  0.81692290  0.19991805  1
  C  C49  1  0.03013264  0.21056705  0.19971611  1
  C  C50  1  0.18790641  0.97555898  0.19905599  1
  C  C51  1  0.88091382  0.36442775  0.63457489  1
  C  C52  1  0.47586567  0.11787915  0.63554671  1
  C  C53  1  0.64125733  0.52241178  0.63575421  1
  C  C54  1  0.88341782  0.52418667  0.13657078  1
  C  C55  1  0.64202420  0.11325057  0.14022988  1
  C  C56  1  0.47133020  0.35806090  0.14019264  1
  C  C57  1  0.43034093  0.30170387  0.03730450  1
  C  C58  1  0.87492333  0.57469590  0.03451463  1
  C  C59  1  0.69868319  0.12884016  0.03734334  1
  C  C60  1  0.42836476  0.12675918  0.53340770  1
  C  C61  1  0.70467306  0.56808647  0.53410032  1
  C  C62  1  0.87032686  0.30207155  0.53288198  1
  C  C63  1  0.54764653  0.69405176  0.96928158  1
  C  C64  1  0.14638354  0.45236893  0.96924747  1
  C  C65  1  0.30614506  0.85371724  0.96921917  1
  C  C66  1  0.54012542  0.84863690  0.46475021  1
  C  C67  1  0.30831067  0.45959054  0.46478997  1
  C  C68  1  0.14431960  0.69166584  0.46970445  1
  C  C69  1  0.14154001  0.66128883  0.36496150  1
  C  C70  1  0.52511183  0.86301910  0.35959634  1
  C  C71  1  0.33891363  0.47520667  0.35963951  1
  C  C72  1  0.11872530  0.46202545  0.86547725  1
  C  C73  1  0.34305885  0.88115426  0.86543414  1
  C  C74  1  0.53787339  0.65685261  0.86548557  1
  C  C75  1  0.03566649  0.83637264  0.40982850  1
  C  C76  1  0.80046682  0.96396878  0.40873402  1
  C  C77  1  0.16366970  0.19973451  0.40858756  1
  C  C78  1  0.03122683  0.18991337  0.91313622  1
  C  C79  1  0.15870884  0.96879706  0.91297784  1
  C  C80  1  0.81022899  0.84099926  0.91307794  1
  C  C81  1  0.99581679  0.18451832  0.59492858  1
  C  C82  1  0.18307761  0.00100831  0.59448904  1
  C  C83  1  0.82416164  0.81083109  0.59447442  1
  C  C84  1  0.99518895  0.81449120  0.09724359  1
  C  C85  1  0.81979649  0.00448930  0.09786555  1
  C  C86  1  0.18479042  0.18026289  0.09769491  1
  C  C87  1  0.70451291  0.17234325  0.74255314  1
  C  C88  1  0.46792406  0.29565039  0.74288806  1
  C  C89  1  0.82788622  0.53200002  0.74205397  1
  C  C90  1  0.68140689  0.52844337  0.24344419  1
  C  C91  1  0.84109452  0.30591714  0.24286647  1
  C  C92  1  0.46959357  0.15921415  0.24431394  1
  C  C93  1  0.66201746  0.52931047  0.92124362  1
  C  C94  1  0.86693436  0.33723626  0.92116531  1
  C  C95  1  0.47058709  0.13286331  0.92118633  1
  C  C96  1  0.64543714  0.12135571  0.41403356  1
  C  C97  1  0.47649460  0.35500656  0.41421873  1
  C  C98  1  0.87678542  0.52358857  0.41572307  1
  C  C99  1  0.34623219  0.49204526  0.08213322  1
  C  C100  1  0.14602664  0.65404935  0.08109545  1
  C  C101  1  0.50779131  0.85448647  0.08216507  1
  C  C102  1  0.34191302  0.85210551  0.58007367  1
  C  C103  1  0.51132578  0.65363468  0.57832790  1
  C  C104  1  0.14148539  0.49740859  0.57913267  1
  C  C105  1  0.32003990  0.84936151  0.25736933  1
  C  C106  1  0.53112430  0.68804736  0.25646926  1
  C  C107  1  0.15643769  0.46394734  0.25773943  1
  C  C108  1  0.31357382  0.45291521  0.74693866  1
  C  C109  1  0.13980082  0.68718570  0.74623474  1
  C  C110  1  0.54700770  0.86059013  0.74690198  1
