# generated using pymatgen
data_Cu6NiC12
_symmetry_space_group_name_H-M   'P 1'
_cell_length_a   8.38099945
_cell_length_b   5.74984358
_cell_length_c   5.91788858
_cell_angle_alpha   66.69186468
_cell_angle_beta   64.16650479
_cell_angle_gamma   65.26708605
_symmetry_Int_Tables_number   1
_chemical_formula_structural   Cu6NiC12
_chemical_formula_sum   'Cu6 Ni1 C12'
_cell_volume   225.05413032
_cell_formula_units_Z   1
loop_
 _symmetry_equiv_pos_site_id
 _symmetry_equiv_pos_as_xyz
  1  'x, y, z'
loop_
 _atom_site_type_symbol
 _atom_site_label
 _atom_site_symmetry_multiplicity
 _atom_site_fract_x
 _atom_site_fract_y
 _atom_site_fract_z
 _atom_site_occupancy
  Ni  Ni0  1  0.84222700  0.64859300  0.16980100  1
  Cu  Cu1  1  0.84764200  0.67813200  0.66527200  1
  Cu  Cu2  1  0.63559400  0.30443300  0.33874600  1
  Cu  Cu3  1  0.31948500  0.65720800  0.66314500  1
  Cu  Cu4  1  0.20476600  0.34477700  0.33956500  1
  Cu  Cu5  1  0.48277700  0.98637400  0.99501300  1
  Cu  Cu6  1  0.01873200  0.01535600  0.97494600  1
  C  C7  1  0.66116100  0.02285900  0.64389300  1
  C  C8  1  0.33950200  0.35663400  0.97127400  1
  C  C9  1  0.02567700  0.77932700  0.81371400  1
  C  C10  1  0.37607600  0.43716500  0.45192100  1
  C  C11  1  0.33170000  0.96786000  0.35970300  1
  C  C12  1  0.67015700  0.62407700  0.03034900  1
  C  C13  1  0.01869900  0.32044300  0.68544900  1
  C  C14  1  0.00782800  0.70370300  0.29653300  1
  C  C15  1  0.31176400  0.87532400  0.87011700  1
  C  C16  1  0.66202300  0.56505700  0.51897300  1
  C  C17  1  0.93118600  0.24640300  0.21364800  1
  C  C18  1  0.71300200  0.04960800  0.11698500  1
