# generated using pymatgen
data_Cu5NiC30
_symmetry_space_group_name_H-M   'P 1'
_cell_length_a   8.72786857
_cell_length_b   8.55610572
_cell_length_c   8.65109703
_cell_angle_alpha   60.26833987
_cell_angle_beta   58.49387106
_cell_angle_gamma   60.68142223
_symmetry_Int_Tables_number   1
_chemical_formula_structural   Cu5NiC30
_chemical_formula_sum   'Cu5 Ni1 C30'
_cell_volume   454.51998887
_cell_formula_units_Z   1
loop_
 _symmetry_equiv_pos_site_id
 _symmetry_equiv_pos_as_xyz
  1  'x, y, z'
loop_
 _atom_site_type_symbol
 _atom_site_label
 _atom_site_symmetry_multiplicity
 _atom_site_fract_x
 _atom_site_fract_y
 _atom_site_fract_z
 _atom_site_occupancy
  Ni  Ni0  1  0.56472000  0.14615800  0.14680400  1
  Cu  Cu1  1  0.99965100  0.99869100  0.00165400  1
  Cu  Cu2  1  0.06926600  0.64683000  0.63775200  1
  Cu  Cu3  1  0.50099900  0.49678800  0.49996300  1
  Cu  Cu4  1  0.43484800  0.85181000  0.85912000  1
  Cu  Cu5  1  0.93263500  0.35712200  0.35445300  1
  C  C6  1  0.23529800  0.25527400  0.54545000  1
  C  C7  1  0.24602900  0.96164400  0.24902600  1
  C  C8  1  0.25953700  0.53777800  0.95852600  1
  C  C9  1  0.75748400  0.45512700  0.04309100  1
  C  C10  1  0.75335500  0.03893900  0.74790800  1
  C  C11  1  0.75005900  0.75037100  0.45479500  1
  C  C12  1  0.06341500  0.11877600  0.30886200  1
  C  C13  1  0.07066200  0.50297300  0.11234800  1
  C  C14  1  0.06160800  0.31760100  0.50038400  1
  C  C15  1  0.21356400  0.09862200  0.74028000  1
  C  C16  1  0.42095200  0.18450700  0.38687500  1
  C  C17  1  0.26127500  0.42376500  0.54621100  1
  C  C18  1  0.23782400  0.94094700  0.08516200  1
  C  C19  1  0.26392000  0.76960600  0.41475800  1
  C  C20  1  0.57775200  0.60953200  0.01982600  1
  C  C21  1  0.29321200  0.54275100  0.76391900  1
  C  C22  1  0.76428200  0.25690600  0.06873500  1
  C  C23  1  0.57123300  0.00598000  0.80388900  1
  C  C24  1  0.42327800  0.01067700  0.18394100  1
  C  C25  1  0.24127800  0.73388500  0.94748100  1
  C  C26  1  0.74492500  0.43754000  0.24007200  1
  C  C27  1  0.42856500  0.38109500  0.01719700  1
  C  C28  1  0.74310800  0.23273000  0.57874400  1
  C  C29  1  0.75616700  0.07058500  0.90912100  1
  C  C30  1  0.73658400  0.57792700  0.44434100  1
  C  C31  1  0.56433200  0.80643500  0.61705700  1
  C  C32  1  0.75246000  0.91155100  0.25765600  1
  C  C33  1  0.92868300  0.70518700  0.47644200  1
  C  C34  1  0.94217000  0.48610700  0.87940100  1
  C  C35  1  0.93486000  0.87777800  0.69875400  1
