# generated using pymatgen
data_Cu6NiC12
_symmetry_space_group_name_H-M   'P 1'
_cell_length_a   5.19256058
_cell_length_b   7.89852289
_cell_length_c   5.93825847
_cell_angle_alpha   96.50008298
_cell_angle_beta   79.99610601
_cell_angle_gamma   95.86714275
_symmetry_Int_Tables_number   1
_chemical_formula_structural   Cu6NiC12
_chemical_formula_sum   'Cu6 Ni1 C12'
_cell_volume   237.45462361
_cell_formula_units_Z   1
loop_
 _symmetry_equiv_pos_site_id
 _symmetry_equiv_pos_as_xyz
  1  'x, y, z'
loop_
 _atom_site_type_symbol
 _atom_site_label
 _atom_site_symmetry_multiplicity
 _atom_site_fract_x
 _atom_site_fract_y
 _atom_site_fract_z
 _atom_site_occupancy
  Ni  Ni0  1  0.51742635  0.83978120  0.81076903  1
  Cu  Cu1  1  0.43102687  0.01967273  0.41500006  1
  Cu  Cu2  1  0.51073849  0.65557334  0.17835923  1
  Cu  Cu3  1  0.53766681  0.32751844  0.84070863  1
  Cu  Cu4  1  0.01792712  0.65394270  0.67951918  1
  Cu  Cu5  1  0.82340191  0.33429791  0.33939068  1
  Cu  Cu6  1  -0.00001775  0.98694157  -0.00423650  1
  C  C7  1  0.84339409  0.43301442  0.66435135  1
  C  C8  1  0.80532046  0.75898817  0.95566802  1
  C  C9  1  0.79611161  0.07212532  0.27557702  1
  C  C10  1  0.63990998  0.43629563  0.12338367  1
  C  C11  1  0.43941512  0.24268969  0.55318676  1
  C  C12  1  0.34224392  0.86633763  0.16446197  1
  C  C13  1  0.20590306  0.89705560  0.68784927  1
  C  C14  1  0.70149310  0.07208211  0.82376929  1
  C  C15  1  0.67096160  0.74856189  0.49201477  1
  C  C16  1  0.33666671  0.59188915  0.84699170  1
  C  C17  1  0.17516989  0.56382530  0.35905008  1
  C  C18  1  0.20523966  0.21607720  0.02037578  1
