# generated using pymatgen
data_Cu7Ni10C61
_symmetry_space_group_name_H-M   'P 1'
_cell_length_a   18.99921114
_cell_length_b   9.51838098
_cell_length_c   24.24065917
_cell_angle_alpha   90.01499273
_cell_angle_beta   90.08286716
_cell_angle_gamma   120.25611954
_symmetry_Int_Tables_number   1
_chemical_formula_structural   Cu7Ni10C61
_chemical_formula_sum   'Cu21 Ni30 C183'
_cell_volume   3786.57300618
_cell_formula_units_Z   3
loop_
 _symmetry_equiv_pos_site_id
 _symmetry_equiv_pos_as_xyz
  1  'x, y, z'
loop_
 _atom_site_type_symbol
 _atom_site_label
 _atom_site_symmetry_multiplicity
 _atom_site_fract_x
 _atom_site_fract_y
 _atom_site_fract_z
 _atom_site_occupancy
  Ni  Ni0  1  0.31567769  0.99819522  0.25311831  1
  Ni  Ni1  1  0.68535199  0.36796625  0.25270130  1
  Ni  Ni2  1  0.31249936  0.63016916  0.75713805  1
  Ni  Ni3  1  0.81254753  0.62989727  0.75646429  1
  Ni  Ni4  1  0.15301616  0.33476656  0.58147028  1
  Ni  Ni5  1  0.65263417  0.33566186  0.58192601  1
  Ni  Ni6  1  0.01340706  0.69872222  0.58306335  1
  Ni  Ni7  1  0.51492283  0.69573071  0.58160398  1
  Ni  Ni8  1  0.33180310  0.96585026  0.58164630  1
  Ni  Ni9  1  0.83480862  0.97144097  0.58163658  1
  Ni  Ni10  1  0.15206329  0.97007459  0.08078169  1
  Ni  Ni11  1  0.65319770  0.97280838  0.08224573  1
  Ni  Ni12  1  0.33267010  0.69548485  0.08200860  1
  Ni  Ni13  1  0.83262287  0.69507732  0.08192175  1
  Ni  Ni14  1  0.01429125  0.33219506  0.08047829  1
  Ni  Ni15  1  0.51463284  0.33212744  0.08293694  1
  Ni  Ni16  1  0.66752555  0.03363258  0.41435536  1
  Ni  Ni17  1  0.34721098  0.66589377  0.41301394  1
  Ni  Ni18  1  0.00011486  0.99878132  0.49318349  1
  Ni  Ni19  1  0.49978604  0.01243185  0.49360441  1
  Ni  Ni20  1  0.99998047  0.00035528  0.99597458  1
  Ni  Ni21  1  0.50016144  0.99976337  0.99583377  1
  Ni  Ni22  1  0.33291191  0.32123649  0.83686996  1
  Ni  Ni23  1  0.83304858  0.32158424  0.83707702  1
  Ni  Ni24  1  0.33154980  0.33224702  0.33247169  1
  Ni  Ni25  1  0.84617908  0.34728774  0.33345686  1
  Ni  Ni26  1  0.16334017  0.65354869  0.17027830  1
  Ni  Ni27  1  0.66499500  0.68092955  0.17078441  1
  Ni  Ni28  1  0.16025857  0.66620170  0.66966749  1
  Ni  Ni29  1  0.66002345  0.66485693  0.66980235  1
  Cu  Cu30  1  0.49980104  0.00651981  0.34758492  1
  Cu  Cu31  1  0.00298076  0.00590717  0.65649936  1
  Cu  Cu32  1  0.50273103  0.00463337  0.65504293  1
  Cu  Cu33  1  0.99973449  0.99769051  0.15592105  1
  Cu  Cu34  1  0.50046736  0.99613163  0.15443282  1
  Cu  Cu35  1  0.33371045  0.32269858  0.69075159  1
  Cu  Cu36  1  0.83331008  0.32223143  0.69142799  1
  Cu  Cu37  1  0.32958726  0.34064543  0.18486773  1
  Cu  Cu38  1  0.84295373  0.33531922  0.18789423  1
  Cu  Cu39  1  0.33349294  0.33439640  0.97795544  1
  Cu  Cu40  1  0.83312562  0.33462388  0.97819843  1
  Cu  Cu41  1  0.33188203  0.32131024  0.48115822  1
  Cu  Cu42  1  0.83995336  0.34665327  0.48020674  1
  Cu  Cu43  1  0.16655358  0.66761838  0.00224979  1
  Cu  Cu44  1  0.66644509  0.66626033  0.00330072  1
  Cu  Cu45  1  0.15716776  0.65656179  0.50532349  1
  Cu  Cu46  1  0.67259405  0.67017959  0.50719564  1
  Cu  Cu47  1  0.16096265  0.65757850  0.31777675  1
  Cu  Cu48  1  0.66380986  0.67001656  0.31794781  1
  Cu  Cu49  1  0.16177601  0.66773985  0.81930872  1
  Cu  Cu50  1  0.66173519  0.66761601  0.81939397  1
  C  C51  1  0.00033122  0.99975493  0.34699482  1
  C  C52  1  0.00172932  0.00339419  0.84937770  1
  C  C53  1  0.50177639  0.00332235  0.84932231  1
  C  C54  1  0.14766173  0.00329082  0.25426616  1
  C  C55  1  0.65564042  0.00570246  0.24968013  1
  C  C56  1  0.34376292  0.69593331  0.25068026  1
  C  C57  1  0.85424072  0.70319401  0.25456277  1
  C  C58  1  0.99770287  0.28456830  0.25353621  1
  C  C59  1  0.49980145  0.30554473  0.24581920  1
  C  C60  1  0.14856089  0.29398635  0.75457057  1
  C  C61  1  0.64818779  0.29332276  0.75445889  1
  C  C62  1  0.99676532  0.71050067  0.75333804  1
  C  C63  1  0.49682567  0.71076586  0.75323999  1
  C  C64  1  0.35645816  0.99844145  0.75423814  1
  C  C65  1  0.85618564  0.99822913  0.75438590  1
  C  C66  1  0.48574380  0.33692858  0.58394976  1
  C  C67  1  0.98472221  0.33535818  0.58450366  1
  C  C68  1  0.18213919  0.02678880  0.58405515  1
  C  C69  1  0.68441853  0.03198852  0.58069883  1
  C  C70  1  0.33079224  0.63160467  0.58350869  1
  C  C71  1  0.83262073  0.63345925  0.58781009  1
  C  C72  1  0.48557353  0.63357215  0.08179160  1
  C  C73  1  0.98686876  0.63579482  0.08163428  1
  C  C74  1  0.33065390  0.02785774  0.08452305  1
  C  C75  1  0.83178158  0.02967296  0.08193373  1
  C  C76  1  0.18120871  0.33706983  0.08069424  1
  C  C77  1  0.68485384  0.33893352  0.08534110  1
  C  C78  1  0.32834816  0.68366830  0.91086165  1
  C  C79  1  0.82823740  0.68358543  0.91087335  1
  C  C80  1  0.01278558  0.34182749  0.91427916  1
  C  C81  1  0.51295956  0.34165140  0.91428917  1
  C  C82  1  0.15835906  0.97459766  0.91413972  1
  C  C83  1  0.65832949  0.97424521  0.91417841  1
  C  C84  1  0.31990637  0.96546989  0.41650470  1
  C  C85  1  0.82843850  0.97565662  0.41431362  1
  C  C86  1  0.15926278  0.34512476  0.41469194  1
  C  C87  1  0.66652518  0.35334377  0.41645084  1
  C  C88  1  0.01268942  0.68752265  0.41385670  1
  C  C89  1  0.51314314  0.67261833  0.41976743  1
  C  C90  1  0.08765448  0.00115318  0.30095606  1
  C  C91  1  0.60972635  0.01380535  0.30143878  1
  C  C92  1  0.39322895  0.78343265  0.30308203  1
  C  C93  1  0.91367481  0.82325217  0.30141197  1
  C  C94  1  0.49179023  0.19553714  0.29506176  1
  C  C95  1  0.99962960  0.16717010  0.29997840  1
  C  C96  1  0.08994252  0.17629774  0.80120033  1
  C  C97  1  0.58978997  0.17614343  0.80126473  1
  C  C98  1  0.49811280  0.82901675  0.80003792  1
  C  C99  1  0.99814830  0.82914920  0.80006267  1
  C  C100  1  0.41652257  0.00464647  0.80098955  1
  C  C101  1  0.91653546  0.00459513  0.80093265  1
  C  C102  1  0.39092507  0.98728615  0.69779154  1
  C  C103  1  0.89021635  0.98733458  0.69780969  1
  C  C104  1  0.10877173  0.22682245  0.69806920  1
  C  C105  1  0.60809030  0.22504644  0.69802958  1
  C  C106  1  0.00278784  0.78872936  0.69674719  1
  C  C107  1  0.50290459  0.78944522  0.69664466  1
  C  C108  1  0.38835879  0.79104954  0.19760074  1
  C  C109  1  0.88845959  0.78465269  0.19851375  1
  C  C110  1  0.00042067  0.21545022  0.19666985  1
  C  C111  1  0.50716254  0.22775287  0.19155181  1
  C  C112  1  0.10803945  0.99487294  0.19803334  1
  C  C113  1  0.60771455  0.99224328  0.19612252  1
  C  C114  1  0.44328703  0.35633670  0.63550800  1
  C  C115  1  0.94191270  0.35430094  0.63564202  1
  C  C116  1  0.23561338  0.11103767  0.63543607  1
  C  C117  1  0.73885235  0.12283828  0.63101123  1
  C  C118  1  0.32178817  0.52834869  0.63566493  1
  C  C119  1  0.82311533  0.53452114  0.64090206  1
  C  C120  1  0.44489203  0.53129937  0.13394197  1
  C  C121  1  0.94796154  0.53308157  0.13413710  1
  C  C122  1  0.31897054  0.09944030  0.13917665  1
  C  C123  1  0.82083375  0.11080047  0.13403353  1
  C  C124  1  0.23250277  0.36230941  0.13324252  1
  C  C125  1  0.73347276  0.36104245  0.13947887  1
  C  C126  1  0.22430349  0.31342656  0.03110304  1
  C  C127  1  0.72939945  0.31580169  0.03627583  1
  C  C128  1  0.43145065  0.54960238  0.03134778  1
  C  C129  1  0.93186627  0.55091582  0.03174263  1
  C  C130  1  0.34214469  0.14262634  0.03629826  1
  C  C131  1  0.84418772  0.13780789  0.03162821  1
  C  C132  1  0.22296917  0.13242999  0.53304605  1
  C  C133  1  0.72324562  0.12695047  0.52696793  1
  C  C134  1  0.34110284  0.54966742  0.53139660  1
  C  C135  1  0.84269867  0.54547485  0.53768768  1
  C  C136  1  0.43261747  0.31235251  0.53292780  1
  C  C137  1  0.93395084  0.31455566  0.53249580  1
  C  C138  1  0.29510975  0.71590483  0.96528908  1
  C  C139  1  0.79490954  0.71549892  0.96534191  1
  C  C140  1  0.05923345  0.40174116  0.97009393  1
  C  C141  1  0.55947399  0.40175962  0.97008422  1
  C  C142  1  0.14130538  0.88166718  0.96980712  1
  C  C143  1  0.64134628  0.88051702  0.96965843  1
  C  C144  1  0.27398471  0.86769364  0.46961552  1
  C  C145  1  0.80197789  0.88528205  0.47076459  1
  C  C146  1  0.13984917  0.39912549  0.47066691  1
  C  C147  1  0.66447014  0.44047604  0.47045280  1
  C  C148  1  0.05626049  0.71812917  0.47086089  1
  C  C149  1  0.55966350  0.68278568  0.47416880  1
  C  C150  1  0.06188256  0.66477529  0.36899874  1
  C  C151  1  0.56021382  0.65901850  0.37068308  1
  C  C152  1  0.27136393  0.87679135  0.36438455  1
  C  C153  1  0.76423105  0.87673163  0.37031444  1
  C  C154  1  0.17461494  0.47119817  0.37022166  1
  C  C155  1  0.66882259  0.45060906  0.36501688  1
  C  C156  1  0.06083790  0.46097757  0.86848576  1
  C  C157  1  0.56063288  0.46085369  0.86845592  1
  C  C158  1  0.17015803  0.87957409  0.86822279  1
  C  C159  1  0.67035750  0.88020177  0.86798859  1
  C  C160  1  0.27276059  0.66040745  0.86183675  1
  C  C161  1  0.77271091  0.66039795  0.86184843  1
  C  C162  1  0.00552052  0.84327251  0.40010640  1
  C  C163  1  0.51033241  0.83285982  0.41722043  1
  C  C164  1  0.40166700  0.96509344  0.41817354  1
  C  C165  1  0.91387773  0.99462166  0.39825715  1
  C  C166  1  0.08327360  0.17395793  0.39874328  1
  C  C167  1  0.59030364  0.17982384  0.41815831  1
  C  C168  1  0.00673673  0.17219448  0.89989796  1
  C  C169  1  0.50688253  0.17212731  0.89995860  1
  C  C170  1  0.08005807  0.98820162  0.89960229  1
  C  C171  1  0.57993833  0.98780124  0.89964495  1
  C  C172  1  0.41493813  0.84210300  0.89907879  1
  C  C173  1  0.91490565  0.84209032  0.89906399  1
  C  C174  1  0.49610819  0.18447071  0.58713521  1
  C  C175  1  0.99563835  0.18407911  0.58750219  1
  C  C176  1  0.09577729  0.00729135  0.58769728  1
  C  C177  1  0.59813053  0.01279582  0.58555530  1
  C  C178  1  0.40743011  0.80604538  0.58710235  1
  C  C179  1  0.90888534  0.80778201  0.58867322  1
  C  C180  1  0.49617677  0.80739024  0.08544801  1
  C  C181  1  0.99689963  0.80875251  0.08626634  1
  C  C182  1  0.40725814  0.00703774  0.08633586  1
  C  C183  1  0.90775832  0.00738552  0.08646930  1
  C  C184  1  0.09452118  0.18334280  0.08540047  1
  C  C185  1  0.59739890  0.18531103  0.08703666  1
  C  C186  1  0.34978860  0.15243319  0.75846589  1
  C  C187  1  0.84953568  0.15218572  0.75876442  1
  C  C188  1  0.23269206  0.30490902  0.75857295  1
  C  C189  1  0.73221079  0.30386968  0.75858073  1
  C  C190  1  0.41319559  0.55106130  0.75770287  1
  C  C191  1  0.91336307  0.55068571  0.75804154  1
  C  C192  1  0.33212116  0.52381607  0.25034158  1
  C  C193  1  0.84984440  0.53706902  0.25915158  1
  C  C194  1  0.42036901  0.31350817  0.24643546  1
  C  C195  1  0.91876521  0.28969804  0.26089344  1
  C  C196  1  0.23223832  0.15832981  0.25990949  1
  C  C197  1  0.73659532  0.17254731  0.24913009  1
  C  C198  1  0.34208409  0.53857862  0.91602578  1
  C  C199  1  0.84202381  0.53859437  0.91600654  1
  C  C200  1  0.42591699  0.31223709  0.91687560  1
  C  C201  1  0.92594809  0.31318726  0.91676311  1
  C  C202  1  0.23149960  0.14781753  0.91675735  1
  C  C203  1  0.73108029  0.14796051  0.91701057  1
  C  C204  1  0.33290771  0.13831650  0.41693405  1
  C  C205  1  0.83549526  0.14405751  0.41764127  1
  C  C206  1  0.23707214  0.33321080  0.41843257  1
  C  C207  1  0.74124799  0.32788754  0.41564547  1
  C  C208  1  0.42405165  0.52867345  0.41858280  1
  C  C209  1  0.92627936  0.53969219  0.41528205  1
  C  C210  1  0.17284635  0.49193468  0.07479302  1
  C  C211  1  0.67657289  0.49369061  0.07728697  1
  C  C212  1  0.07286751  0.65326227  0.07555389  1
  C  C213  1  0.57187038  0.65145077  0.07613067  1
  C  C214  1  0.25325907  0.85558954  0.07632174  1
  C  C215  1  0.75367371  0.85715431  0.07603796  1
  C  C216  1  0.17261950  0.85402078  0.57926821  1
  C  C217  1  0.67543941  0.85918729  0.57923967  1
  C  C218  1  0.25267364  0.64734522  0.57849980  1
  C  C219  1  0.75473829  0.64967144  0.58218076  1
  C  C220  1  0.07082175  0.49245442  0.58086372  1
  C  C221  1  0.57218094  0.49224397  0.57965458  1
  C  C222  1  0.15891788  0.85452894  0.25871439  1
  C  C223  1  0.66826015  0.85812692  0.25086564  1
  C  C224  1  0.26240301  0.69816573  0.24991802  1
  C  C225  1  0.76745913  0.67578477  0.26056759  1
  C  C226  1  0.07397277  0.45223953  0.25807170  1
  C  C227  1  0.57995393  0.47158737  0.25009209  1
  C  C228  1  0.16178400  0.46750781  0.75920312  1
  C  C229  1  0.66157082  0.46694941  0.75905058  1
  C  C230  1  0.06991741  0.68446971  0.75811402  1
  C  C231  1  0.56981465  0.68451050  0.75805579  1
  C  C232  1  0.27431731  0.83798672  0.75939918  1
  C  C233  1  0.77408548  0.83779610  0.75954139  1
