# generated using pymatgen
data_Cu2NiC14
_symmetry_space_group_name_H-M   'P 1'
_cell_length_a   8.60786469
_cell_length_b   8.63787795
_cell_length_c   22.04160968
_cell_angle_alpha   89.53423347
_cell_angle_beta   90.00000000
_cell_angle_gamma   119.88512719
_symmetry_Int_Tables_number   1
_chemical_formula_structural   Cu2NiC14
_chemical_formula_sum   'Cu12 Ni6 C84'
_cell_volume   1420.88487908
_cell_formula_units_Z   6
loop_
 _symmetry_equiv_pos_site_id
 _symmetry_equiv_pos_as_xyz
  1  'x, y, z'
loop_
 _atom_site_type_symbol
 _atom_site_label
 _atom_site_symmetry_multiplicity
 _atom_site_fract_x
 _atom_site_fract_y
 _atom_site_fract_z
 _atom_site_occupancy
  C  C0  1  0.00247194  0.00096466  0.36003004  1
  C  C1  1  0.99849273  0.00096466  0.86003004  1
  C  C2  1  0.67685653  0.33915092  0.69370404  1
  C  C3  1  0.66229539  0.33915092  0.19370404  1
  C  C4  1  0.32801089  0.65417209  0.02643224  1
  C  C5  1  0.32616019  0.65417209  0.52643224  1
  C  C6  1  0.00115226  0.00053523  0.64685436  1
  C  C7  1  0.99938296  0.00053523  0.14685436  1
  C  C8  1  0.66218255  0.32992995  0.98083226  1
  C  C9  1  0.66774841  0.32992995  0.48083226  1
  C  C10  1  0.34965992  0.66186262  0.31358017  1
  C  C11  1  0.31220170  0.66186262  0.81358017  1
  Ni  Ni12  1  0.71123776  0.72844917  0.24984175  1
  Ni  Ni13  1  0.01721141  0.72844917  0.74984175  1
  Ni  Ni14  1  0.94004713  0.30940781  0.58352825  1
  Ni  Ni15  1  0.36936169  0.30940781  0.08352825  1
  Ni  Ni16  1  0.03131009  0.38693571  0.91783825  1
  Ni  Ni17  1  0.35562462  0.38693571  0.41783825  1
  Cu  Cu18  1  0.28058935  0.97728961  0.25095991  1
  Cu  Cu19  1  0.01971899  0.29955567  0.24990755  1
  Cu  Cu20  1  0.27983669  0.29955567  0.74990755  1
  Cu  Cu21  1  0.69670026  0.97728961  0.75095991  1
  Cu  Cu22  1  0.37049782  0.05361894  0.58403330  1
  Cu  Cu23  1  0.68567678  0.63067803  0.58364639  1
  Cu  Cu24  1  0.94500225  0.63067803  0.08364639  1
  Cu  Cu25  1  0.68312212  0.05361894  0.08403330  1
  Cu  Cu26  1  0.60748186  0.64711663  0.91643478  1
  Cu  Cu27  1  0.35199258  0.96307127  0.91731302  1
  Cu  Cu28  1  0.61107770  0.96307127  0.41731302  1
  Cu  Cu29  1  0.03963377  0.64711663  0.41643478  1
  C  C30  1  0.20319486  0.01561213  0.30397342  1
  C  C31  1  0.82483969  0.81294733  0.30540219  1
  C  C32  1  0.98934900  0.18905855  0.30405194  1
  C  C33  1  0.19970954  0.18905855  0.80405194  1
  C  C34  1  0.98810764  0.81294733  0.80540219  1
  C  C35  1  0.81241727  0.01561213  0.80397342  1
  C  C36  1  0.77905782  0.94657175  0.69513659  1
  C  C37  1  0.16299370  0.22094392  0.69454437  1
  C  C38  1  0.05337798  0.85073249  0.69176694  1
  C  C39  1  0.79735451  0.85073249  0.19176694  1
  C  C40  1  0.05795022  0.22094392  0.19454437  1
  C  C41  1  0.16751393  0.94657175  0.19513659  1
  C  C42  1  0.85491828  0.34038292  0.63856108  1
  C  C43  1  0.47813344  0.13375462  0.63757857  1
  C  C44  1  0.64659509  0.51669602  0.63688431  1
  C  C45  1  0.87010193  0.51669602  0.13688431  1
  C  C46  1  0.65562218  0.13375462  0.13757857  1
  C  C47  1  0.48546564  0.34038292  0.13856108  1
  C  C48  1  0.45587253  0.27483475  0.02548242  1
  C  C49  1  0.83092959  0.55023543  0.02811813  1
  C  C50  1  0.71895423  0.16967893  0.02773659  1
  C  C51  1  0.45072570  0.16967893  0.52773659  1
  C  C52  1  0.71930684  0.55023543  0.52811813  1
  C  C53  1  0.81896323  0.27483475  0.52548242  1
  C  C54  1  0.53315344  0.68286061  0.97014713  1
  C  C55  1  0.15109368  0.47185719  0.97196137  1
  C  C56  1  0.32400554  0.85416315  0.97082197  1
  C  C57  1  0.53015661  0.85416315  0.47082197  1
  C  C58  1  0.32076251  0.47185719  0.47196137  1
  C  C59  1  0.14970616  0.68286061  0.47014713  1
  C  C60  1  0.12244047  0.61606824  0.36097322  1
  C  C61  1  0.49775320  0.88377072  0.36108592  1
  C  C62  1  0.39449745  0.50929946  0.35941681  1
  C  C63  1  0.11480102  0.50929946  0.85941681  1
  C  C64  1  0.38601652  0.88377072  0.86108592  1
  C  C65  1  0.49362678  0.61606824  0.86097322  1
  C  C66  1  0.01169718  0.80000993  0.40786321  1
  C  C67  1  0.79078172  0.98720500  0.40927259  1
  C  C68  1  0.19645678  0.20258888  0.40684888  1
  C  C69  1  0.00613209  0.20258888  0.90684888  1
  C  C70  1  0.19642328  0.98720500  0.90927259  1
  C  C71  1  0.78831275  0.80000993  0.90786321  1
  C  C72  1  0.95505170  0.13737097  0.59277677  1
  C  C73  1  0.19100081  0.04231607  0.58934042  1
  C  C74  1  0.85418514  0.80619941  0.59078950  1
  C  C75  1  0.95201427  0.80619941  0.09078950  1
  C  C76  1  0.85131527  0.04231607  0.08934042  1
  C  C77  1  0.18231927  0.13737097  0.09277677  1
  C  C78  1  0.66570018  0.12734252  0.74249424  1
  C  C79  1  0.45591206  0.31992609  0.74079597  1
  C  C80  1  0.85772850  0.54373081  0.74066595  1
  C  C81  1  0.68600331  0.54373081  0.24066595  1
  C  C82  1  0.86401504  0.31992609  0.24079597  1
  C  C83  1  0.46164334  0.12734252  0.24249424  1
  C  C84  1  0.61849827  0.48042442  0.92378546  1
  C  C85  1  0.84622174  0.37555389  0.92747717  1
  C  C86  1  0.51810634  0.14209562  0.92235823  1
  C  C87  1  0.62399029  0.14209562  0.42235823  1
  C  C88  1  0.52933314  0.37555389  0.42747717  1
  C  C89  1  0.86192715  0.48042442  0.42378546  1
  C  C90  1  0.34569798  0.47035811  0.07430998  1
  C  C91  1  0.12679772  0.66261968  0.07484111  1
  C  C92  1  0.52871204  0.87656194  0.07486800  1
  C  C93  1  0.34784890  0.87656194  0.57486800  1
  C  C94  1  0.53582096  0.66261968  0.57484111  1
  C  C95  1  0.12465913  0.47035811  0.57430998  1
  C  C96  1  0.28551463  0.80815623  0.25948149  1
  C  C97  1  0.52453003  0.71629858  0.25648228  1
  C  C98  1  0.18407192  0.47903532  0.25696943  1
  C  C99  1  0.29496240  0.47903532  0.75696943  1
  C  C100  1  0.19176755  0.71629858  0.75648228  1
  C  C101  1  0.52264060  0.80815623  0.75948149  1
