# generated using pymatgen
data_Cu2NiC18
_symmetry_space_group_name_H-M   'P 1'
_cell_length_a   9.00823736
_cell_length_b   9.02446068
_cell_length_c   21.94022443
_cell_angle_alpha   89.98639469
_cell_angle_beta   90.00000000
_cell_angle_gamma   119.94055019
_symmetry_Int_Tables_number   1
_chemical_formula_structural   Cu2NiC18
_chemical_formula_sum   'Cu12 Ni6 C108'
_cell_volume   1545.58400287
_cell_formula_units_Z   6
loop_
 _symmetry_equiv_pos_site_id
 _symmetry_equiv_pos_as_xyz
  1  'x, y, z'
loop_
 _atom_site_type_symbol
 _atom_site_label
 _atom_site_symmetry_multiplicity
 _atom_site_fract_x
 _atom_site_fract_y
 _atom_site_fract_z
 _atom_site_occupancy
  C  C0  1  0.63871390  0.01191047  0.24758627  1
  C  C1  1  0.37054092  0.36028580  0.24961682  1
  C  C2  1  0.99034062  0.62514453  0.24601424  1
  C  C3  1  0.63480391  0.62514453  0.74601424  1
  C  C4  1  0.98974487  0.36028580  0.74961682  1
  C  C5  1  0.37319658  0.01191047  0.74758627  1
  C  C6  1  0.30619763  0.34438105  0.58296499  1
  C  C7  1  0.03758437  0.69623717  0.58114054  1
  C  C8  1  0.65394718  0.95701179  0.57906495  1
  C  C9  1  0.30306562  0.95701179  0.07906495  1
  C  C10  1  0.65865380  0.69623717  0.08114054  1
  C  C11  1  0.03818442  0.34438105  0.08296499  1
  C  C12  1  0.97504208  0.67941477  0.91587595  1
  C  C13  1  0.70597032  0.03135781  0.91301102  1
  C  C14  1  0.32292921  0.29232122  0.91413692  1
  C  C15  1  0.96939101  0.29232122  0.41413692  1
  C  C16  1  0.32538649  0.03135781  0.41301102  1
  C  C17  1  0.70437168  0.67941477  0.41587595  1
  C  C18  1  0.99751122  0.00011862  0.49593476  1
  C  C19  1  0.00260740  0.00011862  0.99593476  1
  C  C20  1  0.66590751  0.32975035  0.82959883  1
  C  C21  1  0.66384384  0.32975035  0.32959883  1
  C  C22  1  0.32827132  0.66485785  0.16288795  1
  C  C23  1  0.33658553  0.66485785  0.66288795  1
  C  C24  1  0.98762056  0.99138281  0.64904060  1
  C  C25  1  0.00376225  0.99138281  0.14904060  1
  C  C26  1  0.66752378  0.33385509  0.98259244  1
  C  C27  1  0.66633231  0.33385509  0.48259244  1
  C  C28  1  0.33686263  0.67921969  0.31578013  1
  C  C29  1  0.34235606  0.67921969  0.81578013  1
  C  C30  1  0.99991226  0.00202928  0.34816451  1
  C  C31  1  0.00211702  0.00202928  0.84816451  1
  C  C32  1  0.66513342  0.33095221  0.68167986  1
  C  C33  1  0.66581979  0.33095221  0.18167986  1
  C  C34  1  0.32628318  0.66861524  0.01484476  1
  C  C35  1  0.34233106  0.66861524  0.51484476  1
  Ni  Ni36  1  0.29580845  0.00119156  0.25290790  1
  Ni  Ni37  1  0.70538311  0.00119156  0.75290790  1
  Ni  Ni38  1  0.66611243  0.62565882  0.58578621  1
  Ni  Ni39  1  0.95954739  0.62565882  0.08578621  1
  Ni  Ni40  1  0.33345312  0.96520246  0.91893504  1
  Ni  Ni41  1  0.63174834  0.96520246  0.41893504  1
  Cu  Cu42  1  0.70576356  0.70790404  0.25148512  1
  Cu  Cu43  1  0.00309838  0.29312924  0.25066076  1
  Cu  Cu44  1  0.29003086  0.29312924  0.75066076  1
  Cu  Cu45  1  0.00214048  0.70790404  0.75148512  1
  Cu  Cu46  1  0.95883539  0.33192993  0.58442812  1
  Cu  Cu47  1  0.37147085  0.04115912  0.58449300  1
  Cu  Cu48  1  0.66968926  0.04115912  0.08449300  1
  Cu  Cu49  1  0.37309554  0.33192993  0.08442812  1
  Cu  Cu50  1  0.62330645  0.66379804  0.91863539  1
  Cu  Cu51  1  0.04120768  0.37660380  0.91771172  1
  Cu  Cu52  1  0.33539512  0.37660380  0.41771172  1
  Cu  Cu53  1  0.04049059  0.66379804  0.41863539  1
  C  C54  1  0.21227050  0.03308865  0.31179581  1
  C  C55  1  0.81370822  0.78609379  0.30819166  1
  C  C56  1  0.97077941  0.18562504  0.30791953  1
  C  C57  1  0.21484563  0.18562504  0.80791953  1
  C  C58  1  0.97238557  0.78609379  0.80819166  1
  C  C59  1  0.82081815  0.03308865  0.81179581  1
  C  C60  1  0.80313730  0.96660690  0.69256919  1
  C  C61  1  0.17125793  0.20074413  0.69371705  1
  C  C62  1  0.03281215  0.82795702  0.69415003  1
  C  C63  1  0.79514487  0.82795702  0.19415003  1
  C  C64  1  0.02948619  0.20074413  0.19371705  1
  C  C65  1  0.16346959  0.96660690  0.19256919  1
  C  C66  1  0.88178065  0.36131369  0.64156012  1
  C  C67  1  0.48119825  0.11581926  0.64117678  1
  C  C68  1  0.63665197  0.51198919  0.64506500  1
  C  C69  1  0.87533822  0.51198919  0.14506500  1
  C  C70  1  0.63462200  0.11581926  0.14117678  1
  C  C71  1  0.47953404  0.36131369  0.14156012  1
  C  C72  1  0.46243805  0.30015592  0.02737157  1
  C  C73  1  0.82881706  0.52849292  0.02545559  1
  C  C74  1  0.69572828  0.16196898  0.02764466  1
  C  C75  1  0.46624170  0.16196898  0.52764466  1
  C  C76  1  0.69967686  0.52849292  0.52545559  1
  C  C77  1  0.83771888  0.30015592  0.52737157  1
  C  C78  1  0.54322784  0.69117205  0.97537839  1
  C  C79  1  0.14899239  0.45142146  0.97493128  1
  C  C80  1  0.29864459  0.84849274  0.97764726  1
  C  C81  1  0.54984715  0.84849274  0.47764726  1
  C  C82  1  0.30242807  0.45142146  0.47493128  1
  C  C83  1  0.14794320  0.69117205  0.47537839  1
  C  C84  1  0.13086597  0.63514843  0.36109399  1
  C  C85  1  0.49724510  0.86385285  0.35894678  1
  C  C86  1  0.36462522  0.49489821  0.36071960  1
  C  C87  1  0.13027199  0.49489821  0.86071960  1
  C  C88  1  0.36660675  0.86385285  0.85894678  1
  C  C89  1  0.50428147  0.63514843  0.86109399  1
  C  C90  1  0.01554596  0.81887071  0.41200226  1
  C  C91  1  0.82055734  0.98892619  0.41078557  1
  C  C92  1  0.18156457  0.19520480  0.41209125  1
  C  C93  1  0.01364023  0.19520480  0.91209125  1
  C  C94  1  0.16836884  0.98892619  0.91078557  1
  C  C95  1  0.80332475  0.81887071  0.91200226  1
  C  C96  1  0.97265872  0.16463168  0.58801125  1
  C  C97  1  0.19444055  0.03436433  0.58744367  1
  C  C98  1  0.84848712  0.81742259  0.58953647  1
  C  C99  1  0.96893548  0.81742259  0.08953647  1
  C  C100  1  0.83992378  0.03436433  0.08744367  1
  C  C101  1  0.19197296  0.16463168  0.08801125  1
  C  C102  1  0.67770002  0.16324651  0.74464565  1
  C  C103  1  0.47123559  0.31834009  0.74508038  1
  C  C104  1  0.84716230  0.52807422  0.74486669  1
  C  C105  1  0.68091292  0.52807422  0.24486669  1
  C  C106  1  0.84710549  0.31834009  0.24508038  1
  C  C107  1  0.48554750  0.16324651  0.24464565  1
  C  C108  1  0.63449573  0.49503645  0.92112394  1
  C  C109  1  0.86034339  0.36553902  0.92203350  1
  C  C110  1  0.51409336  0.15373918  0.92240064  1
  C  C111  1  0.63964682  0.15373918  0.42240064  1
  C  C112  1  0.50519663  0.36553902  0.42203350  1
  C  C113  1  0.86054172  0.49503645  0.42112394  1
  C  C114  1  0.35113241  0.48862213  0.07664715  1
  C  C115  1  0.15001153  0.65217326  0.08031958  1
  C  C116  1  0.51706009  0.85960581  0.07747190  1
  C  C117  1  0.34254473  0.85960581  0.57747190  1
  C  C118  1  0.50216073  0.65217326  0.58031958  1
  C  C119  1  0.13748872  0.48862213  0.57664715  1
  C  C120  1  0.30258215  0.81835671  0.25603469  1
  C  C121  1  0.52498406  0.69549991  0.25474308  1
  C  C122  1  0.17181895  0.47208244  0.25444921  1
  C  C123  1  0.30026249  0.47208244  0.75444921  1
  C  C124  1  0.17051485  0.69549991  0.75474308  1
  C  C125  1  0.51577357  0.81835671  0.75603469  1
