# generated using pymatgen
data_Cu2NiC10
_symmetry_space_group_name_H-M   'P 1'
_cell_length_a   4.92204806
_cell_length_b   4.92204964
_cell_length_c   6.51072136
_cell_angle_alpha   87.32132131
_cell_angle_beta   87.32132419
_cell_angle_gamma   67.66405395
_symmetry_Int_Tables_number   1
_chemical_formula_structural   Cu2NiC10
_chemical_formula_sum   'Cu2 Ni1 C10'
_cell_volume   145.66689284
_cell_formula_units_Z   1
loop_
 _symmetry_equiv_pos_site_id
 _symmetry_equiv_pos_as_xyz
  1  'x, y, z'
loop_
 _atom_site_type_symbol
 _atom_site_label
 _atom_site_symmetry_multiplicity
 _atom_site_fract_x
 _atom_site_fract_y
 _atom_site_fract_z
 _atom_site_occupancy
  Ni  Ni0  1  0.50000000  0.50000000  0.50000000  1
  Cu  Cu1  1  0.00000000  0.00000000  0.50000100  1
  Cu  Cu2  1  0.00000000  0.00000000  0.00000000  1
  C  C3  1  0.33309900  0.33309700  0.21620800  1
  C  C4  1  0.66690300  0.66690300  0.78379200  1
  C  C5  1  0.76618700  0.76618800  0.57273600  1
  C  C6  1  0.68146400  0.23012700  0.24556200  1
  C  C7  1  0.23012600  0.68146500  0.24556200  1
  C  C8  1  0.31853500  0.76987300  0.75443800  1
  C  C9  1  0.75856700  0.75856800  0.97491100  1
  C  C10  1  0.23381300  0.23381400  0.42726400  1
  C  C11  1  0.76987300  0.31853500  0.75443800  1
  C  C12  1  0.24143300  0.24143400  0.02508800  1
