# generated using pymatgen
data_Cu5NiC13
_symmetry_space_group_name_H-M   'P 1'
_cell_length_a   5.00625155
_cell_length_b   4.96220465
_cell_length_c   10.06550715
_cell_angle_alpha   94.28146365
_cell_angle_beta   98.07297209
_cell_angle_gamma   59.77971786
_symmetry_Int_Tables_number   1
_chemical_formula_structural   Cu5NiC13
_chemical_formula_sum   'Cu5 Ni1 C13'
_cell_volume   213.92194545
_cell_formula_units_Z   1
loop_
 _symmetry_equiv_pos_site_id
 _symmetry_equiv_pos_as_xyz
  1  'x, y, z'
loop_
 _atom_site_type_symbol
 _atom_site_label
 _atom_site_symmetry_multiplicity
 _atom_site_fract_x
 _atom_site_fract_y
 _atom_site_fract_z
 _atom_site_occupancy
  Ni  Ni0  1  0.57119200  0.67398800  0.74705600  1
  C  C1  1  0.98043700  0.00823800  0.99720000  1
  Cu  Cu2  1  0.17633700  0.67657700  0.49486000  1
  Cu  Cu3  1  0.65140500  0.67498100  0.01242500  1
  Cu  Cu4  1  0.31260200  0.34200100  0.99462300  1
  Cu  Cu5  1  0.84459800  0.34533600  0.50002300  1
  Cu  Cu6  1  0.51275200  0.00677400  0.50050400  1
  C  C7  1  0.01788000  0.65462800  0.09596500  1
  C  C8  1  0.31366900  0.66153000  0.89507600  1
  C  C9  1  0.14823700  0.33747600  0.40963700  1
  C  C10  1  0.51579700  0.67582600  0.40246000  1
  C  C11  1  0.53973900  0.35542700  0.59920100  1
  C  C12  1  0.21779900  0.99951800  0.60019900  1
  C  C13  1  0.84103700  0.67729900  0.60915200  1
  C  C14  1  0.65279000  0.35424500  0.09567100  1
  C  C15  1  0.35092500  0.01978400  0.09527800  1
  C  C16  1  0.93524200  0.36925800  0.89540600  1
  C  C17  1  0.60620100  0.99205300  0.89552300  1
  C  C18  1  0.81135900  0.01256100  0.40974000  1
