# generated using pymatgen
data_Cu3NiC16
_symmetry_space_group_name_H-M   'P 1'
_cell_length_a   15.21251557
_cell_length_b   8.77838083
_cell_length_c   8.72421030
_cell_angle_alpha   90.00000000
_cell_angle_beta   125.04815778
_cell_angle_gamma   90.00000000
_symmetry_Int_Tables_number   1
_chemical_formula_structural   Cu3NiC16
_chemical_formula_sum   'Cu12 Ni4 C64'
_cell_volume   953.78452822
_cell_formula_units_Z   4
loop_
 _symmetry_equiv_pos_site_id
 _symmetry_equiv_pos_as_xyz
  1  'x, y, z'
loop_
 _atom_site_type_symbol
 _atom_site_label
 _atom_site_symmetry_multiplicity
 _atom_site_fract_x
 _atom_site_fract_y
 _atom_site_fract_z
 _atom_site_occupancy
  C  C0  1  0.25065460  0.72989508  0.98952305  1
  C  C1  1  0.75065460  0.77010492  0.48952305  1
  C  C2  1  0.75065460  0.22989508  0.98952305  1
  C  C3  1  0.25065460  0.27010492  0.48952305  1
  C  C4  1  0.50368008  0.10688510  0.74987357  1
  C  C5  1  0.50368008  0.89311490  0.24987357  1
  C  C6  1  0.00368008  0.60688510  0.74987357  1
  C  C7  1  0.00368008  0.39311490  0.24987357  1
  C  C8  1  0.18277984  0.93950188  0.28568964  1
  C  C9  1  0.18277984  0.06049812  0.78568964  1
  C  C10  1  0.68277984  0.43950188  0.28568964  1
  C  C11  1  0.68277984  0.56049812  0.78568964  1
  C  C12  1  0.10407643  0.74927234  0.56439776  1
  C  C13  1  0.10407643  0.25072766  0.06439776  1
  C  C14  1  0.60407643  0.24927234  0.56439776  1
  C  C15  1  0.60407643  0.75072766  0.06439776  1
  Ni  Ni16  1  0.89656736  0.75708449  0.94210299  1
  Ni  Ni17  1  0.89656736  0.24291551  0.44210299  1
  Ni  Ni18  1  0.39656736  0.25708449  0.94210299  1
  Ni  Ni19  1  0.39656736  0.74291551  0.44210299  1
  Cu  Cu20  1  0.99481711  0.95771106  0.75675585  1
  Cu  Cu21  1  0.99481711  0.04228894  0.25675585  1
  Cu  Cu22  1  0.49481711  0.45771106  0.75675585  1
  Cu  Cu23  1  0.49481711  0.54228894  0.25675585  1
  Cu  Cu24  1  0.35644873  0.90121066  0.76065806  1
  Cu  Cu25  1  0.64884525  0.88814402  0.75065635  1
  Cu  Cu26  1  0.64884525  0.11185598  0.25065635  1
  Cu  Cu27  1  0.35644873  0.09878934  0.26065806  1
  Cu  Cu28  1  0.85644873  0.40121066  0.76065806  1
  Cu  Cu29  1  0.14884525  0.38814402  0.75065635  1
  Cu  Cu30  1  0.14884525  0.61185598  0.25065635  1
  Cu  Cu31  1  0.85644873  0.59878934  0.26065806  1
  C  C32  1  0.15510435  0.55999839  0.73920196  1
  C  C33  1  0.85081070  0.58340533  0.75897512  1
  C  C34  1  0.85081070  0.41659467  0.25897512  1
  C  C35  1  0.15510435  0.44000161  0.23920196  1
  C  C36  1  0.65510435  0.05999839  0.73920196  1
  C  C37  1  0.35081070  0.08340533  0.75897512  1
  C  C38  1  0.35081070  0.91659467  0.25897512  1
  C  C39  1  0.65510435  0.94000161  0.23920196  1
  C  C40  1  0.42440152  0.56007614  0.57561779  1
  C  C41  1  0.56336066  0.55097519  0.93192697  1
  C  C42  1  0.56336066  0.44902481  0.43192697  1
  C  C43  1  0.42440152  0.43992386  0.07561779  1
  C  C44  1  0.92440152  0.06007614  0.57561779  1
  C  C45  1  0.06336066  0.05097519  0.93192697  1
  C  C46  1  0.06336066  0.94902481  0.43192697  1
  C  C47  1  0.92440152  0.93992386  0.07561779  1
  C  C48  1  0.25729841  0.84227562  0.74431990  1
  C  C49  1  0.74378387  0.80572172  0.75808099  1
  C  C50  1  0.74378387  0.19427828  0.25808099  1
  C  C51  1  0.25729841  0.15772438  0.24431990  1
  C  C52  1  0.75729841  0.34227562  0.74431990  1
  C  C53  1  0.24378387  0.30572172  0.75808099  1
  C  C54  1  0.24378387  0.69427828  0.25808099  1
  C  C55  1  0.75729841  0.65772438  0.24431990  1
  C  C56  1  0.35602599  0.87080065  0.57857333  1
  C  C57  1  0.64798474  0.84330996  0.91533640  1
  C  C58  1  0.64798474  0.15669004  0.41533640  1
  C  C59  1  0.35602599  0.12919935  0.07857333  1
  C  C60  1  0.85602599  0.37080065  0.57857333  1
  C  C61  1  0.14798474  0.34330996  0.91533640  1
  C  C62  1  0.14798474  0.65669004  0.41533640  1
  C  C63  1  0.85602599  0.62919935  0.07857333  1
  C  C64  1  0.45854631  0.84731728  0.93576573  1
  C  C65  1  0.54487035  0.81779211  0.56238395  1
  C  C66  1  0.54487035  0.18220789  0.06238395  1
  C  C67  1  0.45854631  0.15268272  0.43576573  1
  C  C68  1  0.95854631  0.34731728  0.93576573  1
  C  C69  1  0.04487035  0.31779211  0.56238395  1
  C  C70  1  0.04487035  0.68220789  0.06238395  1
  C  C71  1  0.95854631  0.65268272  0.43576573  1
  C  C72  1  0.06961472  0.85024832  0.74210552  1
  C  C73  1  0.91032896  0.85454426  0.75805506  1
  C  C74  1  0.91032896  0.14545574  0.25805506  1
  C  C75  1  0.06961472  0.14975168  0.24210552  1
  C  C76  1  0.56961472  0.35024832  0.74210552  1
  C  C77  1  0.41032896  0.35454426  0.75805506  1
  C  C78  1  0.41032896  0.64545574  0.25805506  1
  C  C79  1  0.56961472  0.64975168  0.24210552  1
