# generated using pymatgen
data_Cu24Ni6C5
_symmetry_space_group_name_H-M   'P 1'
_cell_length_a   8.46778681
_cell_length_b   8.46778656
_cell_length_c   22.07914953
_cell_angle_alpha   90.00000000
_cell_angle_beta   90.00000000
_cell_angle_gamma   120.00000096
_symmetry_Int_Tables_number   1
_chemical_formula_structural   Cu24Ni6C5
_chemical_formula_sum   'Cu72 Ni18 C15'
_cell_volume   1371.04839920
_cell_formula_units_Z   3
loop_
 _symmetry_equiv_pos_site_id
 _symmetry_equiv_pos_as_xyz
  1  'x, y, z'
loop_
 _atom_site_type_symbol
 _atom_site_label
 _atom_site_symmetry_multiplicity
 _atom_site_fract_x
 _atom_site_fract_y
 _atom_site_fract_z
 _atom_site_occupancy
  C  C0  1  -0.00000000  0.00000000  0.00132565  1
  C  C1  1  0.66666700  0.33333300  0.83155541  1
  C  C2  1  0.66666700  0.33333300  0.33263769  1
  C  C3  1  -0.00000000  0.00000000  0.35803889  1
  C  C4  1  -0.00000000  0.00000000  0.85103927  1
  C  C5  1  0.66666700  0.33333300  0.98185678  1
  C  C6  1  -0.00000000  0.00000000  0.64665814  1
  C  C7  1  -0.00000000  0.00000000  0.15568780  1
  C  C8  1  0.66666700  0.33333300  0.67857730  1
  C  C9  1  0.66666700  0.33333300  0.17931785  1
  C  C10  1  0.66666700  0.33333300  0.48220593  1
  C  C11  1  0.33333300  0.66666700  0.02435589  1
  C  C12  1  0.33333300  0.66666700  0.52475735  1
  C  C13  1  0.33333300  0.66666700  0.31338787  1
  C  C14  1  0.33333300  0.66666700  0.80795837  1
  Ni  Ni15  1  0.30714172  0.00328213  0.24907193  1
  Ni  Ni16  1  0.69614041  0.69285828  0.24907193  1
  Ni  Ni17  1  0.99671787  0.30385959  0.24907193  1
  Ni  Ni18  1  0.30570664  0.30261049  0.74477799  1
  Ni  Ni19  1  0.99690385  0.69429336  0.74477799  1
  Ni  Ni20  1  0.69738951  0.00309615  0.74477799  1
  Ni  Ni21  1  0.95470425  0.32840340  0.58227507  1
  Ni  Ni22  1  0.37370015  0.04529575  0.58227507  1
  Ni  Ni23  1  0.67159660  0.62629985  0.58227507  1
  Ni  Ni24  1  0.97147362  0.64320640  0.08617504  1
  Ni  Ni25  1  0.67173377  0.02852638  0.08617504  1
  Ni  Ni26  1  0.35679360  0.32826623  0.08617504  1
  Ni  Ni27  1  0.60472712  0.66672316  0.91639892  1
  Ni  Ni28  1  0.06199504  0.39527288  0.91639892  1
  Ni  Ni29  1  0.33327684  0.93800496  0.91639892  1
  Ni  Ni30  1  0.59935171  0.95509498  0.42105841  1
  Ni  Ni31  1  0.35574227  0.40064829  0.42105841  1
  Ni  Ni32  1  0.04490502  0.64425773  0.42105841  1
  Cu  Cu33  1  0.25062163  0.05580452  0.30432603  1
  Cu  Cu34  1  0.80518289  0.74937837  0.30432603  1
  Cu  Cu35  1  0.94419548  0.19481711  0.30432603  1
  Cu  Cu36  1  0.24936965  0.19610406  0.80074747  1
  Cu  Cu37  1  0.94673441  0.75063035  0.80074747  1
  Cu  Cu38  1  0.80389594  0.05326559  0.80074747  1
  Cu  Cu39  1  0.79332525  0.97023530  0.69384215  1
  Cu  Cu40  1  0.17691005  0.20667475  0.69384215  1
  Cu  Cu41  1  0.02976470  0.82308995  0.69384215  1
  Cu  Cu42  1  0.79135861  0.82016162  0.19805377  1
  Cu  Cu43  1  0.02880301  0.20864139  0.19805377  1
  Cu  Cu44  1  0.17983838  0.97119699  0.19805377  1
  Cu  Cu45  1  0.87175010  0.36772162  0.63474470  1
  Cu  Cu46  1  0.49597252  0.12824990  0.63474470  1
  Cu  Cu47  1  0.63227838  0.50402748  0.63474470  1
  Cu  Cu48  1  0.87257569  0.51275501  0.13612115  1
  Cu  Cu49  1  0.64018033  0.12742431  0.13612115  1
  Cu  Cu50  1  0.48724499  0.35981967  0.13612115  1
  Cu  Cu51  1  0.41145562  0.27810089  0.02993389  1
  Cu  Cu52  1  0.86664627  0.58854438  0.02993389  1
  Cu  Cu53  1  0.72189911  0.13335373  0.02993389  1
  Cu  Cu54  1  0.45538819  0.16437174  0.52831090  1
  Cu  Cu55  1  0.70898455  0.54461181  0.52831090  1
  Cu  Cu56  1  0.83562826  0.29101545  0.52831090  1
  Cu  Cu57  1  0.50674224  0.65844125  0.97320593  1
  Cu  Cu58  1  0.15169801  0.49325776  0.97320593  1
  Cu  Cu59  1  0.34155875  0.84830199  0.97320593  1
  Cu  Cu60  1  0.50836286  0.84822753  0.47558768  1
  Cu  Cu61  1  0.33986366  0.49163714  0.47558768  1
  Cu  Cu62  1  0.15177247  0.66013634  0.47558768  1
  Cu  Cu63  1  0.12827128  0.62078116  0.36442202  1
  Cu  Cu64  1  0.49250888  0.87172872  0.36442202  1
  Cu  Cu65  1  0.37921884  0.50749112  0.36442202  1
  Cu  Cu66  1  0.16023790  0.48529675  0.85967951  1
  Cu  Cu67  1  0.32505785  0.83976210  0.85967951  1
  Cu  Cu68  1  0.51470325  0.67494215  0.85967951  1
  Cu  Cu69  1  0.02367425  0.80301488  0.41808782  1
  Cu  Cu70  1  0.77934064  0.97632575  0.41808782  1
  Cu  Cu71  1  0.19698512  0.22065936  0.41808782  1
  Cu  Cu72  1  0.04935101  0.21625785  0.92122198  1
  Cu  Cu73  1  0.16690684  0.95064899  0.92122198  1
  Cu  Cu74  1  0.78374215  0.83309316  0.92122198  1
  Cu  Cu75  1  0.97204872  0.16605181  0.59368024  1
  Cu  Cu76  1  0.19400309  0.02795128  0.59368024  1
  Cu  Cu77  1  0.83394819  0.80599691  0.59368024  1
  Cu  Cu78  1  0.00066533  0.82663965  0.10137684  1
  Cu  Cu79  1  0.82597432  0.99933467  0.10137684  1
  Cu  Cu80  1  0.17336035  0.17402568  0.10137684  1
  Cu  Cu81  1  0.66874891  0.15880462  0.73103283  1
  Cu  Cu82  1  0.49005671  0.33125109  0.73103283  1
  Cu  Cu83  1  0.84119538  0.50994329  0.73103283  1
  Cu  Cu84  1  0.66358879  0.50748430  0.23382131  1
  Cu  Cu85  1  0.84389651  0.33641121  0.23382131  1
  Cu  Cu86  1  0.49251570  0.15610349  0.23382131  1
  Cu  Cu87  1  0.61752570  0.50044403  0.91164736  1
  Cu  Cu88  1  0.88291933  0.38247430  0.91164736  1
  Cu  Cu89  1  0.49955597  0.11708067  0.91164736  1
  Cu  Cu90  1  0.60986665  0.13695879  0.42578139  1
  Cu  Cu91  1  0.52709314  0.39013335  0.42578139  1
  Cu  Cu92  1  0.86304121  0.47290686  0.42578139  1
  Cu  Cu93  1  0.34368789  0.49490964  0.07917482  1
  Cu  Cu94  1  0.15122075  0.65631211  0.07917482  1
  Cu  Cu95  1  0.50509036  0.84877925  0.07917482  1
  Cu  Cu96  1  0.35107386  0.86186936  0.57386560  1
  Cu  Cu97  1  0.51079450  0.64892614  0.57386560  1
  Cu  Cu98  1  0.13813064  0.48920550  0.57386560  1
  Cu  Cu99  1  0.31677339  0.83474176  0.25795049  1
  Cu  Cu100  1  0.51796737  0.68322661  0.25795049  1
  Cu  Cu101  1  0.16525824  0.48203263  0.25795049  1
  Cu  Cu102  1  0.31996603  0.48275116  0.75272871  1
  Cu  Cu103  1  0.16278413  0.68003397  0.75272871  1
  Cu  Cu104  1  0.51724884  0.83721587  0.75272871  1
