# generated using pymatgen
data_Cu2Ni2C9
_symmetry_space_group_name_H-M   'P 1'
_cell_length_a   6.10014127
_cell_length_b   6.35263584
_cell_length_c   6.10749182
_cell_angle_alpha   86.54752297
_cell_angle_beta   113.93359575
_cell_angle_gamma   59.29148599
_symmetry_Int_Tables_number   1
_chemical_formula_structural   Cu2Ni2C9
_chemical_formula_sum   'Cu2 Ni2 C9'
_cell_volume   174.89530666
_cell_formula_units_Z   1
loop_
 _symmetry_equiv_pos_site_id
 _symmetry_equiv_pos_as_xyz
  1  'x, y, z'
loop_
 _atom_site_type_symbol
 _atom_site_label
 _atom_site_symmetry_multiplicity
 _atom_site_fract_x
 _atom_site_fract_y
 _atom_site_fract_z
 _atom_site_occupancy
  C  C0  1  0.24752420  0.55564663  0.19825757  1
  Ni  Ni1  1  0.27222601  0.20639587  0.52103984  1
  Ni  Ni2  1  0.99790733  0.07684404  0.92411496  1
  Cu  Cu3  1  0.74165146  0.75350374  0.50496200  1
  Cu  Cu4  1  0.51511078  0.57053320  0.91425920  1
  C  C5  1  0.57823747  0.23606546  0.80521113  1
  C  C6  1  0.03649923  0.76885998  0.82701861  1
  C  C7  1  0.46960660  0.84009629  0.68893213  1
  C  C8  1  0.01266622  0.28172311  0.70401282  1
  C  C9  1  0.03512821  0.58633343  0.37831494  1
  C  C10  1  0.47959932  0.17707553  0.34641185  1
  C  C11  1  0.95981031  0.23649979  0.18433043  1
  C  C12  1  0.40403287  0.76994793  0.19360952  1
