# generated using pymatgen
data_Cu7Ni17C13
_symmetry_space_group_name_H-M   'P 1'
_cell_length_a   4.77282236
_cell_length_b   5.66361474
_cell_length_c   15.03459823
_cell_angle_alpha   89.37707841
_cell_angle_beta   90.51847998
_cell_angle_gamma   91.20867795
_symmetry_Int_Tables_number   1
_chemical_formula_structural   Cu7Ni17C13
_chemical_formula_sum   'Cu7 Ni17 C13'
_cell_volume   406.27639498
_cell_formula_units_Z   1
loop_
 _symmetry_equiv_pos_site_id
 _symmetry_equiv_pos_as_xyz
  1  'x, y, z'
loop_
 _atom_site_type_symbol
 _atom_site_label
 _atom_site_symmetry_multiplicity
 _atom_site_fract_x
 _atom_site_fract_y
 _atom_site_fract_z
 _atom_site_occupancy
  C  C0  1  0.97716700  0.58690200  0.75648800  1
  C  C1  1  0.04105000  0.16328200  0.40974900  1
  C  C2  1  0.02531000  0.82401000  0.24813700  1
  C  C3  1  0.99066800  0.18237500  0.08634400  1
  C  C4  1  0.02203500  0.12823000  0.74065300  1
  C  C5  1  0.05598100  0.81860900  0.56920300  1
  C  C6  1  0.96990100  0.86531000  0.92146900  1
  C  C7  1  0.47484700  0.34912000  0.92245700  1
  C  C8  1  0.51735500  0.33781700  0.58694200  1
  C  C9  1  0.49140700  0.36307000  0.25759700  1
  C  C10  1  0.47822800  0.64441200  0.09556400  1
  C  C11  1  0.51935900  0.62318900  0.42205500  1
  C  C12  1  0.47517800  0.65222400  0.75723400  1
  Ni  Ni13  1  0.23276900  0.11571400  0.30164400  1
  Ni  Ni14  1  0.24697300  0.08117700  0.63434600  1
  Ni  Ni15  1  0.18051100  0.13167000  0.97422200  1
  Ni  Ni16  1  0.20599900  0.88718900  0.13861200  1
  Ni  Ni17  1  0.26656800  0.87500200  0.46438400  1
  Ni  Ni18  1  0.18773700  0.87109200  0.80846400  1
  Ni  Ni19  1  0.30015000  0.38600500  0.47994700  1
  Ni  Ni20  1  0.26312900  0.40731900  0.15175600  1
  Ni  Ni21  1  0.28807600  0.59424300  0.31652500  1
  Ni  Ni22  1  0.26155400  0.60131500  0.65171900  1
  Ni  Ni23  1  0.25978700  0.38064000  0.81029500  1
  Ni  Ni24  1  0.69257900  0.39762900  0.03144200  1
  Ni  Ni25  1  0.71231200  0.61682800  0.19673700  1
  Ni  Ni26  1  0.73196000  0.37854900  0.36052700  1
  Ni  Ni27  1  0.74842300  0.60207200  0.52788200  1
  Ni  Ni28  1  0.71605500  0.62073100  0.86107400  1
  Ni  Ni29  1  0.74933200  0.35008900  0.69435100  1
  Cu  Cu30  1  0.24323800  0.62986100  0.98531300  1
  Cu  Cu31  1  0.74536300  0.13191500  0.19575300  1
  Cu  Cu32  1  0.80833400  0.10062300  0.51893200  1
  Cu  Cu33  1  0.78192900  0.86029200  0.35908400  1
  Cu  Cu34  1  0.71646200  0.88816500  0.02916200  1
  Cu  Cu35  1  0.74120400  0.11710300  0.84949600  1
  Cu  Cu36  1  0.76996600  0.84099100  0.68861000  1
