# generated using pymatgen
data_Cu(NiC8)2
_symmetry_space_group_name_H-M   'P 1'
_cell_length_a   8.88779215
_cell_length_b   8.90065201
_cell_length_c   22.51755366
_cell_angle_alpha   89.88057778
_cell_angle_beta   89.80652095
_cell_angle_gamma   119.86750783
_symmetry_Int_Tables_number   1
_chemical_formula_structural   Cu(NiC8)2
_chemical_formula_sum   'Cu6 Ni12 C96'
_cell_volume   1544.68257765
_cell_formula_units_Z   6
loop_
 _symmetry_equiv_pos_site_id
 _symmetry_equiv_pos_as_xyz
  1  'x, y, z'
loop_
 _atom_site_type_symbol
 _atom_site_label
 _atom_site_symmetry_multiplicity
 _atom_site_fract_x
 _atom_site_fract_y
 _atom_site_fract_z
 _atom_site_occupancy
  C  C0  1  0.63533428  0.62486037  0.74480957  1
  C  C1  1  0.99390426  0.36699881  0.74618125  1
  C  C2  1  0.30921844  0.97482708  0.08415896  1
  C  C3  1  0.02713634  0.33940498  0.08431607  1
  C  C4  1  0.96638795  0.29508196  0.41170449  1
  C  C5  1  0.70737725  0.67830451  0.41396063  1
  C  C6  1  0.00742830  0.99694715  0.49796562  1
  C  C7  1  0.98973369  0.98952365  0.99579998  1
  C  C8  1  0.65387414  0.31938158  0.83161459  1
  C  C9  1  0.65708137  0.32354771  0.32265065  1
  C  C10  1  0.34425018  0.66545054  0.16565380  1
  C  C11  1  0.33504084  0.67306943  0.66527604  1
  C  C12  1  0.00419652  0.00875409  0.85586783  1
  C  C13  1  0.99481401  0.00089825  0.64333660  1
  C  C14  1  0.99580444  0.99655255  0.14689163  1
  C  C15  1  0.66694923  0.33425982  0.97745908  1
  C  C16  1  0.66879514  0.33219704  0.48020172  1
  C  C17  1  0.33782124  0.66772984  0.02052636  1
  C  C18  1  0.33480380  0.66889626  0.52257155  1
  C  C19  1  0.33154783  0.67103174  0.30970307  1
  C  C20  1  0.33639512  0.66973473  0.81287530  1
  C  C21  1  0.99899930  0.99486155  0.35089046  1
  C  C22  1  0.65835194  0.32526591  0.68531782  1
  C  C23  1  0.66628548  0.33323082  0.18320027  1
  Ni  Ni24  1  0.29495415  0.28672088  0.74826364  1
  Ni  Ni25  1  0.70796197  0.00429876  0.74920631  1
  Ni  Ni26  1  0.95355568  0.33593775  0.58659151  1
  Ni  Ni27  1  0.66697932  0.61836960  0.58594424  1
  Ni  Ni28  1  0.94771484  0.61606922  0.08563949  1
  Ni  Ni29  1  0.66426608  0.04824712  0.08614275  1
  Ni  Ni30  1  0.38707207  0.33878468  0.08705899  1
  Ni  Ni31  1  0.62434796  0.66627945  0.91543195  1
  Ni  Ni32  1  0.04401900  0.37975774  0.91665870  1
  Ni  Ni33  1  0.33301157  0.95626311  0.91720369  1
  Ni  Ni34  1  0.62273054  0.95715745  0.41475535  1
  Ni  Ni35  1  0.04834499  0.67586953  0.41592238  1
  Cu  Cu36  1  0.29105701  0.00775875  0.25180424  1
  Cu  Cu37  1  0.71133576  0.70394988  0.25265331  1
  Cu  Cu38  1  0.99499818  0.28629887  0.25266704  1
  Cu  Cu39  1  0.00342916  0.71696468  0.74980450  1
  Cu  Cu40  1  0.38048263  0.04642782  0.58452747  1
  Cu  Cu41  1  0.33185735  0.37861491  0.41559219  1
  C  C42  1  0.19899329  0.02580605  0.30631094  1
  C  C43  1  0.81337952  0.78849061  0.30973898  1
  C  C44  1  0.97688141  0.18040111  0.30919033  1
  C  C45  1  0.19611983  0.16840431  0.80681678  1
  C  C46  1  0.97797594  0.80694984  0.80448569  1
  C  C47  1  0.83409089  0.02871415  0.80595062  1
  C  C48  1  0.80114616  0.96442526  0.69198531  1
  C  C49  1  0.16374101  0.19110420  0.69219535  1
  C  C50  1  0.02975270  0.82870892  0.69390352  1
  C  C51  1  0.80564766  0.82688700  0.19819189  1
  C  C52  1  0.02226907  0.19719390  0.19659514  1
  C  C53  1  0.17835512  0.97742695  0.19475841  1
  C  C54  1  0.87094879  0.36586481  0.64563039  1
  C  C55  1  0.49031768  0.12123915  0.63979463  1
  C  C56  1  0.63324841  0.50538340  0.64532904  1
  C  C57  1  0.87479044  0.49059801  0.14237895  1
  C  C58  1  0.61775097  0.12393937  0.14336129  1
  C  C59  1  0.49935227  0.37170681  0.14532646  1
  C  C60  1  0.46595549  0.29237428  0.02831498  1
  C  C61  1  0.82964993  0.53136404  0.02642798  1
  C  C62  1  0.70790680  0.17259147  0.02736288  1
  C  C63  1  0.46869866  0.16052448  0.52831976  1
  C  C64  1  0.68819885  0.52478305  0.52519970  1
  C  C65  1  0.83389252  0.30564720  0.52608768  1
  C  C66  1  0.52762056  0.69355944  0.97282261  1
  C  C67  1  0.16092753  0.46988396  0.97564197  1
  C  C68  1  0.30610509  0.84036409  0.97694354  1
  C  C69  1  0.52966028  0.82863323  0.47162598  1
  C  C70  1  0.30336011  0.46675249  0.47082602  1
  C  C71  1  0.16751004  0.69286167  0.47308663  1
  C  C72  1  0.13634629  0.62992572  0.35911971  1
  C  C73  1  0.49710809  0.85673787  0.35779402  1
  C  C74  1  0.36755913  0.49935345  0.36081901  1
  C  C75  1  0.13616227  0.49508365  0.85686097  1
  C  C76  1  0.35918787  0.85768861  0.85984996  1
  C  C77  1  0.50523966  0.63940609  0.85621422  1
  C  C78  1  0.01728266  0.83842496  0.40935906  1
  C  C79  1  0.81677551  0.98299964  0.40848835  1
  C  C80  1  0.16857361  0.20202918  0.40955162  1
  C  C81  1  0.02670556  0.18882968  0.91062739  1
  C  C82  1  0.15942535  0.97129815  0.90933520  1
  C  C83  1  0.81333482  0.83735843  0.90824973  1
  C  C84  1  0.97520409  0.16239245  0.58952136  1
  C  C85  1  0.19809308  0.02615282  0.58918453  1
  C  C86  1  0.84359022  0.80975436  0.58921147  1
  C  C87  1  0.98037759  0.81563939  0.09374504  1
  C  C88  1  0.84074592  0.03107970  0.09410297  1
  C  C89  1  0.18739716  0.16352214  0.09473228  1
  C  C90  1  0.69972891  0.18015404  0.74399412  1
  C  C91  1  0.49007093  0.31942759  0.74493636  1
  C  C92  1  0.84183819  0.53587357  0.74684847  1
  C  C93  1  0.69190740  0.52517162  0.24545545  1
  C  C94  1  0.83605560  0.30808714  0.24644469  1
  C  C95  1  0.47314706  0.16290752  0.24614571  1
  C  C96  1  0.63721666  0.49228166  0.92275423  1
  C  C97  1  0.85353184  0.36025640  0.92237226  1
  C  C98  1  0.50567663  0.14455165  0.92340060  1
  C  C99  1  0.64086835  0.14878659  0.42212129  1
  C  C100  1  0.49938485  0.36723123  0.42325309  1
  C  C101  1  0.85430246  0.49707677  0.42369145  1
  C  C102  1  0.34514921  0.49742649  0.07748217  1
  C  C103  1  0.14650536  0.64728465  0.07622761  1
  C  C104  1  0.49562467  0.85461121  0.07656928  1
  C  C105  1  0.35915641  0.86323337  0.57440138  1
  C  C106  1  0.49838179  0.64541190  0.57469320  1
  C  C107  1  0.14691189  0.50426996  0.57485598  1
  C  C108  1  0.30198704  0.83376891  0.25704980  1
  C  C109  1  0.52756707  0.69169245  0.25618875  1
  C  C110  1  0.16731333  0.46874510  0.25700887  1
  C  C111  1  0.30276306  0.47737183  0.75452590  1
  C  C112  1  0.16603608  0.69469847  0.75508761  1
  C  C113  1  0.52056997  0.82423979  0.75432026  1
