# generated using pymatgen
data_Cu3NiC2
_symmetry_space_group_name_H-M   'P 1'
_cell_length_a   8.63882800
_cell_length_b   8.79686100
_cell_length_c   22.64673000
_cell_angle_alpha   90.00000000
_cell_angle_beta   90.00000000
_cell_angle_gamma   90.00000000
_symmetry_Int_Tables_number   1
_chemical_formula_structural   Cu3NiC2
_chemical_formula_sum   'Cu24 Ni8 C16'
_cell_volume   1721.02848830
_cell_formula_units_Z   8
loop_
 _symmetry_equiv_pos_site_id
 _symmetry_equiv_pos_as_xyz
  1  'x, y, z'
loop_
 _atom_site_type_symbol
 _atom_site_label
 _atom_site_symmetry_multiplicity
 _atom_site_fract_x
 _atom_site_fract_y
 _atom_site_fract_z
 _atom_site_occupancy
  C  C0  1  0.70062700  0.98843000  0.33167400  1
  C  C1  1  0.20062700  0.51157000  0.16832600  1
  C  C2  1  0.79937300  0.48843000  0.66832600  1
  C  C3  1  0.29937300  0.01157000  0.83167400  1
  C  C4  1  0.29937300  0.01157000  0.66832600  1
  C  C5  1  0.79937300  0.48843000  0.83167400  1
  C  C6  1  0.20062700  0.51157000  0.33167400  1
  C  C7  1  0.70062700  0.98843000  0.16832600  1
  C  C8  1  0.73647400  0.03377000  0.48985800  1
  C  C9  1  0.23647400  0.46623000  0.01014200  1
  C  C10  1  0.76352600  0.53377000  0.51014200  1
  C  C11  1  0.26352600  0.96623000  0.98985800  1
  C  C12  1  0.26352600  0.96623000  0.51014200  1
  C  C13  1  0.76352600  0.53377000  0.98985800  1
  C  C14  1  0.23647400  0.46623000  0.48985800  1
  C  C15  1  0.73647400  0.03377000  0.01014200  1
  Ni  Ni16  1  0.80319300  0.99453700  0.66517100  1
  Ni  Ni17  1  0.80319300  0.99453700  0.83482900  1
  Ni  Ni18  1  0.30319300  0.50546300  0.66517100  1
  Ni  Ni19  1  0.69680700  0.49453700  0.16517100  1
  Ni  Ni20  1  0.19680700  0.00546300  0.33482900  1
  Ni  Ni21  1  0.19680700  0.00546300  0.16517100  1
  Ni  Ni22  1  0.69680700  0.49453700  0.33482900  1
  Ni  Ni23  1  0.30319300  0.50546300  0.83482900  1
  Cu  Cu24  1  0.90233500  0.30977300  0.39698000  1
  Cu  Cu25  1  0.40233500  0.19022700  0.10302000  1
  Cu  Cu26  1  0.59766500  0.80977300  0.60302000  1
  Cu  Cu27  1  0.09766500  0.69022700  0.89698000  1
  Cu  Cu28  1  0.09766500  0.69022700  0.60302000  1
  Cu  Cu29  1  0.59766500  0.80977300  0.89698000  1
  Cu  Cu30  1  0.40233500  0.19022700  0.39698000  1
  Cu  Cu31  1  0.90233500  0.30977300  0.10302000  1
  Cu  Cu32  1  0.97976700  0.17932600  0.90967600  1
  Cu  Cu33  1  0.97976700  0.17932600  0.59032400  1
  Cu  Cu34  1  0.47976700  0.32067400  0.90967600  1
  Cu  Cu35  1  0.52023300  0.67932600  0.40967600  1
  Cu  Cu36  1  0.02023300  0.82067400  0.09032400  1
  Cu  Cu37  1  0.02023300  0.82067400  0.40967600  1
  Cu  Cu38  1  0.52023300  0.67932600  0.09032400  1
  Cu  Cu39  1  0.47976700  0.32067400  0.59032400  1
  Cu  Cu40  1  0.63279400  0.17046500  0.75000000  1
  Cu  Cu41  1  0.13279400  0.32953500  0.75000000  1
  Cu  Cu42  1  0.86720600  0.67046500  0.25000000  1
  Cu  Cu43  1  0.36720600  0.82953500  0.25000000  1
  Cu  Cu44  1  0.02216100  0.17453600  0.25000000  1
  Cu  Cu45  1  0.52216100  0.32546400  0.25000000  1
  Cu  Cu46  1  0.47783900  0.67453600  0.75000000  1
  Cu  Cu47  1  0.97783900  0.82546400  0.75000000  1
