# generated using pymatgen
data_Cu2Ni2C15
_symmetry_space_group_name_H-M   'P 1'
_cell_length_a   5.94890000
_cell_length_b   8.84400300
_cell_length_c   13.17551700
_cell_angle_alpha   90.00000000
_cell_angle_beta   90.00000000
_cell_angle_gamma   90.00000000
_symmetry_Int_Tables_number   1
_chemical_formula_structural   Cu2Ni2C15
_chemical_formula_sum   'Cu8 Ni8 C60'
_cell_volume   693.19147891
_cell_formula_units_Z   4
loop_
 _symmetry_equiv_pos_site_id
 _symmetry_equiv_pos_as_xyz
  1  'x, y, z'
loop_
 _atom_site_type_symbol
 _atom_site_label
 _atom_site_symmetry_multiplicity
 _atom_site_fract_x
 _atom_site_fract_y
 _atom_site_fract_z
 _atom_site_occupancy
  C  C0  1  0.23412500  0.58275400  0.75194300  1
  C  C1  1  0.73412500  0.41724600  0.24805700  1
  C  C2  1  0.23412500  0.91724600  0.25194300  1
  C  C3  1  0.73412500  0.08275400  0.74805700  1
  Ni  Ni4  1  0.49741700  0.00052800  0.49908000  1
  Ni  Ni5  1  0.00390600  0.99632800  0.99806200  1
  Ni  Ni6  1  0.50390600  0.00367200  0.00193800  1
  Ni  Ni7  1  0.00390600  0.50367200  0.49806200  1
  Ni  Ni8  1  0.50390600  0.49632800  0.50193800  1
  Ni  Ni9  1  0.99741700  0.99947200  0.50092000  1
  Ni  Ni10  1  0.99741700  0.50052800  0.00092000  1
  Ni  Ni11  1  0.49741700  0.49947200  0.99908000  1
  Cu  Cu12  1  0.25108300  0.22575300  0.86568100  1
  Cu  Cu13  1  0.24752400  0.27147400  0.13131000  1
  Cu  Cu14  1  0.74752400  0.72852600  0.86869000  1
  Cu  Cu15  1  0.74752400  0.77147400  0.36869000  1
  Cu  Cu16  1  0.24752400  0.22852600  0.63131000  1
  Cu  Cu17  1  0.75108300  0.72575300  0.63431900  1
  Cu  Cu18  1  0.75108300  0.77424700  0.13431900  1
  Cu  Cu19  1  0.25108300  0.27424700  0.36568100  1
  C  C20  1  0.27568900  0.83391500  0.89420100  1
  C  C21  1  0.77568900  0.16608500  0.10579900  1
  C  C22  1  0.27568900  0.66608500  0.39420100  1
  C  C23  1  0.77568900  0.33391500  0.60579900  1
  C  C24  1  0.24951600  0.78149600  0.52354000  1
  C  C25  1  0.74951600  0.21850400  0.47646000  1
  C  C26  1  0.24951600  0.71850400  0.02354000  1
  C  C27  1  0.74951600  0.28149600  0.97646000  1
  C  C28  1  0.17837700  0.94449900  0.77660300  1
  C  C29  1  0.67837700  0.05550100  0.22339700  1
  C  C30  1  0.17837700  0.55550100  0.27660300  1
  C  C31  1  0.67837700  0.44449900  0.72339700  1
  C  C32  1  0.25595800  0.87721900  0.66958300  1
  C  C33  1  0.75595800  0.12278100  0.33041700  1
  C  C34  1  0.25595800  0.62278100  0.16958300  1
  C  C35  1  0.75595800  0.37721900  0.83041700  1
  C  C36  1  0.53223400  0.61305000  0.62562900  1
  C  C37  1  0.76110900  0.13984300  0.25380200  1
  C  C38  1  0.26008500  0.87910900  0.96133600  1
  C  C39  1  0.76110900  0.36015700  0.75380200  1
  C  C40  1  0.75662800  0.79911700  0.75125100  1
  C  C41  1  0.25662800  0.20088300  0.24874900  1
  C  C42  1  0.75662800  0.70088300  0.25125100  1
  C  C43  1  0.25662800  0.29911700  0.74874900  1
  C  C44  1  0.03223400  0.11305000  0.87437100  1
  C  C45  1  0.53223400  0.88695000  0.12562900  1
  C  C46  1  0.03223400  0.38695000  0.37437100  1
  C  C47  1  0.26110900  0.86015700  0.74619800  1
  C  C48  1  0.02023600  0.12650800  0.61820100  1
  C  C49  1  0.52023600  0.87349200  0.38179900  1
  C  C50  1  0.02023600  0.37349200  0.11820100  1
  C  C51  1  0.52023600  0.62650800  0.88179900  1
  C  C52  1  0.47511300  0.37109400  0.11430700  1
  C  C53  1  0.97511300  0.62890600  0.88569300  1
  C  C54  1  0.47511300  0.12890600  0.61430700  1
  C  C55  1  0.97511300  0.87109400  0.38569300  1
  C  C56  1  0.47800000  0.37451400  0.38312400  1
  C  C57  1  0.97800000  0.62548600  0.61687600  1
  C  C58  1  0.47800000  0.12548600  0.88312400  1
  C  C59  1  0.97800000  0.87451400  0.11687600  1
  C  C60  1  0.74766700  0.88618500  0.93739100  1
  C  C61  1  0.24766700  0.11381500  0.06260900  1
  C  C62  1  0.74766700  0.61381500  0.43739100  1
  C  C63  1  0.24766700  0.38618500  0.56260900  1
  C  C64  1  0.74330500  0.88342400  0.56567800  1
  C  C65  1  0.24330500  0.11657600  0.43432200  1
  C  C66  1  0.74330500  0.61657600  0.06567800  1
  C  C67  1  0.24330500  0.38342400  0.93432200  1
  C  C68  1  0.74942800  0.38805000  0.95014000  1
  C  C69  1  0.24942800  0.61195000  0.04986000  1
  C  C70  1  0.74942800  0.11195000  0.45014000  1
  C  C71  1  0.24942800  0.88805000  0.54986000  1
  C  C72  1  0.76008500  0.37910900  0.53866400  1
  C  C73  1  0.26008500  0.62089100  0.46133600  1
  C  C74  1  0.76008500  0.12089100  0.03866400  1
  C  C75  1  0.26110900  0.63984300  0.24619800  1
