# generated using pymatgen
data_Cu3NiC17
_symmetry_space_group_name_H-M   'P 1'
_cell_length_a   9.57175215
_cell_length_b   9.57175177
_cell_length_c   22.37747123
_cell_angle_alpha   90.00000000
_cell_angle_beta   90.00000000
_cell_angle_gamma   120.00000126
_symmetry_Int_Tables_number   1
_chemical_formula_structural   Cu3NiC17
_chemical_formula_sum   'Cu18 Ni6 C102'
_cell_volume   1775.51565376
_cell_formula_units_Z   6
loop_
 _symmetry_equiv_pos_site_id
 _symmetry_equiv_pos_as_xyz
  1  'x, y, z'
loop_
 _atom_site_type_symbol
 _atom_site_label
 _atom_site_symmetry_multiplicity
 _atom_site_fract_x
 _atom_site_fract_y
 _atom_site_fract_z
 _atom_site_occupancy
  C  C0  1  0.63682848  0.01977643  0.24638327  1
  C  C1  1  0.38294795  0.36317152  0.24638327  1
  C  C2  1  0.98022357  0.61705205  0.24638327  1
  C  C3  1  0.63682848  0.61705205  0.74638327  1
  C  C4  1  0.98022357  0.36317152  0.74638327  1
  C  C5  1  0.38294795  0.01977643  0.74638327  1
  C  C6  1  0.30349548  0.35310943  0.57971627  1
  C  C7  1  0.04961495  0.69650452  0.57971627  1
  C  C8  1  0.64689057  0.95038505  0.57971627  1
  C  C9  1  0.30349548  0.95038505  0.07971627  1
  C  C10  1  0.64689057  0.69650452  0.07971627  1
  C  C11  1  0.04961495  0.35310943  0.07971627  1
  C  C12  1  0.97016148  0.68644343  0.91305027  1
  C  C13  1  0.71628095  0.02983852  0.91305027  1
  C  C14  1  0.31355657  0.28371905  0.91305027  1
  C  C15  1  0.97016148  0.28371905  0.41305027  1
  C  C16  1  0.31355657  0.02983852  0.41305027  1
  C  C17  1  0.71628095  0.68644343  0.41305027  1
  C  C18  1  -0.00000000  -0.00000000  0.49085388  1
  C  C19  1  -0.00000000  -0.00000000  0.99085388  1
  C  C20  1  0.66666700  0.33333300  0.82418688  1
  C  C21  1  0.66666700  0.33333300  0.32418688  1
  C  C22  1  0.33333300  0.66666700  0.15752088  1
  C  C23  1  0.33333300  0.66666700  0.65752088  1
  C  C24  1  -0.00000000  -0.00000000  0.65511126  1
  C  C25  1  -0.00000000  -0.00000000  0.15511126  1
  C  C26  1  0.66666700  0.33333300  0.98844426  1
  C  C27  1  0.66666700  0.33333300  0.48844426  1
  C  C28  1  0.33333300  0.66666700  0.32177826  1
  C  C29  1  0.33333300  0.66666700  0.82177826  1
  Ni  Ni30  1  -0.00000000  -0.00000000  0.34325981  1
  Ni  Ni31  1  -0.00000000  -0.00000000  0.84325981  1
  Ni  Ni32  1  0.66666700  0.33333300  0.67659281  1
  Ni  Ni33  1  0.66666700  0.33333300  0.17659281  1
  Ni  Ni34  1  0.33333300  0.66666700  0.00992681  1
  Ni  Ni35  1  0.33333300  0.66666700  0.50992681  1
  Cu  Cu36  1  0.31367040  0.01361418  0.25221869  1
  Cu  Cu37  1  0.69994378  0.68632960  0.25221869  1
  Cu  Cu38  1  0.98638582  0.30005622  0.25221869  1
  Cu  Cu39  1  0.31367040  0.30005622  0.75221869  1
  Cu  Cu40  1  0.98638582  0.68632960  0.75221869  1
  Cu  Cu41  1  0.69994378  0.01361418  0.75221869  1
  Cu  Cu42  1  0.98033740  0.34694718  0.58555169  1
  Cu  Cu43  1  0.36661078  0.01966260  0.58555169  1
  Cu  Cu44  1  0.65305282  0.63338922  0.58555169  1
  Cu  Cu45  1  0.98033740  0.63338922  0.08555169  1
  Cu  Cu46  1  0.65305282  0.01966260  0.08555169  1
  Cu  Cu47  1  0.36661078  0.34694718  0.08555169  1
  Cu  Cu48  1  0.64700340  0.68028118  0.91888569  1
  Cu  Cu49  1  0.03327678  0.35299660  0.91888569  1
  Cu  Cu50  1  0.31971882  0.96672322  0.91888569  1
  Cu  Cu51  1  0.64700340  0.96672322  0.41888569  1
  Cu  Cu52  1  0.31971882  0.35299660  0.41888569  1
  Cu  Cu53  1  0.03327678  0.68028118  0.41888569  1
  C  C54  1  0.21559147  0.02289217  0.30608916  1
  C  C55  1  0.80730071  0.78440853  0.30608916  1
  C  C56  1  0.97710783  0.19269929  0.30608916  1
  C  C57  1  0.21559147  0.19269929  0.80608916  1
  C  C58  1  0.97710783  0.78440853  0.80608916  1
  C  C59  1  0.80730071  0.02289217  0.80608916  1
  C  C60  1  0.76987333  0.98959707  0.69351861  1
  C  C61  1  0.21972374  0.23012667  0.69351861  1
  C  C62  1  0.01040293  0.78027626  0.69351861  1
  C  C63  1  0.76987333  0.78027626  0.19351861  1
  C  C64  1  0.01040293  0.23012667  0.19351861  1
  C  C65  1  0.21972374  0.98959707  0.19351861  1
  C  C66  1  0.88225847  0.35622517  0.63942216  1
  C  C67  1  0.47396771  0.11774153  0.63942216  1
  C  C68  1  0.64377483  0.52603229  0.63942216  1
  C  C69  1  0.88225847  0.52603229  0.13942216  1
  C  C70  1  0.64377483  0.11774153  0.13942216  1
  C  C71  1  0.47396771  0.35622517  0.13942216  1
  C  C72  1  0.43654033  0.32293007  0.02685161  1
  C  C73  1  0.88639074  0.56345967  0.02685161  1
  C  C74  1  0.67706993  0.11360926  0.02685161  1
  C  C75  1  0.43654033  0.11360926  0.52685161  1
  C  C76  1  0.67706993  0.56345967  0.52685161  1
  C  C77  1  0.88639074  0.32293007  0.52685161  1
  C  C78  1  0.54892447  0.68955917  0.97275616  1
  C  C79  1  0.14063371  0.45107553  0.97275616  1
  C  C80  1  0.31044083  0.85936629  0.97275616  1
  C  C81  1  0.54892447  0.85936629  0.47275616  1
  C  C82  1  0.31044083  0.45107553  0.47275616  1
  C  C83  1  0.14063371  0.68955917  0.47275616  1
  C  C84  1  0.10320633  0.65626407  0.36018561  1
  C  C85  1  0.55305674  0.89679367  0.36018561  1
  C  C86  1  0.34373593  0.44694326  0.36018561  1
  C  C87  1  0.10320633  0.44694326  0.86018561  1
  C  C88  1  0.34373593  0.89679367  0.86018561  1
  C  C89  1  0.55305674  0.65626407  0.86018561  1
  C  C90  1  0.02461505  0.83830951  0.41711270  1
  C  C91  1  0.81369446  0.97538495  0.41711270  1
  C  C92  1  0.16169049  0.18630554  0.41711270  1
  C  C93  1  0.02461505  0.18630554  0.91711270  1
  C  C94  1  0.16169049  0.97538495  0.91711270  1
  C  C95  1  0.81369446  0.83830951  0.91711270  1
  C  C96  1  0.00870783  0.20017242  0.58826926  1
  C  C97  1  0.19146459  0.99129217  0.58826926  1
  C  C98  1  0.79982758  0.80853541  0.58826926  1
  C  C99  1  0.00870783  0.80853541  0.08826926  1
  C  C100  1  0.79982758  0.99129217  0.08826926  1
  C  C101  1  0.19146459  0.20017242  0.08826926  1
  C  C102  1  0.69128205  0.17164251  0.75044570  1
  C  C103  1  0.48036146  0.30871795  0.75044570  1
  C  C104  1  0.82835749  0.51963854  0.75044570  1
  C  C105  1  0.69128205  0.51963854  0.25044570  1
  C  C106  1  0.82835749  0.30871795  0.25044570  1
  C  C107  1  0.48036146  0.17164251  0.25044570  1
  C  C108  1  0.67537483  0.53350542  0.92160226  1
  C  C109  1  0.85813159  0.32462517  0.92160226  1
  C  C110  1  0.46649458  0.14186841  0.92160226  1
  C  C111  1  0.67537483  0.14186841  0.42160226  1
  C  C112  1  0.46649458  0.32462517  0.42160226  1
  C  C113  1  0.85813159  0.53350542  0.42160226  1
  C  C114  1  0.35794805  0.50497651  0.08377970  1
  C  C115  1  0.14702746  0.64205195  0.08377970  1
  C  C116  1  0.49502349  0.85297254  0.08377970  1
  C  C117  1  0.35794805  0.85297254  0.58377970  1
  C  C118  1  0.49502349  0.64205195  0.58377970  1
  C  C119  1  0.14702746  0.50497651  0.58377970  1
  C  C120  1  0.34204083  0.86683942  0.25493626  1
  C  C121  1  0.52479759  0.65795917  0.25493626  1
  C  C122  1  0.13316058  0.47520241  0.25493626  1
  C  C123  1  0.34204083  0.47520241  0.75493626  1
  C  C124  1  0.13316058  0.65795917  0.75493626  1
  C  C125  1  0.52479759  0.86683942  0.75493626  1
