# generated using pymatgen
data_Cu4NiC2
_symmetry_space_group_name_H-M   'P 1'
_cell_length_a   8.47732300
_cell_length_b   10.02338100
_cell_length_c   19.38196200
_cell_angle_alpha   90.00000000
_cell_angle_beta   90.00000000
_cell_angle_gamma   90.00000000
_symmetry_Int_Tables_number   1
_chemical_formula_structural   Cu4NiC2
_chemical_formula_sum   'Cu64 Ni16 C32'
_cell_volume   1646.91318800
_cell_formula_units_Z   16
loop_
 _symmetry_equiv_pos_site_id
 _symmetry_equiv_pos_as_xyz
  1  'x, y, z'
loop_
 _atom_site_type_symbol
 _atom_site_label
 _atom_site_symmetry_multiplicity
 _atom_site_fract_x
 _atom_site_fract_y
 _atom_site_fract_z
 _atom_site_occupancy
  C  C0  1  0.12343500  0.31801200  0.38109300  1
  C  C1  1  0.62343500  0.18198800  0.61890700  1
  C  C2  1  0.87656500  0.81801200  0.11890700  1
  C  C3  1  0.37656500  0.68198800  0.88109300  1
  C  C4  1  0.87656500  0.68198800  0.61890700  1
  C  C5  1  0.37656500  0.81801200  0.38109300  1
  C  C6  1  0.12343500  0.18198800  0.88109300  1
  C  C7  1  0.62343500  0.31801200  0.11890700  1
  C  C8  1  0.61646200  0.18025400  0.37535900  1
  C  C9  1  0.11646200  0.31974600  0.62464100  1
  C  C10  1  0.38353800  0.68025400  0.12464100  1
  C  C11  1  0.88353800  0.81974600  0.87535900  1
  C  C12  1  0.38353800  0.81974600  0.62464100  1
  C  C13  1  0.88353800  0.68025400  0.37535900  1
  C  C14  1  0.61646200  0.31974600  0.87535900  1
  C  C15  1  0.11646200  0.18025400  0.12464100  1
  C  C16  1  0.76969300  0.06337500  0.22466300  1
  C  C17  1  0.26969300  0.43662500  0.77533700  1
  C  C18  1  0.23030700  0.56337500  0.27533700  1
  C  C19  1  0.73030700  0.93662500  0.72466300  1
  C  C20  1  0.23030700  0.93662500  0.77533700  1
  C  C21  1  0.73030700  0.56337500  0.22466300  1
  C  C22  1  0.76969300  0.43662500  0.72466300  1
  C  C23  1  0.26969300  0.06337500  0.27533700  1
  C  C24  1  0.91017600  0.09791800  0.49868500  1
  C  C25  1  0.41017600  0.40208200  0.50131500  1
  C  C26  1  0.08982400  0.59791800  0.00131500  1
  C  C27  1  0.58982400  0.90208200  0.99868500  1
  C  C28  1  0.08982400  0.90208200  0.50131500  1
  C  C29  1  0.58982400  0.59791800  0.49868500  1
  C  C30  1  0.91017600  0.40208200  0.99868500  1
  C  C31  1  0.41017600  0.09791800  0.00131500  1
  Ni  Ni32  1  0.51667400  0.01891100  0.20648300  1
  Ni  Ni33  1  0.01667400  0.48108900  0.79351700  1
  Ni  Ni34  1  0.48332600  0.51891100  0.29351700  1
  Ni  Ni35  1  0.98332600  0.98108900  0.70648300  1
  Ni  Ni36  1  0.48332600  0.98108900  0.79351700  1
  Ni  Ni37  1  0.98332600  0.51891100  0.20648300  1
  Ni  Ni38  1  0.51667400  0.48108900  0.70648300  1
  Ni  Ni39  1  0.01667400  0.01891100  0.29351700  1
  Ni  Ni40  1  0.75621100  0.92223000  0.49715500  1
  Ni  Ni41  1  0.25621100  0.57777000  0.50284500  1
  Ni  Ni42  1  0.24378900  0.42223000  0.00284500  1
  Ni  Ni43  1  0.74378900  0.07777000  0.99715500  1
  Ni  Ni44  1  0.24378900  0.07777000  0.50284500  1
  Ni  Ni45  1  0.74378900  0.42223000  0.49715500  1
  Ni  Ni46  1  0.75621100  0.57777000  0.99715500  1
  Ni  Ni47  1  0.25621100  0.92223000  0.00284500  1
  Cu  Cu48  1  0.57811000  0.89286100  0.17999700  1
  Cu  Cu49  1  0.07811000  0.60713900  0.82000300  1
  Cu  Cu50  1  0.42189000  0.39286100  0.32000300  1
  Cu  Cu51  1  0.92189000  0.10713900  0.67999700  1
  Cu  Cu52  1  0.42189000  0.10713900  0.82000300  1
  Cu  Cu53  1  0.92189000  0.39286100  0.17999700  1
  Cu  Cu54  1  0.57811000  0.60713900  0.67999700  1
  Cu  Cu55  1  0.07811000  0.89286100  0.32000300  1
  Cu  Cu56  1  0.42119200  0.09656000  0.15847500  1
  Cu  Cu57  1  0.92119200  0.40344000  0.84152500  1
  Cu  Cu58  1  0.57880800  0.59656000  0.34152500  1
  Cu  Cu59  1  0.07880800  0.90344000  0.65847500  1
  Cu  Cu60  1  0.57880800  0.90344000  0.84152500  1
  Cu  Cu61  1  0.07880800  0.59656000  0.15847500  1
  Cu  Cu62  1  0.42119200  0.40344000  0.65847500  1
  Cu  Cu63  1  0.92119200  0.09656000  0.34152500  1
  Cu  Cu64  1  0.43487800  0.00172000  0.27422600  1
  Cu  Cu65  1  0.93487800  0.49827900  0.72577400  1
  Cu  Cu66  1  0.56512200  0.50172100  0.22577400  1
  Cu  Cu67  1  0.06512200  0.99827900  0.77422600  1
  Cu  Cu68  1  0.56512200  0.99827900  0.72577400  1
  Cu  Cu69  1  0.06512200  0.50172100  0.27422600  1
  Cu  Cu70  1  0.43487800  0.49827900  0.77422600  1
  Cu  Cu71  1  0.93487800  0.00172000  0.22577400  1
  Cu  Cu72  1  0.66318900  0.11348500  0.22321100  1
  Cu  Cu73  1  0.16318900  0.38651500  0.77678900  1
  Cu  Cu74  1  0.33681100  0.61348500  0.27678900  1
  Cu  Cu75  1  0.83681100  0.88651500  0.72321100  1
  Cu  Cu76  1  0.33681100  0.88651500  0.77678900  1
  Cu  Cu77  1  0.83681100  0.61348500  0.22321100  1
  Cu  Cu78  1  0.66318900  0.38651500  0.72321100  1
  Cu  Cu79  1  0.16318900  0.11348500  0.27678900  1
  Cu  Cu80  1  0.66679200  0.89914200  0.43379400  1
  Cu  Cu81  1  0.16679200  0.60085800  0.56620600  1
  Cu  Cu82  1  0.33320800  0.39914200  0.06620600  1
  Cu  Cu83  1  0.83320800  0.10085800  0.93379400  1
  Cu  Cu84  1  0.33320800  0.10085800  0.56620600  1
  Cu  Cu85  1  0.83320800  0.39914200  0.43379400  1
  Cu  Cu86  1  0.66679200  0.60085800  0.93379400  1
  Cu  Cu87  1  0.16679200  0.89914200  0.06620600  1
  Cu  Cu88  1  0.66773300  0.89533800  0.56043000  1
  Cu  Cu89  1  0.16773300  0.60466200  0.43957000  1
  Cu  Cu90  1  0.33226700  0.39533800  0.93957000  1
  Cu  Cu91  1  0.83226700  0.10466200  0.06043000  1
  Cu  Cu92  1  0.33226700  0.10466200  0.43957000  1
  Cu  Cu93  1  0.83226700  0.39533800  0.56043000  1
  Cu  Cu94  1  0.66773300  0.60466200  0.06043000  1
  Cu  Cu95  1  0.16773300  0.89533800  0.93957000  1
  Cu  Cu96  1  0.91125100  0.85393200  0.49623300  1
  Cu  Cu97  1  0.41125100  0.64606800  0.50376700  1
  Cu  Cu98  1  0.08874900  0.35393200  0.00376700  1
  Cu  Cu99  1  0.58874900  0.14606800  0.99623300  1
  Cu  Cu100  1  0.08874900  0.14606800  0.50376700  1
  Cu  Cu101  1  0.58874900  0.35393200  0.49623300  1
  Cu  Cu102  1  0.91125100  0.64606800  0.99623300  1
  Cu  Cu103  1  0.41125100  0.85393200  0.00376700  1
  Cu  Cu104  1  0.79220300  0.07911400  0.49879200  1
  Cu  Cu105  1  0.29220300  0.42088600  0.50120800  1
  Cu  Cu106  1  0.20779700  0.57911400  0.00120800  1
  Cu  Cu107  1  0.70779700  0.92088600  0.99879200  1
  Cu  Cu108  1  0.20779700  0.92088600  0.50120800  1
  Cu  Cu109  1  0.70779700  0.57911400  0.49879200  1
  Cu  Cu110  1  0.79220300  0.42088600  0.99879200  1
  Cu  Cu111  1  0.29220300  0.07911400  0.00120800  1
