# generated using pymatgen
data_Cu2Ni2C9
_symmetry_space_group_name_H-M   'P 1'
_cell_length_a   3.39023902
_cell_length_b   3.38968417
_cell_length_c   46.77547300
_cell_angle_alpha   90.00184405
_cell_angle_beta   89.99892883
_cell_angle_gamma   119.99415589
_symmetry_Int_Tables_number   1
_chemical_formula_structural   Cu2Ni2C9
_chemical_formula_sum   'Cu2 Ni2 C9'
_cell_volume   465.54744150
_cell_formula_units_Z   1
loop_
 _symmetry_equiv_pos_site_id
 _symmetry_equiv_pos_as_xyz
  1  'x, y, z'
loop_
 _atom_site_type_symbol
 _atom_site_label
 _atom_site_symmetry_multiplicity
 _atom_site_fract_x
 _atom_site_fract_y
 _atom_site_fract_z
 _atom_site_occupancy
  C  C0  1  0.00002600  0.00005000  0.55863600  1
  C  C1  1  0.33356600  0.66709000  0.32197400  1
  C  C2  1  0.33328800  0.66668900  0.70451600  1
  C  C3  1  0.33355900  0.66707200  0.24177700  1
  C  C4  1  0.33322700  0.66658600  0.62352500  1
  C  C5  1  0.33322800  0.66650200  0.09404100  1
  C  C6  1  0.66691000  0.33372600  0.28187400  1
  C  C7  1  0.33319100  0.66642400  0.46065400  1
  C  C8  1  0.66663300  0.33331900  0.66422300  1
  Ni  Ni9  1  0.66655700  0.33310100  0.05874500  1
  Ni  Ni10  1  0.66656900  0.33314300  0.12935700  1
  Cu  Cu11  1  0.66662400  0.33314400  0.42855900  1
  Cu  Cu12  1  0.66662300  0.33314900  0.49294900  1
