# generated using pymatgen
data_Cu4NiC15
_symmetry_space_group_name_H-M   'P 1'
_cell_length_a   5.57044323
_cell_length_b   6.96838375
_cell_length_c   7.11342211
_cell_angle_alpha   103.38888086
_cell_angle_beta   90.00638939
_cell_angle_gamma   89.98975335
_symmetry_Int_Tables_number   1
_chemical_formula_structural   Cu4NiC15
_chemical_formula_sum   'Cu4 Ni1 C15'
_cell_volume   268.61684713
_cell_formula_units_Z   1
loop_
 _symmetry_equiv_pos_site_id
 _symmetry_equiv_pos_as_xyz
  1  'x, y, z'
loop_
 _atom_site_type_symbol
 _atom_site_label
 _atom_site_symmetry_multiplicity
 _atom_site_fract_x
 _atom_site_fract_y
 _atom_site_fract_z
 _atom_site_occupancy
  C  C0  1  0.00013697  0.74441884  0.24838178  1
  C  C1  1  0.00001635  0.25070393  0.74264509  1
  C  C2  1  0.50011985  0.03336622  0.03157693  1
  C  C3  1  0.50006961  0.39134598  0.40256877  1
  Ni  Ni4  1  0.49992551  0.70217193  0.73723632  1
  Cu  Cu5  1  0.50003792  0.95110735  0.46668336  1
  Cu  Cu6  1  0.50003320  0.51257217  0.01288300  1
  Cu  Cu7  1  0.00003513  0.26284970  0.26523650  1
  Cu  Cu8  1  -0.00004643  0.73675530  0.74038597  1
  C  C9  1  0.25770540  0.89938002  0.66067056  1
  C  C10  1  0.24759824  0.08720138  0.34133161  1
  C  C11  1  0.75633019  0.70926791  0.93925743  1
  C  C12  1  0.75773073  0.33742152  0.08917683  1
  C  C13  1  0.75254983  0.08713250  0.34135842  1
  C  C14  1  0.74201032  0.89969577  0.66113187  1
  C  C15  1  0.24234761  0.33756813  0.08929563  1
  C  C16  1  0.24373513  0.70963901  0.93937076  1
  C  C17  1  -0.00018764  0.49163380  0.50558972  1
  C  C18  1  0.50012896  0.69823893  0.29217929  1
  C  C19  1  0.49971412  0.39826762  0.73377613  1
