# generated using pymatgen
data_Cu(NiC9)2
_symmetry_space_group_name_H-M   'P 1'
_cell_length_a   8.75741379
_cell_length_b   8.75741351
_cell_length_c   21.61229966
_cell_angle_alpha   89.79247487
_cell_angle_beta   90.20752512
_cell_angle_gamma   119.42550380
_symmetry_Int_Tables_number   1
_chemical_formula_structural   Cu(NiC9)2
_chemical_formula_sum   'Cu6 Ni12 C108'
_cell_volume   1443.65910683
_cell_formula_units_Z   6
loop_
 _symmetry_equiv_pos_site_id
 _symmetry_equiv_pos_as_xyz
  1  'x, y, z'
loop_
 _atom_site_type_symbol
 _atom_site_label
 _atom_site_symmetry_multiplicity
 _atom_site_fract_x
 _atom_site_fract_y
 _atom_site_fract_z
 _atom_site_occupancy
  C  C0  1  0.64307297  0.99854945  0.25443821  1
  C  C1  1  0.36656045  0.37362379  0.24227604  1
  C  C2  1  0.99293205  0.62367026  0.25442877  1
  C  C3  1  0.62637621  0.63343955  0.74227604  1
  C  C4  1  0.00145055  0.35692703  0.75443821  1
  C  C5  1  0.37632974  0.00706795  0.75442877  1
  C  C6  1  0.30973997  0.33188245  0.58777121  1
  C  C7  1  0.03322745  0.70695679  0.57560904  1
  C  C8  1  0.65959905  0.95700326  0.58776177  1
  C  C9  1  0.29304321  0.96677255  0.07560904  1
  C  C10  1  0.66811755  0.69026003  0.08777121  1
  C  C11  1  0.04299674  0.34040095  0.08776177  1
  C  C12  1  0.97640597  0.66521645  0.92110521  1
  C  C13  1  0.69989345  0.04029079  0.90894304  1
  C  C14  1  0.32626505  0.29033726  0.92109577  1
  C  C15  1  0.95970921  0.30010655  0.40894304  1
  C  C16  1  0.33478355  0.02359403  0.42110521  1
  C  C17  1  0.70966274  0.67373495  0.42109577  1
  C  C18  1  0.99243519  0.98412879  0.50015400  1
  C  C19  1  0.01587121  0.00756481  0.00015400  1
  C  C20  1  0.65910219  0.31746179  0.83348700  1
  C  C21  1  0.68253821  0.34089781  0.33348700  1
  C  C22  1  0.32576819  0.65079579  0.16682100  1
  C  C23  1  0.34920421  0.67423181  0.66682100  1
  C  C24  1  0.97284480  0.98148051  0.35290816  1
  C  C25  1  0.01851949  0.02715520  0.85290816  1
  C  C26  1  0.99813176  0.00104362  0.64719868  1
  C  C27  1  -0.00104362  0.00186824  0.14719868  1
  C  C28  1  0.63951180  0.31481351  0.68624116  1
  C  C29  1  0.68518649  0.36048820  0.18624116  1
  C  C30  1  0.66479876  0.33437662  0.98053168  1
  C  C31  1  0.66562338  0.33520124  0.48053168  1
  C  C32  1  0.30617780  0.64814751  0.01957516  1
  C  C33  1  0.35185249  0.69382220  0.51957516  1
  C  C34  1  0.33146476  0.66771062  0.31386568  1
  C  C35  1  0.33228938  0.66853524  0.81386568  1
  Ni  Ni36  1  0.70617113  0.71009992  0.24925269  1
  Ni  Ni37  1  0.99912164  0.28716771  0.24979225  1
  Ni  Ni38  1  0.28990008  0.29382887  0.74925269  1
  Ni  Ni39  1  0.71283229  0.00087836  0.74979225  1
  Ni  Ni40  1  0.37283813  0.04343292  0.58258569  1
  Ni  Ni41  1  0.66578864  0.62050071  0.58312525  1
  Ni  Ni42  1  0.95656708  0.62716187  0.08258569  1
  Ni  Ni43  1  0.37949929  0.33421136  0.08312525  1
  Ni  Ni44  1  0.03950413  0.37676692  0.91591969  1
  Ni  Ni45  1  0.33245464  0.95383471  0.91645925  1
  Ni  Ni46  1  0.62323308  0.96049587  0.41591969  1
  Ni  Ni47  1  0.04616529  0.66754536  0.41645925  1
  Cu  Cu48  1  0.28624677  -0.00086200  0.25018344  1
  Cu  Cu49  1  0.00086200  0.71375323  0.75018344  1
  Cu  Cu50  1  0.95291377  0.33247100  0.58351644  1
  Cu  Cu51  1  0.66752900  0.04708623  0.08351644  1
  Cu  Cu52  1  0.61957977  0.66580500  0.91685044  1
  Cu  Cu53  1  0.33419500  0.38042023  0.41685044  1
  C  C54  1  0.20681781  0.02756456  0.30597221  1
  C  C55  1  0.82971650  0.78984152  0.31008957  1
  C  C56  1  0.97205139  0.16408225  0.31054417  1
  C  C57  1  0.21015848  0.17028350  0.81008957  1
  C  C58  1  0.97243544  0.79318219  0.80597221  1
  C  C59  1  0.83591775  0.02794861  0.81054417  1
  C  C60  1  0.80091548  0.96525793  0.68911031  1
  C  C61  1  0.16298875  0.20136272  0.68940392  1
  C  C62  1  0.02592880  0.82053045  0.69387154  1
  C  C63  1  0.79863728  0.83701125  0.18940392  1
  C  C64  1  0.03474207  0.19908452  0.18911031  1
  C  C65  1  0.17946955  0.97407120  0.19387154  1
  C  C66  1  0.87348481  0.36089756  0.63930521  1
  C  C67  1  0.49638350  0.12317452  0.64342257  1
  C  C68  1  0.63871839  0.49741525  0.64387717  1
  C  C69  1  0.87682548  0.50361650  0.14342257  1
  C  C70  1  0.63910244  0.12651519  0.13930521  1
  C  C71  1  0.50258475  0.36128161  0.14387717  1
  C  C72  1  0.46758248  0.29859093  0.02244331  1
  C  C73  1  0.82965575  0.53469572  0.02273692  1
  C  C74  1  0.69259580  0.15386345  0.02720454  1
  C  C75  1  0.46530428  0.17034425  0.52273692  1
  C  C76  1  0.70140907  0.53241752  0.52244331  1
  C  C77  1  0.84613655  0.30740420  0.52720454  1
  C  C78  1  0.54015081  0.69423156  0.97263921  1
  C  C79  1  0.16304950  0.45650852  0.97675657  1
  C  C80  1  0.30538439  0.83074925  0.97721117  1
  C  C81  1  0.54349148  0.83695050  0.47675657  1
  C  C82  1  0.30576844  0.45984919  0.47263921  1
  C  C83  1  0.16925075  0.69461561  0.47721117  1
  C  C84  1  0.13424848  0.63192493  0.35577731  1
  C  C85  1  0.49632175  0.86802972  0.35607092  1
  C  C86  1  0.35926180  0.48719745  0.36053854  1
  C  C87  1  0.13197028  0.50367825  0.85607092  1
  C  C88  1  0.36807507  0.86575152  0.85577731  1
  C  C89  1  0.51280255  0.64073820  0.86053854  1
  C  C90  1  0.03332793  0.85013430  0.41003650  1
  C  C91  1  0.82181723  0.98370136  0.41189606  1
  C  C92  1  0.18157405  0.20200875  0.41155800  1
  C  C93  1  0.01629864  0.17818277  0.91189606  1
  C  C94  1  0.14986570  0.96667207  0.91003650  1
  C  C95  1  0.79799125  0.81842595  0.91155800  1
  C  C96  1  0.96813220  0.17028838  0.58669753  1
  C  C97  1  0.17560688  0.02290369  0.59057700  1
  C  C98  1  0.83843314  0.81824895  0.58961098  1
  C  C99  1  0.97709631  0.82439312  0.09057700  1
  C  C100  1  0.82971162  0.03186780  0.08669753  1
  C  C101  1  0.18175105  0.16156686  0.08961098  1
  C  C102  1  0.69999493  0.18346730  0.74336950  1
  C  C103  1  0.48848423  0.31703436  0.74522906  1
  C  C104  1  0.84824105  0.53534175  0.74489100  1
  C  C105  1  0.68296564  0.51151577  0.24522906  1
  C  C106  1  0.81653270  0.30000507  0.24336950  1
  C  C107  1  0.46465825  0.15175895  0.24489100  1
  C  C108  1  0.63479920  0.50362138  0.92003053  1
  C  C109  1  0.84227388  0.35623669  0.92391000  1
  C  C110  1  0.50510014  0.15158195  0.92294398  1
  C  C111  1  0.64376331  0.15772612  0.42391000  1
  C  C112  1  0.49637862  0.36520080  0.42003053  1
  C  C113  1  0.84841805  0.49489986  0.42294398  1
  C  C114  1  0.36666093  0.51680130  0.07670350  1
  C  C115  1  0.15515023  0.65036836  0.07856306  1
  C  C116  1  0.51490705  0.86867575  0.07822500  1
  C  C117  1  0.34963164  0.84484977  0.57856306  1
  C  C118  1  0.48319870  0.63333907  0.57670350  1
  C  C119  1  0.13132425  0.48509295  0.57822500  1
  C  C120  1  0.30146520  0.83695538  0.25336453  1
  C  C121  1  0.50893988  0.68957069  0.25724400  1
  C  C122  1  0.17176614  0.48491595  0.25627798  1
  C  C123  1  0.31042931  0.49106012  0.75724400  1
  C  C124  1  0.16304462  0.69853480  0.75336453  1
  C  C125  1  0.51508405  0.82823386  0.75627798  1
