# generated using pymatgen
data_Cu2NiC6
_symmetry_space_group_name_H-M   'P 1'
_cell_length_a   6.36202800
_cell_length_b   5.80493000
_cell_length_c   6.64526845
_cell_angle_alpha   115.89809129
_cell_angle_beta   118.59978495
_cell_angle_gamma   90.00000000
_symmetry_Int_Tables_number   1
_chemical_formula_structural   Cu2NiC6
_chemical_formula_sum   'Cu2 Ni1 C6'
_cell_volume   186.91833229
_cell_formula_units_Z   1
loop_
 _symmetry_equiv_pos_site_id
 _symmetry_equiv_pos_as_xyz
  1  'x, y, z'
loop_
 _atom_site_type_symbol
 _atom_site_label
 _atom_site_symmetry_multiplicity
 _atom_site_fract_x
 _atom_site_fract_y
 _atom_site_fract_z
 _atom_site_occupancy
  C  C0  1  0.00000000  0.50000000  0.00000000  1
  Ni  Ni1  1  0.00000000  0.00000000  0.00000000  1
  Cu  Cu2  1  0.73227100  0.23227100  0.46454200  1
  Cu  Cu3  1  0.26772900  0.76772900  0.53545800  1
  C  C4  1  0.50000000  0.50000000  0.00000000  1
  C  C5  1  0.93752600  0.91116800  0.28585500  1
  C  C6  1  0.34833000  0.37468800  0.28585500  1
  C  C7  1  0.06247400  0.62531200  0.71414500  1
  C  C8  1  0.65167000  0.08883200  0.71414500  1
