# generated using pymatgen
data_Cu3NiC13
_symmetry_space_group_name_H-M   'P 1'
_cell_length_a   8.58782334
_cell_length_b   8.58782308
_cell_length_c   21.99081758
_cell_angle_alpha   90.00000000
_cell_angle_beta   90.00000000
_cell_angle_gamma   120.00000102
_symmetry_Int_Tables_number   1
_chemical_formula_structural   Cu3NiC13
_chemical_formula_sum   'Cu18 Ni6 C78'
_cell_volume   1404.55320082
_cell_formula_units_Z   6
loop_
 _symmetry_equiv_pos_site_id
 _symmetry_equiv_pos_as_xyz
  1  'x, y, z'
loop_
 _atom_site_type_symbol
 _atom_site_label
 _atom_site_symmetry_multiplicity
 _atom_site_fract_x
 _atom_site_fract_y
 _atom_site_fract_z
 _atom_site_occupancy
  C  C0  1  -0.00000000  -0.00000000  0.63733733  1
  C  C1  1  -0.00000000  -0.00000000  0.13733733  1
  C  C2  1  0.66666700  0.33333300  0.97067033  1
  C  C3  1  0.66666700  0.33333300  0.47067033  1
  C  C4  1  0.33333300  0.66666700  0.30400433  1
  C  C5  1  0.33333300  0.66666700  0.80400433  1
  Ni  Ni6  1  -0.00000000  -0.00000000  0.35494645  1
  Ni  Ni7  1  -0.00000000  -0.00000000  0.85494645  1
  Ni  Ni8  1  0.66666700  0.33333300  0.68827945  1
  Ni  Ni9  1  0.66666700  0.33333300  0.18827945  1
  Ni  Ni10  1  0.33333300  0.66666700  0.02161345  1
  Ni  Ni11  1  0.33333300  0.66666700  0.52161345  1
  Cu  Cu12  1  0.29089734  0.02089913  0.25043543  1
  Cu  Cu13  1  0.73000179  0.70910266  0.25043543  1
  Cu  Cu14  1  0.97910087  0.26999821  0.25043543  1
  Cu  Cu15  1  0.29089734  0.26999821  0.75043543  1
  Cu  Cu16  1  0.97910087  0.70910266  0.75043543  1
  Cu  Cu17  1  0.73000179  0.02089913  0.75043543  1
  Cu  Cu18  1  0.95756434  0.35423213  0.58376843  1
  Cu  Cu19  1  0.39666879  0.04243566  0.58376843  1
  Cu  Cu20  1  0.64576787  0.60333121  0.58376843  1
  Cu  Cu21  1  0.95756434  0.60333121  0.08376843  1
  Cu  Cu22  1  0.64576787  0.04243566  0.08376843  1
  Cu  Cu23  1  0.39666879  0.35423213  0.08376843  1
  Cu  Cu24  1  0.62423034  0.68756613  0.91710243  1
  Cu  Cu25  1  0.06333479  0.37576966  0.91710243  1
  Cu  Cu26  1  0.31243387  0.93666521  0.91710243  1
  Cu  Cu27  1  0.62423034  0.93666521  0.41710243  1
  Cu  Cu28  1  0.31243387  0.37576966  0.41710243  1
  Cu  Cu29  1  0.06333479  0.68756613  0.41710243  1
  C  C30  1  0.20806891  0.05263005  0.30780749  1
  C  C31  1  0.84456114  0.79193109  0.30780749  1
  C  C32  1  0.94736995  0.15543886  0.30780749  1
  C  C33  1  0.20806891  0.15543886  0.80780749  1
  C  C34  1  0.94736995  0.79193109  0.80780749  1
  C  C35  1  0.84456114  0.05263005  0.80780749  1
  C  C36  1  0.80773876  0.97904560  0.69408986  1
  C  C37  1  0.17130684  0.19226124  0.69408986  1
  C  C38  1  0.02095440  0.82869316  0.69408986  1
  C  C39  1  0.80773876  0.82869316  0.19408986  1
  C  C40  1  0.02095440  0.19226124  0.19408986  1
  C  C41  1  0.17130684  0.97904560  0.19408986  1
  C  C42  1  0.87473591  0.38596305  0.64114049  1
  C  C43  1  0.51122814  0.12526409  0.64114049  1
  C  C44  1  0.61403695  0.48877186  0.64114049  1
  C  C45  1  0.87473591  0.48877186  0.14114049  1
  C  C46  1  0.61403695  0.12526409  0.14114049  1
  C  C47  1  0.51122814  0.38596305  0.14114049  1
  C  C48  1  0.47440576  0.31237860  0.02742286  1
  C  C49  1  0.83797384  0.52559424  0.02742286  1
  C  C50  1  0.68762140  0.16202616  0.02742286  1
  C  C51  1  0.47440576  0.16202616  0.52742286  1
  C  C52  1  0.68762140  0.52559424  0.52742286  1
  C  C53  1  0.83797384  0.31237860  0.52742286  1
  C  C54  1  0.54140191  0.71929705  0.97447449  1
  C  C55  1  0.17789414  0.45859809  0.97447449  1
  C  C56  1  0.28070295  0.82210586  0.97447449  1
  C  C57  1  0.54140191  0.82210586  0.47447449  1
  C  C58  1  0.28070295  0.45859809  0.47447449  1
  C  C59  1  0.17789414  0.71929705  0.47447449  1
  C  C60  1  0.14107176  0.64571260  0.36075686  1
  C  C61  1  0.50463984  0.85892824  0.36075686  1
  C  C62  1  0.35428740  0.49536016  0.36075686  1
  C  C63  1  0.14107176  0.49536016  0.86075686  1
  C  C64  1  0.35428740  0.85892824  0.86075686  1
  C  C65  1  0.50463984  0.64571260  0.86075686  1
  C  C66  1  0.04033776  0.85100850  0.40783676  1
  C  C67  1  0.81067074  0.95966224  0.40783676  1
  C  C68  1  0.14899150  0.18932926  0.40783676  1
  C  C69  1  0.04033776  0.18932926  0.90783676  1
  C  C70  1  0.14899150  0.95966224  0.90783676  1
  C  C71  1  0.81067074  0.85100850  0.90783676  1
  C  C72  1  0.97760877  0.18438455  0.59240254  1
  C  C73  1  0.20677578  0.02239123  0.59240254  1
  C  C74  1  0.81561545  0.79322422  0.59240254  1
  C  C75  1  0.97760877  0.79322422  0.09240254  1
  C  C76  1  0.81561545  0.02239123  0.09240254  1
  C  C77  1  0.20677578  0.18438455  0.09240254  1
  C  C78  1  0.70700476  0.18434150  0.74116976  1
  C  C79  1  0.47733774  0.29299524  0.74116976  1
  C  C80  1  0.81565850  0.52266226  0.74116976  1
  C  C81  1  0.70700476  0.52266226  0.24116976  1
  C  C82  1  0.81565850  0.29299524  0.24116976  1
  C  C83  1  0.47733774  0.18434150  0.24116976  1
  C  C84  1  0.64427577  0.51771755  0.92573554  1
  C  C85  1  0.87344278  0.35572423  0.92573554  1
  C  C86  1  0.48228245  0.12655722  0.92573554  1
  C  C87  1  0.64427577  0.12655722  0.42573554  1
  C  C88  1  0.48228245  0.35572423  0.42573554  1
  C  C89  1  0.87344278  0.51771755  0.42573554  1
  C  C90  1  0.37367076  0.51767550  0.07450376  1
  C  C91  1  0.14400374  0.62632924  0.07450376  1
  C  C92  1  0.48232450  0.85599626  0.07450376  1
  C  C93  1  0.37367076  0.85599626  0.57450376  1
  C  C94  1  0.48232450  0.62632924  0.57450376  1
  C  C95  1  0.14400374  0.51767550  0.57450376  1
  C  C96  1  0.31094177  0.85105155  0.25906954  1
  C  C97  1  0.54010878  0.68905823  0.25906954  1
  C  C98  1  0.14894845  0.45989122  0.25906954  1
  C  C99  1  0.31094177  0.45989122  0.75906954  1
  C  C100  1  0.14894845  0.68905823  0.75906954  1
  C  C101  1  0.54010878  0.85105155  0.75906954  1
