# generated using pymatgen
data_Cu7Ni4C63
_symmetry_space_group_name_H-M   'P 1'
_cell_length_a   17.53200041
_cell_length_b   8.73331437
_cell_length_c   22.45531459
_cell_angle_alpha   89.89803131
_cell_angle_beta   90.19330518
_cell_angle_gamma   119.89250440
_symmetry_Int_Tables_number   1
_chemical_formula_structural   Cu7Ni4C63
_chemical_formula_sum   'Cu21 Ni12 C189'
_cell_volume   2980.76181875
_cell_formula_units_Z   3
loop_
 _symmetry_equiv_pos_site_id
 _symmetry_equiv_pos_as_xyz
  1  'x, y, z'
loop_
 _atom_site_type_symbol
 _atom_site_label
 _atom_site_symmetry_multiplicity
 _atom_site_fract_x
 _atom_site_fract_y
 _atom_site_fract_z
 _atom_site_occupancy
  C  C0  1  0.99985640  0.62070546  0.25193807  1
  C  C1  1  0.50117331  0.64443987  0.25553901  1
  C  C2  1  0.00010848  0.35840066  0.75076638  1
  C  C3  1  0.49983238  0.37840962  0.74927747  1
  C  C4  1  0.33340292  0.97008848  0.58132289  1
  C  C5  1  0.83226559  0.69554667  0.08322940  1
  C  C6  1  0.00010726  0.98724876  0.50063003  1
  C  C7  1  0.50230094  0.00544159  0.49920697  1
  C  C8  1  0.99820032  0.99818849  0.00166733  1
  C  C9  1  0.50138031  0.01488444  0.00212581  1
  C  C10  1  0.33158846  0.34706501  0.82480386  1
  C  C11  1  0.82983405  0.33287323  0.83265678  1
  C  C12  1  0.33101855  0.32932873  0.33385286  1
  C  C13  1  0.82901545  0.31560288  0.32730940  1
  C  C14  1  0.16968980  0.66218848  0.17396604  1
  C  C15  1  0.66911862  0.66908380  0.16844593  1
  C  C16  1  0.16859471  0.66894623  0.66488826  1
  C  C17  1  0.66946416  0.67622799  0.66899561  1
  C  C18  1  0.99554420  0.00750481  0.35709621  1
  C  C19  1  0.49994077  0.98396480  0.35721551  1
  C  C20  1  0.99493843  0.01451592  0.85294418  1
  C  C21  1  0.49655766  0.98468246  0.85601993  1
  C  C22  1  0.99865208  0.00463560  0.64481815  1
  C  C23  1  0.49948662  0.99477702  0.14790210  1
  C  C24  1  0.34214540  0.33131415  0.97394123  1
  C  C25  1  0.83572163  0.35686397  0.97963682  1
  C  C26  1  0.33650319  0.31298272  0.47931523  1
  C  C27  1  0.83655527  0.35507865  0.47041175  1
  C  C28  1  0.16728400  0.66339123  0.02592957  1
  C  C29  1  0.66549721  0.65213244  0.52181664  1
  Ni  Ni30  1  0.50620542  0.99847912  0.64620982  1
  Ni  Ni31  1  0.00164122  0.00440775  0.15039961  1
  Ni  Ni32  1  0.33285872  0.34015345  0.68531209  1
  Ni  Ni33  1  0.82498339  0.32133547  0.68452043  1
  Ni  Ni34  1  0.32633675  0.32507244  0.18837524  1
  Ni  Ni35  1  0.83284363  0.32705886  0.18667089  1
  Ni  Ni36  1  0.67023016  0.63951597  0.01642171  1
  Ni  Ni37  1  0.16942921  0.70074236  0.51640381  1
  Ni  Ni38  1  0.16628759  0.65846726  0.31210798  1
  Ni  Ni39  1  0.66726802  0.68420900  0.31897298  1
  Ni  Ni40  1  0.16592351  0.63947189  0.81399322  1
  Ni  Ni41  1  0.66568014  0.67195221  0.81159198  1
  Cu  Cu42  1  0.65439452  0.00250478  0.25088006  1
  Cu  Cu43  1  0.34564672  0.69383521  0.24946435  1
  Cu  Cu44  1  0.00094742  0.29486703  0.24388019  1
  Cu  Cu45  1  0.15337949  0.29823898  0.74923252  1
  Cu  Cu46  1  0.50099221  0.70681669  0.74362339  1
  Cu  Cu47  1  0.84341075  0.99725538  0.74687944  1
  Cu  Cu48  1  0.47882129  0.32621637  0.59299279  1
  Cu  Cu49  1  0.19123512  0.04442712  0.58723222  1
  Cu  Cu50  1  0.83206912  0.61297364  0.58935242  1
  Cu  Cu51  1  0.97784661  0.63248757  0.09208533  1
  Cu  Cu52  1  0.33397150  0.05221894  0.08954936  1
  Cu  Cu53  1  0.69001462  0.33615938  0.08754410  1
  Cu  Cu54  1  0.30524279  0.66280146  0.91561105  1
  Cu  Cu55  1  0.80396108  0.67176331  0.91400693  1
  Cu  Cu56  1  0.02358199  0.38690164  0.91433030  1
  Cu  Cu57  1  0.53569341  0.39320298  0.91299122  1
  Cu  Cu58  1  0.30276415  0.93315249  0.41383033  1
  Cu  Cu59  1  0.80452948  0.94835511  0.41656465  1
  Cu  Cu60  1  0.66349557  0.38642972  0.40892928  1
  Cu  Cu61  1  0.03496603  0.67516728  0.41280488  1
  Cu  Cu62  1  0.52361792  0.65837004  0.41544155  1
  C  C63  1  0.14577624  0.00477258  0.24767842  1
  C  C64  1  0.85309441  0.71132846  0.24805394  1
  C  C65  1  0.49936973  0.29389792  0.24954053  1
  C  C66  1  0.64596761  0.28700869  0.74773280  1
  C  C67  1  0.00117256  0.70775625  0.75037485  1
  C  C68  1  0.35139019  0.99280527  0.74921725  1
  C  C69  1  0.97949317  0.34280852  0.58357018  1
  C  C70  1  0.68870523  0.04918250  0.58568244  1
  C  C71  1  0.33258066  0.62178930  0.58452986  1
  C  C72  1  0.48037096  0.61891060  0.08395277  1
  C  C73  1  0.83226248  0.04306092  0.08440818  1
  C  C74  1  0.18864487  0.32373194  0.08583630  1
  C  C75  1  0.16575780  0.94756716  0.91421622  1
  C  C76  1  0.66815409  0.94640380  0.91783400  1
  C  C77  1  0.16825929  0.38993678  0.41787936  1
  C  C78  1  0.10650174  0.03344713  0.30184865  1
  C  C79  1  0.60007459  0.02919924  0.30648338  1
  C  C80  1  0.41705754  0.78994398  0.30454220  1
  C  C81  1  0.91209850  0.79600625  0.30210623  1
  C  C82  1  0.48267099  0.18295402  0.30253236  1
  C  C83  1  0.98803436  0.16657828  0.30455347  1
  C  C84  1  0.09991388  0.16804804  0.80736979  1
  C  C85  1  0.60540750  0.17892063  0.80244932  1
  C  C86  1  0.48803197  0.80879359  0.80485650  1
  C  C87  1  0.98515912  0.78749362  0.80386389  1
  C  C88  1  0.41116368  0.02566418  0.80334874  1
  C  C89  1  0.91507178  0.04393736  0.80483645  1
  C  C90  1  0.39233800  0.96561823  0.69598066  1
  C  C91  1  0.89857639  0.97042726  0.69244838  1
  C  C92  1  0.08085894  0.19809956  0.69464750  1
  C  C93  1  0.58807187  0.20411119  0.69508267  1
  C  C94  1  0.01484056  0.81766953  0.69652062  1
  C  C95  1  0.51412229  0.84295214  0.69089697  1
  C  C96  1  0.39789954  0.82664519  0.19159626  1
  C  C97  1  0.89710733  0.82132482  0.19427986  1
  C  C98  1  0.01487330  0.18801451  0.19012461  1
  C  C99  1  0.51267209  0.20869004  0.19526775  1
  C  C100  1  0.08825908  0.97303204  0.19449176  1
  C  C101  1  0.58211478  0.96339111  0.19425428  1
  C  C102  1  0.43034700  0.35691608  0.64785463  1
  C  C103  1  0.93888151  0.36188373  0.63891760  1
  C  C104  1  0.25704424  0.14023210  0.64187639  1
  C  C105  1  0.74358453  0.13009766  0.63960017  1
  C  C106  1  0.31938856  0.51326261  0.63797226  1
  C  C107  1  0.82106382  0.49011710  0.64513985  1
  C  C108  1  0.43842164  0.51380339  0.13767038  1
  C  C109  1  0.93208753  0.50378558  0.14689391  1
  C  C110  1  0.32013165  0.15306340  0.14368554  1
  C  C111  1  0.81959178  0.12558517  0.13736683  1
  C  C112  1  0.24422815  0.35749471  0.13884109  1
  C  C113  1  0.75814989  0.37512480  0.14098631  1
  C  C114  1  0.22861866  0.30434885  0.03071339  1
  C  C115  1  0.73407300  0.30242128  0.02591651  1
  C  C116  1  0.42303652  0.53649542  0.02962172  1
  C  C117  1  0.91688514  0.54311557  0.02949656  1
  C  C118  1  0.34428327  0.16688868  0.02756045  1
  C  C119  1  0.84896685  0.15200660  0.02955350  1
  C  C120  1  0.23323376  0.16592700  0.52604194  1
  C  C121  1  0.72860420  0.15478026  0.53174336  1
  C  C122  1  0.34895977  0.54622920  0.53013451  1
  C  C123  1  0.84640707  0.52515744  0.52825114  1
  C  C124  1  0.41686483  0.29027825  0.53036124  1
  C  C125  1  0.92333470  0.30892524  0.53069984  1
  C  C126  1  0.26589956  0.70071984  0.97624046  1
  C  C127  1  0.77119010  0.70574751  0.97770067  1
  C  C128  1  0.08509647  0.47812204  0.97353442  1
  C  C129  1  0.58235111  0.47380473  0.97541334  1
  C  C130  1  0.15440986  0.84730749  0.97017274  1
  C  C131  1  0.65236836  0.84037458  0.97193268  1
  C  C132  1  0.27010672  0.83586766  0.47810435  1
  C  C133  1  0.76690824  0.83176205  0.47705934  1
  C  C134  1  0.15237824  0.46427111  0.47193571  1
  C  C135  1  0.65091858  0.46474679  0.47328271  1
  C  C136  1  0.08304529  0.69415013  0.47529588  1
  C  C137  1  0.58418997  0.69604271  0.47504249  1
  C  C138  1  0.06912812  0.63608130  0.35197446  1
  C  C139  1  0.56174445  0.62769450  0.35447865  1
  C  C140  1  0.24252322  0.84872722  0.35679578  1
  C  C141  1  0.75199318  0.87329176  0.35612398  1
  C  C142  1  0.17868156  0.48748010  0.36289439  1
  C  C143  1  0.68296149  0.51228689  0.35321103  1
  C  C144  1  0.06464868  0.50119635  0.85473374  1
  C  C145  1  0.56848063  0.50182557  0.85240841  1
  C  C146  1  0.18112586  0.87030879  0.86141424  1
  C  C147  1  0.67866236  0.86951293  0.86290637  1
  C  C148  1  0.25044991  0.64001040  0.85681725  1
  C  C149  1  0.74398197  0.63925093  0.85707957  1
  C  C150  1  0.01636456  0.84319054  0.40510116  1
  C  C151  1  0.51320730  0.83616702  0.41337571  1
  C  C152  1  0.40523589  0.97691704  0.40630096  1
  C  C153  1  0.90605330  0.97417810  0.41062042  1
  C  C154  1  0.08845486  0.20381246  0.41179986  1
  C  C155  1  0.57822146  0.18921373  0.40763689  1
  C  C156  1  0.01685324  0.18973755  0.91241010  1
  C  C157  1  0.51507417  0.18792180  0.90602472  1
  C  C158  1  0.08710043  0.96805604  0.91031310  1
  C  C159  1  0.58867426  0.97358225  0.91170307  1
  C  C160  1  0.40656769  0.83533683  0.91064875  1
  C  C161  1  0.90867704  0.83333773  0.90646848  1
  C  C162  1  0.48542393  0.14487550  0.59785865  1
  C  C163  1  0.98640850  0.17595499  0.58783539  1
  C  C164  1  0.09251999  0.02288894  0.59291244  1
  C  C165  1  0.60032126  0.03350078  0.59220772  1
  C  C166  1  0.41112620  0.80481541  0.59141354  1
  C  C167  1  0.91991142  0.81112482  0.59241093  1
  C  C168  1  0.48513847  0.79537724  0.08664966  1
  C  C169  1  0.98606837  0.82773062  0.09696834  1
  C  C170  1  0.41975655  0.02681223  0.09051628  1
  C  C171  1  0.91076503  0.01676027  0.09076701  1
  C  C172  1  0.09976500  0.16857209  0.09132662  1
  C  C173  1  0.59162818  0.16052812  0.09172381  1
  C  C174  1  0.34722643  0.15730353  0.74644233  1
  C  C175  1  0.84635069  0.18633063  0.73725425  1
  C  C176  1  0.24628430  0.31111790  0.74007682  1
  C  C177  1  0.73368837  0.30148015  0.74200448  1
  C  C178  1  0.41368388  0.51159778  0.74077622  1
  C  C179  1  0.92342479  0.52814639  0.74340252  1
  C  C180  1  0.34665448  0.50857252  0.23683271  1
  C  C181  1  0.84875238  0.53780576  0.24469145  1
  C  C182  1  0.42033708  0.31581266  0.24117872  1
  C  C183  1  0.91375245  0.31588947  0.24046805  1
  C  C184  1  0.23392045  0.16592610  0.24123981  1
  C  C185  1  0.74558358  0.17868296  0.23927908  1
  C  C186  1  0.31795860  0.49059740  0.92633061  1
  C  C187  1  0.81717779  0.49311533  0.92117308  1
  C  C188  1  0.43078132  0.35985969  0.92269070  1
  C  C189  1  0.92290772  0.34741184  0.92340309  1
  C  C190  1  0.24531197  0.13046590  0.92134574  1
  C  C191  1  0.74643898  0.12662392  0.92268373  1
  C  C192  1  0.31608185  0.13930126  0.42125560  1
  C  C193  1  0.82248748  0.14830776  0.42762884  1
  C  C194  1  0.24642613  0.36624847  0.42281651  1
  C  C195  1  0.74968420  0.35912066  0.42100756  1
  C  C196  1  0.42241865  0.49445373  0.42448324  1
  C  C197  1  0.93187580  0.50253896  0.42171126  1
  C  C198  1  0.17988140  0.48801173  0.08129899  1
  C  C199  1  0.68229141  0.51525273  0.07787456  1
  C  C200  1  0.07330119  0.64867968  0.07657074  1
  C  C201  1  0.56841376  0.64284699  0.07622839  1
  C  C202  1  0.24684695  0.85678149  0.07861034  1
  C  C203  1  0.75227997  0.86453655  0.07759558  1
  C  C204  1  0.18248337  0.84904235  0.57833520  1
  C  C205  1  0.67922867  0.87123558  0.58195218  1
  C  C206  1  0.25268922  0.64054023  0.57829068  1
  C  C207  1  0.74782349  0.64288857  0.58194781  1
  C  C208  1  0.06897518  0.49420952  0.57758142  1
  C  C209  1  0.57334857  0.50310883  0.58108579  1
  C  C210  1  0.15380764  0.84502682  0.25245069  1
  C  C211  1  0.65260424  0.81360030  0.25653107  1
  C  C212  1  0.25304619  0.68225620  0.25865055  1
  C  C213  1  0.76711953  0.69655930  0.25393162  1
  C  C214  1  0.08630582  0.48884676  0.25593935  1
  C  C215  1  0.57839594  0.46903465  0.25313491  1
  C  C216  1  0.15175675  0.48431042  0.75514312  1
  C  C217  1  0.65354031  0.46263089  0.75357413  1
  C  C218  1  0.08192602  0.69300693  0.75648122  1
  C  C219  1  0.58639123  0.68450431  0.75632924  1
  C  C220  1  0.26342695  0.83685643  0.75843357  1
  C  C221  1  0.75285685  0.82382469  0.75930810  1
