# generated using pymatgen
data_Cu4Ni4C5
_symmetry_space_group_name_H-M   'P 1'
_cell_length_a   5.07428335
_cell_length_b   5.12772425
_cell_length_c   5.81365551
_cell_angle_alpha   90.96478383
_cell_angle_beta   90.25249076
_cell_angle_gamma   88.43260710
_symmetry_Int_Tables_number   1
_chemical_formula_structural   Cu4Ni4C5
_chemical_formula_sum   'Cu4 Ni4 C5'
_cell_volume   151.18934611
_cell_formula_units_Z   1
loop_
 _symmetry_equiv_pos_site_id
 _symmetry_equiv_pos_as_xyz
  1  'x, y, z'
loop_
 _atom_site_type_symbol
 _atom_site_label
 _atom_site_symmetry_multiplicity
 _atom_site_fract_x
 _atom_site_fract_y
 _atom_site_fract_z
 _atom_site_occupancy
  C  C0  1  0.01788400  0.50826600  0.24736800  1
  C  C1  1  0.91793500  0.95305400  0.97880900  1
  C  C2  1  0.04997200  0.04565700  0.51291500  1
  C  C3  1  0.53616300  0.41928200  0.23012300  1
  C  C4  1  0.47658800  0.55088100  0.73209000  1
  Ni  Ni5  1  0.19250000  0.84795900  0.73447000  1
  Ni  Ni6  1  0.30063000  0.34964300  0.46738900  1
  Ni  Ni7  1  0.71095100  0.62300200  0.01730600  1
  Ni  Ni8  1  0.82369100  0.17011600  0.25756300  1
  Cu  Cu9  1  0.20976000  0.83012500  0.23740500  1
  Cu  Cu10  1  0.25624800  0.36115700  0.99713600  1
  Cu  Cu11  1  0.75447900  0.65449600  0.48075900  1
  Cu  Cu12  1  0.76708900  0.18636100  0.73166700  1
