# generated using pymatgen
data_Cu4(NiC6)5
_symmetry_space_group_name_H-M   'P 1'
_cell_length_a   9.37748822
_cell_length_b   9.36679570
_cell_length_c   23.26904618
_cell_angle_alpha   90.13185956
_cell_angle_beta   89.77331676
_cell_angle_gamma   119.96293246
_symmetry_Int_Tables_number   1
_chemical_formula_structural   Cu4(NiC6)5
_chemical_formula_sum   'Cu12 Ni15 C90'
_cell_volume   1770.70190270
_cell_formula_units_Z   3
loop_
 _symmetry_equiv_pos_site_id
 _symmetry_equiv_pos_as_xyz
  1  'x, y, z'
loop_
 _atom_site_type_symbol
 _atom_site_label
 _atom_site_symmetry_multiplicity
 _atom_site_fract_x
 _atom_site_fract_y
 _atom_site_fract_z
 _atom_site_occupancy
  Ni  Ni0  1  0.35664485  0.34258771  0.25135122  1
  Ni  Ni1  1  0.00899419  0.65420466  0.24682362  1
  Ni  Ni2  1  0.64045467  0.65494729  0.74186186  1
  Ni  Ni3  1  0.98620894  0.34204893  0.75566184  1
  Ni  Ni4  1  0.32340611  0.35092535  0.58553091  1
  Ni  Ni5  1  0.66770195  0.96405709  0.58784444  1
  Ni  Ni6  1  0.30471160  0.97451218  0.09137320  1
  Ni  Ni7  1  0.69436534  0.02608988  0.91146952  1
  Ni  Ni8  1  0.69100666  0.66217011  0.42500516  1
  Ni  Ni9  1  0.00397467  0.97697817  0.50163724  1
  Ni  Ni10  1  0.00044008  0.99993538  0.00050332  1
  Ni  Ni11  1  0.64160815  0.31403591  0.83159279  1
  Ni  Ni12  1  0.64601541  0.26799164  0.33230673  1
  Ni  Ni13  1  0.35674205  0.68629647  0.16785039  1
  Ni  Ni14  1  0.34154827  0.70199432  0.66885382  1
  Cu  Cu15  1  0.00759670  0.01020764  0.34876512  1
  Cu  Cu16  1  0.00994623  0.00037337  0.84872682  1
  Cu  Cu17  1  0.99477782  0.98280596  0.65185634  1
  Cu  Cu18  1  0.98918671  -0.00100774  0.15152995  1
  Cu  Cu19  1  0.66603061  0.33382583  0.68077448  1
  Cu  Cu20  1  0.66982283  0.32831491  0.18049221  1
  Cu  Cu21  1  0.67659591  0.34921620  0.98525640  1
  Cu  Cu22  1  0.67519074  0.33881492  0.48524034  1
  Cu  Cu23  1  0.32275782  0.65086307  0.01500601  1
  Cu  Cu24  1  0.32226136  0.66684636  0.51343556  1
  Cu  Cu25  1  0.33777084  0.68309354  0.31879189  1
  Cu  Cu26  1  0.33320568  0.67299039  0.81955125  1
  C  C27  1  0.30170498  -0.00006376  0.24319600  1
  C  C28  1  0.69597576  0.00097319  0.75112704  1
  C  C29  1  0.66029651  0.64357768  0.58139005  1
  C  C30  1  0.69245995  0.68770215  0.25401067  1
  C  C31  1  0.00554174  0.31311989  0.25078221  1
  C  C32  1  0.30692318  0.31235034  0.74605136  1
  C  C33  1  0.99647576  0.68552849  0.75106892  1
  C  C34  1  0.97589382  0.32915008  0.58761189  1
  C  C35  1  0.36495547  0.03279650  0.58205283  1
  C  C36  1  0.98191028  0.64842245  0.08708855  1
  C  C37  1  0.66169978  0.02344523  0.07717132  1
  C  C38  1  0.36010507  0.33012330  0.08694777  1
  C  C39  1  0.63949643  0.67034724  0.91316313  1
  C  C40  1  0.01775243  0.35176831  0.91263873  1
  C  C41  1  0.33868624  0.97649989  0.92257350  1
  C  C42  1  0.64642519  0.97281578  0.42116194  1
  C  C43  1  0.33787618  0.36338956  0.41668064  1
  C  C44  1  0.01689168  0.66538872  0.41237205  1
  C  C45  1  0.19751429  0.01536252  0.29200745  1
  C  C46  1  0.77382676  0.76937073  0.30860320  1
  C  C47  1  0.98567409  0.21795818  0.30350303  1
  C  C48  1  0.21602303  0.20793728  0.79542638  1
  C  C49  1  0.99780056  0.77826012  0.80245856  1
  C  C50  1  0.79760457  0.01157182  0.80528600  1
  C  C51  1  0.78521521  0.98753410  0.69643995  1
  C  C52  1  0.22882105  0.23057011  0.69091557  1
  C  C53  1  0.01339972  0.77799421  0.69782413  1
  C  C54  1  0.77959393  0.79271300  0.20416157  1
  C  C55  1  0.00872744  0.22324281  0.19898071  1
  C  C56  1  0.21580398  0.98892014  0.18510927  1
  C  C57  1  0.90352373  0.33860585  0.64337781  1
  C  C58  1  0.46369413  0.11284030  0.63414151  1
  C  C59  1  0.65167461  0.54358496  0.63567014  1
  C  C60  1  0.90342568  0.57134277  0.14285530  1
  C  C61  1  0.65578407  0.12272726  0.12608471  1
  C  C62  1  0.44141371  0.33947297  0.14296350  1
  C  C63  1  0.46267723  0.32488693  0.03914680  1
  C  C64  1  0.88549113  0.54645555  0.03827293  1
  C  C65  1  0.67254542  0.10819791  0.02195445  1
  C  C66  1  0.45157727  0.12752327  0.53016906  1
  C  C67  1  0.66117877  0.55227824  0.52600024  1
  C  C68  1  0.86735328  0.31615256  0.53962808  1
  C  C69  1  0.53726700  0.67539017  0.96110330  1
  C  C70  1  0.11437632  0.45221394  0.96161936  1
  C  C71  1  0.32764646  0.89115708  0.97757957  1
  C  C72  1  0.56182309  0.88836162  0.47552191  1
  C  C73  1  0.33304866  0.45088591  0.46963799  1
  C  C74  1  0.11475605  0.66625732  0.46193961  1
  C  C75  1  0.09762438  0.66800107  0.35710840  1
  C  C76  1  0.54508710  0.88126713  0.37090117  1
  C  C77  1  0.33784337  0.45643038  0.36474897  1
  C  C78  1  0.09696502  0.42933627  0.85700432  1
  C  C79  1  0.34559177  0.87803893  0.87350693  1
  C  C80  1  0.55800030  0.66061821  0.85721561  1
  C  C81  1  -0.00622248  0.81273700  0.41707369  1
  C  C82  1  0.80568481  0.97200472  0.41969008  1
  C  C83  1  0.19479052  0.19379407  0.41740177  1
  C  C84  1  -0.00163930  0.18306461  0.91760529  1
  C  C85  1  0.19580861  0.00295147  0.91840519  1
  C  C86  1  0.80151932  0.82840749  0.91619098  1
  C  C87  1  0.99433956  0.17884462  0.58573746  1
  C  C88  1  0.20303602  0.02693676  0.58443517  1
  C  C89  1  0.81264312  0.82059905  0.58106005  1
  C  C90  1  0.99936081  0.81604661  0.08163549  1
  C  C91  1  0.80462699  -0.00300948  0.08125168  1
  C  C92  1  0.19740951  0.17337955  0.08351748  1
  C  C93  1  0.68523059  0.16152940  0.74974911  1
  C  C94  1  0.48235977  0.35191987  0.74877437  1
  C  C95  1  0.83550774  0.52562698  0.75097101  1
  C  C96  1  0.69301654  0.52777614  0.25024842  1
  C  C97  1  0.86915495  0.35218092  0.24819250  1
  C  C98  1  0.47591705  0.15699332  0.24638952  1
  C  C99  1  0.66533733  0.52702917  0.91746534  1
  C  C100  1  0.84729772  0.32903964  0.91320160  1
  C  C101  1  0.49666135  0.13883717  0.91971280  1
  C  C102  1  0.67612030  0.14375820  0.41895354  1
  C  C103  1  0.49578930  0.35901299  0.41527848  1
  C  C104  1  0.84872275  0.51620725  0.41334554  1
  C  C105  1  0.33579238  0.47452029  0.08274720  1
  C  C106  1  0.15260646  0.67180800  0.08650758  1
  C  C107  1  0.50370591  0.86134127  0.08022269  1
  C  C108  1  0.34184352  0.86328641  0.58043106  1
  C  C109  1  0.50151743  0.66094649  0.58304807  1
  C  C110  1  0.14403144  0.47604912  0.58212111  1
  C  C111  1  0.31031515  0.83840834  0.24894577  1
  C  C112  1  0.51628412  0.64741189  0.25306093  1
  C  C113  1  0.16584275  0.47390669  0.25200827  1
  C  C114  1  0.30633911  0.47259730  0.74843960  1
  C  C115  1  0.13187974  0.64514438  0.75254250  1
  C  C116  1  0.52362634  0.84102910  0.75192315  1
