# generated using pymatgen
data_Cu2Ni5C32
_symmetry_space_group_name_H-M   'P 1'
_cell_length_a   9.13261171
_cell_length_b   9.08965900
_cell_length_c   22.47781370
_cell_angle_alpha   91.64511478
_cell_angle_beta   90.19087135
_cell_angle_gamma   120.37039640
_symmetry_Int_Tables_number   1
_chemical_formula_structural   Cu2Ni5C32
_chemical_formula_sum   'Cu6 Ni15 C96'
_cell_volume   1608.87447629
_cell_formula_units_Z   3
loop_
 _symmetry_equiv_pos_site_id
 _symmetry_equiv_pos_as_xyz
  1  'x, y, z'
loop_
 _atom_site_type_symbol
 _atom_site_label
 _atom_site_symmetry_multiplicity
 _atom_site_fract_x
 _atom_site_fract_y
 _atom_site_fract_z
 _atom_site_occupancy
  Ni  Ni0  1  0.64767879  0.01282171  0.25392935  1
  Ni  Ni1  1  0.00046368  0.63161069  0.24352706  1
  Ni  Ni2  1  0.64153925  0.64127001  0.74507068  1
  Ni  Ni3  1  0.99280697  0.35669161  0.74927482  1
  Ni  Ni4  1  0.31068670  0.34313722  0.58659988  1
  Ni  Ni5  1  0.66550926  0.96459907  0.57736478  1
  Ni  Ni6  1  0.30368196  0.96456010  0.08003742  1
  Ni  Ni7  1  0.69432170  0.02537981  0.91291781  1
  Ni  Ni8  1  0.96923822  0.29935313  0.41318595  1
  Ni  Ni9  1  0.98268431  0.96628295  0.50061530  1
  Ni  Ni10  1  0.00451362  0.98926673  0.00238346  1
  Ni  Ni11  1  0.63135063  0.31125237  0.83520781  1
  Ni  Ni12  1  0.62995445  0.31845055  0.33723226  1
  Ni  Ni13  1  0.31513381  0.63255419  0.16691204  1
  Ni  Ni14  1  0.31972823  0.67161833  0.66768176  1
  Cu  Cu15  1  0.00401427  0.00064302  0.35246652  1
  Cu  Cu16  1  0.01882363  0.00727139  0.85485064  1
  Cu  Cu17  1  0.66359179  0.32942848  0.68529809  1
  Cu  Cu18  1  0.66714051  0.33390480  0.18369968  1
  Cu  Cu19  1  0.32558999  0.65980141  0.01925275  1
  Cu  Cu20  1  0.33332672  0.66735663  0.51668910  1
  C  C21  1  0.98334082  0.00539224  0.65123259  1
  C  C22  1  0.00763706  0.99525312  0.15426649  1
  C  C23  1  0.66882850  0.34586703  0.98420948  1
  C  C24  1  0.67258471  0.32839091  0.48805882  1
  C  C25  1  0.33232741  0.67576391  0.31615256  1
  C  C26  1  0.34758257  0.68482648  0.81516343  1
  C  C27  1  0.29601739  0.98725240  0.25005672  1
  C  C28  1  0.01734201  0.30056752  0.25204249  1
  C  C29  1  0.28895650  0.30772350  0.74936019  1
  C  C30  1  0.69638788  0.98900649  0.75335259  1
  C  C31  1  0.96281770  0.32173048  0.58552838  1
  C  C32  1  0.68310732  0.63430964  0.58504224  1
  C  C33  1  0.95420407  0.64098303  0.08657722  1
  C  C34  1  0.35455166  0.97543417  0.92238096  1
  C  C35  1  0.62405224  0.97620975  0.41887077  1
  C  C36  1  0.69489962  0.71073526  0.24908372  1
  C  C37  1  0.01728027  0.71423472  0.74888019  1
  C  C38  1  0.36040700  0.04298447  0.58105895  1
  C  C39  1  0.68591351  0.04070154  0.08211714  1
  C  C40  1  0.36383479  0.32048771  0.08234000  1
  C  C41  1  0.62337988  0.65312870  0.91519330  1
  C  C42  1  0.02040764  0.37506144  0.91388601  1
  C  C43  1  0.35202341  0.38027327  0.41648059  1
  C  C44  1  0.02606352  0.65312459  0.41513163  1
  C  C45  1  0.20971840  0.00671965  0.30382182  1
  C  C46  1  0.79349963  0.78610273  0.30389725  1
  C  C47  1  0.98037801  0.20154740  0.30886999  1
  C  C48  1  0.20595100  0.20129550  0.80197090  1
  C  C49  1  0.99060528  0.78721347  0.80327272  1
  C  C50  1  0.79840255  0.00559532  0.80892967  1
  C  C51  1  0.77890963  0.95494464  0.69581045  1
  C  C52  1  0.17464408  0.21938935  0.69008068  1
  C  C53  1  0.03421431  0.81584030  0.69578750  1
  C  C54  1  0.78278872  0.82155273  0.19706220  1
  C  C55  1  0.03831636  0.20103704  0.19694359  1
  C  C56  1  0.18532285  0.95751551  0.19125674  1
  C  C57  1  0.88667845  0.34194913  0.64268043  1
  C  C58  1  0.45926282  0.11661762  0.63609431  1
  C  C59  1  0.64880146  0.53575981  0.64181699  1
  C  C60  1  0.88483636  0.55238128  0.14452676  1
  C  C61  1  0.66075244  0.11757118  0.13679929  1
  C  C62  1  0.46040720  0.34290909  0.13673178  1
  C  C63  1  0.45042669  0.29468083  0.02878901  1
  C  C64  1  0.83336646  0.54160522  0.03103855  1
  C  C65  1  0.69975963  0.14431412  0.02886098  1
  C  C66  1  0.45149369  0.15448426  0.52935245  1
  C  C67  1  0.70208230  0.53415302  0.52980586  1
  C  C68  1  0.84619452  0.29347443  0.52884472  1
  C  C69  1  0.53939298  0.67652041  0.96642267  1
  C  C70  1  0.12386667  0.45712305  0.96678074  1
  C  C71  1  0.34089262  0.88325881  0.97892124  1
  C  C72  1  0.54787671  0.88183989  0.47529422  1
  C  C73  1  0.33173933  0.45089764  0.47348298  1
  C  C74  1  0.12854138  0.67342303  0.46769081  1
  C  C75  1  0.10884430  0.62995691  0.35946013  1
  C  C76  1  0.51075540  0.88186948  0.36058696  1
  C  C77  1  0.36418073  0.48915156  0.36546158  1
  C  C78  1  0.10341361  0.46800103  0.85847999  1
  C  C79  1  0.38837304  0.88134135  0.86682987  1
  C  C80  1  0.52212327  0.62937292  0.85809372  1
  C  C81  1  0.00019943  0.79913907  0.41209135  1
  C  C82  1  0.80531402  0.00722181  0.41298794  1
  C  C83  1  0.19700118  0.20946524  0.41109855  1
  C  C84  1  0.98556496  0.19652689  0.91168767  1
  C  C85  1  0.20403964  0.00067184  0.91519772  1
  C  C86  1  0.79369274  0.80835870  0.91245390  1
  C  C87  1  0.96597297  0.14712082  0.58655220  1
  C  C88  1  0.19393952  0.03660009  0.58326291  1
  C  C89  1  0.84999999  0.81627092  0.58970654  1
  C  C90  1  0.97088598  0.82503609  0.08927480  1
  C  C91  1  0.84358592  0.03086867  0.08593703  1
  C  C92  1  0.19476147  0.15611472  0.08402774  1
  C  C93  1  0.68258716  0.14897629  0.74837828  1
  C  C94  1  0.47245127  0.34757182  0.74405879  1
  C  C95  1  0.86783688  0.53768352  0.74363969  1
  C  C96  1  0.67097681  0.53872327  0.24261063  1
  C  C97  1  0.86561027  0.32942986  0.24282151  1
  C  C98  1  0.47968392  0.13510900  0.24621743  1
  C  C99  1  0.63715007  0.49588934  0.91917495  1
  C  C100  1  0.85025154  0.36577344  0.91773392  1
  C  C101  1  0.52831414  0.15692193  0.92496775  1
  C  C102  1  0.63882806  0.15985990  0.42269551  1
  C  C103  1  0.50781992  0.36682209  0.41840171  1
  C  C104  1  0.85818610  0.48805695  0.41742506  1
  C  C105  1  0.33895567  0.46690752  0.07715162  1
  C  C106  1  0.13461802  0.67050851  0.07895804  1
  C  C107  1  0.53295672  0.86790936  0.07730038  1
  C  C108  1  0.33812788  0.87120273  0.57485586  1
  C  C109  1  0.53115533  0.66381885  0.57687314  1
  C  C110  1  0.14562896  0.46932545  0.57985450  1
  C  C111  1  0.30254671  0.81424930  0.25313273  1
  C  C112  1  0.52663491  0.70413392  0.25183283  1
  C  C113  1  0.18417562  0.48306709  0.25739445  1
  C  C114  1  0.29298675  0.48672277  0.75482182  1
  C  C115  1  0.17397859  0.69802376  0.75327463  1
  C  C116  1  0.51650899  0.81924522  0.75426627  1
