# generated using pymatgen
data_Cu9NiC7
_symmetry_space_group_name_H-M   'P 1'
_cell_length_a   9.62969700
_cell_length_b   9.62969700
_cell_length_c   9.62969700
_cell_angle_alpha   90.00000000
_cell_angle_beta   90.00000000
_cell_angle_gamma   90.00000000
_symmetry_Int_Tables_number   1
_chemical_formula_structural   Cu9NiC7
_chemical_formula_sum   'Cu36 Ni4 C28'
_cell_volume   892.97205181
_cell_formula_units_Z   4
loop_
 _symmetry_equiv_pos_site_id
 _symmetry_equiv_pos_as_xyz
  1  'x, y, z'
loop_
 _atom_site_type_symbol
 _atom_site_label
 _atom_site_symmetry_multiplicity
 _atom_site_fract_x
 _atom_site_fract_y
 _atom_site_fract_z
 _atom_site_occupancy
  C  C0  1  0.74131200  0.74131200  0.74131200  1
  C  C1  1  0.64242900  0.85757100  0.14242900  1
  C  C2  1  0.35757100  0.35757100  0.35757100  1
  C  C3  1  0.94442100  0.94442100  0.94442100  1
  C  C4  1  0.55557900  0.05557900  0.44442100  1
  C  C5  1  0.44442100  0.55557900  0.05557900  1
  C  C6  1  0.05557900  0.44442100  0.55557900  1
  C  C7  1  0.25868800  0.24131200  0.75868800  1
  C  C8  1  0.14242900  0.64242900  0.85757100  1
  C  C9  1  0.24131200  0.75868800  0.25868800  1
  C  C10  1  0.75868800  0.25868800  0.24131200  1
  C  C11  1  0.85757100  0.14242900  0.64242900  1
  C  C12  1  0.33117700  0.83117700  0.66882300  1
  C  C13  1  0.83117700  0.66882300  0.33117700  1
  C  C14  1  0.16882300  0.16882300  0.16882300  1
  C  C15  1  0.66882300  0.33117700  0.83117700  1
  C  C16  1  0.58300600  0.00403100  0.83635600  1
  C  C17  1  0.83635600  0.58300600  0.00403100  1
  C  C18  1  0.66364400  0.41699400  0.50403100  1
  C  C19  1  0.08300600  0.49596900  0.16364400  1
  C  C20  1  0.16364400  0.08300600  0.49596900  1
  C  C21  1  0.91699400  0.99596900  0.33635600  1
  C  C22  1  0.41699400  0.50403100  0.66364400  1
  C  C23  1  0.33635600  0.91699400  0.99596900  1
  C  C24  1  0.50403100  0.66364400  0.41699400  1
  C  C25  1  0.99596900  0.33635600  0.91699400  1
  C  C26  1  0.00403100  0.83635600  0.58300600  1
  C  C27  1  0.49596900  0.16364400  0.08300600  1
  Ni  Ni28  1  0.05072600  0.94927400  0.44927400  1
  Ni  Ni29  1  0.55072600  0.55072600  0.55072600  1
  Ni  Ni30  1  0.94927400  0.44927400  0.05072600  1
  Ni  Ni31  1  0.44927400  0.05072600  0.94927400  1
  Cu  Cu32  1  0.12431500  0.36310700  0.24276500  1
  Cu  Cu33  1  0.80003500  0.06231200  0.41836400  1
  Cu  Cu34  1  0.08163600  0.19996500  0.56231200  1
  Cu  Cu35  1  0.19996500  0.56231200  0.08163600  1
  Cu  Cu36  1  0.58163600  0.30003500  0.43768800  1
  Cu  Cu37  1  0.91836400  0.69996500  0.93768800  1
  Cu  Cu38  1  0.69996500  0.93768800  0.91836400  1
  Cu  Cu39  1  0.93768800  0.91836400  0.69996500  1
  Cu  Cu40  1  0.36310700  0.24276500  0.12431500  1
  Cu  Cu41  1  0.86310700  0.25723500  0.87568500  1
  Cu  Cu42  1  0.63689300  0.74276500  0.37568500  1
  Cu  Cu43  1  0.25723500  0.87568500  0.86310700  1
  Cu  Cu44  1  0.47803300  0.40080300  0.77066500  1
  Cu  Cu45  1  0.87568500  0.86310700  0.25723500  1
  Cu  Cu46  1  0.24276500  0.12431500  0.36310700  1
  Cu  Cu47  1  0.30003500  0.43768800  0.58163600  1
  Cu  Cu48  1  0.74276500  0.37568500  0.63689300  1
  Cu  Cu49  1  0.75723500  0.62431500  0.13689300  1
  Cu  Cu50  1  0.62431500  0.13689300  0.75723500  1
  Cu  Cu51  1  0.13689300  0.75723500  0.62431500  1
  Cu  Cu52  1  0.59919700  0.27066500  0.02196700  1
  Cu  Cu53  1  0.09919700  0.22933500  0.97803300  1
  Cu  Cu54  1  0.40080300  0.77066500  0.47803300  1
  Cu  Cu55  1  0.22933500  0.97803300  0.09919700  1
  Cu  Cu56  1  0.56231200  0.08163600  0.19996500  1
  Cu  Cu57  1  0.41836400  0.80003500  0.06231200  1
  Cu  Cu58  1  0.43768800  0.58163600  0.30003500  1
  Cu  Cu59  1  0.06231200  0.41836400  0.80003500  1
  Cu  Cu60  1  0.90080300  0.72933500  0.52196700  1
  Cu  Cu61  1  0.52196700  0.90080300  0.72933500  1
  Cu  Cu62  1  0.72933500  0.52196700  0.90080300  1
  Cu  Cu63  1  0.77066500  0.47803300  0.40080300  1
  Cu  Cu64  1  0.02196700  0.59919700  0.27066500  1
  Cu  Cu65  1  0.27066500  0.02196700  0.59919700  1
  Cu  Cu66  1  0.97803300  0.09919700  0.22933500  1
  Cu  Cu67  1  0.37568500  0.63689300  0.74276500  1
