# generated using pymatgen
data_Cu5(NiC)7
_symmetry_space_group_name_H-M   'P 1'
_cell_length_a   5.32559058
_cell_length_b   7.79124784
_cell_length_c   5.73533677
_cell_angle_alpha   96.78578397
_cell_angle_beta   97.69651621
_cell_angle_gamma   82.99841563
_symmetry_Int_Tables_number   1
_chemical_formula_structural   Cu5(NiC)7
_chemical_formula_sum   'Cu5 Ni7 C7'
_cell_volume   232.81596529
_cell_formula_units_Z   1
loop_
 _symmetry_equiv_pos_site_id
 _symmetry_equiv_pos_as_xyz
  1  'x, y, z'
loop_
 _atom_site_type_symbol
 _atom_site_label
 _atom_site_symmetry_multiplicity
 _atom_site_fract_x
 _atom_site_fract_y
 _atom_site_fract_z
 _atom_site_occupancy
  C  C0  1  0.94872500  0.86380700  0.33372800  1
  C  C1  1  0.44797800  0.98873400  0.56240300  1
  C  C2  1  0.50372300  0.63560500  0.18443500  1
  C  C3  1  0.51377200  0.33107900  0.82826400  1
  C  C4  1  0.99007300  0.65269100  0.71741400  1
  C  C5  1  0.00332300  0.32097400  0.33331900  1
  C  C6  1  0.02052100  0.03527200  0.92731000  1
  Ni  Ni7  1  0.89240900  0.10123900  0.22202400  1
  Ni  Ni8  1  0.71571800  0.10998300  0.74353400  1
  Ni  Ni9  1  0.67015200  0.77257700  0.47238700  1
  Ni  Ni10  1  0.72476300  0.42665100  0.11862200  1
  Ni  Ni11  1  0.31736600  0.55126400  0.89342800  1
  Ni  Ni12  1  0.29224500  0.22677300  0.54871100  1
  Ni  Ni13  1  0.15317900  0.89234700  0.65878600  1
  Cu  Cu14  1  0.80596200  0.43267600  0.62512400  1
  Cu  Cu15  1  0.80664300  0.77821600  0.00785900  1
  Cu  Cu16  1  0.27611400  0.86466900  0.17801700  1
  Cu  Cu17  1  0.14618200  0.56483000  0.37264700  1
  Cu  Cu18  1  0.27115000  0.20894500  0.03388700  1
