# generated using pymatgen
data_Cu3Ni3C35
_symmetry_space_group_name_H-M   'P 1'
_cell_length_a   9.15101877
_cell_length_b   9.18558894
_cell_length_c   22.16773431
_cell_angle_alpha   89.55188593
_cell_angle_beta   90.64638896
_cell_angle_gamma   120.43250929
_symmetry_Int_Tables_number   1
_chemical_formula_structural   Cu3Ni3C35
_chemical_formula_sum   'Cu9 Ni9 C105'
_cell_volume   1606.53483500
_cell_formula_units_Z   3
loop_
 _symmetry_equiv_pos_site_id
 _symmetry_equiv_pos_as_xyz
  1  'x, y, z'
loop_
 _atom_site_type_symbol
 _atom_site_label
 _atom_site_symmetry_multiplicity
 _atom_site_fract_x
 _atom_site_fract_y
 _atom_site_fract_z
 _atom_site_occupancy
  C  C0  1  0.63899714  0.00546419  0.23721686  1
  C  C1  1  0.37792373  0.34739253  0.25486812  1
  C  C2  1  0.98359239  0.65060345  0.24893231  1
  C  C3  1  0.66627359  0.63838165  0.74956927  1
  C  C4  1  0.97762319  0.34082663  0.74897324  1
  C  C5  1  0.35856577  0.01647082  0.74813516  1
  C  C6  1  0.28789493  0.32458994  0.58822703  1
  C  C7  1  0.04015326  0.71417724  0.58726232  1
  C  C8  1  0.67586299  0.96733381  0.59394050  1
  C  C9  1  0.30247239  0.96425187  0.09234908  1
  C  C10  1  0.67124733  0.72504925  0.08181759  1
  C  C11  1  0.03330682  0.32159959  0.08027139  1
  C  C12  1  0.97341815  0.30037094  0.42135892  1
  C  C13  1  0.31775873  0.03921770  0.41497145  1
  C  C14  1  0.71128667  0.66075779  0.40854986  1
  C  C15  1  0.01360271  0.00024369  0.49662459  1
  C  C16  1  0.97648084  0.99243933  0.98898474  1
  C  C17  1  0.66880327  0.33974394  0.82070099  1
  C  C18  1  0.65597635  0.33957685  0.33312491  1
  C  C19  1  0.35647787  0.68912165  0.16304673  1
  C  C20  1  0.32959325  0.66742569  0.66329348  1
  C  C21  1  0.67006808  0.33024323  0.97528964  1
  C  C22  1  0.33039972  0.66379128  0.31654356  1
  C  C23  1  0.34445193  0.66126252  0.81298458  1
  C  C24  1  0.01380535  0.97904214  0.34879352  1
  C  C25  1  0.97776758  0.97895659  0.84017600  1
  C  C26  1  0.99824252  0.99339587  0.68141367  1
  C  C27  1  0.97915910  0.97948423  0.15803146  1
  C  C28  1  0.66065940  0.33236103  0.68920671  1
  C  C29  1  0.64887884  0.32042221  0.18585710  1
  C  C30  1  0.66743859  0.35183722  0.47800299  1
  C  C31  1  0.37593525  0.70015244  0.00939667  1
  C  C32  1  0.31289244  0.64335989  0.50629283  1
  Ni  Ni33  1  0.29587468  0.99818051  0.24900578  1
  Ni  Ni34  1  0.69766393  0.70056518  0.25003306  1
  Ni  Ni35  1  0.28867188  0.28699371  0.75074632  1
  Ni  Ni36  1  0.00244458  0.69956234  0.74857760  1
  Ni  Ni37  1  0.70431280  0.00320474  0.74896914  1
  Ni  Ni38  1  0.67043336  0.04212079  0.08645172  1
  Ni  Ni39  1  0.64310019  0.67465431  0.92128736  1
  Ni  Ni40  1  0.32565016  0.36073139  0.42040850  1
  Ni  Ni41  1  0.03515024  0.66479680  0.42155934  1
  Cu  Cu42  1  0.00646929  0.30169149  0.25089246  1
  Cu  Cu43  1  0.95835027  0.33163758  0.58087642  1
  Cu  Cu44  1  0.37806127  0.04047733  0.57965615  1
  Cu  Cu45  1  0.66677060  0.63503220  0.58092984  1
  Cu  Cu46  1  0.95747760  0.61942579  0.08204049  1
  Cu  Cu47  1  0.37589160  0.33330363  0.08102502  1
  Cu  Cu48  1  0.04368837  0.38120135  0.92218490  1
  Cu  Cu49  1  0.33413683  0.96325057  0.91941409  1
  Cu  Cu50  1  0.62331160  0.95769781  0.41821204  1
  C  C51  1  0.22197398  0.03898969  0.30796237  1
  C  C52  1  0.81155025  0.78845759  0.30916134  1
  C  C53  1  0.98348342  0.20038942  0.30463088  1
  C  C54  1  0.20114073  0.15926193  0.80555611  1
  C  C55  1  0.94613894  0.77628742  0.80178118  1
  C  C56  1  0.83497089  0.05842316  0.80407431  1
  C  C57  1  0.76308713  0.94128855  0.68969594  1
  C  C58  1  0.17718295  0.23028474  0.68817021  1
  C  C59  1  0.06248475  0.81928987  0.68820373  1
  C  C60  1  0.75782438  0.81689322  0.18891930  1
  C  C61  1  0.03655152  0.23154249  0.19569724  1
  C  C62  1  0.17522295  0.95770545  0.18851101  1
  C  C63  1  0.87012131  0.33907112  0.63497269  1
  C  C64  1  0.47308548  0.12982520  0.63465013  1
  C  C65  1  0.64951027  0.53299314  0.63521338  1
  C  C66  1  0.88010624  0.52825535  0.13836245  1
  C  C67  1  0.64826263  0.13025325  0.14551958  1
  C  C68  1  0.47306577  0.36263004  0.13790673  1
  C  C69  1  0.47994291  0.32554976  0.02955898  1
  C  C70  1  0.84407309  0.51997548  0.02913269  1
  C  C71  1  0.68215486  0.17012335  0.02836246  1
  C  C72  1  0.46760757  0.13587084  0.52403318  1
  C  C73  1  0.67715138  0.55018581  0.52522926  1
  C  C74  1  0.86296972  0.32461735  0.52465135  1
  C  C75  1  0.56118781  0.68092117  0.98444375  1
  C  C76  1  0.13534311  0.47111941  0.97742469  1
  C  C77  1  0.31803804  0.86986967  0.97674369  1
  C  C78  1  0.54616115  0.85611031  0.47275305  1
  C  C79  1  0.30653686  0.44280620  0.48189971  1
  C  C80  1  0.15348283  0.70515759  0.48087500  1
  C  C81  1  0.14916770  0.65378202  0.36252813  1
  C  C82  1  0.51370817  0.86143644  0.36295965  1
  C  C83  1  0.34739413  0.49649721  0.36314013  1
  C  C84  1  0.12371285  0.48647105  0.86768870  1
  C  C85  1  0.35908663  0.87871203  0.86754172  1
  C  C86  1  0.50305995  0.64567416  0.86584053  1
  C  C87  1  0.00540122  0.82386034  0.41602154  1
  C  C88  1  0.79339099  0.98257018  0.41094831  1
  C  C89  1  0.15178544  0.18104643  0.41162305  1
  C  C90  1  0.01855424  0.21367084  0.91877961  1
  C  C91  1  0.19664822  0.99564432  0.91419855  1
  C  C92  1  0.82735175  0.83295414  0.91143112  1
  C  C93  1  0.97641266  0.18032443  0.58016510  1
  C  C94  1  0.20688878  0.02036093  0.57813194  1
  C  C95  1  0.82223771  0.80351700  0.58227131  1
  C  C96  1  0.97114096  0.78643202  0.07842893  1
  C  C97  1  0.84512556  0.03251395  0.08408368  1
  C  C98  1  0.21411451  0.17126082  0.08014308  1
  C  C99  1  0.65446278  0.14786927  0.74067544  1
  C  C100  1  0.48574516  0.33768967  0.74443540  1
  C  C101  1  0.85083163  0.50609670  0.73996838  1
  C  C102  1  0.67842794  0.51368146  0.24341997  1
  C  C103  1  0.86598140  0.33595709  0.24540894  1
  C  C104  1  0.49092214  0.15560430  0.24708147  1
  C  C105  1  0.64739685  0.48950761  0.92540726  1
  C  C106  1  0.86475115  0.36547394  0.92359741  1
  C  C107  1  0.50200868  0.13765171  0.92354633  1
  C  C108  1  0.62655571  0.11938314  0.41671168  1
  C  C109  1  0.49809787  0.34955895  0.41587683  1
  C  C110  1  0.85763782  0.48373259  0.41687293  1
  C  C111  1  0.34314816  0.47477656  0.07490788  1
  C  C112  1  0.12544531  0.63404369  0.07629668  1
  C  C113  1  0.49557379  0.85549979  0.08112207  1
  C  C114  1  0.36530111  0.87043242  0.58148579  1
  C  C115  1  0.51289619  0.65487415  0.57927105  1
  C  C116  1  0.13181456  0.48939951  0.58244664  1
  C  C117  1  0.31012486  0.82118346  0.25735843  1
  C  C118  1  0.50252038  0.67460757  0.25941685  1
  C  C119  1  0.16850212  0.47628594  0.25617000  1
  C  C120  1  0.30373808  0.47992221  0.76298596  1
  C  C121  1  0.17575485  0.68699128  0.76661894  1
  C  C122  1  0.51229864  0.82502439  0.76241769  1
