# generated using pymatgen
data_Cu2NiC16
_symmetry_space_group_name_H-M   'P 1'
_cell_length_a   5.21053680
_cell_length_b   6.88646000
_cell_length_c   6.68677563
_cell_angle_alpha   90.00000000
_cell_angle_beta   86.88410423
_cell_angle_gamma   90.00000000
_symmetry_Int_Tables_number   1
_chemical_formula_structural   Cu2NiC16
_chemical_formula_sum   'Cu2 Ni1 C16'
_cell_volume   239.58119386
_cell_formula_units_Z   1
loop_
 _symmetry_equiv_pos_site_id
 _symmetry_equiv_pos_as_xyz
  1  'x, y, z'
loop_
 _atom_site_type_symbol
 _atom_site_label
 _atom_site_symmetry_multiplicity
 _atom_site_fract_x
 _atom_site_fract_y
 _atom_site_fract_z
 _atom_site_occupancy
  C  C0  1  0.56454200  0.06448500  0.53447100  1
  C  C1  1  0.51613500  0.02287400  0.00595600  1
  C  C2  1  0.56454200  0.43551500  0.53447100  1
  C  C3  1  0.51613500  0.47712600  0.00595600  1
  Ni  Ni4  1  0.36771900  0.75000000  0.40114000  1
  Cu  Cu5  1  0.05670300  0.25000000  0.25534100  1
  Cu  Cu6  1  0.93393600  0.75000000  0.74543800  1
  C  C7  1  0.94689400  0.75000000  0.23372400  1
  C  C8  1  0.02798100  0.25000000  0.75945200  1
  C  C9  1  0.71560400  0.25000000  0.25949000  1
  C  C10  1  0.27575100  0.75000000  0.68728900  1
  C  C11  1  0.20480300  0.25000000  0.54442300  1
  C  C12  1  0.20840700  0.25000000  0.95581400  1
  C  C13  1  0.15158500  0.56449800  0.25398500  1
  C  C14  1  0.15158500  0.93550200  0.25398500  1
  C  C15  1  0.84614600  0.05218900  0.76284900  1
  C  C16  1  0.77753000  0.75000000  0.03828400  1
  C  C17  1  0.84614600  0.44781100  0.76284900  1
  C  C18  1  0.74035600  0.75000000  0.43508300  1
