# generated using pymatgen
data_Cu(NiC12)3
_symmetry_space_group_name_H-M   'P 1'
_cell_length_a   9.10662572
_cell_length_b   9.09899052
_cell_length_c   22.87527458
_cell_angle_alpha   90.04671333
_cell_angle_beta   90.11480819
_cell_angle_gamma   119.94673395
_symmetry_Int_Tables_number   1
_chemical_formula_structural   Cu(NiC12)3
_chemical_formula_sum   'Cu3 Ni9 C108'
_cell_volume   1642.39901991
_cell_formula_units_Z   3
loop_
 _symmetry_equiv_pos_site_id
 _symmetry_equiv_pos_as_xyz
  1  'x, y, z'
loop_
 _atom_site_type_symbol
 _atom_site_label
 _atom_site_symmetry_multiplicity
 _atom_site_fract_x
 _atom_site_fract_y
 _atom_site_fract_z
 _atom_site_occupancy
  C  C0  1  0.99215556  0.35259443  0.75314919  1
  C  C1  1  0.38707174  0.01860267  0.74929256  1
  C  C2  1  0.31906552  0.33516861  0.58494757  1
  C  C3  1  0.03046903  0.70474440  0.57828534  1
  C  C4  1  0.65569062  0.96161343  0.58714251  1
  C  C5  1  0.31344586  0.97631613  0.08345241  1
  C  C6  1  0.66013015  0.68557122  0.08572767  1
  C  C7  1  0.02549554  0.33661610  0.08403486  1
  C  C8  1  0.33130117  0.29511072  0.92097724  1
  C  C9  1  0.96812878  0.29396821  0.41218564  1
  C  C10  1  0.32324545  0.02959971  0.41461020  1
  C  C11  1  0.70882816  0.67783453  0.41449937  1
  C  C12  1  0.00113560  0.99313452  0.49198021  1
  C  C13  1  0.00120708  0.99814706  0.99909552  1
  C  C14  1  0.66444844  0.32221883  0.83231355  1
  C  C15  1  0.66778981  0.33366953  0.32782574  1
  C  C16  1  0.33436378  0.66624170  0.16547033  1
  C  C17  1  0.35875720  0.67270340  0.66894680  1
  Ni  Ni18  1  0.00549198  0.01593391  0.85352163  1
  Ni  Ni19  1  0.99633812  0.99858874  0.65018262  1
  Ni  Ni20  1  0.00244301  0.00098268  0.14608679  1
  Ni  Ni21  1  0.67242052  0.32262920  0.98329840  1
  Ni  Ni22  1  0.65573053  0.33684736  0.47880238  1
  Ni  Ni23  1  0.32137504  0.66672958  0.01995969  1
  Ni  Ni24  1  0.34376537  0.67494692  0.51495829  1
  Ni  Ni25  1  0.33291923  0.66745418  0.31645572  1
  Ni  Ni26  1  0.33920760  0.67075159  0.81546599  1
  Cu  Cu27  1  0.00034487  0.99883042  0.35370730  1
  Cu  Cu28  1  0.64123511  0.32384532  0.68649907  1
  Cu  Cu29  1  0.66631678  0.33326439  0.17772521  1
  C  C30  1  0.29825545  0.29876664  0.74971432  1
  C  C31  1  0.70486093  0.00232518  0.74931196  1
  C  C32  1  0.37327384  0.03789743  0.58517409  1
  C  C33  1  0.66688574  0.62403444  0.58539147  1
  C  C34  1  0.95104862  0.61858069  0.08554912  1
  C  C35  1  0.66428682  0.04005883  0.08697571  1
  C  C36  1  0.38100808  0.33700498  0.08420606  1
  C  C37  1  0.03690153  0.37867959  0.91566464  1
  C  C38  1  0.33297708  0.96206282  0.91599384  1
  C  C39  1  0.63113676  0.96290392  0.41507441  1
  C  C40  1  0.32788113  0.37278251  0.41618779  1
  C  C41  1  0.03998778  0.66604173  0.41663730  1
  C  C42  1  0.29485787  0.00276894  0.25157814  1
  C  C43  1  0.70821353  0.70566675  0.25133183  1
  C  C44  1  0.99728729  0.29203423  0.25150887  1
  C  C45  1  0.99702912  0.70606401  0.75048210  1
  C  C46  1  0.95686108  0.33412146  0.58496464  1
  C  C47  1  0.62696908  0.66811279  0.91708674  1
  C  C48  1  0.20841541  0.01876043  0.30372992  1
  C  C49  1  0.81050249  0.79197834  0.30372589  1
  C  C50  1  0.98152123  0.18983235  0.30378487  1
  C  C51  1  0.19877015  0.17280568  0.80582339  1
  C  C52  1  0.97456917  0.78974504  0.80170606  1
  C  C53  1  0.82895291  0.02046841  0.80404550  1
  C  C54  1  0.79247956  0.97043352  0.69043858  1
  C  C55  1  0.17173769  0.20504615  0.69216900  1
  C  C56  1  0.02863119  0.81554987  0.69686429  1
  C  C57  1  0.79141339  0.81377415  0.19793432  1
  C  C58  1  0.02219538  0.20849412  0.19806073  1
  C  C59  1  0.18648902  0.97758919  0.19803974  1
  C  C60  1  0.88202905  0.36134789  0.63681496  1
  C  C61  1  0.49317445  0.11391641  0.64112072  1
  C  C62  1  0.63729497  0.50256032  0.63906321  1
  C  C63  1  0.87907026  0.50066523  0.14108612  1
  C  C64  1  0.61964917  0.11753524  0.14133260  1
  C  C65  1  0.49919178  0.37678325  0.13968227  1
  C  C66  1  0.45496012  0.29589129  0.02408579  1
  C  C67  1  0.83125550  0.54073868  0.02710913  1
  C  C68  1  0.70973106  0.16205650  0.02852300  1
  C  C69  1  0.45961140  0.15772404  0.52648854  1
  C  C70  1  0.70388609  0.54512076  0.52515923  1
  C  C71  1  0.85245127  0.30483883  0.53132485  1
  C  C72  1  0.55044553  0.69494704  0.96998488  1
  C  C73  1  0.16231661  0.46091767  0.97240615  1
  C  C74  1  0.31123457  0.84720932  0.97357779  1
  C  C75  1  0.54443510  0.84449852  0.47388910  1
  C  C76  1  0.29878105  0.45804502  0.47542836  1
  C  C77  1  0.15680112  0.69542921  0.47549258  1
  C  C78  1  0.13367588  0.62968858  0.36166950  1
  C  C79  1  0.49689688  0.86936584  0.36130060  1
  C  C80  1  0.36966888  0.50472577  0.36177380  1
  C  C81  1  0.13428823  0.49073290  0.85746994  1
  C  C82  1  0.35892108  0.86987366  0.85816845  1
  C  C83  1  0.51578503  0.64140096  0.86509098  1
  C  C84  1  0.02094484  0.83190256  0.40958404  1
  C  C85  1  0.81438696  0.97947504  0.40889332  1
  C  C86  1  0.16538653  0.18680700  0.40924991  1
  C  C87  1  0.02580392  0.19086603  0.91039306  1
  C  C88  1  0.16117337  0.97826162  0.90962946  1
  C  C89  1  0.79595644  0.81744845  0.90894804  1
  C  C90  1  0.97565951  0.17844978  0.58910576  1
  C  C91  1  0.18288807  0.02080058  0.59047789  1
  C  C92  1  0.83580832  0.81849957  0.58934295  1
  C  C93  1  0.97935313  0.81430798  0.09324986  1
  C  C94  1  0.83587936  0.01957985  0.09385696  1
  C  C95  1  0.18649128  0.16604315  0.09287936  1
  C  C96  1  0.70055183  0.17783296  0.74479487  1
  C  C97  1  0.47696866  0.30608506  0.74766767  1
  C  C98  1  0.85381416  0.53579301  0.74252694  1
  C  C99  1  0.68941413  0.53748976  0.24549290  1
  C  C100  1  0.84807797  0.31071125  0.24563444  1
  C  C101  1  0.46245764  0.15189372  0.24578794  1
  C  C102  1  0.63585776  0.51091076  0.92121122  1
  C  C103  1  0.85154791  0.36063617  0.92119733  1
  C  C104  1  0.49498679  0.15575495  0.92109384  1
  C  C105  1  0.64579459  0.14851675  0.42418390  1
  C  C106  1  0.50290059  0.36077372  0.42174856  1
  C  C107  1  0.85557096  0.49137118  0.42360109  1
  C  C108  1  0.35149088  0.50035404  0.07445466  1
  C  C109  1  0.14613041  0.65033816  0.07597741  1
  C  C110  1  0.50516710  0.84755210  0.07445289  1
  C  C111  1  0.34236618  0.84299455  0.57689341  1
  C  C112  1  0.49584512  0.64428680  0.57758832  1
  C  C113  1  0.13028970  0.48409750  0.57784949  1
  C  C114  1  0.30610578  0.84258989  0.25494208  1
  C  C115  1  0.53657813  0.69383658  0.25498425  1
  C  C116  1  0.15725660  0.46346422  0.25508659  1
  C  C117  1  0.29840403  0.47921184  0.75583625  1
  C  C118  1  0.15719174  0.69658587  0.75503858  1
  C  C119  1  0.51286154  0.83608691  0.75521309  1
