# generated using pymatgen
data_CuNi3C37
_symmetry_space_group_name_H-M   'P 1'
_cell_length_a   9.00428546
_cell_length_b   9.00514327
_cell_length_c   22.20750103
_cell_angle_alpha   90.06398135
_cell_angle_beta   89.85152153
_cell_angle_gamma   120.03903965
_symmetry_Int_Tables_number   1
_chemical_formula_structural   CuNi3C37
_chemical_formula_sum   'Cu3 Ni9 C111'
_cell_volume   1558.82641025
_cell_formula_units_Z   3
loop_
 _symmetry_equiv_pos_site_id
 _symmetry_equiv_pos_as_xyz
  1  'x, y, z'
loop_
 _atom_site_type_symbol
 _atom_site_label
 _atom_site_symmetry_multiplicity
 _atom_site_fract_x
 _atom_site_fract_y
 _atom_site_fract_z
 _atom_site_occupancy
  C  C0  1  0.37242844  0.36682871  0.24861826  1
  C  C1  1  0.63695670  0.63102347  0.74892430  1
  C  C2  1  0.99408981  0.36408906  0.74880884  1
  C  C3  1  0.36938944  0.00537131  0.74864161  1
  C  C4  1  0.29738888  0.33345531  0.58278630  1
  C  C5  1  0.03604178  0.70249875  0.58285982  1
  C  C6  1  0.66644823  0.96383073  0.58284287  1
  C  C7  1  0.30419385  0.96552764  0.08240292  1
  C  C8  1  0.66113086  0.69624477  0.08239808  1
  C  C9  1  0.03441201  0.33825639  0.08197250  1
  C  C10  1  0.96137230  0.66417352  0.91790595  1
  C  C11  1  0.70454528  0.03695004  0.91800784  1
  C  C12  1  0.96413931  0.29694898  0.41615499  1
  C  C13  1  0.33289223  0.03702913  0.41632503  1
  C  C14  1  0.70308790  0.66661767  0.41602100  1
  C  C15  1  0.00028486  0.00018705  0.49892876  1
  C  C16  1  0.00725586  0.00669867  0.99636794  1
  C  C17  1  0.65980413  0.33277073  0.83591693  1
  C  C18  1  0.67285799  0.33298218  0.32956171  1
  C  C19  1  0.33298781  0.67304611  0.16606441  1
  C  C20  1  0.33322792  0.66682522  0.66332723  1
  Ni  Ni21  1  0.99893533  0.00026381  0.35094645  1
  Ni  Ni22  1  0.00526098  0.00481598  0.85368984  1
  Ni  Ni23  1  0.00003767  0.99968611  0.64718332  1
  Ni  Ni24  1  0.66715681  0.33352569  0.68429602  1
  Ni  Ni25  1  0.67252519  0.33272059  0.18739811  1
  Ni  Ni26  1  0.66109137  0.33266086  0.98065805  1
  Ni  Ni27  1  0.66638847  0.33356553  0.48140221  1
  Ni  Ni28  1  0.33214579  0.66559796  0.01829193  1
  Ni  Ni29  1  0.33296992  0.66643952  0.51784258  1
  Cu  Cu30  1  0.99919610  0.99868246  0.14715203  1
  Cu  Cu31  1  0.33318872  0.67076809  0.31122476  1
  Cu  Cu32  1  0.33469724  0.66725956  0.81479229  1
  C  C33  1  0.29308971  0.00183921  0.25088345  1
  C  C34  1  0.71168262  0.70641583  0.25141643  1
  C  C35  1  0.99331896  0.28882456  0.25128124  1
  C  C36  1  0.28879590  0.28622164  0.74908643  1
  C  C37  1  0.99719983  0.71155149  0.75002588  1
  C  C38  1  0.71452496  0.00303827  0.74986378  1
  C  C39  1  0.95677923  0.33322957  0.58306217  1
  C  C40  1  0.37668203  0.04312198  0.58333907  1
  C  C41  1  0.66642438  0.62341773  0.58332737  1
  C  C42  1  0.95453498  0.61842543  0.08232571  1
  C  C43  1  0.66377418  0.04587138  0.08237842  1
  C  C44  1  0.38122636  0.33661142  0.08402894  1
  C  C45  1  0.62529511  0.66329817  0.91856240  1
  C  C46  1  0.04161441  0.37146776  0.91855844  1
  C  C47  1  0.33311287  0.96287810  0.91865289  1
  C  C48  1  0.62569927  0.95892992  0.41816003  1
  C  C49  1  0.33344479  0.37494918  0.41735639  1
  C  C50  1  0.04124383  0.66676914  0.41805114  1
  C  C51  1  0.19749152  0.03149322  0.30920939  1
  C  C52  1  0.83144500  0.80448119  0.30999655  1
  C  C53  1  0.97250826  0.16958443  0.31015852  1
  C  C54  1  0.19304685  0.15908173  0.80634584  1
  C  C55  1  0.96495455  0.80042803  0.80900828  1
  C  C56  1  0.83466104  0.03373778  0.80881884  1
  C  C57  1  0.80119660  0.96519553  0.69075030  1
  C  C58  1  0.16469550  0.20022211  0.69005953  1
  C  C59  1  0.03491323  0.83607328  0.69091769  1
  C  C60  1  0.80109379  0.82925927  0.19149148  1
  C  C61  1  0.03185688  0.20007703  0.19187152  1
  C  C62  1  0.17066612  0.97171338  0.19105020  1
  C  C63  1  0.86516878  0.36650093  0.64221476  1
  C  C64  1  0.50138499  0.13500532  0.64228077  1
  C  C65  1  0.63344906  0.49854110  0.64230688  1
  C  C66  1  0.86033727  0.49258530  0.13992593  1
  C  C67  1  0.63059494  0.13934433  0.13995708  1
  C  C68  1  0.50026000  0.37004351  0.14340716  1
  C  C69  1  0.47240344  0.29760065  0.02649144  1
  C  C70  1  0.83204057  0.53474677  0.02307911  1
  C  C71  1  0.70414721  0.16902358  0.02301724  1
  C  C72  1  0.46782526  0.16889699  0.52490469  1
  C  C73  1  0.70122591  0.53230724  0.52488127  1
  C  C74  1  0.83096281  0.29885385  0.52484068  1
  C  C75  1  0.53097133  0.69950440  0.97541866  1
  C  C76  1  0.16501240  0.46962069  0.97625076  1
  C  C77  1  0.29970733  0.83318611  0.97565006  1
  C  C78  1  0.53300893  0.83243212  0.47674379  1
  C  C79  1  0.30013431  0.46857901  0.47595757  1
  C  C80  1  0.16777175  0.70061972  0.47659622  1
  C  C81  1  0.13623628  0.63028247  0.36121468  1
  C  C82  1  0.49489949  0.86332298  0.36135140  1
  C  C83  1  0.36948606  0.50015379  0.35892069  1
  C  C84  1  0.13489901  0.49832890  0.85879461  1
  C  C85  1  0.36473853  0.86737786  0.85863945  1
  C  C86  1  0.50397614  0.63804837  0.85817742  1
  C  C87  1  0.02576414  0.83908775  0.41207017  1
  C  C88  1  0.81383844  0.97483982  0.41236794  1
  C  C89  1  0.16101033  0.18604972  0.41254039  1
  C  C90  1  0.01886212  0.18143346  0.91109130  1
  C  C91  1  0.15552903  0.96626153  0.91062881  1
  C  C92  1  0.81154387  0.83830473  0.91134455  1
  C  C93  1  0.97340912  0.16062024  0.58891202  1
  C  C94  1  0.18725823  0.02657407  0.58899597  1
  C  C95  1  0.83953927  0.81278269  0.58897162  1
  C  C96  1  0.97438654  0.81117194  0.08807802  1
  C  C97  1  0.83679992  0.02629889  0.08860243  1
  C  C98  1  0.18831454  0.16299049  0.08772188  1
  C  C99  1  0.69142265  0.17134989  0.74413794  1
  C  C100  1  0.47948196  0.30779426  0.74435607  1
  C  C101  1  0.82834687  0.52015485  0.74405726  1
  C  C102  1  0.68484087  0.51516342  0.24482998  1
  C  C103  1  0.82445920  0.30695765  0.24409515  1
  C  C104  1  0.47618930  0.17744059  0.24429018  1
  C  C105  1  0.64872579  0.49622412  0.92214864  1
  C  C106  1  0.85513514  0.35971242  0.92166746  1
  C  C107  1  0.51159971  0.14418710  0.92220978  1
  C  C108  1  0.64089836  0.14708139  0.42312460  1
  C  C109  1  0.50623166  0.35899622  0.42343497  1
  C  C110  1  0.85298827  0.49356569  0.42326725  1
  C  C111  1  0.35781922  0.50477897  0.07693651  1
  C  C112  1  0.14667941  0.64235764  0.07782132  1
  C  C113  1  0.49517584  0.85388810  0.07736378  1
  C  C114  1  0.35952510  0.85380945  0.57850913  1
  C  C115  1  0.49410953  0.64025915  0.57851163  1
  C  C116  1  0.14619094  0.50587515  0.57841093  1
  C  C117  1  0.30647286  0.82850469  0.25553361  1
  C  C118  1  0.52013836  0.68669724  0.25608922  1
  C  C119  1  0.17364069  0.47250678  0.25620579  1
  C  C120  1  0.30670682  0.47768597  0.75491757  1
  C  C121  1  0.17094374  0.69292303  0.75488308  1
  C  C122  1  0.52184541  0.82914855  0.75443053  1
