# generated using pymatgen
data_Cu2NiC10
_symmetry_space_group_name_H-M   'P 1'
_cell_length_a   8.59342358
_cell_length_b   8.59342358
_cell_length_c   7.87490400
_cell_angle_alpha   90.00000000
_cell_angle_beta   90.00000000
_cell_angle_gamma   119.99999674
_symmetry_Int_Tables_number   1
_chemical_formula_structural   Cu2NiC10
_chemical_formula_sum   'Cu6 Ni3 C30'
_cell_volume   503.62624287
_cell_formula_units_Z   3
loop_
 _symmetry_equiv_pos_site_id
 _symmetry_equiv_pos_as_xyz
  1  'x, y, z'
loop_
 _atom_site_type_symbol
 _atom_site_label
 _atom_site_symmetry_multiplicity
 _atom_site_fract_x
 _atom_site_fract_y
 _atom_site_fract_z
 _atom_site_occupancy
  C  C0  1  0.64484700  0.64460200  0.36538000  1
  C  C1  1  0.00000000  0.00000000  0.50247200  1
  C  C2  1  0.33333300  0.66666700  0.61664500  1
  C  C3  1  0.99975500  0.35515300  0.36538000  1
  C  C4  1  0.35539800  0.00024500  0.36538000  1
  C  C5  1  0.66666700  0.33333300  0.53657400  1
  Ni  Ni6  1  0.33333300  0.66666700  0.00056100  1
  Ni  Ni7  1  0.00000000  0.00000000  0.93678700  1
  Ni  Ni8  1  0.66666700  0.33333300  0.06143000  1
  Cu  Cu9  1  0.69230700  0.98095400  0.24284600  1
  Cu  Cu10  1  0.98227000  0.34703900  0.75253800  1
  Cu  Cu11  1  0.28864800  0.30769300  0.24284600  1
  Cu  Cu12  1  0.65296100  0.63523100  0.75253800  1
  Cu  Cu13  1  0.01904600  0.71135200  0.24284600  1
  Cu  Cu14  1  0.36476900  0.01773000  0.75253800  1
  C  C15  1  0.90661700  0.37256700  0.58658000  1
  C  C16  1  0.21767600  0.07545000  0.75598700  1
  C  C17  1  0.27650400  0.81182600  0.76393500  1
  C  C18  1  0.40663600  0.51662800  0.22871300  1
  C  C19  1  0.42029700  0.23064200  0.25294300  1
  C  C20  1  0.60034600  0.51061100  0.91195200  1
  C  C21  1  0.62743300  0.53404900  0.58658000  1
  C  C22  1  0.46595100  0.09338300  0.58658000  1
  C  C23  1  0.48938900  0.08973600  0.91195200  1
  C  C24  1  0.81034400  0.57970300  0.25294300  1
  C  C25  1  0.48337200  0.89000800  0.22871300  1
  C  C26  1  0.08786900  0.84416800  0.38963300  1
  C  C27  1  0.53532200  0.72349600  0.76393500  1
  C  C28  1  0.76935800  0.18965600  0.25294300  1
  C  C29  1  0.91026400  0.39965400  0.91195200  1
  C  C30  1  0.74846800  0.93008200  0.06771600  1
  C  C31  1  0.75629900  0.91213100  0.38963300  1
  C  C32  1  0.10999200  0.59336400  0.22871300  1
  C  C33  1  0.92455000  0.14222500  0.75598700  1
  C  C34  1  0.18817400  0.46467800  0.76393500  1
  C  C35  1  0.85777500  0.78232400  0.75598700  1
  C  C36  1  0.15583200  0.24370100  0.38963300  1
  C  C37  1  0.18161300  0.25153200  0.06771600  1
  C  C38  1  0.06991800  0.81838700  0.06771600  1
