# generated using pymatgen
data_Cu5NiC3
_symmetry_space_group_name_H-M   'P 1'
_cell_length_a   3.63246300
_cell_length_b   10.63111500
_cell_length_c   11.92508600
_cell_angle_alpha   90.00000000
_cell_angle_beta   90.00000000
_cell_angle_gamma   90.00000000
_symmetry_Int_Tables_number   1
_chemical_formula_structural   Cu5NiC3
_chemical_formula_sum   'Cu20 Ni4 C12'
_cell_volume   460.51261882
_cell_formula_units_Z   4
loop_
 _symmetry_equiv_pos_site_id
 _symmetry_equiv_pos_as_xyz
  1  'x, y, z'
loop_
 _atom_site_type_symbol
 _atom_site_label
 _atom_site_symmetry_multiplicity
 _atom_site_fract_x
 _atom_site_fract_y
 _atom_site_fract_z
 _atom_site_occupancy
  Ni  Ni0  1  0.25000000  0.58247800  0.70300900  1
  Ni  Ni1  1  0.75000000  0.41752200  0.29699100  1
  Ni  Ni2  1  0.75000000  0.08247800  0.79699100  1
  Ni  Ni3  1  0.25000000  0.91752200  0.20300900  1
  Cu  Cu4  1  0.25000000  0.40531600  0.48517200  1
  Cu  Cu5  1  0.75000000  0.71767200  0.32644400  1
  Cu  Cu6  1  0.75000000  0.78232800  0.82644400  1
  Cu  Cu7  1  0.25000000  0.28232800  0.67355600  1
  Cu  Cu8  1  0.25000000  0.61763300  0.20191000  1
  Cu  Cu9  1  0.75000000  0.38236700  0.79809000  1
  Cu  Cu10  1  0.75000000  0.11763300  0.29809000  1
  Cu  Cu11  1  0.25000000  0.88236700  0.70191000  1
  Cu  Cu12  1  0.25000000  0.03396200  0.43267200  1
  Cu  Cu13  1  0.75000000  0.96603800  0.56732800  1
  Cu  Cu14  1  0.75000000  0.53396200  0.06732800  1
  Cu  Cu15  1  0.25000000  0.46603800  0.93267200  1
  Cu  Cu16  1  0.75000000  0.90531600  0.01482800  1
  Cu  Cu17  1  0.25000000  0.09468400  0.98517200  1
  Cu  Cu18  1  0.25000000  0.70481500  0.98967100  1
  Cu  Cu19  1  0.75000000  0.29518500  0.01032900  1
  Cu  Cu20  1  0.75000000  0.20481500  0.51032900  1
  Cu  Cu21  1  0.25000000  0.79518500  0.48967100  1
  Cu  Cu22  1  0.25000000  0.21767200  0.17355600  1
  Cu  Cu23  1  0.75000000  0.59468400  0.51482800  1
  C  C24  1  0.25000000  0.59732000  0.39404000  1
  C  C25  1  0.75000000  0.40268000  0.60596000  1
  C  C26  1  0.75000000  0.09732000  0.10596000  1
  C  C27  1  0.25000000  0.90268000  0.89404000  1
  C  C28  1  0.75000000  0.76909100  0.63076500  1
  C  C29  1  0.25000000  0.23090900  0.36923500  1
  C  C30  1  0.25000000  0.41792500  0.11440500  1
  C  C31  1  0.75000000  0.58207500  0.88559500  1
  C  C32  1  0.75000000  0.91792500  0.38559500  1
  C  C33  1  0.25000000  0.08207500  0.61440500  1
  C  C34  1  0.25000000  0.26909100  0.86923500  1
  C  C35  1  0.75000000  0.73090900  0.13076500  1
