# generated using pymatgen
data_Cu4Ni2C13
_symmetry_space_group_name_H-M   'P 1'
_cell_length_a   8.40993268
_cell_length_b   8.40993268
_cell_length_c   9.64631995
_cell_angle_alpha   85.36159719
_cell_angle_beta   85.36159719
_cell_angle_gamma   31.91254212
_symmetry_Int_Tables_number   1
_chemical_formula_structural   Cu4Ni2C13
_chemical_formula_sum   'Cu8 Ni4 C26'
_cell_volume   359.37853785
_cell_formula_units_Z   2
loop_
 _symmetry_equiv_pos_site_id
 _symmetry_equiv_pos_as_xyz
  1  'x, y, z'
loop_
 _atom_site_type_symbol
 _atom_site_label
 _atom_site_symmetry_multiplicity
 _atom_site_fract_x
 _atom_site_fract_y
 _atom_site_fract_z
 _atom_site_occupancy
  C  C0  1  0.29312800  0.20223200  0.34244100  1
  C  C1  1  0.79776800  0.70687200  0.15755900  1
  C  C2  1  0.70687200  0.79776800  0.65755900  1
  C  C3  1  0.20223200  0.29312800  0.84244100  1
  C  C4  1  0.18842100  0.81157900  0.25000000  1
  C  C5  1  0.81157900  0.18842100  0.75000000  1
  Ni  Ni6  1  0.19771700  0.11347500  0.10530300  1
  Ni  Ni7  1  0.11347500  0.19771700  0.60530300  1
  Ni  Ni8  1  0.80228300  0.88652500  0.89469700  1
  Ni  Ni9  1  0.88652500  0.80228300  0.39469700  1
  Cu  Cu10  1  0.66353700  0.46884200  0.31139300  1
  Cu  Cu11  1  0.76527700  0.41751300  0.90422600  1
  Cu  Cu12  1  0.58248700  0.23472300  0.59577400  1
  Cu  Cu13  1  0.23472300  0.58248700  0.09577400  1
  Cu  Cu14  1  0.41751300  0.76527700  0.40422600  1
  Cu  Cu15  1  0.46884200  0.66353700  0.81139300  1
  Cu  Cu16  1  0.33646300  0.53115800  0.68860700  1
  Cu  Cu17  1  0.53115800  0.33646300  0.18860700  1
  C  C18  1  0.54092600  0.81267000  0.10843200  1
  C  C19  1  0.81267000  0.54092600  0.60843200  1
  C  C20  1  0.45907400  0.18733000  0.89156800  1
  C  C21  1  0.18733000  0.45907400  0.39156800  1
  C  C22  1  0.91372400  0.75130000  0.04379400  1
  C  C23  1  0.63072400  0.46154900  0.85432800  1
  C  C24  1  0.08627600  0.24870000  0.95620600  1
  C  C25  1  0.75130000  0.91372400  0.54379400  1
  C  C26  1  0.90049500  0.66279100  0.80092900  1
  C  C27  1  0.33720900  0.09950500  0.69907100  1
  C  C28  1  0.09950500  0.33720900  0.19907100  1
  C  C29  1  0.66279100  0.90049500  0.30092900  1
  C  C30  1  0.24870000  0.08627600  0.45620600  1
  C  C31  1  0.53845100  0.36927600  0.64567200  1
  C  C32  1  0.36927600  0.53845100  0.14567200  1
  C  C33  1  0.46154900  0.63072400  0.35432800  1
  C  C34  1  0.04756100  0.08631200  0.16781000  1
  C  C35  1  0.08631200  0.04756100  0.66781000  1
  C  C36  1  0.95243900  0.91368800  0.83219000  1
  C  C37  1  0.91368800  0.95243900  0.33219000  1
