# generated using pymatgen
data_Cu2NiC10
_symmetry_space_group_name_H-M   'P 1'
_cell_length_a   5.54354700
_cell_length_b   5.54354629
_cell_length_c   7.45643800
_cell_angle_alpha   90.00000000
_cell_angle_beta   90.00000000
_cell_angle_gamma   119.99999826
_symmetry_Int_Tables_number   1
_chemical_formula_structural   Cu2NiC10
_chemical_formula_sum   'Cu2 Ni1 C10'
_cell_volume   198.44376714
_cell_formula_units_Z   1
loop_
 _symmetry_equiv_pos_site_id
 _symmetry_equiv_pos_as_xyz
  1  'x, y, z'
loop_
 _atom_site_type_symbol
 _atom_site_label
 _atom_site_symmetry_multiplicity
 _atom_site_fract_x
 _atom_site_fract_y
 _atom_site_fract_z
 _atom_site_occupancy
  C  C0  1  0.00000000  0.00000000  0.50895300  1
  C  C1  1  0.66666700  0.33333300  0.22734800  1
  Ni  Ni2  1  0.00000000  0.00000000  0.01923500  1
  Cu  Cu3  1  0.66666700  0.33333300  0.74867800  1
  Cu  Cu4  1  0.33333300  0.66666700  0.25034200  1
  C  C5  1  0.30647500  0.30490800  0.16010900  1
  C  C6  1  0.75784100  0.67181600  0.83235400  1
  C  C7  1  0.33333300  0.66666700  0.48882000  1
  C  C8  1  0.91397500  0.24215900  0.83235400  1
  C  C9  1  0.66666700  0.33333300  0.50423500  1
  C  C10  1  0.69509200  0.00156700  0.16010900  1
  C  C11  1  0.32818400  0.08602500  0.83235400  1
  C  C12  1  0.99843300  0.69352500  0.16010900  1
