# generated using pymatgen
data_Cu4NiC14
_symmetry_space_group_name_H-M   'P 1'
_cell_length_a   4.03250156
_cell_length_b   6.54433268
_cell_length_c   10.25352935
_cell_angle_alpha   83.98619352
_cell_angle_beta   90.00128516
_cell_angle_gamma   90.00283623
_symmetry_Int_Tables_number   1
_chemical_formula_structural   Cu4NiC14
_chemical_formula_sum   'Cu4 Ni1 C14'
_cell_volume   269.10181543
_cell_formula_units_Z   1
loop_
 _symmetry_equiv_pos_site_id
 _symmetry_equiv_pos_as_xyz
  1  'x, y, z'
loop_
 _atom_site_type_symbol
 _atom_site_label
 _atom_site_symmetry_multiplicity
 _atom_site_fract_x
 _atom_site_fract_y
 _atom_site_fract_z
 _atom_site_occupancy
  C  C0  1  0.00019297  0.98779964  0.00104273  1
  C  C1  1  0.99989115  0.57988657  0.57860779  1
  Ni  Ni2  1  0.00003972  0.19329973  0.38980559  1
  Cu  Cu3  1  0.50006785  0.39330393  0.17188835  1
  Cu  Cu4  1  0.49994549  0.87604303  0.34296471  1
  Cu  Cu5  1  0.49996908  0.56492988  0.86473088  1
  Cu  Cu6  1  0.50004556  0.10367026  0.63738179  1
  C  C7  1  0.00007054  0.35053368  0.20273178  1
  C  C8  1  0.99997285  0.89339761  0.35103981  1
  C  C9  1  -0.00007347  0.61593493  0.84313645  1
  C  C10  1  0.00000480  0.14561310  0.59566914  1
  C  C11  1  0.50007137  0.06197173  0.18164417  1
  C  C12  1  0.49999876  0.59647895  0.31027259  1
  C  C13  1  0.50003357  0.20274065  0.41588584  1
  C  C14  1  0.50014195  0.65438890  0.05114193  1
  C  C15  1  0.49992522  0.83281869  0.54011230  1
  C  C16  1  0.49978577  0.30660758  0.97729765  1
  C  C17  1  0.49988394  0.37680013  0.71427292  1
  C  C18  1  0.50003289  0.92003099  0.79287359  1
