# generated using pymatgen
data_Cu2NiC16
_symmetry_space_group_name_H-M   'P 1'
_cell_length_a   5.56130662
_cell_length_b   5.56129842
_cell_length_c   9.64013942
_cell_angle_alpha   88.83021997
_cell_angle_beta   91.16982791
_cell_angle_gamma   105.01023427
_symmetry_Int_Tables_number   1
_chemical_formula_structural   Cu2NiC16
_chemical_formula_sum   'Cu2 Ni1 C16'
_cell_volume   287.88266737
_cell_formula_units_Z   1
loop_
 _symmetry_equiv_pos_site_id
 _symmetry_equiv_pos_as_xyz
  1  'x, y, z'
loop_
 _atom_site_type_symbol
 _atom_site_label
 _atom_site_symmetry_multiplicity
 _atom_site_fract_x
 _atom_site_fract_y
 _atom_site_fract_z
 _atom_site_occupancy
  Ni  Ni0  1  0.30484293  0.69515707  0.35479144  1
  Cu  Cu1  1  0.00226802  -0.00226802  0.98961235  1
  Cu  Cu2  1  0.58238952  0.41761048  0.51812109  1
  C  C3  1  0.97037226  0.02962674  0.32712036  1
  C  C4  1  0.99390115  0.00609885  0.66786726  1
  C  C5  1  0.59228309  0.40771991  0.15381610  1
  C  C6  1  0.41288538  0.58711062  0.83119464  1
  C  C7  1  0.14405146  0.85594854  0.49439262  1
  C  C8  1  0.15597872  0.84401828  0.19508067  1
  C  C9  1  0.16226075  0.83774125  0.84085180  1
  C  C10  1  0.29705345  0.33650600  0.34534819  1
  C  C11  1  0.31560456  0.31508628  0.65420159  1
  C  C12  1  0.29799208  0.28334394  0.99391741  1
  C  C13  1  0.71665606  0.70200692  0.99391741  1
  C  C14  1  0.66349200  0.70294855  0.34535019  1
  C  C15  1  0.68491372  0.68439644  0.65420359  1
  C  C16  1  0.84248793  0.15751007  0.13761210  1
  C  C17  1  0.85376326  0.14624074  0.83878693  1
  C  C18  1  0.80680368  0.19319732  0.49506523  1
