# generated using pymatgen
data_Cu7(NiC2)4
_symmetry_space_group_name_H-M   'P 1'
_cell_length_a   5.23136700
_cell_length_b   13.85728800
_cell_length_c   16.57659300
_cell_angle_alpha   90.00000000
_cell_angle_beta   90.00000000
_cell_angle_gamma   90.00000000
_symmetry_Int_Tables_number   1
_chemical_formula_structural   Cu7(NiC2)4
_chemical_formula_sum   'Cu28 Ni16 C32'
_cell_volume   1201.67964860
_cell_formula_units_Z   4
loop_
 _symmetry_equiv_pos_site_id
 _symmetry_equiv_pos_as_xyz
  1  'x, y, z'
loop_
 _atom_site_type_symbol
 _atom_site_label
 _atom_site_symmetry_multiplicity
 _atom_site_fract_x
 _atom_site_fract_y
 _atom_site_fract_z
 _atom_site_occupancy
  Ni  Ni0  1  0.50103000  0.55755600  0.11664400  1
  Ni  Ni1  1  0.00103000  0.44244400  0.88335600  1
  Ni  Ni2  1  0.99897000  0.05755600  0.38335600  1
  Ni  Ni3  1  0.49897000  0.94244400  0.61664400  1
  Ni  Ni4  1  0.49897000  0.44244400  0.88335600  1
  Ni  Ni5  1  0.99897000  0.55755600  0.11664400  1
  Ni  Ni6  1  0.00103000  0.94244400  0.61664400  1
  Ni  Ni7  1  0.50103000  0.05755600  0.38335600  1
  Ni  Ni8  1  0.75000000  0.63422300  0.84627200  1
  Ni  Ni9  1  0.25000000  0.36577700  0.15372800  1
  Ni  Ni10  1  0.75000000  0.13422300  0.65372800  1
  Ni  Ni11  1  0.25000000  0.86577700  0.34627200  1
  Ni  Ni12  1  0.75000000  0.81040700  0.75163300  1
  Ni  Ni13  1  0.25000000  0.18959300  0.24836700  1
  Ni  Ni14  1  0.75000000  0.31040700  0.74836700  1
  Ni  Ni15  1  0.25000000  0.68959300  0.25163300  1
  Cu  Cu16  1  0.49680000  0.86293900  0.17885100  1
  Cu  Cu17  1  0.99680000  0.13706100  0.82114900  1
  Cu  Cu18  1  0.00320000  0.36293900  0.32114900  1
  Cu  Cu19  1  0.50320000  0.63706100  0.67885100  1
  Cu  Cu20  1  0.50320000  0.13706100  0.82114900  1
  Cu  Cu21  1  0.00320000  0.86293900  0.17885100  1
  Cu  Cu22  1  0.99680000  0.63706100  0.67885100  1
  Cu  Cu23  1  0.49680000  0.36293900  0.32114900  1
  Cu  Cu24  1  0.75000000  0.56745200  0.30504600  1
  Cu  Cu25  1  0.25000000  0.43254800  0.69495400  1
  Cu  Cu26  1  0.75000000  0.06745200  0.19495400  1
  Cu  Cu27  1  0.25000000  0.93254800  0.80504600  1
  Cu  Cu28  1  0.75000000  0.86927000  0.46160000  1
  Cu  Cu29  1  0.25000000  0.13073000  0.53840000  1
  Cu  Cu30  1  0.75000000  0.36927000  0.03840000  1
  Cu  Cu31  1  0.25000000  0.63073000  0.96160000  1
  Cu  Cu32  1  0.75000000  0.75061500  0.02238900  1
  Cu  Cu33  1  0.25000000  0.24938500  0.97761100  1
  Cu  Cu34  1  0.75000000  0.25061500  0.47761100  1
  Cu  Cu35  1  0.25000000  0.74938500  0.52238900  1
  Cu  Cu36  1  0.75000000  0.95123500  0.90112000  1
  Cu  Cu37  1  0.25000000  0.04876500  0.09888000  1
  Cu  Cu38  1  0.75000000  0.45123500  0.59888000  1
  Cu  Cu39  1  0.25000000  0.54876500  0.40112000  1
  Cu  Cu40  1  0.75000000  0.62899100  0.50505600  1
  Cu  Cu41  1  0.25000000  0.37100900  0.49494400  1
  Cu  Cu42  1  0.75000000  0.12899100  0.99494400  1
  Cu  Cu43  1  0.25000000  0.87100900  0.00505600  1
  C  C44  1  0.50473400  0.72031200  0.37841300  1
  C  C45  1  0.00473400  0.27968800  0.62158700  1
  C  C46  1  0.99526600  0.22031200  0.12158700  1
  C  C47  1  0.49526600  0.77968800  0.87841300  1
  C  C48  1  0.49526600  0.27968800  0.62158700  1
  C  C49  1  0.99526600  0.72031200  0.37841300  1
  C  C50  1  0.00473400  0.77968800  0.87841300  1
  C  C51  1  0.50473400  0.22031200  0.12158700  1
  C  C52  1  0.75000000  0.69499400  0.18842500  1
  C  C53  1  0.25000000  0.30500600  0.81157500  1
  C  C54  1  0.75000000  0.19499400  0.31157500  1
  C  C55  1  0.25000000  0.80500600  0.68842500  1
  C  C56  1  0.75000000  0.92172200  0.31107300  1
  C  C57  1  0.25000000  0.07827800  0.68892700  1
  C  C58  1  0.75000000  0.42172200  0.18892700  1
  C  C59  1  0.25000000  0.57827800  0.81107300  1
  C  C60  1  0.75000000  0.55518700  0.98295600  1
  C  C61  1  0.25000000  0.44481300  0.01704400  1
  C  C62  1  0.75000000  0.05518700  0.51704400  1
  C  C63  1  0.25000000  0.94481300  0.48295600  1
  C  C64  1  0.75000000  0.95048000  0.05963300  1
  C  C65  1  0.25000000  0.04952000  0.94036700  1
  C  C66  1  0.75000000  0.45048000  0.44036700  1
  C  C67  1  0.25000000  0.54952000  0.55963300  1
  C  C68  1  0.75000000  0.78397200  0.60182100  1
  C  C69  1  0.25000000  0.21602800  0.39817900  1
  C  C70  1  0.75000000  0.28397200  0.89817900  1
  C  C71  1  0.25000000  0.71602800  0.10182100  1
  C  C72  1  0.75000000  0.98917900  0.74363500  1
  C  C73  1  0.25000000  0.01082100  0.25636500  1
  C  C74  1  0.75000000  0.48917900  0.75636500  1
  C  C75  1  0.25000000  0.51082100  0.24363500  1
