# generated using pymatgen
data_Cu2Ni4C7
_symmetry_space_group_name_H-M   'P 1'
_cell_length_a   3.33771400
_cell_length_b   3.33775652
_cell_length_c   38.10919700
_cell_angle_alpha   90.00027184
_cell_angle_beta   89.99999399
_cell_angle_gamma   119.99814401
_symmetry_Int_Tables_number   1
_chemical_formula_structural   Cu2Ni4C7
_chemical_formula_sum   'Cu2 Ni4 C7'
_cell_volume   367.68196264
_cell_formula_units_Z   1
loop_
 _symmetry_equiv_pos_site_id
 _symmetry_equiv_pos_as_xyz
  1  'x, y, z'
loop_
 _atom_site_type_symbol
 _atom_site_label
 _atom_site_symmetry_multiplicity
 _atom_site_fract_x
 _atom_site_fract_y
 _atom_site_fract_z
 _atom_site_occupancy
  C  C0  1  0.31405900  0.72833000  0.86108800  1
  C  C1  1  0.66664600  0.33329100  0.04407700  1
  C  C2  1  0.66664700  0.33329500  0.14367500  1
  C  C3  1  0.33330900  0.66661800  0.09385300  1
  C  C4  1  0.33331200  0.66662500  0.46967200  1
  C  C5  1  0.66668300  0.33336700  0.28184600  1
  C  C6  1  0.66668200  0.33337300  0.65754400  1
  Ni  Ni7  1  0.33335300  0.66670700  0.32581000  1
  Ni  Ni8  1  0.66664700  0.33329400  0.42588200  1
  Ni  Ni9  1  0.66664900  0.33329800  0.51346400  1
  Ni  Ni10  1  0.33334600  0.66669400  0.23786200  1
  Cu  Cu11  1  0.33336400  0.66672400  0.69750000  1
  Cu  Cu12  1  0.33335900  0.66671400  0.61756700  1
