# generated using pymatgen
data_CuNi12C11
_symmetry_space_group_name_H-M   'P 1'
_cell_length_a   12.40027200
_cell_length_b   12.40027200
_cell_length_c   12.40027200
_cell_angle_alpha   90.00000000
_cell_angle_beta   90.00000000
_cell_angle_gamma   90.00000000
_symmetry_Int_Tables_number   1
_chemical_formula_structural   CuNi12C11
_chemical_formula_sum   'Cu8 Ni96 C88'
_cell_volume   1906.74947091
_cell_formula_units_Z   8
loop_
 _symmetry_equiv_pos_site_id
 _symmetry_equiv_pos_as_xyz
  1  'x, y, z'
loop_
 _atom_site_type_symbol
 _atom_site_label
 _atom_site_symmetry_multiplicity
 _atom_site_fract_x
 _atom_site_fract_y
 _atom_site_fract_z
 _atom_site_occupancy
  C  C0  1  0.00000000  0.50000000  0.50000000  1
  C  C1  1  0.50000000  0.50000000  0.00000000  1
  C  C2  1  0.50000000  0.00000000  0.50000000  1
  C  C3  1  0.00000000  0.00000000  0.00000000  1
  C  C4  1  0.50000000  0.00000000  0.00000000  1
  C  C5  1  0.00000000  0.00000000  0.50000000  1
  C  C6  1  0.00000000  0.50000000  0.00000000  1
  C  C7  1  0.50000000  0.50000000  0.50000000  1
  Ni  Ni8  1  0.78992100  0.47470700  0.05151400  1
  Ni  Ni9  1  0.28992100  0.02529300  0.94848500  1
  Ni  Ni10  1  0.21007900  0.97470700  0.44848600  1
  Ni  Ni11  1  0.02529300  0.94848500  0.28992100  1
  Ni  Ni12  1  0.44848600  0.21007900  0.97470700  1
  Ni  Ni13  1  0.94848500  0.28992100  0.02529300  1
  Ni  Ni14  1  0.47470700  0.05151400  0.78992100  1
  Ni  Ni15  1  0.05151400  0.78992100  0.47470700  1
  Ni  Ni16  1  0.97470700  0.44848600  0.21007900  1
  Ni  Ni17  1  0.52529300  0.55151500  0.71007900  1
  Ni  Ni18  1  0.55151500  0.71007900  0.52529300  1
  Ni  Ni19  1  0.71007900  0.52529300  0.55151500  1
  Ni  Ni20  1  0.21007900  0.52529300  0.94848500  1
  Ni  Ni21  1  0.71007900  0.97470700  0.05151400  1
  Ni  Ni22  1  0.78992100  0.02529300  0.55151500  1
  Ni  Ni23  1  0.97470700  0.05151400  0.71007900  1
  Ni  Ni24  1  0.55151500  0.78992100  0.02529300  1
  Ni  Ni25  1  0.05151400  0.71007900  0.97470700  1
  Ni  Ni26  1  0.52529300  0.94848500  0.21007900  1
  Ni  Ni27  1  0.94848500  0.21007900  0.52529300  1
  Ni  Ni28  1  0.02529300  0.55151500  0.78992100  1
  Ni  Ni29  1  0.47470700  0.44848600  0.28992100  1
  Ni  Ni30  1  0.44848600  0.28992100  0.47470700  1
  Ni  Ni31  1  0.28992100  0.47470700  0.44848600  1
  Ni  Ni32  1  0.80662800  0.46302300  0.92043400  1
  Ni  Ni33  1  0.30662800  0.03697700  0.07956600  1
  Ni  Ni34  1  0.19337200  0.96302300  0.57956600  1
  Ni  Ni35  1  0.03697700  0.07956600  0.30662800  1
  Ni  Ni36  1  0.57956600  0.19337200  0.96302300  1
  Ni  Ni37  1  0.07956600  0.30662800  0.03697700  1
  Ni  Ni38  1  0.46302300  0.92043400  0.80662800  1
  Ni  Ni39  1  0.92043400  0.80662800  0.46302300  1
  Ni  Ni40  1  0.96302300  0.57956600  0.19337200  1
  Ni  Ni41  1  0.53697700  0.42043400  0.69337200  1
  Ni  Ni42  1  0.42043400  0.69337200  0.53697700  1
  Ni  Ni43  1  0.69337200  0.53697700  0.42043400  1
  Ni  Ni44  1  0.19337200  0.53697700  0.07956600  1
  Ni  Ni45  1  0.69337200  0.96302300  0.92043400  1
  Ni  Ni46  1  0.80662800  0.03697700  0.42043400  1
  Ni  Ni47  1  0.96302300  0.92043400  0.69337200  1
  Ni  Ni48  1  0.42043400  0.80662800  0.03697700  1
  Ni  Ni49  1  0.92043400  0.69337200  0.96302300  1
  Ni  Ni50  1  0.53697700  0.07956600  0.19337200  1
  Ni  Ni51  1  0.07956600  0.19337200  0.53697700  1
  Ni  Ni52  1  0.03697700  0.42043400  0.80662800  1
  Ni  Ni53  1  0.46302300  0.57956600  0.30662800  1
  Ni  Ni54  1  0.57956600  0.30662800  0.46302300  1
  Ni  Ni55  1  0.82583800  0.21463700  0.11880400  1
  Ni  Ni56  1  0.29812600  0.21980100  0.50417600  1
  Ni  Ni57  1  0.79812600  0.28019900  0.49582400  1
  Ni  Ni58  1  0.70187400  0.71980100  0.99582400  1
  Ni  Ni59  1  0.28019900  0.49582400  0.79812600  1
  Ni  Ni60  1  0.99582400  0.70187400  0.71980100  1
  Ni  Ni61  1  0.49582400  0.79812600  0.28019900  1
  Ni  Ni62  1  0.21980100  0.50417600  0.29812600  1
  Ni  Ni63  1  0.50417600  0.29812600  0.21980100  1
  Ni  Ni64  1  0.71980100  0.99582400  0.70187400  1
  Ni  Ni65  1  0.78019900  0.00417600  0.20187400  1
  Ni  Ni66  1  0.00417600  0.20187400  0.78019900  1
  Ni  Ni67  1  0.20187400  0.78019900  0.00417600  1
  Ni  Ni68  1  0.70187400  0.78019900  0.49582400  1
  Ni  Ni69  1  0.20187400  0.71980100  0.50417600  1
  Ni  Ni70  1  0.29812600  0.28019900  0.00417600  1
  Ni  Ni71  1  0.71980100  0.50417600  0.20187400  1
  Ni  Ni72  1  0.00417600  0.29812600  0.28019900  1
  Ni  Ni73  1  0.50417600  0.20187400  0.71980100  1
  Ni  Ni74  1  0.78019900  0.49582400  0.70187400  1
  Ni  Ni75  1  0.49582400  0.70187400  0.78019900  1
  Ni  Ni76  1  0.28019900  0.00417600  0.29812600  1
  Ni  Ni77  1  0.21980100  0.99582400  0.79812600  1
  Ni  Ni78  1  0.99582400  0.79812600  0.21980100  1
  Ni  Ni79  1  0.79812600  0.21980100  0.99582400  1
  Ni  Ni80  1  0.32583800  0.21463700  0.38119600  1
  Ni  Ni81  1  0.82583800  0.28536300  0.61880400  1
  Ni  Ni82  1  0.67416200  0.71463700  0.11880400  1
  Ni  Ni83  1  0.28536300  0.61880400  0.82583800  1
  Ni  Ni84  1  0.11880400  0.67416200  0.71463700  1
  Ni  Ni85  1  0.61880400  0.82583800  0.28536300  1
  Ni  Ni86  1  0.21463700  0.38119600  0.32583800  1
  Ni  Ni87  1  0.38119600  0.32583800  0.21463700  1
  Ni  Ni88  1  0.71463700  0.11880400  0.67416200  1
  Ni  Ni89  1  0.78536300  0.88119600  0.17416200  1
  Ni  Ni90  1  0.88119600  0.17416200  0.78536300  1
  Ni  Ni91  1  0.17416200  0.78536300  0.88119600  1
  Ni  Ni92  1  0.67416200  0.78536300  0.61880400  1
  Ni  Ni93  1  0.17416200  0.71463700  0.38119600  1
  Ni  Ni94  1  0.32583800  0.28536300  0.88119600  1
  Ni  Ni95  1  0.71463700  0.38119600  0.17416200  1
  Ni  Ni96  1  0.88119600  0.32583800  0.28536300  1
  Ni  Ni97  1  0.38119600  0.17416200  0.71463700  1
  Ni  Ni98  1  0.78536300  0.61880400  0.67416200  1
  Ni  Ni99  1  0.61880400  0.67416200  0.78536300  1
  Ni  Ni100  1  0.28536300  0.88119600  0.32583800  1
  Ni  Ni101  1  0.21463700  0.11880400  0.82583800  1
  Ni  Ni102  1  0.11880400  0.82583800  0.21463700  1
  Ni  Ni103  1  0.30662800  0.46302300  0.57956600  1
  Cu  Cu104  1  0.19043600  0.30956400  0.69043600  1
  Cu  Cu105  1  0.30956400  0.69043600  0.19043600  1
  Cu  Cu106  1  0.69043600  0.19043600  0.30956400  1
  Cu  Cu107  1  0.80956400  0.80956400  0.80956400  1
  Cu  Cu108  1  0.80956400  0.69043600  0.30956400  1
  Cu  Cu109  1  0.69043600  0.30956400  0.80956400  1
  Cu  Cu110  1  0.30956400  0.80956400  0.69043600  1
  Cu  Cu111  1  0.19043600  0.19043600  0.19043600  1
  C  C112  1  0.84017700  0.49159200  0.98814300  1
  C  C113  1  0.34017700  0.00840800  0.01185700  1
  C  C114  1  0.15982300  0.99159200  0.51185700  1
  C  C115  1  0.00840800  0.01185700  0.34017700  1
  C  C116  1  0.51185700  0.15982300  0.99159200  1
  C  C117  1  0.01185700  0.34017700  0.00840800  1
  C  C118  1  0.49159200  0.98814300  0.84017700  1
  C  C119  1  0.98814300  0.84017700  0.49159200  1
  C  C120  1  0.99159200  0.51185700  0.15982300  1
  C  C121  1  0.50840800  0.48814300  0.65982300  1
  C  C122  1  0.48814300  0.65982300  0.50840800  1
  C  C123  1  0.65982300  0.50840800  0.48814300  1
  C  C124  1  0.15982300  0.50840800  0.01185700  1
  C  C125  1  0.65982300  0.99159200  0.98814300  1
  C  C126  1  0.84017700  0.00840800  0.48814300  1
  C  C127  1  0.99159200  0.98814300  0.65982300  1
  C  C128  1  0.48814300  0.84017700  0.00840800  1
  C  C129  1  0.98814300  0.65982300  0.99159200  1
  C  C130  1  0.50840800  0.01185700  0.15982300  1
  C  C131  1  0.01185700  0.15982300  0.50840800  1
  C  C132  1  0.00840800  0.48814300  0.84017700  1
  C  C133  1  0.49159200  0.51185700  0.34017700  1
  C  C134  1  0.51185700  0.34017700  0.49159200  1
  C  C135  1  0.34017700  0.49159200  0.51185700  1
  C  C136  1  0.35814300  0.20383200  0.45348200  1
  C  C137  1  0.85814300  0.29616800  0.54651800  1
  C  C138  1  0.64185700  0.70383200  0.04651800  1
  C  C139  1  0.29616800  0.54651800  0.85814300  1
  C  C140  1  0.04651800  0.64185700  0.70383200  1
  C  C141  1  0.54651800  0.85814300  0.29616800  1
  C  C142  1  0.20383200  0.45348200  0.35814300  1
  C  C143  1  0.45348200  0.35814300  0.20383200  1
  C  C144  1  0.70383200  0.04651800  0.64185700  1
  C  C145  1  0.79616800  0.95348200  0.14185700  1
  C  C146  1  0.95348200  0.14185700  0.79616800  1
  C  C147  1  0.14185700  0.79616800  0.95348200  1
  C  C148  1  0.64185700  0.79616800  0.54651800  1
  C  C149  1  0.14185700  0.70383200  0.45348200  1
  C  C150  1  0.35814300  0.29616800  0.95348200  1
  C  C151  1  0.70383200  0.45348200  0.14185700  1
  C  C152  1  0.95348200  0.35814300  0.29616800  1
  C  C153  1  0.45348200  0.14185700  0.70383200  1
  C  C154  1  0.79616800  0.54651800  0.64185700  1
  C  C155  1  0.54651800  0.64185700  0.79616800  1
  C  C156  1  0.29616800  0.95348200  0.35814300  1
  C  C157  1  0.20383200  0.04651800  0.85814300  1
  C  C158  1  0.04651800  0.85814300  0.20383200  1
  C  C159  1  0.85814300  0.20383200  0.04651800  1
  C  C160  1  0.57935200  0.18614500  0.26366500  1
  C  C161  1  0.07935200  0.31385500  0.73633500  1
  C  C162  1  0.42064800  0.68614500  0.23633500  1
  C  C163  1  0.31385500  0.73633500  0.07935200  1
  C  C164  1  0.23633500  0.42064800  0.68614500  1
  C  C165  1  0.73633500  0.07935200  0.31385500  1
  C  C166  1  0.18614500  0.26366500  0.57935200  1
  C  C167  1  0.26366500  0.57935200  0.18614500  1
  C  C168  1  0.68614500  0.23633500  0.42064800  1
  C  C169  1  0.81385500  0.76366500  0.92064800  1
  C  C170  1  0.76366500  0.92064800  0.81385500  1
  C  C171  1  0.92064800  0.81385500  0.76366500  1
  C  C172  1  0.42064800  0.81385500  0.73633500  1
  C  C173  1  0.92064800  0.68614500  0.26366500  1
  C  C174  1  0.57935200  0.31385500  0.76366500  1
  C  C175  1  0.68614500  0.26366500  0.92064800  1
  C  C176  1  0.76366500  0.57935200  0.31385500  1
  C  C177  1  0.26366500  0.92064800  0.68614500  1
  C  C178  1  0.81385500  0.73633500  0.42064800  1
  C  C179  1  0.73633500  0.42064800  0.81385500  1
  C  C180  1  0.31385500  0.76366500  0.57935200  1
  C  C181  1  0.18614500  0.23633500  0.07935200  1
  C  C182  1  0.23633500  0.07935200  0.18614500  1
  C  C183  1  0.07935200  0.18614500  0.23633500  1
  C  C184  1  0.26043100  0.26043100  0.26043100  1
  C  C185  1  0.23956900  0.76043100  0.26043100  1
  C  C186  1  0.76043100  0.26043100  0.23956900  1
  C  C187  1  0.73956900  0.73956900  0.73956900  1
  C  C188  1  0.73956900  0.76043100  0.23956900  1
  C  C189  1  0.76043100  0.23956900  0.73956900  1
  C  C190  1  0.23956900  0.73956900  0.76043100  1
  C  C191  1  0.26043100  0.23956900  0.76043100  1
