# generated using pymatgen
data_Cu2NiC11
_symmetry_space_group_name_H-M   'P 1'
_cell_length_a   6.08667090
_cell_length_b   5.97685452
_cell_length_c   5.97264239
_cell_angle_alpha   59.97667373
_cell_angle_beta   60.74026889
_cell_angle_gamma   60.59505272
_symmetry_Int_Tables_number   1
_chemical_formula_structural   Cu2NiC11
_chemical_formula_sum   'Cu2 Ni1 C11'
_cell_volume   155.14376635
_cell_formula_units_Z   1
loop_
 _symmetry_equiv_pos_site_id
 _symmetry_equiv_pos_as_xyz
  1  'x, y, z'
loop_
 _atom_site_type_symbol
 _atom_site_label
 _atom_site_symmetry_multiplicity
 _atom_site_fract_x
 _atom_site_fract_y
 _atom_site_fract_z
 _atom_site_occupancy
  Ni  Ni0  1  0.11981100  0.61652000  0.64714900  1
  C  C1  1  0.61952800  0.11599400  0.64853900  1
  C  C2  1  0.62063200  0.61570300  0.14796100  1
  C  C3  1  0.61952800  0.61594000  0.64853900  1
  Cu  Cu4  1  0.99011900  0.99233400  0.02521300  1
  Cu  Cu5  1  0.24936800  0.23970700  0.27121700  1
  C  C6  1  0.39042300  0.37276500  0.40342400  1
  C  C7  1  0.39011400  0.37221100  0.86546300  1
  C  C8  1  0.39042300  0.83338900  0.40342400  1
  C  C9  1  0.84796700  0.37267200  0.40669100  1
  C  C10  1  0.39153300  0.85914100  0.89018400  1
  C  C11  1  0.84817000  0.86036400  0.43110200  1
  C  C12  1  0.84973400  0.39860700  0.89200700  1
  C  C13  1  0.84973400  0.85965300  0.89200700  1
