# generated using pymatgen
data_Cu(NiC8)2
_symmetry_space_group_name_H-M   'P 1'
_cell_length_a   8.89855839
_cell_length_b   8.87710007
_cell_length_c   22.71697015
_cell_angle_alpha   89.84285444
_cell_angle_beta   90.00000000
_cell_angle_gamma   120.07999477
_symmetry_Int_Tables_number   1
_chemical_formula_structural   Cu(NiC8)2
_chemical_formula_sum   'Cu6 Ni12 C96'
_cell_volume   1552.81238675
_cell_formula_units_Z   6
loop_
 _symmetry_equiv_pos_site_id
 _symmetry_equiv_pos_as_xyz
  1  'x, y, z'
loop_
 _atom_site_type_symbol
 _atom_site_label
 _atom_site_symmetry_multiplicity
 _atom_site_fract_x
 _atom_site_fract_y
 _atom_site_fract_z
 _atom_site_occupancy
  Ni  Ni0  1  0.99903828  0.63581497  0.24682753  1
  Ni  Ni1  1  0.63677669  0.63581497  0.74682753  1
  Ni  Ni2  1  0.66167028  0.96129970  0.58146694  1
  Ni  Ni3  1  0.29963042  0.96129970  0.08146694  1
  Ni  Ni4  1  0.69601686  0.02937312  0.91366518  1
  Ni  Ni5  1  0.33335525  0.02937312  0.41366518  1
  Ni  Ni6  1  0.99145279  0.99561098  0.49739610  1
  Ni  Ni7  1  0.00415819  0.99561098  0.99739610  1
  Ni  Ni8  1  0.66318351  0.32461783  0.83082692  1
  Ni  Ni9  1  0.66143532  0.32461783  0.33082692  1
  Ni  Ni10  1  0.33429631  0.66179863  0.16434846  1
  Ni  Ni11  1  0.32750131  0.66179863  0.66434846  1
  Cu  Cu12  1  0.99462719  0.99444837  0.64867596  1
  Cu  Cu13  1  0.99982118  0.99444837  0.14867596  1
  Cu  Cu14  1  0.66923219  0.34241160  0.98211819  1
  Cu  Cu15  1  0.67318041  0.34241160  0.48211819  1
  Cu  Cu16  1  0.34523106  0.68005965  0.31524517  1
  Cu  Cu17  1  0.33482760  0.68005965  0.81524517  1
  C  C18  1  0.99367533  0.00354496  0.34940662  1
  C  C19  1  0.00986963  0.00354496  0.84940662  1
  C  C20  1  0.66639449  0.32873294  0.68276473  1
  C  C21  1  0.66233945  0.32873294  0.18276473  1
  C  C22  1  0.31855502  0.66354146  0.01593529  1
  C  C23  1  0.34498545  0.66354146  0.51593529  1
  C  C24  1  0.29692041  0.00703302  0.25141540  1
  C  C25  1  0.71011261  0.00703302  0.75141540  1
  C  C26  1  0.66346553  0.62247696  0.58546681  1
  C  C27  1  0.95901243  0.62247696  0.08546681  1
  C  C28  1  0.32842471  0.96117372  0.91841439  1
  C  C29  1  0.63274801  0.96117372  0.41841439  1
  C  C30  1  0.70737621  0.70680627  0.25059710  1
  C  C31  1  0.99893100  0.29144889  0.25037646  1
  C  C32  1  0.29251789  0.29144889  0.75037646  1
  C  C33  1  -0.00056993  0.70680627  0.75059710  1
  C  C34  1  0.96299156  0.33892331  0.58381387  1
  C  C35  1  0.37233526  0.04015205  0.58326189  1
  C  C36  1  0.66781779  0.04015205  0.08326189  1
  C  C37  1  0.37593274  0.33892331  0.08381387  1
  C  C38  1  0.62446091  0.66662995  0.91697698  1
  C  C39  1  0.04296829  0.37382729  0.91699867  1
  C  C40  1  0.33085800  0.37382729  0.41699867  1
  C  C41  1  0.04216804  0.66662995  0.41697698  1
  C  C42  1  0.21123603  0.02737598  0.30735385  1
  C  C43  1  0.81664466  0.78538614  0.30297205  1
  C  C44  1  0.97173327  0.18633672  0.30341010  1
  C  C45  1  0.21460344  0.18633672  0.80341010  1
  C  C46  1  0.96874148  0.78538614  0.80297205  1
  C  C47  1  0.81613995  0.02737598  0.80735385  1
  C  C48  1  0.79162489  0.96959058  0.69576301  1
  C  C49  1  0.18547869  0.21080628  0.69731512  1
  C  C50  1  0.03000117  0.81631414  0.69735150  1
  C  C51  1  0.78631296  0.81631414  0.19735150  1
  C  C52  1  0.02532759  0.21080628  0.19731512  1
  C  C53  1  0.17796570  0.96959058  0.19576301  1
  C  C54  1  0.88281952  0.36243321  0.63683053  1
  C  C55  1  0.48447647  0.11924452  0.63511896  1
  C  C56  1  0.63916905  0.51707985  0.64191107  1
  C  C57  1  0.87791180  0.51707985  0.14191107  1
  C  C58  1  0.63476905  0.11924452  0.13511896  1
  C  C59  1  0.47961469  0.36243321  0.13683053  1
  C  C60  1  0.45330260  0.30165954  0.03118166  1
  C  C61  1  0.84419610  0.53729892  0.03066136  1
  C  C62  1  0.69408022  0.14604729  0.02892360  1
  C  C63  1  0.45196806  0.14604729  0.52892360  1
  C  C64  1  0.69310381  0.53729892  0.53066136  1
  C  C65  1  0.84835794  0.30165954  0.53118166  1
  C  C66  1  0.54268241  0.69468540  0.96912150  1
  C  C67  1  0.14794784  0.45084942  0.97011440  1
  C  C68  1  0.30550992  0.85491730  0.97467813  1
  C  C69  1  0.54940638  0.85491730  0.47467813  1
  C  C70  1  0.30290058  0.45084942  0.47011440  1
  C  C71  1  0.15200199  0.69468540  0.46912150  1
  C  C72  1  0.11887311  0.63792046  0.36251758  1
  C  C73  1  0.50906519  0.87448524  0.36446444  1
  C  C74  1  0.35894219  0.48161576  0.36405327  1
  C  C75  1  0.12267257  0.48161576  0.86405327  1
  C  C76  1  0.36541905  0.87448524  0.86446444  1
  C  C77  1  0.51904635  0.63792046  0.86251758  1
  C  C78  1  0.02743887  0.82547998  0.41074982  1
  C  C79  1  0.81219844  0.98062208  0.40975821  1
  C  C80  1  0.17966142  0.19493663  0.41134937  1
  C  C81  1  0.01527520  0.19493663  0.91134937  1
  C  C82  1  0.16842364  0.98062208  0.90975821  1
  C  C83  1  0.79804111  0.82547998  0.91074982  1
  C  C84  1  0.97461902  0.17521836  0.58932415  1
  C  C85  1  0.19973244  0.02532691  0.58960833  1
  C  C86  1  0.82892396  0.81100981  0.58952660  1
  C  C87  1  0.98208586  0.81100981  0.08952660  1
  C  C88  1  0.82559447  0.02532691  0.08960833  1
  C  C89  1  0.20059934  0.17521836  0.08932415  1
  C  C90  1  0.68666972  0.16522023  0.74301802  1
  C  C91  1  0.47061481  0.31725598  0.74456968  1
  C  C92  1  0.84079804  0.53365763  0.74398769  1
  C  C93  1  0.69286059  0.53365763  0.24398769  1
  C  C94  1  0.84664217  0.31725598  0.24456968  1
  C  C95  1  0.47855152  0.16522023  0.24301802  1
  C  C96  1  0.64264735  0.50956806  0.92227659  1
  C  C97  1  0.86460044  0.35374773  0.92257671  1
  C  C98  1  0.50233708  0.14127223  0.92345565  1
  C  C99  1  0.63893616  0.14127223  0.42345565  1
  C  C100  1  0.48914829  0.35374773  0.42257671  1
  C  C101  1  0.86692171  0.50956806  0.42227659  1
  C  C102  1  0.35624895  0.49211737  0.07567623  1
  C  C103  1  0.14544590  0.65123776  0.07914632  1
  C  C104  1  0.51049379  0.86516204  0.07705238  1
  C  C105  1  0.35466725  0.86516204  0.57705238  1
  C  C106  1  0.50579086  0.65123776  0.57914632  1
  C  C107  1  0.13586741  0.49211737  0.57567623  1
  C  C108  1  0.30291434  0.83182952  0.25618844  1
  C  C109  1  0.53217373  0.68753307  0.25602355  1
  C  C110  1  0.15712443  0.46973220  0.25597144  1
  C  C111  1  0.31260678  0.46973220  0.75597144  1
  C  C112  1  0.15535834  0.68753307  0.75602355  1
  C  C113  1  0.52891418  0.83182952  0.75618844  1
