# generated using pymatgen
data_Cu6NiC27
_symmetry_space_group_name_H-M   'P 1'
_cell_length_a   8.66415865
_cell_length_b   8.66415838
_cell_length_c   22.37107107
_cell_angle_alpha   90.00000000
_cell_angle_beta   90.00000000
_cell_angle_gamma   120.00000101
_symmetry_Int_Tables_number   1
_chemical_formula_structural   Cu6NiC27
_chemical_formula_sum   'Cu18 Ni3 C81'
_cell_volume   1454.35417922
_cell_formula_units_Z   3
loop_
 _symmetry_equiv_pos_site_id
 _symmetry_equiv_pos_as_xyz
  1  'x, y, z'
loop_
 _atom_site_type_symbol
 _atom_site_label
 _atom_site_symmetry_multiplicity
 _atom_site_fract_x
 _atom_site_fract_y
 _atom_site_fract_z
 _atom_site_occupancy
  C  C0  1  -0.00000000  0.00000000  0.85422495  1
  C  C1  1  -0.00000000  0.00000000  0.64018360  1
  C  C2  1  -0.00000000  0.00000000  0.14740516  1
  C  C3  1  0.66666700  0.33333300  0.97846729  1
  C  C4  1  0.66666700  0.33333300  0.47345017  1
  C  C5  1  0.33333300  0.66666700  0.02787391  1
  C  C6  1  0.33333300  0.66666700  0.52158266  1
  C  C7  1  0.33333300  0.66666700  0.30662502  1
  C  C8  1  0.33333300  0.66666700  0.80626381  1
  Ni  Ni9  1  -0.00000000  0.00000000  0.35346963  1
  Ni  Ni10  1  0.66666700  0.33333300  0.68800456  1
  Ni  Ni11  1  0.66666700  0.33333300  0.19347993  1
  Cu  Cu12  1  0.29200205  0.01329847  0.25248063  1
  Cu  Cu13  1  0.72129642  0.70799795  0.25248063  1
  Cu  Cu14  1  0.98670153  0.27870358  0.25248063  1
  Cu  Cu15  1  0.29625582  0.28369975  0.74757507  1
  Cu  Cu16  1  0.98744393  0.70374417  0.74757507  1
  Cu  Cu17  1  0.71630025  0.01255607  0.74757507  1
  Cu  Cu18  1  0.94563841  0.33767889  0.58558218  1
  Cu  Cu19  1  0.39204148  0.05436159  0.58558218  1
  Cu  Cu20  1  0.66232111  0.60795852  0.58558218  1
  Cu  Cu21  1  0.94397346  0.61352504  0.08736010  1
  Cu  Cu22  1  0.66955259  0.05602654  0.08736010  1
  Cu  Cu23  1  0.38647496  0.33044741  0.08736010  1
  Cu  Cu24  1  0.61678292  0.66682031  0.91661892  1
  Cu  Cu25  1  0.05003639  0.38321708  0.91661892  1
  Cu  Cu26  1  0.33317969  0.94996361  0.91661892  1
  Cu  Cu27  1  0.62904327  0.95007060  0.41424413  1
  Cu  Cu28  1  0.32102633  0.37095673  0.41424413  1
  Cu  Cu29  1  0.04992940  0.67897367  0.41424413  1
  C  C30  1  0.19870240  0.03507889  0.30605544  1
  C  C31  1  0.83637648  0.80129760  0.30605544  1
  C  C32  1  0.96492111  0.16362352  0.30605544  1
  C  C33  1  0.20164423  0.16867303  0.80453487  1
  C  C34  1  0.96702880  0.79835577  0.80453487  1
  C  C35  1  0.83132697  0.03297120  0.80453487  1
  C  C36  1  0.80111514  0.96923769  0.69452196  1
  C  C37  1  0.16812254  0.19888486  0.69452196  1
  C  C38  1  0.03076231  0.83187746  0.69452196  1
  C  C39  1  0.80153998  0.83101312  0.19503714  1
  C  C40  1  0.02947314  0.19846002  0.19503714  1
  C  C41  1  0.16898688  0.97052686  0.19503714  1
  C  C42  1  0.86291274  0.36552851  0.64063644  1
  C  C43  1  0.50261677  0.13708726  0.64063644  1
  C  C44  1  0.63447149  0.49738323  0.64063644  1
  C  C45  1  0.86090076  0.49529876  0.14009802  1
  C  C46  1  0.63439900  0.13909924  0.14009802  1
  C  C47  1  0.50470124  0.36560100  0.14009802  1
  C  C48  1  0.46902341  0.30436676  0.02822912  1
  C  C49  1  0.83534434  0.53097659  0.02822912  1
  C  C50  1  0.69563324  0.16465566  0.02822912  1
  C  C51  1  0.46913265  0.16683459  0.52853689  1
  C  C52  1  0.69770294  0.53086735  0.52853689  1
  C  C53  1  0.83316541  0.30229706  0.52853689  1
  C  C54  1  0.53220535  0.69782382  0.97217853  1
  C  C55  1  0.16561747  0.46779465  0.97217853  1
  C  C56  1  0.30217618  0.83438253  0.97217853  1
  C  C57  1  0.53470685  0.83505303  0.47135134  1
  C  C58  1  0.30034518  0.46529315  0.47135134  1
  C  C59  1  0.16494697  0.69965482  0.47135134  1
  C  C60  1  0.13478435  0.63570932  0.36106085  1
  C  C61  1  0.50092398  0.86521565  0.36106085  1
  C  C62  1  0.36429068  0.49907602  0.36106085  1
  C  C63  1  0.13516096  0.49887528  0.86096639  1
  C  C64  1  0.36371332  0.86483904  0.86096639  1
  C  C65  1  0.50112472  0.63628668  0.86096639  1
  C  C66  1  0.02725194  0.83748799  0.40512652  1
  C  C67  1  0.81023605  0.97274806  0.40512652  1
  C  C68  1  0.16251201  0.18976395  0.40512652  1
  C  C69  1  0.02813627  0.19696403  0.90663444  1
  C  C70  1  0.16882776  0.97186373  0.90663444  1
  C  C71  1  0.80303597  0.83117224  0.90663444  1
  C  C72  1  0.97055567  0.17142477  0.59385162  1
  C  C73  1  0.20086910  0.02944433  0.59385162  1
  C  C74  1  0.82857523  0.79913090  0.59385162  1
  C  C75  1  0.97173382  0.80232747  0.09226138  1
  C  C76  1  0.83059366  0.02826618  0.09226138  1
  C  C77  1  0.19767253  0.16940634  0.09226138  1
  C  C78  1  0.69368984  0.17086806  0.73903441  1
  C  C79  1  0.47717922  0.30631016  0.73903441  1
  C  C80  1  0.82913194  0.52282078  0.73903441  1
  C  C81  1  0.69564379  0.52635919  0.23886326  1
  C  C82  1  0.83071640  0.30435621  0.23886326  1
  C  C83  1  0.47364081  0.16928360  0.23886326  1
  C  C84  1  0.63916281  0.50307182  0.92569041  1
  C  C85  1  0.86391002  0.36083719  0.92569041  1
  C  C86  1  0.49692818  0.13608998  0.92569041  1
  C  C87  1  0.64103618  0.13410121  0.42667855  1
  C  C88  1  0.49306603  0.35896382  0.42667855  1
  C  C89  1  0.86589879  0.50693397  0.42667855  1
  C  C90  1  0.36370103  0.49652180  0.07398244  1
  C  C91  1  0.13281977  0.63629897  0.07398244  1
  C  C92  1  0.50347820  0.86718023  0.07398244  1
  C  C93  1  0.36280530  0.86489649  0.57425598  1
  C  C94  1  0.50209019  0.63719470  0.57425598  1
  C  C95  1  0.13510351  0.49790981  0.57425598  1
  C  C96  1  0.30678351  0.84010707  0.25988794  1
  C  C97  1  0.53332256  0.69321649  0.25988794  1
  C  C98  1  0.15989293  0.46667744  0.25988794  1
  C  C99  1  0.30776073  0.46770728  0.75965480  1
  C  C100  1  0.15994554  0.69223927  0.75965480  1
  C  C101  1  0.53229272  0.84005446  0.75965480  1
