# generated using pymatgen
data_Cu6Ni2C11
_symmetry_space_group_name_H-M   'P 1'
_cell_length_a   5.86265781
_cell_length_b   5.80816460
_cell_length_c   6.77162621
_cell_angle_alpha   89.60000384
_cell_angle_beta   90.13475403
_cell_angle_gamma   95.55629656
_symmetry_Int_Tables_number   1
_chemical_formula_structural   Cu6Ni2C11
_chemical_formula_sum   'Cu6 Ni2 C11'
_cell_volume   229.49325032
_cell_formula_units_Z   1
loop_
 _symmetry_equiv_pos_site_id
 _symmetry_equiv_pos_as_xyz
  1  'x, y, z'
loop_
 _atom_site_type_symbol
 _atom_site_label
 _atom_site_symmetry_multiplicity
 _atom_site_fract_x
 _atom_site_fract_y
 _atom_site_fract_z
 _atom_site_occupancy
  C  C0  1  0.77590942  0.03586787  0.25281110  1
  C  C1  1  0.07849984  0.65151766  0.75049801  1
  C  C2  1  0.51102225  0.49444421  -0.00048948  1
  C  C3  1  0.51059002  0.49529859  0.49535738  1
  C  C4  1  0.00423895  0.47602073  0.25022882  1
  C  C5  1  0.21589408  0.78332625  0.05552257  1
  C  C6  1  0.46253156  0.18366277  0.74839707  1
  C  C7  1  0.45037133  0.77346221  0.24807393  1
  C  C8  1  0.21690676  0.78277261  0.44405272  1
  C  C9  1  0.82851705  0.25523941  0.93037259  1
  C  C10  1  0.82678670  0.25561664  0.57146398  1
  Ni  Ni11  1  0.20177240  0.07140035  0.25019793  1
  Ni  Ni12  1  0.76806891  0.86775789  0.74946003  1
  Cu  Cu13  1  0.76645514  0.29901043  0.44318164  1
  Cu  Cu14  1  0.60475755  0.72176306  0.25406317  1
  Cu  Cu15  1  0.42583955  0.34435682  0.74574674  1
  Cu  Cu16  1  0.19923844  0.61786576  0.48315169  1
  Cu  Cu17  1  0.19896828  0.61783752  0.02029939  1
  Cu  Cu18  1  0.76613177  0.29658923  0.05761070  1
