# generated using pymatgen
data_Cu(NiC2)3
_symmetry_space_group_name_H-M   'P 1'
_cell_length_a   7.30309900
_cell_length_b   6.91041900
_cell_length_c   12.30907277
_cell_angle_alpha   56.43279170
_cell_angle_beta   90.00000000
_cell_angle_gamma   90.00000000
_symmetry_Int_Tables_number   1
_chemical_formula_structural   Cu(NiC2)3
_chemical_formula_sum   'Cu2 Ni6 C12'
_cell_volume   517.61384423
_cell_formula_units_Z   2
loop_
 _symmetry_equiv_pos_site_id
 _symmetry_equiv_pos_as_xyz
  1  'x, y, z'
loop_
 _atom_site_type_symbol
 _atom_site_label
 _atom_site_symmetry_multiplicity
 _atom_site_fract_x
 _atom_site_fract_y
 _atom_site_fract_z
 _atom_site_occupancy
  Ni  Ni0  1  0.00000000  0.50000000  0.50000000  1
  Ni  Ni1  1  0.50000000  0.50000000  0.00000000  1
  Ni  Ni2  1  0.92465600  0.71832700  0.75804400  1
  Ni  Ni3  1  0.42465600  0.28167300  0.74195600  1
  Ni  Ni4  1  0.07534400  0.28167300  0.24195600  1
  Ni  Ni5  1  0.57534400  0.71832700  0.25804400  1
  Cu  Cu6  1  0.00000000  0.00000000  0.00000000  1
  Cu  Cu7  1  0.50000000  0.00000000  0.50000000  1
  C  C8  1  0.06436900  0.09971700  0.76310500  1
  C  C9  1  0.19697000  0.75370200  0.57832000  1
  C  C10  1  0.93563100  0.90028300  0.23689500  1
  C  C11  1  0.56436900  0.90028300  0.73689500  1
  C  C12  1  0.67809800  0.62319000  0.56494500  1
  C  C13  1  0.43563100  0.09971700  0.26310500  1
  C  C14  1  0.17809800  0.37681000  0.93505500  1
  C  C15  1  0.80303000  0.24629800  0.42168000  1
  C  C16  1  0.82190200  0.62319000  0.06494500  1
  C  C17  1  0.32190200  0.37681000  0.43505500  1
  C  C18  1  0.30303000  0.75370200  0.07832000  1
  C  C19  1  0.69697000  0.24629800  0.92168000  1
