# generated using pymatgen
data_Cu2NiC17
_symmetry_space_group_name_H-M   'P 1'
_cell_length_a   9.26590948
_cell_length_b   9.26590914
_cell_length_c   23.22148157
_cell_angle_alpha   90.02144470
_cell_angle_beta   89.97855532
_cell_angle_gamma   119.94936252
_symmetry_Int_Tables_number   1
_chemical_formula_structural   Cu2NiC17
_chemical_formula_sum   'Cu12 Ni6 C102'
_cell_volume   1727.49970578
_cell_formula_units_Z   6
loop_
 _symmetry_equiv_pos_site_id
 _symmetry_equiv_pos_as_xyz
  1  'x, y, z'
loop_
 _atom_site_type_symbol
 _atom_site_label
 _atom_site_symmetry_multiplicity
 _atom_site_fract_x
 _atom_site_fract_y
 _atom_site_fract_z
 _atom_site_occupancy
  C  C0  1  0.00314125  0.99292503  0.49838993  1
  C  C1  1  0.00707497  0.99685875  0.99838993  1
  C  C2  1  0.66610306  0.32259042  0.83198478  1
  C  C3  1  0.67740958  0.33389694  0.33198478  1
  C  C4  1  0.34387085  0.67265300  0.16513711  1
  C  C5  1  0.32734700  0.65612915  0.66513711  1
  C  C6  1  0.36161129  0.36127672  0.24797723  1
  C  C7  1  0.99485049  0.63013558  0.24755875  1
  C  C8  1  0.63872328  0.63838871  0.74797723  1
  C  C9  1  0.36986442  0.00514951  0.74755875  1
  C  C10  1  0.04013240  0.70164174  0.57988157  1
  C  C11  1  0.65474945  0.96697711  0.58492979  1
  C  C12  1  0.29835826  0.95986760  0.07988157  1
  C  C13  1  0.03302289  0.34525055  0.08492979  1
  C  C14  1  0.97709724  0.67598976  0.91882326  1
  C  C15  1  0.69628380  0.02810830  0.91214856  1
  C  C16  1  0.97189170  0.30371620  0.41214856  1
  C  C17  1  0.32401024  0.02290276  0.41882326  1
  C  C18  1  0.98773208  0.99143381  0.35052456  1
  C  C19  1  0.00856619  0.01226792  0.85052456  1
  C  C20  1  0.66961796  0.32755138  0.68419630  1
  C  C21  1  0.67244862  0.33038204  0.18419630  1
  C  C22  1  0.33718577  0.66527746  0.01697828  1
  C  C23  1  0.33472254  0.66281423  0.51697828  1
  C  C24  1  0.00553226  0.00868625  0.64894881  1
  C  C25  1  0.99131375  0.99446774  0.14894881  1
  C  C26  1  0.66211185  0.33770130  0.98228829  1
  C  C27  1  0.66229870  0.33788815  0.48228829  1
  C  C28  1  0.33067475  0.66612737  0.31566528  1
  C  C29  1  0.33387263  0.66932525  0.81566528  1
  Ni  Ni30  1  0.00446012  0.30093929  0.25155654  1
  Ni  Ni31  1  0.69906071  0.99553988  0.75155654  1
  Ni  Ni32  1  0.36528145  0.03597380  0.58352758  1
  Ni  Ni33  1  0.96402620  0.63471855  0.08352758  1
  Ni  Ni34  1  0.33701757  0.96698683  0.91823271  1
  Ni  Ni35  1  0.03301317  0.66298243  0.41823271  1
  Cu  Cu36  1  0.29096335  0.99602753  0.25062110  1
  Cu  Cu37  1  0.69860227  0.70379481  0.24917407  1
  Cu  Cu38  1  0.29620519  0.30139773  0.74917407  1
  Cu  Cu39  1  0.00397247  0.70903665  0.75062110  1
  Cu  Cu40  1  0.95881394  0.32855662  0.58162552  1
  Cu  Cu41  1  0.67329713  0.63297702  0.58608000  1
  Cu  Cu42  1  0.67144338  0.04118606  0.08162552  1
  Cu  Cu43  1  0.36702298  0.32670287  0.08608000  1
  Cu  Cu44  1  0.62800740  0.66182612  0.91457747  1
  Cu  Cu45  1  0.03344297  0.37338851  0.91860524  1
  Cu  Cu46  1  0.62661149  0.96655703  0.41860524  1
  Cu  Cu47  1  0.33817388  0.37199260  0.41457747  1
  C  C48  1  0.21093440  0.01897869  0.30493499  1
  C  C49  1  0.80911041  0.77730245  0.30202801  1
  C  C50  1  0.98710900  0.19948749  0.30966267  1
  C  C51  1  0.22269755  0.19088959  0.80202801  1
  C  C52  1  0.98102131  0.78906560  0.80493499  1
  C  C53  1  0.80051251  0.01289100  0.80966267  1
  C  C54  1  0.79667328  0.97234117  0.69442174  1
  C  C55  1  0.18436674  0.20865300  0.69581540  1
  C  C56  1  0.03193681  0.82468817  0.69708766  1
  C  C57  1  0.79134700  0.81563326  0.19581540  1
  C  C58  1  0.02765883  0.20332672  0.19442174  1
  C  C59  1  0.17531183  0.96806319  0.19708766  1
  C  C60  1  0.88015557  0.36027638  0.63405068  1
  C  C61  1  0.47678748  0.11766136  0.64037201  1
  C  C62  1  0.65242579  0.53726675  0.64146099  1
  C  C63  1  0.88233864  0.52321252  0.14037201  1
  C  C64  1  0.63972362  0.11984443  0.13405068  1
  C  C65  1  0.46273325  0.34757421  0.14146099  1
  C  C66  1  0.46165774  0.30430798  0.03350704  1
  C  C67  1  0.84632771  0.53656427  0.02617444  1
  C  C68  1  0.69636700  0.15290270  0.02740065  1
  C  C69  1  0.46343573  0.15367229  0.52617444  1
  C  C70  1  0.69569202  0.53834226  0.53350704  1
  C  C71  1  0.84709730  0.30363300  0.52740065  1
  C  C72  1  0.54712475  0.68983746  0.96703690  1
  C  C73  1  0.13013719  0.44567538  0.97431120  1
  C  C74  1  0.31173727  0.85698712  0.97528077  1
  C  C75  1  0.55432462  0.86986281  0.47431120  1
  C  C76  1  0.31016254  0.45287525  0.46703690  1
  C  C77  1  0.14301288  0.68826273  0.47528077  1
  C  C78  1  0.13176528  0.63742857  0.36117532  1
  C  C79  1  0.51165895  0.87053091  0.36651266  1
  C  C80  1  0.36073990  0.47999242  0.35980916  1
  C  C81  1  0.12946909  0.48834105  0.86651266  1
  C  C82  1  0.36257143  0.86823472  0.86117532  1
  C  C83  1  0.52000758  0.63926010  0.85980916  1
  C  C84  1  0.02401076  0.83256718  0.41287177  1
  C  C85  1  0.80695584  0.00240237  0.41293196  1
  C  C86  1  0.18429825  0.19563296  0.40997756  1
  C  C87  1  0.99759763  0.19304416  0.91293196  1
  C  C88  1  0.16743282  0.97598924  0.91287177  1
  C  C89  1  0.80436704  0.81570175  0.90997756  1
  C  C90  1  0.96253269  0.16213607  0.58811694  1
  C  C91  1  0.17573116  0.01203676  0.58835858  1
  C  C92  1  0.83825888  0.80714888  0.58822326  1
  C  C93  1  0.98796324  0.82426884  0.08835858  1
  C  C94  1  0.83786393  0.03746731  0.08811694  1
  C  C95  1  0.19285112  0.16174112  0.08822326  1
  C  C96  1  0.66060634  0.14828081  0.74820871  1
  C  C97  1  0.47386071  0.32858039  0.74299062  1
  C  C98  1  0.84629960  0.53915196  0.74415617  1
  C  C99  1  0.67141961  0.52613929  0.24299062  1
  C  C100  1  0.85171919  0.33939366  0.24820871  1
  C  C101  1  0.46084804  0.15370040  0.24415617  1
  C  C102  1  0.64741496  0.50426479  0.92063285  1
  C  C103  1  0.86055269  0.36761293  0.92107616  1
  C  C104  1  0.51352575  0.14764502  0.92231920  1
  C  C105  1  0.63238707  0.13944731  0.42107616  1
  C  C106  1  0.49573521  0.35258504  0.42063285  1
  C  C107  1  0.85235498  0.48647425  0.42231920  1
  C  C108  1  0.33532498  0.47311246  0.07900727  1
  C  C109  1  0.15025222  0.65494889  0.07981174  1
  C  C110  1  0.51976791  0.86642268  0.07633850  1
  C  C111  1  0.34505111  0.84974778  0.57981174  1
  C  C112  1  0.52688754  0.66467502  0.57900727  1
  C  C113  1  0.13357732  0.48023209  0.57633850  1
  C  C114  1  0.30346554  0.83411862  0.25536891  1
  C  C115  1  0.52562443  0.69034404  0.25479404  1
  C  C116  1  0.18270397  0.48664783  0.25434069  1
  C  C117  1  0.30965596  0.47437557  0.75479404  1
  C  C118  1  0.16588138  0.69653446  0.75536891  1
  C  C119  1  0.51335217  0.81729603  0.75434069  1
