# generated using pymatgen
data_Cu3Ni4C33
_symmetry_space_group_name_H-M   'P 1'
_cell_length_a   8.91114512
_cell_length_b   8.90756579
_cell_length_c   22.17860890
_cell_angle_alpha   91.71967117
_cell_angle_beta   89.42337442
_cell_angle_gamma   120.30157905
_symmetry_Int_Tables_number   1
_chemical_formula_structural   Cu3Ni4C33
_chemical_formula_sum   'Cu9 Ni12 C99'
_cell_volume   1519.24042858
_cell_formula_units_Z   3
loop_
 _symmetry_equiv_pos_site_id
 _symmetry_equiv_pos_as_xyz
  1  'x, y, z'
loop_
 _atom_site_type_symbol
 _atom_site_label
 _atom_site_symmetry_multiplicity
 _atom_site_fract_x
 _atom_site_fract_y
 _atom_site_fract_z
 _atom_site_occupancy
  C  C0  1  0.99035678  0.36088097  0.75468444  1
  C  C1  1  0.39508278  0.01368033  0.75224368  1
  C  C2  1  0.31639869  0.33788073  0.58613631  1
  C  C3  1  0.02604835  0.69552417  0.57543507  1
  C  C4  1  0.65889898  0.97161912  0.59048197  1
  C  C5  1  0.31590186  0.97486779  0.08490443  1
  C  C6  1  0.65565004  0.67955353  0.08547207  1
  C  C7  1  0.02517888  0.34127416  0.08516189  1
  C  C8  1  0.33841852  0.30087045  0.92284691  1
  C  C9  1  0.96422334  0.28976842  0.41659328  1
  C  C10  1  0.32074364  0.03437954  0.41523317  1
  C  C11  1  0.71469784  0.68204404  0.41569747  1
  C  C12  1  0.00080275  0.99986967  0.49700044  1
  C  C13  1  0.99172648  0.98999152  0.99557969  1
  C  C14  1  0.66555367  0.32689701  0.83622841  1
  C  C15  1  0.66701603  0.33355004  0.32778258  1
  C  C16  1  0.33439566  0.66791437  0.16619276  1
  C  C17  1  0.36484591  0.67185715  0.66974120  1
  C  C18  1  0.00161125  0.99950282  0.35322510  1
  C  C19  1  0.65464111  0.33363228  0.68702158  1
  C  C20  1  0.66305233  0.33127368  0.17994975  1
  Ni  Ni21  1  0.28338317  0.29315518  0.75406016  1
  Ni  Ni22  1  0.71473571  0.98388337  0.75604774  1
  Ni  Ni23  1  0.36824089  0.03380554  0.58301244  1
  Ni  Ni24  1  0.66193936  0.63199010  0.58158898  1
  Ni  Ni25  1  0.95724391  0.61890414  0.08102475  1
  Ni  Ni26  1  0.65749765  0.02570776  0.08106067  1
  Ni  Ni27  1  0.37627696  0.34336463  0.07876021  1
  Ni  Ni28  1  0.03836679  0.38632851  0.91467248  1
  Ni  Ni29  1  0.33211079  0.95387330  0.91537363  1
  Ni  Ni30  1  0.61283891  0.96314650  0.41885839  1
  Ni  Ni31  1  0.34183383  0.39380919  0.41930951  1
  Ni  Ni32  1  0.04129853  0.65003851  0.42028626  1
  Cu  Cu33  1  0.01597308  0.02830401  0.85672030  1
  Cu  Cu34  1  0.99571897  0.99275061  0.65144408  1
  Cu  Cu35  1  0.00399358  0.00398403  0.13815640  1
  Cu  Cu36  1  0.67315504  0.30845816  0.98437098  1
  Cu  Cu37  1  0.64769422  0.34075469  0.47605477  1
  Cu  Cu38  1  0.31722021  0.66722237  0.01646115  1
  Cu  Cu39  1  0.34841598  0.68395903  0.51540738  1
  Cu  Cu40  1  0.33199861  0.66352589  0.32234271  1
  Cu  Cu41  1  0.34405002  0.66714315  0.81647151  1
  C  C42  1  0.29429263  0.98356781  0.24985419  1
  C  C43  1  0.68510591  0.70490622  0.25091181  1
  C  C44  1  0.01744136  0.30894550  0.25097775  1
  C  C45  1  0.01015212  0.72301833  0.75161364  1
  C  C46  1  0.96670920  0.33247340  0.58271570  1
  C  C47  1  0.62818814  0.67011549  0.91421083  1
  C  C48  1  0.21237257  0.99758262  0.30538993  1
  C  C49  1  0.77945165  0.79160785  0.30645272  1
  C  C50  1  0.00668654  0.21470134  0.30481265  1
  C  C51  1  0.19545517  0.17390894  0.81299749  1
  C  C52  1  0.99234052  0.81198346  0.80497451  1
  C  C53  1  0.84152502  0.00710606  0.81210673  1
  C  C54  1  0.79872999  0.96068173  0.68965016  1
  C  C55  1  0.15594102  0.19718839  0.69217540  1
  C  C56  1  0.02741662  0.81831306  0.69312857  1
  C  C57  1  0.77488149  0.80568479  0.19501910  1
  C  C58  1  0.03077112  0.21700160  0.19290396  1
  C  C59  1  0.18946988  0.97060528  0.19323578  1
  C  C60  1  0.89338838  0.35890950  0.63863284  1
  C  C61  1  0.48458109  0.08593485  0.64224420  1
  C  C62  1  0.60529234  0.50774867  0.63665734  1
  C  C63  1  0.90862380  0.50386577  0.13844645  1
  C  C64  1  0.58574170  0.07828500  0.13801234  1
  C  C65  1  0.49429054  0.40772203  0.13695067  1
  C  C66  1  0.46059721  0.28676269  0.02086110  1
  C  C67  1  0.81488400  0.52711093  0.02490404  1
  C  C68  1  0.72252844  0.16648455  0.02606497  1
  C  C69  1  0.45801804  0.17254688  0.52573133  1
  C  C70  1  0.71144911  0.54548080  0.52137124  1
  C  C71  1  0.85723469  0.30760470  0.52895817  1
  C  C72  1  0.54839124  0.69460198  0.96941078  1
  C  C73  1  0.17256907  0.47431574  0.97131596  1
  C  C74  1  0.30519812  0.83920948  0.97417672  1
  C  C75  1  0.53454159  0.84690759  0.47827279  1
  C  C76  1  0.31215551  0.48227685  0.48006282  1
  C  C77  1  0.16056090  0.67696659  0.47928143  1
  C  C78  1  0.12819260  0.61062357  0.35890057  1
  C  C79  1  0.47942716  0.87112143  0.35998867  1
  C  C80  1  0.38425208  0.51823493  0.36011299  1
  C  C81  1  0.13274609  0.50251197  0.85402995  1
  C  C82  1  0.36207318  0.86327083  0.85363641  1
  C  C83  1  0.51197006  0.63818546  0.86009542  1
  C  C84  1  0.02001027  0.81820950  0.41850661  1
  C  C85  1  0.80346470  0.98986314  0.41597567  1
  C  C86  1  0.17872209  0.20125639  0.41856533  1
  C  C87  1  0.02690727  0.19153431  0.91235656  1
  C  C88  1  0.15795050  0.98169313  0.90883756  1
  C  C89  1  0.80332484  0.82617274  0.90946831  1
  C  C90  1  0.97952118  0.16999771  0.58427128  1
  C  C91  1  0.17354600  0.02015352  0.59258817  1
  C  C92  1  0.84602365  0.82682125  0.58941902  1
  C  C93  1  0.97514140  0.81843487  0.09091122  1
  C  C94  1  0.83982858  0.01432819  0.09234267  1
  C  C95  1  0.17840778  0.15823567  0.08916291  1
  C  C96  1  0.70252745  0.15844388  0.75519112  1
  C  C97  1  0.46725520  0.30637115  0.75461533  1
  C  C98  1  0.86281813  0.54525981  0.74835334  1
  C  C99  1  0.66355973  0.53059777  0.24878295  1
  C  C100  1  0.86530400  0.33014001  0.24829851  1
  C  C101  1  0.46882641  0.13728469  0.24830553  1
  C  C102  1  0.63811760  0.51029399  0.91554701  1
  C  C103  1  0.84561755  0.36240500  0.92411059  1
  C  C104  1  0.50574526  0.15294287  0.92326401  1
  C  C105  1  0.62193881  0.15215891  0.42626075  1
  C  C106  1  0.51959765  0.38013118  0.42092584  1
  C  C107  1  0.84891323  0.47148297  0.42509026  1
  C  C108  1  0.33478771  0.49888012  0.06529933  1
  C  C109  1  0.15968017  0.66613353  0.06942459  1
  C  C110  1  0.50211378  0.82783837  0.06345845  1
  C  C111  1  0.33062729  0.83299409  0.57168054  1
  C  C112  1  0.49614762  0.66493826  0.57283729  1
  C  C113  1  0.14490989  0.48680874  0.57891449  1
  C  C114  1  0.29824731  0.81671901  0.24972493  1
  C  C115  1  0.51065624  0.69803369  0.25240709  1
  C  C116  1  0.18575580  0.48272891  0.25202984  1
  C  C117  1  0.28794829  0.48278921  0.75846736  1
  C  C118  1  0.17507566  0.71597608  0.75111738  1
  C  C119  1  0.51474597  0.81159826  0.75980736  1
