# generated using pymatgen
data_Cu2Ni2C5
_symmetry_space_group_name_H-M   'P 1'
_cell_length_a   3.97007100
_cell_length_b   10.66373600
_cell_length_c   17.91435100
_cell_angle_alpha   90.00000000
_cell_angle_beta   90.00000000
_cell_angle_gamma   90.00000000
_symmetry_Int_Tables_number   1
_chemical_formula_structural   Cu2Ni2C5
_chemical_formula_sum   'Cu8 Ni8 C20'
_cell_volume   758.41818482
_cell_formula_units_Z   4
loop_
 _symmetry_equiv_pos_site_id
 _symmetry_equiv_pos_as_xyz
  1  'x, y, z'
loop_
 _atom_site_type_symbol
 _atom_site_label
 _atom_site_symmetry_multiplicity
 _atom_site_fract_x
 _atom_site_fract_y
 _atom_site_fract_z
 _atom_site_occupancy
  C  C0  1  0.25000000  0.17316200  0.48085400  1
  C  C1  1  0.75000000  0.82683800  0.51914600  1
  C  C2  1  0.75000000  0.67316200  0.01914600  1
  C  C3  1  0.25000000  0.32683800  0.98085400  1
  C  C4  1  0.25000000  0.05961100  0.07320800  1
  C  C5  1  0.75000000  0.94038900  0.92679200  1
  C  C6  1  0.75000000  0.55961100  0.42679200  1
  C  C7  1  0.25000000  0.44038900  0.57320800  1
  C  C8  1  0.25000000  0.80333200  0.36732500  1
  C  C9  1  0.75000000  0.19666800  0.63267500  1
  C  C10  1  0.75000000  0.30333200  0.13267500  1
  C  C11  1  0.25000000  0.69666800  0.86732500  1
  C  C12  1  0.25000000  0.02073300  0.77375900  1
  C  C13  1  0.75000000  0.97926700  0.22624100  1
  C  C14  1  0.75000000  0.52073300  0.72624100  1
  C  C15  1  0.25000000  0.47926700  0.27375900  1
  C  C16  1  0.25000000  0.78251700  0.15140200  1
  C  C17  1  0.75000000  0.21748300  0.84859800  1
  C  C18  1  0.75000000  0.28251700  0.34859800  1
  C  C19  1  0.25000000  0.71748300  0.65140200  1
  Ni  Ni20  1  0.25000000  0.67412000  0.49464500  1
  Ni  Ni21  1  0.75000000  0.32588000  0.50535500  1
  Ni  Ni22  1  0.75000000  0.17412000  0.00535500  1
  Ni  Ni23  1  0.25000000  0.82588000  0.99464500  1
  Ni  Ni24  1  0.25000000  0.39656700  0.41584300  1
  Ni  Ni25  1  0.75000000  0.60343300  0.58415700  1
  Ni  Ni26  1  0.75000000  0.89656700  0.08415700  1
  Ni  Ni27  1  0.25000000  0.10343300  0.91584300  1
  Cu  Cu28  1  0.25000000  0.19094100  0.23280000  1
  Cu  Cu29  1  0.75000000  0.80905900  0.76720000  1
  Cu  Cu30  1  0.75000000  0.69094100  0.26720000  1
  Cu  Cu31  1  0.25000000  0.30905900  0.73280000  1
  Cu  Cu32  1  0.25000000  0.99040200  0.60767900  1
  Cu  Cu33  1  0.75000000  0.00959800  0.39232100  1
  Cu  Cu34  1  0.75000000  0.49040200  0.89232100  1
  Cu  Cu35  1  0.25000000  0.50959800  0.10767900  1
