# generated using pymatgen
data_Cu2Ni4C9
_symmetry_space_group_name_H-M   'P 1'
_cell_length_a   6.25746523
_cell_length_b   5.88354490
_cell_length_c   5.84828169
_cell_angle_alpha   60.00902817
_cell_angle_beta   90.93316509
_cell_angle_gamma   119.01895103
_symmetry_Int_Tables_number   1
_chemical_formula_structural   Cu2Ni4C9
_chemical_formula_sum   'Cu2 Ni4 C9'
_cell_volume   155.62792968
_cell_formula_units_Z   1
loop_
 _symmetry_equiv_pos_site_id
 _symmetry_equiv_pos_as_xyz
  1  'x, y, z'
loop_
 _atom_site_type_symbol
 _atom_site_label
 _atom_site_symmetry_multiplicity
 _atom_site_fract_x
 _atom_site_fract_y
 _atom_site_fract_z
 _atom_site_occupancy
  C  C0  1  0.62500000  0.75000000  0.12500000  1
  Ni  Ni1  1  0.09168900  0.06770600  0.97472900  1
  Ni  Ni2  1  0.62500000  0.25000000  0.62500000  1
  Ni  Ni3  1  0.15831100  0.43229400  0.27527100  1
  Ni  Ni4  1  0.12500000  0.75000000  0.62500000  1
  Cu  Cu5  1  0.62500000  0.25000000  0.12500000  1
  Cu  Cu6  1  0.62500000  0.75000000  0.62500000  1
  C  C7  1  0.80124700  0.19886700  0.40010500  1
  C  C8  1  0.37865200  0.25339700  0.37226600  1
  C  C9  1  0.87134800  0.24660300  0.87773400  1
  C  C10  1  0.87164800  0.75390000  0.37489800  1
  C  C11  1  0.87351500  0.75552300  0.88141500  1
  C  C12  1  0.44875300  0.30113300  0.84989500  1
  C  C13  1  0.37648500  0.74447700  0.36858500  1
  C  C14  1  0.37835200  0.74610000  0.87510200  1
