# generated using pymatgen
data_CuNi5C32
_symmetry_space_group_name_H-M   'P 1'
_cell_length_a   9.00437344
_cell_length_b   9.00389122
_cell_length_c   22.65011638
_cell_angle_alpha   90.20135009
_cell_angle_beta   89.95092238
_cell_angle_gamma   119.84477333
_symmetry_Int_Tables_number   1
_chemical_formula_structural   CuNi5C32
_chemical_formula_sum   'Cu3 Ni15 C96'
_cell_volume   1592.79205868
_cell_formula_units_Z   3
loop_
 _symmetry_equiv_pos_site_id
 _symmetry_equiv_pos_as_xyz
  1  'x, y, z'
loop_
 _atom_site_type_symbol
 _atom_site_label
 _atom_site_symmetry_multiplicity
 _atom_site_fract_x
 _atom_site_fract_y
 _atom_site_fract_z
 _atom_site_occupancy
  C  C0  1  0.37607581  0.36690698  0.24111385  1
  C  C1  1  0.98908202  0.61930915  0.23894877  1
  C  C2  1  0.63195427  0.62395654  0.74153667  1
  C  C3  1  0.37941654  0.00998675  0.73841150  1
  C  C4  1  0.02179311  0.68176374  0.58520661  1
  C  C5  1  0.65835642  0.97795496  0.58462742  1
  C  C6  1  0.01157874  0.01174558  0.49709014  1
  C  C7  1  0.00215328  0.99867474  0.99974147  1
  C  C8  1  0.69279673  0.33365167  0.82976290  1
  C  C9  1  0.66580738  0.30929011  0.33089183  1
  C  C10  1  0.33466667  0.67026208  0.16241281  1
  C  C11  1  0.31883326  0.64392533  0.66421056  1
  C  C12  1  0.68350686  0.33698429  0.68555815  1
  C  C13  1  0.66803670  0.32565269  0.18574753  1
  C  C14  1  0.01023043  0.01481273  0.35818094  1
  C  C15  1  0.98653327  0.98889739  0.85891032  1
  C  C16  1  0.99095400  0.98938299  0.64247179  1
  C  C17  1  0.02130663  0.01023868  0.14221578  1
  C  C18  1  0.66537042  0.34545846  0.97753925  1
  C  C19  1  0.66611725  0.32971767  0.47884918  1
  C  C20  1  0.32052157  0.65738929  0.02043277  1
  C  C21  1  0.33451622  0.66622604  0.51939940  1
  C  C22  1  0.32519861  0.66654656  0.31446457  1
  C  C23  1  0.33067551  0.67526416  0.81500912  1
  Ni  Ni24  1  0.29559824  0.00121732  0.25069665  1
  Ni  Ni25  1  0.99375670  0.28782678  0.24990581  1
  Ni  Ni26  1  0.99805519  0.70502419  0.75032089  1
  Ni  Ni27  1  0.70902710  0.00386362  0.75104217  1
  Ni  Ni28  1  0.95753764  0.33601555  0.58441844  1
  Ni  Ni29  1  0.38012312  0.04936704  0.58648479  1
  Ni  Ni30  1  0.65467484  0.60881613  0.58736606  1
  Ni  Ni31  1  0.95278337  0.62052257  0.08797105  1
  Ni  Ni32  1  0.38845118  0.34391949  0.08734604  1
  Ni  Ni33  1  0.61415194  0.66466404  0.91684748  1
  Ni  Ni34  1  0.04066618  0.37604597  0.91606162  1
  Ni  Ni35  1  0.33651885  0.96150569  0.91870841  1
  Ni  Ni36  1  0.62298897  0.95714424  0.41655871  1
  Ni  Ni37  1  0.34262379  0.38289386  0.41500886  1
  Ni  Ni38  1  0.03822567  0.66526411  0.41779523  1
  Cu  Cu39  1  0.71188168  0.71875301  0.25036978  1
  Cu  Cu40  1  0.28146865  0.28769470  0.75078945  1
  Cu  Cu41  1  0.66705321  0.04257823  0.08349644  1
  C  C42  1  0.18101259  0.01103278  0.30607782  1
  C  C43  1  0.81381001  0.80388737  0.30383675  1
  C  C44  1  0.98309673  0.17108931  0.30785913  1
  C  C45  1  0.19681222  0.18732747  0.80402288  1
  C  C46  1  0.99469554  0.82298581  0.80622115  1
  C  C47  1  0.82972780  0.01488019  0.80759823  1
  C  C48  1  0.80559673  0.97583985  0.69239921  1
  C  C49  1  0.17900638  0.20430508  0.69672435  1
  C  C50  1  0.02994284  0.82932257  0.69122596  1
  C  C51  1  0.79321551  0.81938479  0.19653864  1
  C  C52  1  0.02158493  0.18605876  0.19315929  1
  C  C53  1  0.16807192  0.96921095  0.19179844  1
  C  C54  1  0.89069002  0.39203406  0.64033758  1
  C  C55  1  0.49337340  0.11667813  0.64510767  1
  C  C56  1  0.62824579  0.51389646  0.64851169  1
  C  C57  1  0.88310911  0.51867112  0.14798730  1
  C  C58  1  0.64309719  0.11953795  0.13707618  1
  C  C59  1  0.48487909  0.36363525  0.14785855  1
  C  C60  1  0.47902532  0.31175371  0.02867637  1
  C  C61  1  0.83345331  0.51895634  0.02916084  1
  C  C62  1  0.69170796  0.14572749  0.02960166  1
  C  C63  1  0.47394057  0.16669918  0.52789706  1
  C  C64  1  0.69830003  0.52414116  0.53030233  1
  C  C65  1  0.83144403  0.29363498  0.52612708  1
  C  C66  1  0.52121746  0.69238450  0.97317024  1
  C  C67  1  0.16080100  0.46793111  0.97419133  1
  C  C68  1  0.30460199  0.83275405  0.97314014  1
  C  C69  1  0.53490144  0.84462820  0.47598798  1
  C  C70  1  0.31500908  0.48110673  0.47090958  1
  C  C71  1  0.16080974  0.69617850  0.47497313  1
  C  C72  1  0.13335642  0.63809286  0.35831865  1
  C  C73  1  0.49783232  0.85404134  0.35941344  1
  C  C74  1  0.35892343  0.49175585  0.35481884  1
  C  C75  1  0.13982111  0.50193189  0.85892894  1
  C  C76  1  0.36341173  0.87005081  0.85768118  1
  C  C77  1  0.50425009  0.64057877  0.85616282  1
  C  C78  1  0.01989246  0.83468884  0.40866642  1
  C  C79  1  0.81097780  0.97324342  0.40860846  1
  C  C80  1  0.16828392  0.19217431  0.41167344  1
  C  C81  1  0.02843494  0.19028466  0.90842714  1
  C  C82  1  0.16802104  0.98176587  0.90910713  1
  C  C83  1  0.80830105  0.83257103  0.91164153  1
  C  C84  1  0.97047505  0.15944203  0.59169274  1
  C  C85  1  0.18418490  0.02302544  0.59050720  1
  C  C86  1  0.83496271  0.80795174  0.59016541  1
  C  C87  1  0.96625573  0.81332753  0.08989288  1
  C  C88  1  0.82262362  0.02176491  0.08829519  1
  C  C89  1  0.18925454  0.16747507  0.08881261  1
  C  C90  1  0.67522540  0.16098231  0.75011912  1
  C  C91  1  0.45280006  0.30438456  0.74764673  1
  C  C92  1  0.82363731  0.52772958  0.75105876  1
  C  C93  1  0.69354134  0.54610288  0.24819244  1
  C  C94  1  0.83618936  0.32106112  0.24886107  1
  C  C95  1  0.47466544  0.17320519  0.24840861  1
  C  C96  1  0.63891800  0.49695816  0.92308265  1
  C  C97  1  0.85296617  0.35659041  0.92397604  1
  C  C98  1  0.50846762  0.14611554  0.92561901  1
  C  C99  1  0.63926613  0.14444118  0.42131240  1
  C  C100  1  0.50857546  0.36104451  0.42290383  1
  C  C101  1  0.85436290  0.49319163  0.42384565  1
  C  C102  1  0.35621111  0.50654682  0.07591895  1
  C  C103  1  0.15072638  0.65700715  0.07545064  1
  C  C104  1  0.51353548  0.86771905  0.07737403  1
  C  C105  1  0.34670206  0.85158206  0.57537654  1
  C  C106  1  0.50475313  0.65881898  0.57612746  1
  C  C107  1  0.15061553  0.49938920  0.57226705  1
  C  C108  1  0.29855813  0.81939428  0.25453934  1
  C  C109  1  0.53543314  0.69759247  0.25347295  1
  C  C110  1  0.17938897  0.47436373  0.25387496  1
  C  C111  1  0.30156616  0.46336934  0.75322314  1
  C  C112  1  0.17922297  0.69894893  0.75433130  1
  C  C113  1  0.52309518  0.81787160  0.75446958  1
