# generated using pymatgen
data_CuNiC16
_symmetry_space_group_name_H-M   'P 1'
_cell_length_a   8.43251350
_cell_length_b   8.43251325
_cell_length_c   22.08312048
_cell_angle_alpha   90.00000000
_cell_angle_beta   90.00000000
_cell_angle_gamma   120.00000098
_symmetry_Int_Tables_number   1
_chemical_formula_structural   CuNiC16
_chemical_formula_sum   'Cu6 Ni6 C96'
_cell_volume   1359.89427882
_cell_formula_units_Z   6
loop_
 _symmetry_equiv_pos_site_id
 _symmetry_equiv_pos_as_xyz
  1  'x, y, z'
loop_
 _atom_site_type_symbol
 _atom_site_label
 _atom_site_symmetry_multiplicity
 _atom_site_fract_x
 _atom_site_fract_y
 _atom_site_fract_z
 _atom_site_occupancy
  C  C0  1  0.00000000  0.00000000  0.49827780  1
  C  C1  1  0.00000000  0.00000000  0.99827780  1
  C  C2  1  0.66666700  0.33333300  0.83161080  1
  C  C3  1  0.66666700  0.33333300  0.33161080  1
  C  C4  1  0.33333300  0.66666700  0.16494480  1
  C  C5  1  0.33333300  0.66666700  0.66494480  1
  Ni  Ni6  1  0.00000000  0.00000000  0.35283897  1
  Ni  Ni7  1  0.00000000  0.00000000  0.85283897  1
  Ni  Ni8  1  0.66666700  0.33333300  0.68617197  1
  Ni  Ni9  1  0.66666700  0.33333300  0.18617197  1
  Ni  Ni10  1  0.33333300  0.66666700  0.01950597  1
  Ni  Ni11  1  0.33333300  0.66666700  0.51950597  1
  Cu  Cu12  1  0.00000000  0.00000000  0.64855529  1
  Cu  Cu13  1  0.00000000  0.00000000  0.14855529  1
  Cu  Cu14  1  0.66666700  0.33333300  0.98188829  1
  Cu  Cu15  1  0.66666700  0.33333300  0.48188829  1
  Cu  Cu16  1  0.33333300  0.66666700  0.31522229  1
  Cu  Cu17  1  0.33333300  0.66666700  0.81522229  1
  C  C18  1  0.28739152  0.99302493  0.25046794  1
  C  C19  1  0.70563342  0.71260848  0.25046794  1
  C  C20  1  0.00697507  0.29436658  0.25046794  1
  C  C21  1  0.28739152  0.29436658  0.75046794  1
  C  C22  1  0.00697507  0.71260848  0.75046794  1
  C  C23  1  0.70563342  0.99302493  0.75046794  1
  C  C24  1  0.95405852  0.32635793  0.58380094  1
  C  C25  1  0.37230042  0.04594148  0.58380094  1
  C  C26  1  0.67364207  0.62769958  0.58380094  1
  C  C27  1  0.95405852  0.62769958  0.08380094  1
  C  C28  1  0.67364207  0.04594148  0.08380094  1
  C  C29  1  0.37230042  0.32635793  0.08380094  1
  C  C30  1  0.62072452  0.65969193  0.91713494  1
  C  C31  1  0.03896642  0.37927548  0.91713494  1
  C  C32  1  0.34030807  0.96103358  0.91713494  1
  C  C33  1  0.62072452  0.96103358  0.41713494  1
  C  C34  1  0.34030807  0.37927548  0.41713494  1
  C  C35  1  0.03896642  0.65969193  0.41713494  1
  C  C36  1  0.20750829  0.02234722  0.30468524  1
  C  C37  1  0.81483893  0.79249171  0.30468524  1
  C  C38  1  0.97765278  0.18516107  0.30468524  1
  C  C39  1  0.20750829  0.18516107  0.80468524  1
  C  C40  1  0.97765278  0.79249171  0.80468524  1
  C  C41  1  0.81483893  0.02234722  0.80468524  1
  C  C42  1  0.79038661  0.96276517  0.69495159  1
  C  C43  1  0.17237856  0.20961339  0.69495159  1
  C  C44  1  0.03723483  0.82762144  0.69495159  1
  C  C45  1  0.79038661  0.82762144  0.19495159  1
  C  C46  1  0.03723483  0.20961339  0.19495159  1
  C  C47  1  0.17237856  0.96276517  0.19495159  1
  C  C48  1  0.87417529  0.35568022  0.63801824  1
  C  C49  1  0.48150593  0.12582471  0.63801824  1
  C  C50  1  0.64431978  0.51849407  0.63801824  1
  C  C51  1  0.87417529  0.51849407  0.13801824  1
  C  C52  1  0.64431978  0.12582471  0.13801824  1
  C  C53  1  0.48150593  0.35568022  0.13801824  1
  C  C54  1  0.45705361  0.29609817  0.02828459  1
  C  C55  1  0.83904556  0.54294639  0.02828459  1
  C  C56  1  0.70390183  0.16095444  0.02828459  1
  C  C57  1  0.45705361  0.16095444  0.52828459  1
  C  C58  1  0.70390183  0.54294639  0.52828459  1
  C  C59  1  0.83904556  0.29609817  0.52828459  1
  C  C60  1  0.54084129  0.68901422  0.97135224  1
  C  C61  1  0.14817193  0.45915871  0.97135224  1
  C  C62  1  0.31098578  0.85182807  0.97135224  1
  C  C63  1  0.54084129  0.85182807  0.47135224  1
  C  C64  1  0.31098578  0.45915871  0.47135224  1
  C  C65  1  0.14817193  0.68901422  0.47135224  1
  C  C66  1  0.12371961  0.62943217  0.36161859  1
  C  C67  1  0.50571156  0.87628039  0.36161859  1
  C  C68  1  0.37056783  0.49428844  0.36161859  1
  C  C69  1  0.12371961  0.49428844  0.86161859  1
  C  C70  1  0.37056783  0.87628039  0.86161859  1
  C  C71  1  0.50571156  0.62943217  0.86161859  1
  C  C72  1  0.01391593  0.81907211  0.40996194  1
  C  C73  1  0.80515619  0.98608407  0.40996194  1
  C  C74  1  0.18092789  0.19484381  0.40996194  1
  C  C75  1  0.01391593  0.19484381  0.90996194  1
  C  C76  1  0.18092789  0.98608407  0.90996194  1
  C  C77  1  0.80515619  0.81907211  0.90996194  1
  C  C78  1  0.96744778  0.15586736  0.59004261  1
  C  C79  1  0.18841958  0.03255222  0.59004261  1
  C  C80  1  0.84413264  0.81158042  0.59004261  1
  C  C81  1  0.96744778  0.81158042  0.09004261  1
  C  C82  1  0.84413264  0.03255222  0.09004261  1
  C  C83  1  0.18841958  0.15586736  0.09004261  1
  C  C84  1  0.68058293  0.15240511  0.74329494  1
  C  C85  1  0.47182319  0.31941707  0.74329494  1
  C  C86  1  0.84759489  0.52817681  0.74329494  1
  C  C87  1  0.68058293  0.52817681  0.24329494  1
  C  C88  1  0.84759489  0.31941707  0.24329494  1
  C  C89  1  0.47182319  0.15240511  0.24329494  1
  C  C90  1  0.63411478  0.48920036  0.92337561  1
  C  C91  1  0.85508658  0.36588522  0.92337561  1
  C  C92  1  0.51079964  0.14491342  0.92337561  1
  C  C93  1  0.63411478  0.14491342  0.42337561  1
  C  C94  1  0.51079964  0.36588522  0.42337561  1
  C  C95  1  0.85508658  0.48920036  0.42337561  1
  C  C96  1  0.34724893  0.48573911  0.07662894  1
  C  C97  1  0.13848919  0.65275107  0.07662894  1
  C  C98  1  0.51426089  0.86151081  0.07662894  1
  C  C99  1  0.34724893  0.86151081  0.57662894  1
  C  C100  1  0.51426089  0.65275107  0.57662894  1
  C  C101  1  0.13848919  0.48573911  0.57662894  1
  C  C102  1  0.30078078  0.82253436  0.25670961  1
  C  C103  1  0.52175258  0.69921922  0.25670961  1
  C  C104  1  0.17746564  0.47824742  0.25670961  1
  C  C105  1  0.30078078  0.47824742  0.75670961  1
  C  C106  1  0.17746564  0.69921922  0.75670961  1
  C  C107  1  0.52175258  0.82253436  0.75670961  1
