# generated using pymatgen
data_Cu12Ni3C2
_symmetry_space_group_name_H-M   'P 1'
_cell_length_a   8.54383423
_cell_length_b   8.54383397
_cell_length_c   22.23360716
_cell_angle_alpha   90.00000000
_cell_angle_beta   90.00000000
_cell_angle_gamma   120.00000097
_symmetry_Int_Tables_number   1
_chemical_formula_structural   Cu12Ni3C2
_chemical_formula_sum   'Cu72 Ni18 C12'
_cell_volume   1405.54957774
_cell_formula_units_Z   6
loop_
 _symmetry_equiv_pos_site_id
 _symmetry_equiv_pos_as_xyz
  1  'x, y, z'
loop_
 _atom_site_type_symbol
 _atom_site_label
 _atom_site_symmetry_multiplicity
 _atom_site_fract_x
 _atom_site_fract_y
 _atom_site_fract_z
 _atom_site_occupancy
  C  C0  1  0.00000000  0.00000000  0.85199972  1
  C  C1  1  0.66666700  0.33333300  0.98133328  1
  C  C2  1  0.33333300  0.66666700  0.02622227  1
  C  C3  1  0.33333300  0.66666700  0.52264286  1
  C  C4  1  0.33333300  0.66666700  0.31069114  1
  C  C5  1  0.33333300  0.66666700  0.80711173  1
  C  C6  1  0.00000000  0.00000000  0.35227556  1
  C  C7  1  0.00000000  0.00000000  0.64459268  1
  C  C8  1  0.00000000  0.00000000  0.14777134  1
  C  C9  1  0.66666700  0.33333300  0.68556166  1
  C  C10  1  0.66666700  0.33333300  0.18874032  1
  C  C11  1  0.66666700  0.33333300  0.48105744  1
  Ni  Ni12  1  0.28668003  0.00994214  0.24820533  1
  Ni  Ni13  1  0.72326211  0.71331997  0.24820533  1
  Ni  Ni14  1  0.99005786  0.27673789  0.24820533  1
  Ni  Ni15  1  0.29453643  0.28352584  0.74440539  1
  Ni  Ni16  1  0.98898941  0.70546357  0.74440539  1
  Ni  Ni17  1  0.71647416  0.01101059  0.74440539  1
  Ni  Ni18  1  0.94340489  0.32339086  0.58512767  1
  Ni  Ni19  1  0.37998697  0.05659511  0.58512767  1
  Ni  Ni20  1  0.67660914  0.62001303  0.58512767  1
  Ni  Ni21  1  0.95019284  0.62786943  0.08892761  1
  Ni  Ni22  1  0.67767759  0.04980716  0.08892761  1
  Ni  Ni23  1  0.37213057  0.32232241  0.08892761  1
  Ni  Ni24  1  0.62332346  0.66666700  0.91666700  1
  Ni  Ni25  1  0.04334254  0.37667654  0.91666700  1
  Ni  Ni26  1  0.33333300  0.95665746  0.91666700  1
  Ni  Ni27  1  0.63592524  0.96925924  0.41666700  1
  Ni  Ni28  1  0.33333300  0.36407476  0.41666700  1
  Ni  Ni29  1  0.03074076  0.66666700  0.41666700  1
  Cu  Cu30  1  0.20474913  0.03994535  0.30274311  1
  Cu  Cu31  1  0.83519622  0.79525087  0.30274311  1
  Cu  Cu32  1  0.96005465  0.16480378  0.30274311  1
  Cu  Cu33  1  0.22086179  0.17612417  0.80003161  1
  Cu  Cu34  1  0.95526239  0.77913821  0.80003161  1
  Cu  Cu35  1  0.82387583  0.04473761  0.80003161  1
  Cu  Cu36  1  0.80521683  0.97787904  0.69289672  1
  Cu  Cu37  1  0.17266221  0.19478317  0.69289672  1
  Cu  Cu38  1  0.02212096  0.82733779  0.69289672  1
  Cu  Cu39  1  0.80631255  0.82937261  0.19516124  1
  Cu  Cu40  1  0.02306006  0.19368745  0.19516124  1
  Cu  Cu41  1  0.17062739  0.97693994  0.19516124  1
  Cu  Cu42  1  0.86035445  0.35639306  0.63817176  1
  Cu  Cu43  1  0.49603961  0.13964555  0.63817176  1
  Cu  Cu44  1  0.64360694  0.50396039  0.63817176  1
  Cu  Cu45  1  0.86145017  0.50599521  0.14043628  1
  Cu  Cu46  1  0.64454604  0.13854983  0.14043628  1
  Cu  Cu47  1  0.49400479  0.35545396  0.14043628  1
  Cu  Cu48  1  0.44580521  0.28859539  0.03330139  1
  Cu  Cu49  1  0.84279117  0.55419479  0.03330139  1
  Cu  Cu50  1  0.71140461  0.15720883  0.03330139  1
  Cu  Cu51  1  0.46191787  0.16852922  0.53058989  1
  Cu  Cu52  1  0.70661235  0.53808213  0.53058989  1
  Cu  Cu53  1  0.83147078  0.29338765  0.53058989  1
  Cu  Cu54  1  0.54117686  0.69548282  0.97086617  1
  Cu  Cu55  1  0.15430496  0.45882314  0.97086617  1
  Cu  Cu56  1  0.30451718  0.84569504  0.97086617  1
  Cu  Cu57  1  0.55623669  0.85101251  0.47006141  1
  Cu  Cu58  1  0.29477482  0.44376331  0.47006141  1
  Cu  Cu59  1  0.14898749  0.70522518  0.47006141  1
  Cu  Cu60  1  0.11042931  0.62810882  0.36327259  1
  Cu  Cu61  1  0.51767851  0.88957069  0.36327259  1
  Cu  Cu62  1  0.37189118  0.48232149  0.36327259  1
  Cu  Cu63  1  0.12548914  0.48763896  0.86246783  1
  Cu  Cu64  1  0.36214882  0.87451086  0.86246783  1
  Cu  Cu65  1  0.51236104  0.63785118  0.86246783  1
  Cu  Cu66  1  0.01229255  0.82716810  0.40479114  1
  Cu  Cu67  1  0.81487554  0.98770745  0.40479114  1
  Cu  Cu68  1  0.17283190  0.18512446  0.40479114  1
  Cu  Cu69  1  0.02543797  0.19765274  0.90988535  1
  Cu  Cu70  1  0.17221477  0.97456203  0.90988535  1
  Cu  Cu71  1  0.80234726  0.82778523  0.90988535  1
  Cu  Cu72  1  0.96237789  0.16221116  0.59425331  1
  Cu  Cu73  1  0.19983327  0.03762211  0.59425331  1
  Cu  Cu74  1  0.83778884  0.80016673  0.59425331  1
  Cu  Cu75  1  0.97084918  0.80772627  0.09824924  1
  Cu  Cu76  1  0.83687709  0.02915082  0.09824924  1
  Cu  Cu77  1  0.19227373  0.16312291  0.09824924  1
  Cu  Cu78  1  0.69581782  0.17021009  0.73508376  1
  Cu  Cu79  1  0.47439327  0.30418218  0.73508376  1
  Cu  Cu80  1  0.82978991  0.52560673  0.73508376  1
  Cu  Cu81  1  0.70428911  0.53316627  0.23907969  1
  Cu  Cu82  1  0.82887816  0.29571089  0.23907969  1
  Cu  Cu83  1  0.46683373  0.17112184  0.23907969  1
  Cu  Cu84  1  0.64122903  0.50554777  0.92344765  1
  Cu  Cu85  1  0.86431974  0.35877097  0.92344765  1
  Cu  Cu86  1  0.49445223  0.13568026  0.92344765  1
  Cu  Cu87  1  0.65437445  0.14820854  0.42854186  1
  Cu  Cu88  1  0.49383510  0.34562555  0.42854186  1
  Cu  Cu89  1  0.85179146  0.50616490  0.42854186  1
  Cu  Cu90  1  0.35523431  0.48469992  0.08194353  1
  Cu  Cu91  1  0.12946460  0.64476569  0.08194353  1
  Cu  Cu92  1  0.51530008  0.87053540  0.08194353  1
  Cu  Cu93  1  0.36112858  0.87620330  0.57754771  1
  Cu  Cu94  1  0.51507373  0.63887142  0.57754771  1
  Cu  Cu95  1  0.12379670  0.48492627  0.57754771  1
  Cu  Cu96  1  0.30553742  0.84840773  0.25578629  1
  Cu  Cu97  1  0.54286930  0.69446258  0.25578629  1
  Cu  Cu98  1  0.15159227  0.45713070  0.25578629  1
  Cu  Cu99  1  0.31143169  0.46279860  0.75139047  1
  Cu  Cu100  1  0.15136592  0.68856831  0.75139047  1
  Cu  Cu101  1  0.53720140  0.84863408  0.75139047  1
