# generated using pymatgen
data_Cu3Ni4C31
_symmetry_space_group_name_H-M   'P 1'
_cell_length_a   9.41996677
_cell_length_b   9.41544007
_cell_length_c   23.77172583
_cell_angle_alpha   89.96899577
_cell_angle_beta   90.14481166
_cell_angle_gamma   120.03743989
_symmetry_Int_Tables_number   1
_chemical_formula_structural   Cu3Ni4C31
_chemical_formula_sum   'Cu9 Ni12 C93'
_cell_volume   1825.22256841
_cell_formula_units_Z   3
loop_
 _symmetry_equiv_pos_site_id
 _symmetry_equiv_pos_as_xyz
  1  'x, y, z'
loop_
 _atom_site_type_symbol
 _atom_site_label
 _atom_site_symmetry_multiplicity
 _atom_site_fract_x
 _atom_site_fract_y
 _atom_site_fract_z
 _atom_site_occupancy
  Ni  Ni0  1  0.63861539  0.99724425  0.25356281  1
  Ni  Ni1  1  0.36332637  0.36308762  0.25242227  1
  Ni  Ni2  1  0.99783800  0.63925001  0.25162116  1
  Ni  Ni3  1  0.29858424  0.33764851  0.58341661  1
  Ni  Ni4  1  0.03694758  0.69592123  0.58406352  1
  Ni  Ni5  1  0.66084441  0.70506949  0.07466299  1
  Ni  Ni6  1  0.98792639  0.00101001  0.49887476  1
  Ni  Ni7  1  0.01363480  0.01534992  0.99726767  1
  Ni  Ni8  1  0.66659015  0.33470900  0.83174518  1
  Ni  Ni9  1  0.66655305  0.33312220  0.33920090  1
  Ni  Ni10  1  0.31977308  0.66897241  0.16376846  1
  Ni  Ni11  1  0.35105811  0.68537554  0.67498438  1
  Cu  Cu12  1  0.00111419  0.99810055  0.35490678  1
  Cu  Cu13  1  0.99947363  0.99694975  0.85268279  1
  Cu  Cu14  1  0.98787849  0.00022257  0.65763528  1
  Cu  Cu15  1  0.01179559  0.01156314  0.14223138  1
  Cu  Cu16  1  0.66640798  0.32680906  0.69086635  1
  Cu  Cu17  1  0.66622524  0.32608863  0.17710137  1
  Cu  Cu18  1  0.32139517  0.66535017  0.01286309  1
  Cu  Cu19  1  0.34479476  0.67802966  0.51429070  1
  Cu  Cu20  1  0.33497348  0.66761342  0.33047352  1
  C  C21  1  0.66696108  0.32984087  0.97735743  1
  C  C22  1  0.66649430  0.32909502  0.48340833  1
  C  C23  1  0.33033052  0.66428506  0.82016002  1
  C  C24  1  0.30257338  0.99418099  0.25050667  1
  C  C25  1  0.69336885  0.69878232  0.24646380  1
  C  C26  1  0.00690226  0.30833977  0.25089584  1
  C  C27  1  0.30116919  0.32047048  0.75252957  1
  C  C28  1  0.01899205  0.69770055  0.75195388  1
  C  C29  1  0.67684225  0.97949429  0.75645413  1
  C  C30  1  0.95583025  0.32816810  0.58004706  1
  C  C31  1  0.36812642  0.04741145  0.58079656  1
  C  C32  1  0.67420186  0.62073351  0.58117575  1
  C  C33  1  0.95040696  0.62673935  0.07812990  1
  C  C34  1  0.67432502  0.04042784  0.07649318  1
  C  C35  1  0.37735862  0.33024765  0.07649956  1
  C  C36  1  0.61829915  0.64574489  0.91975860  1
  C  C37  1  0.02402474  0.37740963  0.91654559  1
  C  C38  1  0.35499818  0.97523803  0.91648711  1
  C  C39  1  0.64855018  0.99583522  0.41647699  1
  C  C40  1  0.34734678  0.35430861  0.42156622  1
  C  C41  1  0.00650185  0.65115871  0.42137986  1
  C  C42  1  0.21799202  0.01546124  0.30210355  1
  C  C43  1  0.80604226  0.79052823  0.29646331  1
  C  C44  1  0.98749278  0.20238569  0.30234675  1
  C  C45  1  0.20366067  0.19964865  0.79836657  1
  C  C46  1  0.99482903  0.79394642  0.79815215  1
  C  C47  1  0.79286030  0.00473996  0.80412850  1
  C  C48  1  0.74145432  0.95017216  0.69993264  1
  C  C49  1  0.21144711  0.26253920  0.69456470  1
  C  C50  1  0.04687494  0.78682342  0.69413727  1
  C  C51  1  0.77172757  0.79472882  0.19127616  1
  C  C52  1  0.02529071  0.22459629  0.19746577  1
  C  C53  1  0.20067724  0.97741848  0.19712049  1
  C  C54  1  0.87666035  0.34612517  0.63330565  1
  C  C55  1  0.46252980  0.12593906  0.63450447  1
  C  C56  1  0.65884966  0.52573544  0.63489109  1
  C  C57  1  0.87808042  0.55087835  0.13597053  1
  C  C58  1  0.67030421  0.11159187  0.13440875  1
  C  C59  1  0.45051971  0.33095015  0.13480640  1
  C  C60  1  0.49415648  0.32663788  0.02862574  1
  C  C61  1  0.83657907  0.50531715  0.02947542  1
  C  C62  1  0.67078228  0.15608544  0.02812697  1
  C  C63  1  0.48176163  0.15465060  0.52960096  1
  C  C64  1  0.67800451  0.51175714  0.53014395  1
  C  C65  1  0.84270749  0.32102195  0.52876530  1
  C  C66  1  0.55670989  0.67097041  0.97613706  1
  C  C67  1  0.11612876  0.44116567  0.97157265  1
  C  C68  1  0.32992678  0.88488444  0.97156515  1
  C  C69  1  0.54729442  0.87446923  0.46261658  1
  C  C70  1  0.32923098  0.44682456  0.47156945  1
  C  C71  1  0.11726998  0.66928732  0.47138941  1
  C  C72  1  0.07875629  0.62933264  0.36528399  1
  C  C73  1  0.56132536  0.93284189  0.35873827  1
  C  C74  1  0.37240586  0.45002639  0.36548740  1
  C  C75  1  0.12870913  0.50202069  0.86781127  1
  C  C76  1  0.37020018  0.86899245  0.86755509  1
  C  C77  1  0.49201749  0.62767822  0.87166143  1
  C  C78  1  0.97582347  0.79585165  0.41995047  1
  C  C79  1  0.82326024  0.02612551  0.41827614  1
  C  C80  1  0.20178177  0.17980616  0.41963647  1
  C  C81  1  0.98966363  0.20485760  0.90618394  1
  C  C82  1  0.21761383  0.01190898  0.90710804  1
  C  C83  1  0.79081837  0.78405334  0.90862435  1
  C  C84  1  0.97600655  0.17495703  0.57972256  1
  C  C85  1  0.20473187  0.05094055  0.57835123  1
  C  C86  1  0.83741405  0.78681781  0.57967295  1
  C  C87  1  0.94292684  0.78667000  0.07108602  1
  C  C88  1  0.83189223  0.02951806  0.07017237  1
  C  C89  1  0.20782594  0.17709698  0.06952379  1
  C  C90  1  0.64036656  0.12053900  0.75345646  1
  C  C91  1  0.47863721  0.35601440  0.75096576  1
  C  C92  1  0.87752602  0.51975651  0.75101314  1
  C  C93  1  0.66962383  0.52248402  0.24632110  1
  C  C94  1  0.85384889  0.33044727  0.24841849  1
  C  C95  1  0.47839510  0.14639847  0.24840957  1
  C  C96  1  0.62629299  0.47915434  0.92477597  1
  C  C97  1  0.85216030  0.37263577  0.92290088  1
  C  C98  1  0.52230840  0.14795177  0.92243410  1
  C  C99  1  0.65471850  0.16334570  0.42816485  1
  C  C100  1  0.50822078  0.34374418  0.43034283  1
  C  C101  1  0.83548738  0.48940680  0.42963943  1
  C  C102  1  0.37704146  0.49347312  0.07409249  1
  C  C103  1  0.12410542  0.65351747  0.07698189  1
  C  C104  1  0.52510458  0.86539717  0.07509018  1
  C  C105  1  0.32907479  0.86742232  0.57709424  1
  C  C106  1  0.51893200  0.63556592  0.57620658  1
  C  C107  1  0.12790197  0.48425240  0.57487086  1
  C  C108  1  0.31599934  0.83576849  0.25457908  1
  C  C109  1  0.52135269  0.68404598  0.25336939  1
  C  C110  1  0.16376889  0.48179369  0.25510986  1
  C  C111  1  0.30889515  0.49063594  0.76814739  1
  C  C112  1  0.18263998  0.69192524  0.76689439  1
  C  C113  1  0.50722629  0.81504716  0.76861287  1
