# generated using pymatgen
data_Cu9(NiC33)2
_symmetry_space_group_name_H-M   'P 1'
_cell_length_a   10.61324047
_cell_length_b   10.61324047
_cell_length_c   21.49502200
_cell_angle_alpha   90.00000000
_cell_angle_beta   90.00000000
_cell_angle_gamma   120.00000293
_symmetry_Int_Tables_number   1
_chemical_formula_structural   Cu9(NiC33)2
_chemical_formula_sum   'Cu18 Ni4 C132'
_cell_volume   2096.83627693
_cell_formula_units_Z   2
loop_
 _symmetry_equiv_pos_site_id
 _symmetry_equiv_pos_as_xyz
  1  'x, y, z'
loop_
 _atom_site_type_symbol
 _atom_site_label
 _atom_site_symmetry_multiplicity
 _atom_site_fract_x
 _atom_site_fract_y
 _atom_site_fract_z
 _atom_site_occupancy
  C  C0  1  0.00000000  0.00000000  0.00000000  1
  C  C1  1  0.00000000  0.00000000  0.50000000  1
  C  C2  1  0.50000000  0.00000000  0.00000000  1
  C  C3  1  0.50000000  0.50000000  0.50000000  1
  C  C4  1  0.00000000  0.50000000  0.50000000  1
  C  C5  1  0.00000000  0.50000000  0.00000000  1
  C  C6  1  0.50000000  0.50000000  0.00000000  1
  C  C7  1  0.50000000  0.00000000  0.50000000  1
  C  C8  1  0.66666700  0.33333300  0.37518700  1
  C  C9  1  0.33333300  0.66666700  0.87518700  1
  C  C10  1  0.33333300  0.66666700  0.62481300  1
  C  C11  1  0.66666700  0.33333300  0.12481300  1
  C  C12  1  0.00000000  0.00000000  0.32637500  1
  C  C13  1  0.00000000  0.00000000  0.82637500  1
  C  C14  1  0.00000000  0.00000000  0.67362500  1
  C  C15  1  0.00000000  0.00000000  0.17362500  1
  C  C16  1  0.34916400  0.14792400  0.25000000  1
  C  C17  1  0.20124100  0.34916400  0.75000000  1
  C  C18  1  0.14792400  0.79875900  0.75000000  1
  C  C19  1  0.85207600  0.20124100  0.25000000  1
  C  C20  1  0.79875900  0.65083600  0.25000000  1
  C  C21  1  0.65083600  0.85207600  0.75000000  1
  C  C22  1  0.17849100  0.36112300  0.42586500  1
  C  C23  1  0.81736800  0.17849100  0.92586500  1
  C  C24  1  0.36112300  0.18263200  0.92586500  1
  C  C25  1  0.63887700  0.81736800  0.42586500  1
  C  C26  1  0.18263200  0.82150900  0.42586500  1
  C  C27  1  0.82150900  0.63887700  0.92586500  1
  C  C28  1  0.82150900  0.63887700  0.57413500  1
  C  C29  1  0.18263200  0.82150900  0.07413500  1
  C  C30  1  0.63887700  0.81736800  0.07413500  1
  C  C31  1  0.36112300  0.18263200  0.57413500  1
  C  C32  1  0.81736800  0.17849100  0.57413500  1
  C  C33  1  0.17849100  0.36112300  0.07413500  1
  C  C34  1  0.52208900  0.05411500  0.66092500  1
  C  C35  1  0.46797400  0.52208900  0.16092500  1
  C  C36  1  0.05411500  0.53202600  0.16092500  1
  C  C37  1  0.94588500  0.46797400  0.66092500  1
  C  C38  1  0.53202600  0.47791100  0.66092500  1
  C  C39  1  0.47791100  0.94588500  0.16092500  1
  C  C40  1  0.47791100  0.94588500  0.33907500  1
  C  C41  1  0.53202600  0.47791100  0.83907500  1
  C  C42  1  0.94588500  0.46797400  0.83907500  1
  C  C43  1  0.05411500  0.53202600  0.33907500  1
  C  C44  1  0.46797400  0.52208900  0.33907500  1
  C  C45  1  0.52208900  0.05411500  0.83907500  1
  Ni  Ni46  1  0.66666700  0.33333300  0.56975400  1
  Ni  Ni47  1  0.33333300  0.66666700  0.06975400  1
  Ni  Ni48  1  0.33333300  0.66666700  0.43024600  1
  Ni  Ni49  1  0.66666700  0.33333300  0.93024600  1
  Cu  Cu50  1  0.20897100  0.35757700  0.25000000  1
  Cu  Cu51  1  0.85139400  0.20897100  0.75000000  1
  Cu  Cu52  1  0.35757700  0.14860600  0.75000000  1
  Cu  Cu53  1  0.64242300  0.85139400  0.25000000  1
  Cu  Cu54  1  0.14860600  0.79102900  0.25000000  1
  Cu  Cu55  1  0.79102900  0.64242300  0.75000000  1
  Cu  Cu56  1  0.33965100  0.16859500  0.40887200  1
  Cu  Cu57  1  0.17105600  0.33965100  0.90887200  1
  Cu  Cu58  1  0.16859500  0.82894400  0.90887200  1
  Cu  Cu59  1  0.83140500  0.17105600  0.40887200  1
  Cu  Cu60  1  0.82894400  0.66034900  0.40887200  1
  Cu  Cu61  1  0.66034900  0.83140500  0.90887200  1
  Cu  Cu62  1  0.66034900  0.83140500  0.59112800  1
  Cu  Cu63  1  0.82894400  0.66034900  0.09112800  1
  Cu  Cu64  1  0.83140500  0.17105600  0.09112800  1
  Cu  Cu65  1  0.16859500  0.82894400  0.59112800  1
  Cu  Cu66  1  0.17105600  0.33965100  0.59112800  1
  Cu  Cu67  1  0.33965100  0.16859500  0.09112800  1
  C  C68  1  0.66666700  0.33333300  0.25000000  1
  C  C69  1  0.33333300  0.66666700  0.75000000  1
  C  C70  1  0.59565100  0.40387600  0.56995300  1
  C  C71  1  0.19177500  0.59565100  0.06995300  1
  C  C72  1  0.40387600  0.80822500  0.06995300  1
  C  C73  1  0.59612400  0.19177500  0.56995300  1
  C  C74  1  0.80822500  0.40434900  0.56995300  1
  C  C75  1  0.40434900  0.59612400  0.06995300  1
  C  C76  1  0.40434900  0.59612400  0.43004700  1
  C  C77  1  0.80822500  0.40434900  0.93004700  1
  C  C78  1  0.59612400  0.19177500  0.93004700  1
  C  C79  1  0.40387600  0.80822500  0.43004700  1
  C  C80  1  0.19177500  0.59565100  0.43004700  1
  C  C81  1  0.59565100  0.40387600  0.93004700  1
  C  C82  1  0.35574800  0.36722600  0.25000000  1
  C  C83  1  0.98852200  0.35574800  0.75000000  1
  C  C84  1  0.36722600  0.01147800  0.75000000  1
  C  C85  1  0.63277400  0.98852200  0.25000000  1
  C  C86  1  0.01147800  0.64425200  0.25000000  1
  C  C87  1  0.64425200  0.63277400  0.75000000  1
  C  C88  1  0.09073400  0.20105000  0.25000000  1
  C  C89  1  0.88968400  0.09073400  0.75000000  1
  C  C90  1  0.20105000  0.11031600  0.75000000  1
  C  C91  1  0.79895000  0.88968400  0.25000000  1
  C  C92  1  0.11031600  0.90926600  0.25000000  1
  C  C93  1  0.90926600  0.79895000  0.75000000  1
  C  C94  1  0.19889600  0.43124800  0.30712900  1
  C  C95  1  0.76764800  0.19889600  0.80712900  1
  C  C96  1  0.43124800  0.23235200  0.80712900  1
  C  C97  1  0.56875200  0.76764800  0.30712900  1
  C  C98  1  0.23235200  0.80110400  0.30712900  1
  C  C99  1  0.80110400  0.56875200  0.80712900  1
  C  C100  1  0.80110400  0.56875200  0.69287100  1
  C  C101  1  0.23235200  0.80110400  0.19287100  1
  C  C102  1  0.56875200  0.76764800  0.19287100  1
  C  C103  1  0.43124800  0.23235200  0.69287100  1
  C  C104  1  0.76764800  0.19889600  0.69287100  1
  C  C105  1  0.19889600  0.43124800  0.19287100  1
  C  C106  1  0.38987300  0.11362200  0.35595000  1
  C  C107  1  0.27625200  0.38987300  0.85595000  1
  C  C108  1  0.11362200  0.72374800  0.85595000  1
  C  C109  1  0.88637800  0.27625200  0.35595000  1
  C  C110  1  0.72374800  0.61012700  0.35595000  1
  C  C111  1  0.61012700  0.88637800  0.85595000  1
  C  C112  1  0.61012700  0.88637800  0.64405000  1
  C  C113  1  0.72374800  0.61012700  0.14405000  1
  C  C114  1  0.88637800  0.27625200  0.14405000  1
  C  C115  1  0.11362200  0.72374800  0.64405000  1
  C  C116  1  0.27625200  0.38987300  0.64405000  1
  C  C117  1  0.38987300  0.11362200  0.14405000  1
  C  C118  1  0.19610000  0.15557400  0.39431500  1
  C  C119  1  0.04052500  0.19610000  0.89431500  1
  C  C120  1  0.15557400  0.95947500  0.89431500  1
  C  C121  1  0.84442600  0.04052500  0.39431500  1
  C  C122  1  0.95947500  0.80390000  0.39431500  1
  C  C123  1  0.80390000  0.84442600  0.89431500  1
  C  C124  1  0.80390000  0.84442600  0.60568500  1
  C  C125  1  0.95947500  0.80390000  0.10568500  1
  C  C126  1  0.84442600  0.04052500  0.10568500  1
  C  C127  1  0.15557400  0.95947500  0.60568500  1
  C  C128  1  0.04052500  0.19610000  0.60568500  1
  C  C129  1  0.19610000  0.15557400  0.10568500  1
  C  C130  1  0.45027500  0.32524200  0.41940900  1
  C  C131  1  0.12503400  0.45027500  0.91940900  1
  C  C132  1  0.32524200  0.87496600  0.91940900  1
  C  C133  1  0.67475800  0.12503400  0.41940900  1
  C  C134  1  0.87496600  0.54972500  0.41940900  1
  C  C135  1  0.54972500  0.67475800  0.91940900  1
  C  C136  1  0.54972500  0.67475800  0.58059100  1
  C  C137  1  0.87496600  0.54972500  0.08059100  1
  C  C138  1  0.67475800  0.12503400  0.08059100  1
  C  C139  1  0.32524200  0.87496600  0.58059100  1
  C  C140  1  0.12503400  0.45027500  0.58059100  1
  C  C141  1  0.45027500  0.32524200  0.08059100  1
  C  C142  1  0.32359700  0.07973400  0.46566300  1
  C  C143  1  0.24386300  0.32359700  0.96566300  1
  C  C144  1  0.07973400  0.75613700  0.96566300  1
  C  C145  1  0.92026600  0.24386300  0.46566300  1
  C  C146  1  0.75613700  0.67640300  0.46566300  1
  C  C147  1  0.67640300  0.92026600  0.96566300  1
  C  C148  1  0.67640300  0.92026600  0.53433700  1
  C  C149  1  0.75613700  0.67640300  0.03433700  1
  C  C150  1  0.92026600  0.24386300  0.03433700  1
  C  C151  1  0.07973400  0.75613700  0.53433700  1
  C  C152  1  0.24386300  0.32359700  0.53433700  1
  C  C153  1  0.32359700  0.07973400  0.03433700  1
