# generated using pymatgen
data_Cu2NiC12
_symmetry_space_group_name_H-M   'P 1'
_cell_length_a   4.08268905
_cell_length_b   6.63088222
_cell_length_c   6.63084772
_cell_angle_alpha   89.55116510
_cell_angle_beta   93.39122300
_cell_angle_gamma   93.15586066
_symmetry_Int_Tables_number   1
_chemical_formula_structural   Cu2NiC12
_chemical_formula_sum   'Cu2 Ni1 C12'
_cell_volume   178.92120468
_cell_formula_units_Z   1
loop_
 _symmetry_equiv_pos_site_id
 _symmetry_equiv_pos_as_xyz
  1  'x, y, z'
loop_
 _atom_site_type_symbol
 _atom_site_label
 _atom_site_symmetry_multiplicity
 _atom_site_fract_x
 _atom_site_fract_y
 _atom_site_fract_z
 _atom_site_occupancy
  Ni  Ni0  1  0.00000000  0.00000000  0.00000000  1
  Cu  Cu1  1  0.35464300  0.74690200  0.74652000  1
  Cu  Cu2  1  0.64535700  0.25309800  0.25348000  1
  C  C3  1  0.49842200  0.74523000  0.25698000  1
  C  C4  1  0.50157800  0.25477000  0.74302000  1
  C  C5  1  0.72620800  0.25152900  0.93142500  1
  C  C6  1  0.69411300  0.56687600  0.25888100  1
  C  C7  1  0.19148800  0.21410000  0.21335300  1
  C  C8  1  0.80851200  0.78590000  0.78664700  1
  C  C9  1  0.72367800  0.93214400  0.24516700  1
  C  C10  1  0.69793000  0.24306500  0.56627200  1
  C  C11  1  0.30207000  0.75693500  0.43372800  1
  C  C12  1  0.27632200  0.06785600  0.75483300  1
  C  C13  1  0.30588700  0.43312400  0.74111900  1
  C  C14  1  0.27379200  0.74847100  0.06857500  1
