# generated using pymatgen
data_Cu4(NiC4)3
_symmetry_space_group_name_H-M   'P 1'
_cell_length_a   10.17538818
_cell_length_b   10.17538818
_cell_length_c   10.17538821
_cell_angle_alpha   41.95369771
_cell_angle_beta   41.95369771
_cell_angle_gamma   41.95369434
_symmetry_Int_Tables_number   1
_chemical_formula_structural   Cu4(NiC4)3
_chemical_formula_sum   'Cu8 Ni6 C24'
_cell_volume   425.88923546
_cell_formula_units_Z   2
loop_
 _symmetry_equiv_pos_site_id
 _symmetry_equiv_pos_as_xyz
  1  'x, y, z'
loop_
 _atom_site_type_symbol
 _atom_site_label
 _atom_site_symmetry_multiplicity
 _atom_site_fract_x
 _atom_site_fract_y
 _atom_site_fract_z
 _atom_site_occupancy
  C  C0  1  0.50000000  0.50000000  0.50000000  1
  C  C1  1  0.64716000  0.01662400  0.11532300  1
  C  C2  1  0.88467700  0.35284000  0.98337600  1
  C  C3  1  0.98337600  0.88467700  0.35284000  1
  C  C4  1  0.35284000  0.98337600  0.88467700  1
  C  C5  1  0.11532300  0.64716000  0.01662400  1
  C  C6  1  0.01662400  0.11532300  0.64716000  1
  C  C7  1  0.73866100  0.06110200  0.35887600  1
  C  C8  1  0.56786400  0.17079400  0.19314000  1
  C  C9  1  0.17079400  0.19314000  0.56786400  1
  C  C10  1  0.19314000  0.56786400  0.17079400  1
  C  C11  1  0.43213600  0.82920600  0.80686000  1
  C  C12  1  0.06110200  0.35887600  0.73866100  1
  C  C13  1  0.80686000  0.43213600  0.82920600  1
  C  C14  1  0.64112400  0.26133900  0.93889800  1
  C  C15  1  0.26133900  0.93889800  0.64112400  1
  C  C16  1  0.93889800  0.64112400  0.26133900  1
  C  C17  1  0.35887600  0.73866100  0.06110200  1
  C  C18  1  0.82920600  0.80686000  0.43213600  1
  C  C19  1  0.00000000  0.00000000  0.00000000  1
  Ni  Ni20  1  0.93069000  0.32118900  0.87602500  1
  Ni  Ni21  1  0.67881100  0.12397500  0.06931000  1
  Ni  Ni22  1  0.87602500  0.93069000  0.32118900  1
  Ni  Ni23  1  0.32118900  0.87602500  0.93069000  1
  Ni  Ni24  1  0.06931000  0.67881100  0.12397500  1
  Ni  Ni25  1  0.12397500  0.06931000  0.67881100  1
  C  C26  1  0.81393400  0.81393400  0.81393400  1
  C  C27  1  0.18606600  0.18606600  0.18606600  1
  C  C28  1  0.62684900  0.62684900  0.62684900  1
  C  C29  1  0.37315100  0.37315100  0.37315100  1
  Cu  Cu30  1  0.66310700  0.01266800  0.71248600  1
  Cu  Cu31  1  0.71248600  0.66310700  0.01266800  1
  Cu  Cu32  1  0.01266800  0.71248600  0.66310700  1
  Cu  Cu33  1  0.33689300  0.98733200  0.28751400  1
  Cu  Cu34  1  0.86646100  0.86646100  0.86646100  1
  Cu  Cu35  1  0.98733200  0.28751400  0.33689300  1
  Cu  Cu36  1  0.28751400  0.33689300  0.98733200  1
  Cu  Cu37  1  0.13353900  0.13353900  0.13353900  1
