# generated using pymatgen
data_CuNiC16
_symmetry_space_group_name_H-M   'P 1'
_cell_length_a   5.47765375
_cell_length_b   11.00661345
_cell_length_c   9.65643813
_cell_angle_alpha   28.62104798
_cell_angle_beta   52.15790476
_cell_angle_gamma   57.51017168
_symmetry_Int_Tables_number   1
_chemical_formula_structural   CuNiC16
_chemical_formula_sum   'Cu1 Ni1 C16'
_cell_volume   220.22951969
_cell_formula_units_Z   1
loop_
 _symmetry_equiv_pos_site_id
 _symmetry_equiv_pos_as_xyz
  1  'x, y, z'
loop_
 _atom_site_type_symbol
 _atom_site_label
 _atom_site_symmetry_multiplicity
 _atom_site_fract_x
 _atom_site_fract_y
 _atom_site_fract_z
 _atom_site_occupancy
  Ni  Ni0  1  0.69307900  0.50289700  0.69480200  1
  Cu  Cu1  1  0.27328200  0.00081500  0.27056900  1
  C  C2  1  0.01167400  0.00042200  0.97155600  1
  C  C3  1  0.95736100  0.49866000  0.00401400  1
  C  C4  1  0.47978700  0.99472900  0.50361200  1
  C  C5  1  0.48970100  0.50705300  0.46692400  1
  C  C6  1  0.35302400  0.29549100  0.11987100  1
  C  C7  1  0.23025500  0.13027000  0.60506800  1
  C  C8  1  0.10502500  0.31295200  0.74425700  1
  C  C9  1  0.85908900  0.19176400  0.22653300  1
  C  C10  1  0.36713000  0.83173700  0.10360200  1
  C  C11  1  0.73716800  0.36774300  0.37139300  1
  C  C12  1  0.25675200  0.60782800  0.62952500  1
  C  C13  1  0.62133100  0.21021200  0.84834100  1
  C  C14  1  0.12669200  0.82445800  0.69504100  1
  C  C15  1  0.84458400  0.67587100  0.27634200  1
  C  C16  1  0.72753400  0.87996500  0.35522800  1
  C  C17  1  0.60440500  0.67308900  0.86706900  1
