# generated using pymatgen
data_CuNi5C36
_symmetry_space_group_name_H-M   'P 1'
_cell_length_a   9.24232883
_cell_length_b   9.24083961
_cell_length_c   22.44322873
_cell_angle_alpha   89.69863004
_cell_angle_beta   90.40389404
_cell_angle_gamma   119.95009157
_symmetry_Int_Tables_number   1
_chemical_formula_structural   CuNi5C36
_chemical_formula_sum   'Cu3 Ni15 C108'
_cell_volume   1660.79236789
_cell_formula_units_Z   3
loop_
 _symmetry_equiv_pos_site_id
 _symmetry_equiv_pos_as_xyz
  1  'x, y, z'
loop_
 _atom_site_type_symbol
 _atom_site_label
 _atom_site_symmetry_multiplicity
 _atom_site_fract_x
 _atom_site_fract_y
 _atom_site_fract_z
 _atom_site_occupancy
  C  C0  1  0.64892766  0.03009354  0.24550253  1
  C  C1  1  0.36876202  0.36117198  0.23806247  1
  C  C2  1  0.97893307  0.60597713  0.24091788  1
  C  C3  1  0.63215321  0.61362790  0.74522842  1
  C  C4  1  0.98232016  0.36571046  0.75160605  1
  C  C5  1  0.38630122  0.01524872  0.74551368  1
  C  C6  1  0.32554761  0.33697776  0.59172395  1
  C  C7  1  0.03162801  0.70656736  0.58272611  1
  C  C8  1  0.65554418  0.96501213  0.59529865  1
  C  C9  1  0.31125339  0.97156602  0.07724949  1
  C  C10  1  0.66501027  0.68991218  0.07707312  1
  C  C11  1  0.02810134  0.34388699  0.07954742  1
  C  C12  1  0.96588424  0.66493405  0.91342847  1
  C  C13  1  0.69946434  0.03457200  0.91258008  1
  C  C14  1  0.33446202  0.30036174  0.91279125  1
  C  C15  1  0.96400480  0.28515887  0.40901299  1
  C  C16  1  0.31471018  0.02810178  0.41813694  1
  C  C17  1  0.71658092  0.68403215  0.41782154  1
  C  C18  1  0.00148448  0.99215459  0.49343048  1
  C  C19  1  0.00108072  0.99928988  0.99432146  1
  C  C20  1  0.66757930  0.33281585  0.82432667  1
  C  C21  1  0.68339779  0.33128319  0.33110397  1
  C  C22  1  0.32550698  0.65836621  0.15959000  1
  C  C23  1  0.34491843  0.67688195  0.67191216  1
  C  C24  1  0.99733560  0.99657116  0.85174786  1
  C  C25  1  0.00175604  0.99362619  0.64948551  1
  C  C26  1  0.00405622  0.01281705  0.14492623  1
  C  C27  1  0.66895753  0.33472252  0.98193686  1
  C  C28  1  0.65846967  0.33634190  0.47888368  1
  C  C29  1  0.33398928  0.66520067  0.01749736  1
  C  C30  1  0.33886614  0.67381496  0.51710220  1
  C  C31  1  0.32667714  0.66003519  0.31747946  1
  C  C32  1  0.33427081  0.66750099  0.81314309  1
  C  C33  1  0.99658629  0.01295060  0.35879480  1
  C  C34  1  0.64283154  0.32728021  0.68826809  1
  C  C35  1  0.68196926  0.33115336  0.16630427  1
  Ni  Ni36  1  0.99971812  0.29843951  0.25349880  1
  Ni  Ni37  1  0.29025260  0.29540040  0.75038295  1
  Ni  Ni38  1  0.99966701  0.70105179  0.75046472  1
  Ni  Ni39  1  0.70469728  0.00010885  0.74905565  1
  Ni  Ni40  1  0.37147076  0.03714500  0.58484283  1
  Ni  Ni41  1  0.66616181  0.62958166  0.58515585  1
  Ni  Ni42  1  0.96700574  0.63252575  0.08610092  1
  Ni  Ni43  1  0.66211042  0.03415268  0.08663385  1
  Ni  Ni44  1  0.37932827  0.33661887  0.08737361  1
  Ni  Ni45  1  0.62835346  0.66553443  0.91718019  1
  Ni  Ni46  1  0.03781308  0.37083605  0.91656318  1
  Ni  Ni47  1  0.33487821  0.96242769  0.91686839  1
  Ni  Ni48  1  0.62724177  0.96438626  0.41481869  1
  Ni  Ni49  1  0.33331041  0.37235675  0.41778512  1
  Ni  Ni50  1  0.03486853  0.66481917  0.41624057  1
  Cu  Cu51  1  0.28998464  0.99378745  0.25313119  1
  Cu  Cu52  1  0.70424566  0.71041108  0.25258008  1
  Cu  Cu53  1  0.96217614  0.33420372  0.58283843  1
  C  C54  1  0.20476314  0.00010044  0.30670865  1
  C  C55  1  0.80098050  0.78971221  0.30643668  1
  C  C56  1  0.97777333  0.18843852  0.31257070  1
  C  C57  1  0.19005589  0.18020656  0.80827504  1
  C  C58  1  0.97943720  0.79687585  0.80876676  1
  C  C59  1  0.81723300  0.01525238  0.80831514  1
  C  C60  1  0.79827833  0.97715355  0.68971477  1
  C  C61  1  0.17785983  0.20431737  0.68979070  1
  C  C62  1  0.02564573  0.82059010  0.69106436  1
  C  C63  1  0.79400493  0.81092660  0.19798835  1
  C  C64  1  0.02435872  0.20089001  0.19488432  1
  C  C65  1  0.18707015  0.97781563  0.19829871  1
  C  C66  1  0.89085393  0.35830299  0.63637059  1
  C  C67  1  0.48852260  0.11227007  0.64284135  1
  C  C68  1  0.63203280  0.51513302  0.64342688  1
  C  C69  1  0.89624639  0.52210407  0.14604446  1
  C  C70  1  0.62260527  0.10352679  0.14664332  1
  C  C71  1  0.48974188  0.36568851  0.14707443  1
  C  C72  1  0.46798309  0.30596826  0.02972238  1
  C  C73  1  0.84146600  0.54043033  0.02942614  1
  C  C74  1  0.69836902  0.16100102  0.03029657  1
  C  C75  1  0.46647778  0.15493755  0.52549569  1
  C  C76  1  0.69534001  0.53874011  0.52602953  1
  C  C77  1  0.85950153  0.31694956  0.52854982  1
  C  C78  1  0.53932246  0.69094436  0.97611780  1
  C  C79  1  0.15272096  0.45952654  0.97604778  1
  C  C80  1  0.30877892  0.84584423  0.97579313  1
  C  C81  1  0.52595823  0.84676550  0.47233413  1
  C  C82  1  0.31196483  0.46871061  0.47484610  1
  C  C83  1  0.15024344  0.68865539  0.47516182  1
  C  C84  1  0.12834922  0.63554892  0.35811845  1
  C  C85  1  0.50968209  0.87476801  0.35521627  1
  C  C86  1  0.36131327  0.49187271  0.35862696  1
  C  C87  1  0.12908979  0.49066630  0.85894859  1
  C  C88  1  0.36299122  0.87162469  0.85933427  1
  C  C89  1  0.50981818  0.63804532  0.85917125  1
  C  C90  1  0.01358747  0.82782084  0.41053295  1
  C  C91  1  0.80803300  0.97690635  0.41613443  1
  C  C92  1  0.17501354  0.18569084  0.41584968  1
  C  C93  1  0.01750106  0.18434506  0.91319955  1
  C  C94  1  0.16755697  0.98120570  0.91355109  1
  C  C95  1  0.81437598  0.83231373  0.91437394  1
  C  C96  1  0.97707810  0.17969396  0.58365337  1
  C  C97  1  0.18670751  0.02686948  0.58626604  1
  C  C98  1  0.83356077  0.81951354  0.58611077  1
  C  C99  1  0.98542582  0.81969436  0.09217334  1
  C  C100  1  0.83235596  0.01522998  0.09125220  1
  C  C101  1  0.19008910  0.16553862  0.09115579  1
  C  C102  1  0.68870864  0.16606241  0.74705871  1
  C  C103  1  0.47242227  0.31133620  0.75131324  1
  C  C104  1  0.83723558  0.51780453  0.74651251  1
  C  C105  1  0.67542506  0.53916288  0.24915810  1
  C  C106  1  0.83541758  0.32086859  0.24812935  1
  C  C107  1  0.45653297  0.14364861  0.24998834  1
  C  C108  1  0.64638137  0.49836471  0.92297856  1
  C  C109  1  0.85304339  0.35435543  0.92238066  1
  C  C110  1  0.50170381  0.14781534  0.92333407  1
  C  C111  1  0.64572534  0.15030518  0.42069171  1
  C  C112  1  0.50763255  0.36426641  0.42057286  1
  C  C113  1  0.85339567  0.49194583  0.42060428  1
  C  C114  1  0.34853754  0.49605282  0.07994606  1
  C  C115  1  0.15460442  0.65776148  0.07767437  1
  C  C116  1  0.50410966  0.84546071  0.07789104  1
  C  C117  1  0.33619776  0.84295054  0.57823921  1
  C  C118  1  0.49902163  0.65281205  0.57844283  1
  C  C119  1  0.13427148  0.48193387  0.57648466  1
  C  C120  1  0.30582752  0.83874130  0.25139669  1
  C  C121  1  0.53790141  0.70550447  0.25152009  1
  C  C122  1  0.17749045  0.48688924  0.25216459  1
  C  C123  1  0.30269921  0.47913540  0.75295099  1
  C  C124  1  0.17372718  0.69430419  0.75324563  1
  C  C125  1  0.52126274  0.82788500  0.75262618  1
