# generated using pymatgen
data_Cu2NiC5
_symmetry_space_group_name_H-M   'P 1'
_cell_length_a   3.97117600
_cell_length_b   11.08617700
_cell_length_c   11.19724900
_cell_angle_alpha   90.00000000
_cell_angle_beta   90.00000000
_cell_angle_gamma   90.00000000
_symmetry_Int_Tables_number   1
_chemical_formula_structural   Cu2NiC5
_chemical_formula_sum   'Cu8 Ni4 C20'
_cell_volume   492.96067917
_cell_formula_units_Z   4
loop_
 _symmetry_equiv_pos_site_id
 _symmetry_equiv_pos_as_xyz
  1  'x, y, z'
loop_
 _atom_site_type_symbol
 _atom_site_label
 _atom_site_symmetry_multiplicity
 _atom_site_fract_x
 _atom_site_fract_y
 _atom_site_fract_z
 _atom_site_occupancy
  Ni  Ni0  1  0.25000000  0.20221200  0.86431500  1
  Ni  Ni1  1  0.75000000  0.79778800  0.13568500  1
  Ni  Ni2  1  0.75000000  0.29778800  0.36431500  1
  Ni  Ni3  1  0.25000000  0.70221200  0.63568500  1
  Cu  Cu4  1  0.75000000  0.35907300  0.04888500  1
  Cu  Cu5  1  0.25000000  0.64092700  0.95111500  1
  Cu  Cu6  1  0.25000000  0.14092700  0.54888500  1
  Cu  Cu7  1  0.75000000  0.85907300  0.45111500  1
  Cu  Cu8  1  0.75000000  0.91788100  0.78052100  1
  Cu  Cu9  1  0.25000000  0.08211900  0.21947900  1
  Cu  Cu10  1  0.25000000  0.58211900  0.28052100  1
  Cu  Cu11  1  0.75000000  0.41788100  0.71947900  1
  C  C12  1  0.75000000  0.24085900  0.87220800  1
  C  C13  1  0.25000000  0.75914100  0.12779200  1
  C  C14  1  0.25000000  0.25914100  0.37220800  1
  C  C15  1  0.75000000  0.74085900  0.62779200  1
  C  C16  1  0.75000000  0.45005700  0.32146900  1
  C  C17  1  0.25000000  0.54994300  0.67853100  1
  C  C18  1  0.25000000  0.04994300  0.82146900  1
  C  C19  1  0.75000000  0.95005700  0.17853100  1
  C  C20  1  0.75000000  0.25323600  0.52031100  1
  C  C21  1  0.25000000  0.74676400  0.47968900  1
  C  C22  1  0.25000000  0.24676400  0.02031100  1
  C  C23  1  0.75000000  0.75323600  0.97968900  1
  C  C24  1  0.25000000  0.30309700  0.73647300  1
  C  C25  1  0.75000000  0.69690300  0.26352700  1
  C  C26  1  0.75000000  0.19690300  0.23647300  1
  C  C27  1  0.25000000  0.80309700  0.76352700  1
  C  C28  1  0.75000000  0.99635000  0.60094100  1
  C  C29  1  0.25000000  0.00365000  0.39905900  1
  C  C30  1  0.25000000  0.50365000  0.10094100  1
  C  C31  1  0.75000000  0.49635000  0.89905900  1
