# generated using pymatgen
data_Cu3Ni3C31
_symmetry_space_group_name_H-M   'P 1'
_cell_length_a   17.17558050
_cell_length_b   8.54688728
_cell_length_c   21.94049386
_cell_angle_alpha   89.79999143
_cell_angle_beta   90.43163632
_cell_angle_gamma   119.90040755
_symmetry_Int_Tables_number   1
_chemical_formula_structural   Cu3Ni3C31
_chemical_formula_sum   'Cu18 Ni18 C186'
_cell_volume   2792.02339691
_cell_formula_units_Z   6
loop_
 _symmetry_equiv_pos_site_id
 _symmetry_equiv_pos_as_xyz
  1  'x, y, z'
loop_
 _atom_site_type_symbol
 _atom_site_label
 _atom_site_symmetry_multiplicity
 _atom_site_fract_x
 _atom_site_fract_y
 _atom_site_fract_z
 _atom_site_occupancy
  C  C0  1  0.68877825  0.37796746  0.25150414  1
  C  C1  1  0.99715096  0.64463163  0.25297237  1
  C  C2  1  0.99734778  0.36414909  0.75244243  1
  C  C3  1  0.49473824  0.36277212  0.74922358  1
  C  C4  1  0.19131048  0.01130495  0.75466132  1
  C  C5  1  0.68807791  0.00905745  0.74911162  1
  C  C6  1  0.99737978  0.99874302  0.49496660  1
  C  C7  1  0.50554075  0.00179303  0.49926815  1
  C  C8  1  0.00738051  0.01154633  0.00022748  1
  C  C9  1  0.50093043  0.99300633  0.99850901  1
  C  C10  1  0.33213995  0.34010187  0.82853987  1
  C  C11  1  0.82829762  0.33054872  0.83138062  1
  C  C12  1  0.33358834  0.33273586  0.33166847  1
  C  C13  1  0.83411552  0.33271907  0.33558756  1
  C  C14  1  0.17267371  0.66980762  0.16600829  1
  C  C15  1  0.66304177  0.66850062  0.16874515  1
  C  C16  1  0.17725220  0.66651228  0.66765066  1
  C  C17  1  0.67173500  0.66486903  0.66533025  1
  C  C18  1  0.33294748  0.33420030  0.68892543  1
  C  C19  1  0.83060486  0.33005225  0.68669908  1
  C  C20  1  0.83336809  0.33526348  0.18566338  1
  Ni  Ni21  1  0.14868908  0.00485788  0.25353900  1
  Ni  Ni22  1  0.85712436  0.72625236  0.25024342  1
  Ni  Ni23  1  0.49700339  0.28221559  0.24948956  1
  Ni  Ni24  1  0.14468671  0.29302361  0.75033515  1
  Ni  Ni25  1  0.64739648  0.29718938  0.75284514  1
  Ni  Ni26  1  0.49780385  0.71194253  0.75086121  1
  Ni  Ni27  1  0.35624075  0.98684330  0.75400714  1
  Ni  Ni28  1  0.86001388  0.99424069  0.75293011  1
  Ni  Ni29  1  0.47249320  0.61515009  0.08455942  1
  Ni  Ni30  1  0.18631535  0.33457220  0.08681012  1
  Ni  Ni31  1  0.02227795  0.38259063  0.91639430  1
  Ni  Ni32  1  0.16828440  0.95367568  0.91816596  1
  Ni  Ni33  1  0.66250901  0.95376015  0.91562996  1
  Ni  Ni34  1  0.81080821  0.94825363  0.41415019  1
  Ni  Ni35  1  0.16644860  0.37958372  0.41501278  1
  Ni  Ni36  1  0.66487942  0.37939391  0.41779471  1
  Ni  Ni37  1  0.02307391  0.66521091  0.41880525  1
  Ni  Ni38  1  0.52386470  0.66903940  0.41296875  1
  C  C39  1  0.00352077  0.98975899  0.35956504  1
  C  C40  1  0.50440313  0.01263229  0.35725548  1
  C  C41  1  0.01308433  0.03096310  0.85795872  1
  C  C42  1  0.50732845  0.99662084  0.84852730  1
  C  C43  1  0.99466643  0.00678521  0.65053384  1
  C  C44  1  0.50110273  0.00745199  0.65805963  1
  C  C45  1  0.00862770  0.99762254  0.15260210  1
  C  C46  1  0.49702609  0.99296816  0.14749150  1
  C  C47  1  0.33313109  0.33454915  0.18825845  1
  C  C48  1  0.32075182  0.32945971  0.98445206  1
  C  C49  1  0.83328685  0.32218201  0.97399318  1
  C  C50  1  0.33653895  0.35260816  0.47510436  1
  C  C51  1  0.83144094  0.32804963  0.47035724  1
  C  C52  1  0.16066502  0.65049263  0.01773143  1
  C  C53  1  0.65499368  0.66967387  0.01977163  1
  C  C54  1  0.16223478  0.65603935  0.51516029  1
  C  C55  1  0.66653421  0.67462647  0.50786202  1
  C  C56  1  0.16118287  0.66271132  0.31774200  1
  C  C57  1  0.66774690  0.65755609  0.31576100  1
  C  C58  1  0.17052239  0.66711535  0.81617886  1
  C  C59  1  0.67050589  0.68207249  0.80851144  1
  Cu  Cu60  1  0.64194594  0.99334473  0.24910309  1
  Cu  Cu61  1  0.35543420  0.71380948  0.25141006  1
  Cu  Cu62  1  0.00221062  0.28788647  0.25040787  1
  Cu  Cu63  1  0.99926593  0.71848501  0.74982119  1
  Cu  Cu64  1  0.47923860  0.33375944  0.58201188  1
  Cu  Cu65  1  0.98086191  0.33404743  0.58318999  1
  Cu  Cu66  1  0.18669346  0.03749609  0.58208823  1
  Cu  Cu67  1  0.68536914  0.03729146  0.58216821  1
  Cu  Cu68  1  0.33341669  0.63044335  0.58185802  1
  Cu  Cu69  1  0.83474879  0.62925035  0.58288371  1
  Cu  Cu70  1  0.97740614  0.62250514  0.08163279  1
  Cu  Cu71  1  0.33304832  0.04282116  0.08329756  1
  Cu  Cu72  1  0.83247417  0.03923098  0.08137941  1
  Cu  Cu73  1  0.68763417  0.33568995  0.08028565  1
  Cu  Cu74  1  0.31211005  0.66710829  0.91861531  1
  Cu  Cu75  1  0.80755638  0.66556506  0.91969344  1
  Cu  Cu76  1  0.52061584  0.37768096  0.91767926  1
  Cu  Cu77  1  0.31035108  0.95527363  0.41864347  1
  C  C78  1  0.10302350  0.04042745  0.31165628  1
  C  C79  1  0.60284293  0.03298609  0.30346635  1
  C  C80  1  0.41129172  0.79587457  0.30619524  1
  C  C81  1  0.92700286  0.81223327  0.30721397  1
  C  C82  1  0.47931516  0.15049962  0.30897207  1
  C  C83  1  0.98831560  0.18254398  0.30549913  1
  C  C84  1  0.10481096  0.15904034  0.80946542  1
  C  C85  1  0.60520120  0.16201076  0.81091871  1
  C  C86  1  0.47881549  0.79194300  0.81200272  1
  C  C87  1  0.98464546  0.79379742  0.80538278  1
  C  C88  1  0.42393878  0.03743330  0.81323689  1
  C  C89  1  0.92515794  0.02804255  0.81155795  1
  C  C90  1  0.39559592  0.94508807  0.69076508  1
  C  C91  1  0.89456789  0.94917232  0.68871777  1
  C  C92  1  0.07558930  0.20704112  0.68986614  1
  C  C93  1  0.57922338  0.21969679  0.69164733  1
  C  C94  1  0.01948728  0.83537517  0.69327213  1
  C  C95  1  0.52860904  0.85083513  0.69096991  1
  C  C96  1  0.39452655  0.82243138  0.19404053  1
  C  C97  1  0.90282276  0.84764261  0.18684304  1
  C  C98  1  0.01848126  0.21239633  0.19382030  1
  C  C99  1  0.52121445  0.19129200  0.18948216  1
  C  C100  1  0.08181430  0.93898943  0.19256516  1
  C  C101  1  0.58664776  0.96362651  0.19207722  1
  C  C102  1  0.43886729  0.35592128  0.63704174  1
  C  C103  1  0.94297563  0.35786645  0.63980277  1
  C  C104  1  0.23790023  0.11459606  0.63801828  1
  C  C105  1  0.73681325  0.11303672  0.63879316  1
  C  C106  1  0.31777166  0.52028951  0.63496208  1
  C  C107  1  0.82519803  0.52540586  0.63804820  1
  C  C108  1  0.43095707  0.49331080  0.14468600  1
  C  C109  1  0.93934950  0.51842117  0.13756422  1
  C  C110  1  0.31736757  0.11889458  0.13902674  1
  C  C111  1  0.81707754  0.11989633  0.13558364  1
  C  C112  1  0.25247318  0.37267856  0.14470160  1
  C  C113  1  0.73767857  0.36096371  0.13733479  1
  C  C114  1  0.22265644  0.28599083  0.02482209  1
  C  C115  1  0.73151796  0.30597841  0.02649142  1
  C  C116  1  0.41130996  0.52678605  0.02269811  1
  C  C117  1  0.92006077  0.53383365  0.02650724  1
  C  C118  1  0.35105238  0.15643658  0.02790604  1
  C  C119  1  0.84572635  0.15211986  0.02491920  1
  C  C120  1  0.22857171  0.15116998  0.52673781  1
  C  C121  1  0.72982026  0.15358366  0.52796979  1
  C  C122  1  0.34711977  0.54854015  0.52461122  1
  C  C123  1  0.84838477  0.54651233  0.52710558  1
  C  C124  1  0.42054043  0.30271500  0.52613091  1
  C  C125  1  0.92528631  0.31004181  0.52851181  1
  C  C126  1  0.27061910  0.69267261  0.97411829  1
  C  C127  1  0.76529337  0.69409026  0.97482363  1
  C  C128  1  0.08363234  0.45841127  0.97700544  1
  C  C129  1  0.58042053  0.45762881  0.97379911  1
  C  C130  1  0.15415750  0.82848924  0.97842448  1
  C  C131  1  0.64617947  0.83288181  0.97660885  1
  C  C132  1  0.27141478  0.84309724  0.47422190  1
  C  C133  1  0.77151779  0.83012187  0.47710702  1
  C  C134  1  0.15150830  0.46565697  0.47748019  1
  C  C135  1  0.64385481  0.46342110  0.47761568  1
  C  C136  1  0.08853930  0.70973814  0.47801389  1
  C  C137  1  0.58303945  0.71703357  0.47615024  1
  C  C138  1  0.06100712  0.62188086  0.35621709  1
  C  C139  1  0.56632713  0.62580039  0.35445356  1
  C  C140  1  0.25495995  0.88181143  0.36262628  1
  C  C141  1  0.74348711  0.86480035  0.35595367  1
  C  C142  1  0.19224630  0.51769312  0.35623304  1
  C  C143  1  0.68651148  0.49050524  0.35414885  1
  C  C144  1  0.06585351  0.50345184  0.85495830  1
  C  C145  1  0.56233574  0.48814113  0.86239085  1
  C  C146  1  0.18632307  0.87076846  0.85556956  1
  C  C147  1  0.68502210  0.86948637  0.85599915  1
  C  C148  1  0.25624983  0.63087971  0.86248075  1
  C  C149  1  0.75185765  0.62803109  0.86351757  1
  C  C150  1  0.01587884  0.84476492  0.41423362  1
  C  C151  1  0.50476251  0.83854388  0.40389375  1
  C  C152  1  0.39920799  0.96934727  0.41306522  1
  C  C153  1  0.91006687  0.97562696  0.40626699  1
  C  C154  1  0.07621710  0.18846218  0.40771749  1
  C  C155  1  0.57559040  0.17931058  0.41193307  1
  C  C156  1  0.00888838  0.18000352  0.91354985  1
  C  C157  1  0.51174904  0.19657062  0.91468439  1
  C  C158  1  0.07437137  0.96228655  0.91107895  1
  C  C159  1  0.57225215  0.97255937  0.91138541  1
  C  C160  1  0.40023961  0.83183117  0.91405894  1
  C  C161  1  0.89778351  0.82257874  0.91460299  1
  C  C162  1  0.48817291  0.16653626  0.58479616  1
  C  C163  1  0.98996347  0.16654991  0.58488564  1
  C  C164  1  0.09361793  0.01278874  0.58595007  1
  C  C165  1  0.59456470  0.02189023  0.58531515  1
  C  C166  1  0.41538317  0.81242229  0.58481959  1
  C  C167  1  0.92045972  0.81548164  0.58623840  1
  C  C168  1  0.48768344  0.82440057  0.09294828  1
  C  C169  1  0.98509959  0.80401409  0.08419095  1
  C  C170  1  0.41592310  0.02491395  0.08874807  1
  C  C171  1  0.91364036  0.02371259  0.08466281  1
  C  C172  1  0.08430467  0.15473129  0.09589874  1
  C  C173  1  0.59604313  0.17294681  0.08310263  1
  C  C174  1  0.34470633  0.15980553  0.74518043  1
  C  C175  1  0.85081400  0.17270158  0.74654090  1
  C  C176  1  0.23867025  0.30768154  0.74198504  1
  C  C177  1  0.74251545  0.31349298  0.74447593  1
  C  C178  1  0.41763053  0.51410367  0.74343646  1
  C  C179  1  0.92244448  0.53714464  0.74112013  1
  C  C180  1  0.34840372  0.53452242  0.24653183  1
  C  C181  1  0.84383406  0.52291159  0.24388522  1
  C  C182  1  0.40837527  0.30095153  0.24168098  1
  C  C183  1  0.92398826  0.31515856  0.24264396  1
  C  C184  1  0.24491446  0.18216654  0.24168810  1
  C  C185  1  0.73104398  0.15550519  0.24237105  1
  C  C186  1  0.32107660  0.50213496  0.92244729  1
  C  C187  1  0.81529877  0.49818210  0.92640209  1
  C  C188  1  0.43292427  0.36704197  0.92461442  1
  C  C189  1  0.92404560  0.37087162  0.92325835  1
  C  C190  1  0.25956914  0.15712036  0.92582883  1
  C  C191  1  0.75169513  0.15478689  0.92398969  1
  C  C192  1  0.31999884  0.13724687  0.42593846  1
  C  C193  1  0.81859885  0.14564925  0.42481128  1
  C  C194  1  0.25465542  0.35297392  0.42428079  1
  C  C195  1  0.75312313  0.35811424  0.42651871  1
  C  C196  1  0.42554852  0.48506504  0.42373721  1
  C  C197  1  0.92566737  0.48646877  0.42703051  1
  C  C198  1  0.17993098  0.52116126  0.07739120  1
  C  C199  1  0.68081906  0.50384356  0.07304084  1
  C  C200  1  0.06888585  0.64317570  0.07692807  1
  C  C201  1  0.57417372  0.63697527  0.07795293  1
  C  C202  1  0.25337180  0.86076599  0.07684734  1
  C  C203  1  0.75019717  0.85443417  0.07490620  1
  C  C204  1  0.18062656  0.85384666  0.57664960  1
  C  C205  1  0.67683970  0.85323719  0.57648658  1
  C  C206  1  0.25089973  0.65222418  0.57453454  1
  C  C207  1  0.75331594  0.64958439  0.57837180  1
  C  C208  1  0.07359197  0.49856294  0.57907421  1
  C  C209  1  0.56979385  0.49928356  0.57607991  1
  C  C210  1  0.15751362  0.81737063  0.26102090  1
  C  C211  1  0.64709861  0.82830415  0.25400494  1
  C  C212  1  0.26601901  0.69899999  0.25490513  1
  C  C213  1  0.75663342  0.70404538  0.25480648  1
  C  C214  1  0.08542661  0.47468794  0.25336773  1
  C  C215  1  0.58928863  0.47801442  0.25556198  1
  C  C216  1  0.14552504  0.48418307  0.75895293  1
  C  C217  1  0.64718040  0.48515383  0.76295290  1
  C  C218  1  0.08303392  0.70393025  0.75261114  1
  C  C219  1  0.59158187  0.70275249  0.75677000  1
  C  C220  1  0.25477710  0.80974597  0.75927564  1
  C  C221  1  0.76025389  0.81863320  0.75688182  1
