# generated using pymatgen
data_Cu6NiC12
_symmetry_space_group_name_H-M   'P 1'
_cell_length_a   5.06496272
_cell_length_b   14.35927201
_cell_length_c   3.05353999
_cell_angle_alpha   84.46677328
_cell_angle_beta   90.10831175
_cell_angle_gamma   96.44660597
_symmetry_Int_Tables_number   1
_chemical_formula_structural   Cu6NiC12
_chemical_formula_sum   'Cu6 Ni1 C12'
_cell_volume   219.63999165
_cell_formula_units_Z   1
loop_
 _symmetry_equiv_pos_site_id
 _symmetry_equiv_pos_as_xyz
  1  'x, y, z'
loop_
 _atom_site_type_symbol
 _atom_site_label
 _atom_site_symmetry_multiplicity
 _atom_site_fract_x
 _atom_site_fract_y
 _atom_site_fract_z
 _atom_site_occupancy
  Ni  Ni0  1  0.21797223  0.16182714  0.15694341  1
  Cu  Cu1  1  0.97169557  0.95700816  0.80741019  1
  Cu  Cu2  1  0.91102041  0.37621293  0.06533083  1
  Cu  Cu3  1  0.88161122  0.66789122  0.94412251  1
  Cu  Cu4  1  0.74092430  0.16815426  0.65679342  1
  Cu  Cu5  1  0.40161165  0.51650825  0.50754835  1
  Cu  Cu6  1  0.36177682  0.82040868  0.37636141  1
  C  C7  1  0.14634674  0.91655367  0.32646621  1
  C  C8  1  0.19056615  0.75356606  0.90541710  1
  C  C9  1  0.24068129  0.44900866  0.03735127  1
  C  C10  1  0.57866916  0.57958264  0.98003700  1
  C  C11  1  0.89812164  0.23833548  0.12559984  1
  C  C12  1  0.01597173  0.09386901  0.68682864  1
  C  C13  1  0.42207656  0.23257037  0.62398852  1
  C  C14  1  0.04320214  0.59769034  0.47505423  1
  C  C15  1  0.55430814  0.09566465  0.18425444  1
  C  C16  1  0.60389377  0.89085104  0.84523552  1
  C  C17  1  0.69986649  0.41303390  0.54917625  1
  C  C18  1  0.70301699  0.73793054  0.41274787  1
