# generated using pymatgen
data_Cu(NiC4)4
_symmetry_space_group_name_H-M   'P 1'
_cell_length_a   9.12757647
_cell_length_b   9.12757615
_cell_length_c   21.87579713
_cell_angle_alpha   90.00000000
_cell_angle_beta   90.00000000
_cell_angle_gamma   120.00000113
_symmetry_Int_Tables_number   1
_chemical_formula_structural   Cu(NiC4)4
_chemical_formula_sum   'Cu6 Ni24 C96'
_cell_volume   1578.35779305
_cell_formula_units_Z   6
loop_
 _symmetry_equiv_pos_site_id
 _symmetry_equiv_pos_as_xyz
  1  'x, y, z'
loop_
 _atom_site_type_symbol
 _atom_site_label
 _atom_site_symmetry_multiplicity
 _atom_site_fract_x
 _atom_site_fract_y
 _atom_site_fract_z
 _atom_site_occupancy
  Ni  Ni0  1  0.63808422  0.01088032  0.24731075  1
  Ni  Ni1  1  0.37279610  0.36191578  0.24731075  1
  Ni  Ni2  1  0.98911968  0.62720390  0.24731075  1
  Ni  Ni3  1  0.63808422  0.62720390  0.74731075  1
  Ni  Ni4  1  0.98911968  0.36191578  0.74731075  1
  Ni  Ni5  1  0.37279610  0.01088032  0.74731075  1
  Ni  Ni6  1  0.30475122  0.34421332  0.58064375  1
  Ni  Ni7  1  0.03946310  0.69524878  0.58064375  1
  Ni  Ni8  1  0.65578668  0.96053690  0.58064375  1
  Ni  Ni9  1  0.30475122  0.96053690  0.08064375  1
  Ni  Ni10  1  0.65578668  0.69524878  0.08064375  1
  Ni  Ni11  1  0.03946310  0.34421332  0.08064375  1
  Ni  Ni12  1  0.97141722  0.67754732  0.91397775  1
  Ni  Ni13  1  0.70612910  0.02858278  0.91397775  1
  Ni  Ni14  1  0.32245268  0.29387090  0.91397775  1
  Ni  Ni15  1  0.97141722  0.29387090  0.41397775  1
  Ni  Ni16  1  0.32245268  0.02858278  0.41397775  1
  Ni  Ni17  1  0.70612910  0.67754732  0.41397775  1
  Ni  Ni18  1  -0.00000000  -0.00000000  0.49512863  1
  Ni  Ni19  1  -0.00000000  -0.00000000  0.99512863  1
  Ni  Ni20  1  0.66666700  0.33333300  0.82846163  1
  Ni  Ni21  1  0.66666700  0.33333300  0.32846163  1
  Ni  Ni22  1  0.33333300  0.66666700  0.16179563  1
  Ni  Ni23  1  0.33333300  0.66666700  0.66179563  1
  Cu  Cu24  1  -0.00000000  -0.00000000  0.65019913  1
  Cu  Cu25  1  -0.00000000  -0.00000000  0.15019913  1
  Cu  Cu26  1  0.66666700  0.33333300  0.98353213  1
  Cu  Cu27  1  0.66666700  0.33333300  0.48353213  1
  Cu  Cu28  1  0.33333300  0.66666700  0.31686613  1
  Cu  Cu29  1  0.33333300  0.66666700  0.81686613  1
  C  C30  1  -0.00000000  -0.00000000  0.34390938  1
  C  C31  1  -0.00000000  -0.00000000  0.84390938  1
  C  C32  1  0.66666700  0.33333300  0.67724238  1
  C  C33  1  0.66666700  0.33333300  0.17724238  1
  C  C34  1  0.33333300  0.66666700  0.01057638  1
  C  C35  1  0.33333300  0.66666700  0.51057638  1
  C  C36  1  0.29975235  0.00058820  0.25153171  1
  C  C37  1  0.70083585  0.70024765  0.25153171  1
  C  C38  1  0.99941180  0.29916415  0.25153171  1
  C  C39  1  0.29975235  0.29916415  0.75153171  1
  C  C40  1  0.99941180  0.70024765  0.75153171  1
  C  C41  1  0.70083585  0.00058820  0.75153171  1
  C  C42  1  0.96641935  0.33392120  0.58486471  1
  C  C43  1  0.36750285  0.03358065  0.58486471  1
  C  C44  1  0.66607880  0.63249715  0.58486471  1
  C  C45  1  0.96641935  0.63249715  0.08486471  1
  C  C46  1  0.66607880  0.03358065  0.08486471  1
  C  C47  1  0.36750285  0.33392120  0.08486471  1
  C  C48  1  0.63308535  0.66725520  0.91819871  1
  C  C49  1  0.03416885  0.36691465  0.91819871  1
  C  C50  1  0.33274480  0.96583115  0.91819871  1
  C  C51  1  0.63308535  0.96583115  0.41819871  1
  C  C52  1  0.33274480  0.36691465  0.41819871  1
  C  C53  1  0.03416885  0.66725520  0.41819871  1
  C  C54  1  0.21839681  0.02507009  0.30929412  1
  C  C55  1  0.80667329  0.78160319  0.30929412  1
  C  C56  1  0.97492991  0.19332671  0.30929412  1
  C  C57  1  0.21839681  0.19332671  0.80929412  1
  C  C58  1  0.97492991  0.78160319  0.80929412  1
  C  C59  1  0.80667329  0.02507009  0.80929412  1
  C  C60  1  0.78887201  0.97665364  0.69461361  1
  C  C61  1  0.18778163  0.21112799  0.69461361  1
  C  C62  1  0.02334636  0.81221837  0.69461361  1
  C  C63  1  0.78887201  0.81221837  0.19461361  1
  C  C64  1  0.02334636  0.21112799  0.19461361  1
  C  C65  1  0.18778163  0.97665364  0.19461361  1
  C  C66  1  0.88506381  0.35840309  0.64262712  1
  C  C67  1  0.47334029  0.11493619  0.64262712  1
  C  C68  1  0.64159691  0.52665971  0.64262712  1
  C  C69  1  0.88506381  0.52665971  0.14262712  1
  C  C70  1  0.64159691  0.11493619  0.14262712  1
  C  C71  1  0.47334029  0.35840309  0.14262712  1
  C  C72  1  0.45553901  0.30998664  0.02794661  1
  C  C73  1  0.85444863  0.54446099  0.02794661  1
  C  C74  1  0.69001336  0.14555137  0.02794661  1
  C  C75  1  0.45553901  0.14555137  0.52794661  1
  C  C76  1  0.69001336  0.54446099  0.52794661  1
  C  C77  1  0.85444863  0.30998664  0.52794661  1
  C  C78  1  0.55172981  0.69173709  0.97596112  1
  C  C79  1  0.14000629  0.44827019  0.97596112  1
  C  C80  1  0.30826291  0.85999371  0.97596112  1
  C  C81  1  0.55172981  0.85999371  0.47596112  1
  C  C82  1  0.30826291  0.44827019  0.47596112  1
  C  C83  1  0.14000629  0.69173709  0.47596112  1
  C  C84  1  0.12220501  0.64332064  0.36128061  1
  C  C85  1  0.52111463  0.87779499  0.36128061  1
  C  C86  1  0.35667936  0.47888537  0.36128061  1
  C  C87  1  0.12220501  0.47888537  0.86128061  1
  C  C88  1  0.35667936  0.87779499  0.86128061  1
  C  C89  1  0.52111463  0.64332064  0.86128061  1
  C  C90  1  0.01157052  0.82356255  0.41340281  1
  C  C91  1  0.81199203  0.98842948  0.41340281  1
  C  C92  1  0.17643745  0.18800797  0.41340281  1
  C  C93  1  0.01157052  0.18800797  0.91340281  1
  C  C94  1  0.17643745  0.98842948  0.91340281  1
  C  C95  1  0.81199203  0.82356255  0.91340281  1
  C  C96  1  0.98039653  0.17014868  0.58743461  1
  C  C97  1  0.18975215  0.01960347  0.58743461  1
  C  C98  1  0.82985132  0.81024785  0.58743461  1
  C  C99  1  0.98039653  0.81024785  0.08743461  1
  C  C100  1  0.82985132  0.01960347  0.08743461  1
  C  C101  1  0.18975215  0.17014868  0.08743461  1
  C  C102  1  0.67823752  0.15689555  0.74673581  1
  C  C103  1  0.47865903  0.32176248  0.74673581  1
  C  C104  1  0.84310445  0.52134097  0.74673581  1
  C  C105  1  0.67823752  0.52134097  0.24673581  1
  C  C106  1  0.84310445  0.32176248  0.24673581  1
  C  C107  1  0.47865903  0.15689555  0.24673581  1
  C  C108  1  0.64706353  0.50348168  0.92076761  1
  C  C109  1  0.85641915  0.35293647  0.92076761  1
  C  C110  1  0.49651832  0.14358085  0.92076761  1
  C  C111  1  0.64706353  0.14358085  0.42076761  1
  C  C112  1  0.49651832  0.35293647  0.42076761  1
  C  C113  1  0.85641915  0.50348168  0.42076761  1
  C  C114  1  0.34490352  0.49022955  0.08006981  1
  C  C115  1  0.14532503  0.65509648  0.08006981  1
  C  C116  1  0.50977045  0.85467497  0.08006981  1
  C  C117  1  0.34490352  0.85467497  0.58006981  1
  C  C118  1  0.50977045  0.65509648  0.58006981  1
  C  C119  1  0.14532503  0.49022955  0.58006981  1
  C  C120  1  0.31372953  0.83681568  0.25410161  1
  C  C121  1  0.52308515  0.68627047  0.25410161  1
  C  C122  1  0.16318432  0.47691485  0.25410161  1
  C  C123  1  0.31372953  0.47691485  0.75410161  1
  C  C124  1  0.16318432  0.68627047  0.75410161  1
  C  C125  1  0.52308515  0.83681568  0.75410161  1
