# generated using pymatgen
data_Cu6NiC13
_symmetry_space_group_name_H-M   'P 1'
_cell_length_a   6.72135467
_cell_length_b   6.72135467
_cell_length_c   6.72135471
_cell_angle_alpha   90.58644831
_cell_angle_beta   90.58644836
_cell_angle_gamma   90.58646233
_symmetry_Int_Tables_number   1
_chemical_formula_structural   Cu6NiC13
_chemical_formula_sum   'Cu6 Ni1 C13'
_cell_volume   303.59996551
_cell_formula_units_Z   1
loop_
 _symmetry_equiv_pos_site_id
 _symmetry_equiv_pos_as_xyz
  1  'x, y, z'
loop_
 _atom_site_type_symbol
 _atom_site_label
 _atom_site_symmetry_multiplicity
 _atom_site_fract_x
 _atom_site_fract_y
 _atom_site_fract_z
 _atom_site_occupancy
  Ni  Ni0  1  0.50000000  0.50000000  0.50000000  1
  Cu  Cu1  1  0.45938487  0.93281941  0.74024890  1
  Cu  Cu2  1  0.25975110  0.54061513  0.06718059  1
  Cu  Cu3  1  0.06718059  0.25975110  0.54061513  1
  Cu  Cu4  1  0.93281941  0.74024890  0.45938487  1
  Cu  Cu5  1  0.74024890  0.45938487  0.93281941  1
  Cu  Cu6  1  0.54061513  0.06718059  0.25975110  1
  C  C7  1  -0.00000000  0.00000000  0.00000000  1
  C  C8  1  0.04823831  0.94843985  0.71625140  1
  C  C9  1  0.28374860  0.95176169  0.05155915  1
  C  C10  1  0.19841633  0.55375894  0.39451994  1
  C  C11  1  0.60548006  0.80158367  0.44624106  1
  C  C12  1  0.05155915  0.28374860  0.95176169  1
  C  C13  1  0.44624106  0.60548006  0.80158367  1
  C  C14  1  0.55375894  0.39451994  0.19841633  1
  C  C15  1  0.94843985  0.71625140  0.04823831  1
  C  C16  1  0.39451994  0.19841633  0.55375894  1
  C  C17  1  0.80158367  0.44624106  0.60548006  1
  C  C18  1  0.71625140  0.04823831  0.94843985  1
  C  C19  1  0.95176169  0.05155915  0.28374860  1
