# generated using pymatgen
data_Cu4Ni7C67
_symmetry_space_group_name_H-M   'P 1'
_cell_length_a   17.40582590
_cell_length_b   8.77357835
_cell_length_c   22.02704873
_cell_angle_alpha   89.86370426
_cell_angle_beta   89.02577539
_cell_angle_gamma   120.19225437
_symmetry_Int_Tables_number   1
_chemical_formula_structural   Cu4Ni7C67
_chemical_formula_sum   'Cu12 Ni21 C201'
_cell_volume   2906.80705732
_cell_formula_units_Z   3
loop_
 _symmetry_equiv_pos_site_id
 _symmetry_equiv_pos_as_xyz
  1  'x, y, z'
loop_
 _atom_site_type_symbol
 _atom_site_label
 _atom_site_symmetry_multiplicity
 _atom_site_fract_x
 _atom_site_fract_y
 _atom_site_fract_z
 _atom_site_occupancy
  C  C0  1  0.18399581  0.36879353  0.24623526  1
  C  C1  1  0.68393832  0.36888351  0.24618115  1
  C  C2  1  0.99616964  0.62918220  0.25170929  1
  C  C3  1  0.49632100  0.62927858  0.25154537  1
  C  C4  1  0.49605242  0.36157351  0.75405159  1
  C  C5  1  0.18355587  0.99911804  0.74806093  1
  C  C6  1  0.68457746  0.99949957  0.74788079  1
  C  C7  1  0.65388563  0.33819807  0.58192086  1
  C  C8  1  0.01826951  0.70293338  0.58179365  1
  C  C9  1  0.83024557  0.96284883  0.58720894  1
  C  C10  1  0.48661384  0.66931995  0.91520483  1
  C  C11  1  0.98794028  0.67239095  0.91446680  1
  C  C12  1  0.85084615  0.03282763  0.91218259  1
  C  C13  1  0.16285814  0.29531883  0.91953706  1
  C  C14  1  0.48699958  0.30505610  0.41463214  1
  C  C15  1  0.98608823  0.30363357  0.41457205  1
  C  C16  1  0.35144814  0.66867492  0.41223468  1
  C  C17  1  0.85144260  0.66878682  0.41361820  1
  C  C18  1  0.01108197  0.00542516  0.49885944  1
  C  C19  1  0.50617508  0.99498725  0.49838856  1
  C  C20  1  0.00534418  0.00759958  0.00105638  1
  C  C21  1  0.50628702  0.01782606  0.99793868  1
  C  C22  1  0.33624735  0.32977359  0.83269246  1
  C  C23  1  0.83701707  0.33667990  0.82943642  1
  C  C24  1  0.33265728  0.32927377  0.33114676  1
  C  C25  1  0.83265751  0.32887372  0.33182328  1
  C  C26  1  0.17091752  0.66491298  0.16281590  1
  C  C27  1  0.67068917  0.66451003  0.16277670  1
  C  C28  1  0.17053119  0.66976279  0.66752931  1
  C  C29  1  0.66999212  0.67618444  0.66613655  1
  C  C30  1  0.00171264  -0.00027121  0.35176688  1
  C  C31  1  0.50218048  0.99957007  0.35145144  1
  C  C32  1  0.99959052  0.99942037  0.85022779  1
  C  C33  1  0.49814821  0.00358340  0.85397343  1
  C  C34  1  0.33277216  0.32218304  0.68827801  1
  C  C35  1  0.83509813  0.33296303  0.68705528  1
  C  C36  1  0.33500324  0.34693826  0.18527876  1
  C  C37  1  0.83451594  0.34688336  0.18541876  1
  C  C38  1  0.16002864  0.64841523  0.01759377  1
  C  C39  1  0.65774845  0.64514334  0.01777955  1
  C  C40  1  0.16337448  0.67255387  0.51654209  1
  C  C41  1  0.66243327  0.66778039  0.51963016  1
  Ni  Ni42  1  0.35660289  0.72239480  0.25035552  1
  Ni  Ni43  1  0.85650933  0.72235504  0.25039598  1
  Ni  Ni44  1  0.99395533  0.28294610  0.25121920  1
  Ni  Ni45  1  0.49403622  0.28297023  0.25126709  1
  Ni  Ni46  1  0.99484898  0.70011602  0.75217252  1
  Ni  Ni47  1  0.49444982  0.70464000  0.75223711  1
  Ni  Ni48  1  0.35566538  0.98975260  0.75094993  1
  Ni  Ni49  1  0.85683940  0.99860953  0.75134605  1
  Ni  Ni50  1  0.19073494  0.04600607  0.58519557  1
  Ni  Ni51  1  0.68611398  0.04136322  0.58540045  1
  Ni  Ni52  1  0.83175333  0.62266677  0.58512414  1
  Ni  Ni53  1  0.18843441  0.33490072  0.08455271  1
  Ni  Ni54  1  0.68734009  0.33486885  0.08523896  1
  Ni  Ni55  1  0.02151488  0.37613083  0.91717164  1
  Ni  Ni56  1  0.52184379  0.37057647  0.91717814  1
  Ni  Ni57  1  0.16737358  0.95349023  0.91910277  1
  Ni  Ni58  1  0.66429459  0.95607279  0.92035210  1
  Ni  Ni59  1  0.16456627  0.37233896  0.41967655  1
  Ni  Ni60  1  0.66389186  0.36907714  0.41888756  1
  Ni  Ni61  1  0.02289754  0.67119135  0.41735804  1
  Ni  Ni62  1  0.52465817  0.67279988  0.41834185  1
  Cu  Cu63  1  0.99753133  0.97364736  0.64883258  1
  Cu  Cu64  1  0.49760054  0.97459193  0.65112534  1
  Cu  Cu65  1  0.99985860  0.02166626  0.14800083  1
  Cu  Cu66  1  0.49954551  0.02118821  0.14767800  1
  Cu  Cu67  1  0.32757482  0.30526201  0.97981981  1
  Cu  Cu68  1  0.82307274  0.31273963  0.97958176  1
  Cu  Cu69  1  0.32547273  0.33850677  0.47962699  1
  Cu  Cu70  1  0.82572579  0.35033690  0.48092486  1
  Cu  Cu71  1  0.16218538  0.63684598  0.31348110  1
  Cu  Cu72  1  0.66194746  0.63793360  0.31364488  1
  Cu  Cu73  1  0.16012119  0.68392847  0.81304348  1
  Cu  Cu74  1  0.66259819  0.68883325  0.81442365  1
  C  C75  1  0.14591244  0.99739264  0.24930787  1
  C  C76  1  0.64599370  0.99732954  0.24931260  1
  C  C77  1  0.14428800  0.29539506  0.74907113  1
  C  C78  1  0.64547753  0.29346676  0.74979548  1
  C  C79  1  0.47649369  0.32966486  0.58281687  1
  C  C80  1  0.98024394  0.33174087  0.58245591  1
  C  C81  1  0.33285162  0.62392523  0.58382003  1
  C  C82  1  0.47897643  0.62867204  0.08300322  1
  C  C83  1  0.97898508  0.62806946  0.08272915  1
  C  C84  1  0.33249082  0.04171467  0.08455902  1
  C  C85  1  0.83260862  0.04220133  0.08405717  1
  C  C86  1  0.30999212  0.66858618  0.91668356  1
  C  C87  1  0.80858055  0.66105469  0.91708921  1
  C  C88  1  0.30874702  0.95672362  0.41645143  1
  C  C89  1  0.80884404  0.95746307  0.41636080  1
  C  C90  1  0.10857521  0.03621968  0.30451871  1
  C  C91  1  0.60870221  0.03611816  0.30453230  1
  C  C92  1  0.41713431  0.79502034  0.31015598  1
  C  C93  1  0.91741398  0.79518833  0.30998699  1
  C  C94  1  0.48241221  0.17362953  0.31279213  1
  C  C95  1  0.98272789  0.17378932  0.31270031  1
  C  C96  1  0.10871362  0.18411896  0.80547905  1
  C  C97  1  0.60545112  0.17750473  0.80363789  1
  C  C98  1  0.48293103  0.79354726  0.81239799  1
  C  C99  1  0.98453306  0.79312841  0.81241759  1
  C  C100  1  0.42180927  0.04397619  0.80655042  1
  C  C101  1  0.91381892  0.03275034  0.81170189  1
  C  C102  1  0.40273902  0.96542748  0.68705991  1
  C  C103  1  0.90262259  0.96965077  0.68778273  1
  C  C104  1  0.08850207  0.21201716  0.69528063  1
  C  C105  1  0.58940707  0.21748218  0.69373167  1
  C  C106  1  0.02442323  0.83295429  0.69094971  1
  C  C107  1  0.52551796  0.83708279  0.69182430  1
  C  C108  1  0.40572900  0.84404931  0.18878717  1
  C  C109  1  0.90578255  0.84410652  0.18868978  1
  C  C110  1  0.02492400  0.20942548  0.19267277  1
  C  C111  1  0.52459929  0.20872560  0.19275395  1
  C  C112  1  0.08858395  0.96056079  0.19564329  1
  C  C113  1  0.58862791  0.96036611  0.19576221  1
  C  C114  1  0.43732014  0.36069883  0.63834851  1
  C  C115  1  0.93975138  0.36647452  0.63636044  1
  C  C116  1  0.24811025  0.13342997  0.64471624  1
  C  C117  1  0.74733491  0.12575723  0.64405614  1
  C  C118  1  0.31980408  0.51389235  0.63737335  1
  C  C119  1  0.81239515  0.49114356  0.64088765  1
  C  C120  1  0.43997583  0.51729866  0.13912095  1
  C  C121  1  0.93967378  0.51705604  0.13875185  1
  C  C122  1  0.31976472  0.12523475  0.13863560  1
  C  C123  1  0.82043228  0.12707346  0.13787108  1
  C  C124  1  0.24511385  0.35796927  0.14496245  1
  C  C125  1  0.74462370  0.35865994  0.14555372  1
  C  C126  1  0.23541213  0.29959082  0.02261755  1
  C  C127  1  0.73476530  0.29731593  0.02505180  1
  C  C128  1  0.42377071  0.54509814  0.02850711  1
  C  C129  1  0.92419933  0.54550993  0.02783137  1
  C  C130  1  0.35294945  0.15600550  0.02795168  1
  C  C131  1  0.85242259  0.15420387  0.02657159  1
  C  C132  1  0.23653598  0.17293125  0.52372984  1
  C  C133  1  0.73317233  0.17615359  0.52468016  1
  C  C134  1  0.35202706  0.55148910  0.52608451  1
  C  C135  1  0.85843345  0.55038274  0.52237742  1
  C  C136  1  0.42289516  0.30279267  0.52748339  1
  C  C137  1  0.92436420  0.29759580  0.52702490  1
  C  C138  1  0.27142119  0.69734042  0.97250883  1
  C  C139  1  0.77117090  0.69776833  0.97205267  1
  C  C140  1  0.08389707  0.45261351  0.97464115  1
  C  C141  1  0.57989550  0.45685395  0.97528638  1
  C  C142  1  0.14819474  0.82631215  0.97693567  1
  C  C143  1  0.65119058  0.82983056  0.97729847  1
  C  C144  1  0.27140047  0.84551317  0.47200164  1
  C  C145  1  0.77240607  0.84771953  0.47247469  1
  C  C146  1  0.15001970  0.47042847  0.47656776  1
  C  C147  1  0.64760552  0.45842976  0.47801671  1
  C  C148  1  0.07783085  0.70107111  0.47806429  1
  C  C149  1  0.58296469  0.70084707  0.47604547  1
  C  C150  1  0.06784978  0.62987035  0.35593666  1
  C  C151  1  0.56551941  0.62744029  0.35539949  1
  C  C152  1  0.25465125  0.87941493  0.36229785  1
  C  C153  1  0.75431546  0.87755383  0.36236901  1
  C  C154  1  0.19138522  0.50020417  0.35719519  1
  C  C155  1  0.69044305  0.50043537  0.35758764  1
  C  C156  1  0.06693016  0.50791354  0.85706567  1
  C  C157  1  0.56511712  0.50460372  0.85492588  1
  C  C158  1  0.18790005  0.87960762  0.85554502  1
  C  C159  1  0.69170737  0.88387729  0.85749359  1
  C  C160  1  0.25341322  0.62992517  0.86266175  1
  C  C161  1  0.75528393  0.63022137  0.86234847  1
  C  C162  1  0.00478451  0.83370894  0.41013699  1
  C  C163  1  0.50400290  0.83184688  0.41056755  1
  C  C164  1  0.39867449  0.97588759  0.41208022  1
  C  C165  1  0.89900685  0.97597832  0.41161316  1
  C  C166  1  0.07660691  0.18275860  0.41086983  1
  C  C167  1  0.57558215  0.17978572  0.41026095  1
  C  C168  1  0.00715813  0.17856115  0.90987858  1
  C  C169  1  0.50788368  0.17756585  0.90951284  1
  C  C170  1  0.08069211  0.97914689  0.91096992  1
  C  C171  1  0.57647738  0.96918871  0.91075738  1
  C  C172  1  0.40004202  0.82286724  0.91186277  1
  C  C173  1  0.89949908  0.82103512  0.91250942  1
  C  C174  1  0.48702918  0.17192410  0.58763081  1
  C  C175  1  0.98772931  0.17213583  0.58835205  1
  C  C176  1  0.08963760  0.02697763  0.59134075  1
  C  C177  1  0.58675862  0.03535087  0.59162398  1
  C  C178  1  0.41569718  0.80304824  0.58713767  1
  C  C179  1  0.92180768  0.82252586  0.58862502  1
  C  C180  1  0.48573106  0.80311616  0.08882461  1
  C  C181  1  0.98579119  0.80268853  0.08849042  1
  C  C182  1  0.41533323  0.02795512  0.08783906  1
  C  C183  1  0.91571072  0.02811525  0.08756353  1
  C  C184  1  0.08763300  0.14585720  0.09075703  1
  C  C185  1  0.58718570  0.14566846  0.09115980  1
  C  C186  1  0.34184765  0.16218300  0.74427438  1
  C  C187  1  0.83767513  0.16122607  0.74353634  1
  C  C188  1  0.23376506  0.31082914  0.74292500  1
  C  C189  1  0.73331961  0.30751290  0.74401769  1
  C  C190  1  0.41158264  0.50815220  0.74062768  1
  C  C191  1  0.90975902  0.50936702  0.74305246  1
  C  C192  1  0.34187724  0.52180134  0.24436194  1
  C  C193  1  0.84204296  0.52196169  0.24437618  1
  C  C194  1  0.41119606  0.31531214  0.24096517  1
  C  C195  1  0.91128828  0.31541061  0.24074157  1
  C  C196  1  0.23510784  0.15739342  0.24289649  1
  C  C197  1  0.73515353  0.15709256  0.24295426  1
  C  C198  1  0.32017296  0.50680205  0.92194619  1
  C  C199  1  0.82236768  0.50543000  0.92300434  1
  C  C200  1  0.42340321  0.36949897  0.92688024  1
  C  C201  1  0.92231081  0.36504256  0.92744596  1
  C  C202  1  0.25431158  0.15689801  0.92257517  1
  C  C203  1  0.75770275  0.15101024  0.92322932  1
  C  C204  1  0.32194723  0.13843816  0.42244795  1
  C  C205  1  0.82174313  0.13777840  0.42239548  1
  C  C206  1  0.25775856  0.36441556  0.42285779  1
  C  C207  1  0.75697039  0.36127555  0.42132670  1
  C  C208  1  0.42297924  0.48138899  0.42696156  1
  C  C209  1  0.92378392  0.47878966  0.42366841  1
  C  C210  1  0.17916093  0.50985441  0.07735533  1
  C  C211  1  0.67933140  0.51103858  0.07766953  1
  C  C212  1  0.06809776  0.64587288  0.07876502  1
  C  C213  1  0.56831886  0.64729152  0.07925357  1
  C  C214  1  0.25414370  0.86792568  0.07754506  1
  C  C215  1  0.75450452  0.86765233  0.07763942  1
  C  C216  1  0.17560423  0.84586402  0.57752955  1
  C  C217  1  0.67858490  0.85145745  0.57690555  1
  C  C218  1  0.25415215  0.64236957  0.57685857  1
  C  C219  1  0.74542585  0.64502866  0.57603884  1
  C  C220  1  0.06915151  0.49366140  0.57781520  1
  C  C221  1  0.56680461  0.48776816  0.57926384  1
  C  C222  1  0.15319019  0.83709079  0.25628752  1
  C  C223  1  0.65324386  0.83683042  0.25643388  1
  C  C224  1  0.25531824  0.69858376  0.25747485  1
  C  C225  1  0.75521878  0.69828506  0.25751438  1
  C  C226  1  0.08618533  0.48591601  0.25533175  1
  C  C227  1  0.58623265  0.48588065  0.25533832  1
  C  C228  1  0.15415512  0.47057746  0.75560669  1
  C  C229  1  0.65264926  0.46748072  0.75534888  1
  C  C230  1  0.08917931  0.69355921  0.75455438  1
  C  C231  1  0.58636755  0.68618303  0.75516580  1
  C  C232  1  0.25556149  0.81172116  0.75721299  1
  C  C233  1  0.75524268  0.81360585  0.75766167  1
