# generated using pymatgen
data_Cu(NiC8)2
_symmetry_space_group_name_H-M   'P 1'
_cell_length_a   9.00570448
_cell_length_b   9.00570417
_cell_length_c   22.84868775
_cell_angle_alpha   89.92471454
_cell_angle_beta   90.07528545
_cell_angle_gamma   120.05676677
_symmetry_Int_Tables_number   1
_chemical_formula_structural   Cu(NiC8)2
_chemical_formula_sum   'Cu6 Ni12 C96'
_cell_volume   1603.90283042
_cell_formula_units_Z   6
loop_
 _symmetry_equiv_pos_site_id
 _symmetry_equiv_pos_as_xyz
  1  'x, y, z'
loop_
 _atom_site_type_symbol
 _atom_site_label
 _atom_site_symmetry_multiplicity
 _atom_site_fract_x
 _atom_site_fract_y
 _atom_site_fract_z
 _atom_site_occupancy
  C  C0  1  0.37611838  0.36838201  0.24322533  1
  C  C1  1  0.98611668  0.61806597  0.24455313  1
  C  C2  1  0.63161799  0.62388162  0.74322533  1
  C  C3  1  0.38193403  0.01388332  0.74455313  1
  C  C4  1  0.65869379  0.97423083  0.58518414  1
  C  C5  1  0.02576917  0.34130621  0.08518414  1
  C  C6  1  0.00893868  0.99878070  0.49910185  1
  C  C7  1  0.00121930  0.99106132  0.99910185  1
  C  C8  1  0.67697765  0.32828513  0.83233097  1
  C  C9  1  0.67171487  0.32302235  0.33233097  1
  C  C10  1  0.34653445  0.67931152  0.16345902  1
  C  C11  1  0.32068848  0.65346555  0.66345902  1
  C  C12  1  0.67238684  0.33318881  0.68354513  1
  C  C13  1  0.66681119  0.32761316  0.18354513  1
  C  C14  1  0.99705340  0.00305314  0.35852068  1
  C  C15  1  0.99694686  0.00294660  0.85852068  1
  C  C16  1  0.99920099  0.99773767  0.64393635  1
  C  C17  1  0.00226233  0.00079901  0.14393635  1
  C  C18  1  0.66379263  0.33774148  0.97858269  1
  C  C19  1  0.66225852  0.33620737  0.47858269  1
  C  C20  1  0.33342380  0.66731972  0.01715577  1
  C  C21  1  0.33268028  0.66657620  0.51715577  1
  C  C22  1  0.33334380  0.66656869  0.31532531  1
  C  C23  1  0.33343131  0.66665620  0.81532531  1
  Ni  Ni24  1  0.00131935  0.28899446  0.25192062  1
  Ni  Ni25  1  0.71100554  0.99868065  0.75192062  1
  Ni  Ni26  1  0.37122486  0.03772823  0.58362595  1
  Ni  Ni27  1  0.66245241  0.62412411  0.58459694  1
  Ni  Ni28  1  0.96227177  0.62877514  0.08362595  1
  Ni  Ni29  1  0.37587589  0.33754759  0.08459694  1
  Ni  Ni30  1  0.62166604  0.66463451  0.91635636  1
  Ni  Ni31  1  0.04111213  0.37880073  0.91686623  1
  Ni  Ni32  1  0.33594043  0.95824462  0.91607281  1
  Ni  Ni33  1  0.62119927  0.95888787  0.41686623  1
  Ni  Ni34  1  0.33536549  0.37833396  0.41635636  1
  Ni  Ni35  1  0.04175538  0.66405957  0.41607281  1
  Cu  Cu36  1  0.27844672  0.99306372  0.25267785  1
  Cu  Cu37  1  0.71298121  0.72311664  0.25202349  1
  Cu  Cu38  1  0.27688336  0.28701879  0.75202349  1
  Cu  Cu39  1  0.00693628  0.72155328  0.75267785  1
  Cu  Cu40  1  0.96376182  0.33697288  0.58199268  1
  Cu  Cu41  1  0.66302712  0.03623818  0.08199268  1
  C  C42  1  0.18107611  0.00651505  0.30565290  1
  C  C43  1  0.82690174  0.81440336  0.30551129  1
  C  C44  1  0.99292881  0.16762352  0.30663701  1
  C  C45  1  0.18559664  0.17309826  0.80551129  1
  C  C46  1  0.99348495  0.81892389  0.80565290  1
  C  C47  1  0.83237648  0.00707119  0.80663701  1
  C  C48  1  0.80417996  0.97014062  0.69278684  1
  C  C49  1  0.16856956  0.19663044  0.69622800  1
  C  C50  1  0.03350713  0.83500132  0.69635395  1
  C  C51  1  0.80336956  0.83143044  0.19622800  1
  C  C52  1  0.02985938  0.19582004  0.19278684  1
  C  C53  1  0.16499868  0.96649287  0.19635395  1
  C  C54  1  0.90335964  0.37314712  0.63791022  1
  C  C55  1  0.47793166  0.08738431  0.64323872  1
  C  C56  1  0.62556294  0.53358483  0.64646287  1
  C  C57  1  0.91261569  0.52206834  0.14323872  1
  C  C58  1  0.62685288  0.09664036  0.13791022  1
  C  C59  1  0.46641517  0.37443706  0.14646287  1
  C  C60  1  0.47321240  0.30487568  0.02857973  1
  C  C61  1  0.83314033  0.52434560  0.02793910  1
  C  C62  1  0.70152923  0.15984735  0.02897307  1
  C  C63  1  0.47565440  0.16685967  0.52793910  1
  C  C64  1  0.69512432  0.52678760  0.52857973  1
  C  C65  1  0.84015265  0.29847077  0.52897307  1
  C  C66  1  0.52857569  0.69464660  0.97150245  1
  C  C67  1  0.16172830  0.46728080  0.97373594  1
  C  C68  1  0.30547213  0.83276324  0.97107483  1
  C  C69  1  0.53271920  0.83827170  0.47373594  1
  C  C70  1  0.30535340  0.47142431  0.47150245  1
  C  C71  1  0.16723676  0.69452787  0.47107483  1
  C  C72  1  0.13652645  0.63798979  0.35747501  1
  C  C73  1  0.49866257  0.86025331  0.35977237  1
  C  C74  1  0.36243474  0.49762750  0.35767182  1
  C  C75  1  0.13974669  0.50133743  0.85977237  1
  C  C76  1  0.36201021  0.86347355  0.85747501  1
  C  C77  1  0.50237250  0.63756526  0.85767182  1
  C  C78  1  0.02256156  0.83325499  0.40674085  1
  C  C79  1  0.80943210  0.97419243  0.40820700  1
  C  C80  1  0.16743480  0.18720531  0.40826684  1
  C  C81  1  0.02580757  0.19056790  0.90820700  1
  C  C82  1  0.16674501  0.97743844  0.90674085  1
  C  C83  1  0.81279469  0.83256520  0.90826684  1
  C  C84  1  0.97507876  0.16640768  0.58914269  1
  C  C85  1  0.18149518  0.02352814  0.59068426  1
  C  C86  1  0.83659846  0.82381922  0.58973213  1
  C  C87  1  0.97647186  0.81850482  0.09068426  1
  C  C88  1  0.83359232  0.02492124  0.08914269  1
  C  C89  1  0.17618078  0.16340154  0.08973213  1
  C  C90  1  0.67659951  0.15496178  0.75524652  1
  C  C91  1  0.45643749  0.30897630  0.75066442  1
  C  C92  1  0.84454180  0.54760346  0.75081516  1
  C  C93  1  0.69102370  0.54356251  0.25066442  1
  C  C94  1  0.84503822  0.32340049  0.25524652  1
  C  C95  1  0.45239654  0.15545820  0.25081516  1
  C  C96  1  0.64009390  0.49418097  0.92435596  1
  C  C97  1  0.85187677  0.35598849  0.92556127  1
  C  C98  1  0.50659316  0.14519488  0.92548861  1
  C  C99  1  0.64401151  0.14812323  0.42556127  1
  C  C100  1  0.50581903  0.35990610  0.42435597  1
  C  C101  1  0.85480512  0.49340684  0.42548861  1
  C  C102  1  0.33761658  0.49522186  0.07062867  1
  C  C103  1  0.15393469  0.65561958  0.06915694  1
  C  C104  1  0.51203169  0.85315810  0.06976656  1
  C  C105  1  0.34438042  0.84606531  0.56915694  1
  C  C106  1  0.50477814  0.66238342  0.57062867  1
  C  C107  1  0.14684190  0.48796831  0.56976656  1
  C  C108  1  0.28962900  0.82540309  0.25665263  1
  C  C109  1  0.53156420  0.70577714  0.25697571  1
  C  C110  1  0.18579144  0.47926315  0.25668734  1
  C  C111  1  0.29422286  0.46843580  0.75697571  1
  C  C112  1  0.17459691  0.71037100  0.75665263  1
  C  C113  1  0.52073685  0.81420856  0.75668734  1
