# generated using pymatgen
data_CuNiC11
_symmetry_space_group_name_H-M   'P 1'
_cell_length_a   5.97124433
_cell_length_b   5.97098047
_cell_length_c   5.78705937
_cell_angle_alpha   61.97635446
_cell_angle_beta   61.97310388
_cell_angle_gamma   58.41271927
_symmetry_Int_Tables_number   1
_chemical_formula_structural   CuNiC11
_chemical_formula_sum   'Cu1 Ni1 C11'
_cell_volume   148.12556438
_cell_formula_units_Z   1
loop_
 _symmetry_equiv_pos_site_id
 _symmetry_equiv_pos_as_xyz
  1  'x, y, z'
loop_
 _atom_site_type_symbol
 _atom_site_label
 _atom_site_symmetry_multiplicity
 _atom_site_fract_x
 _atom_site_fract_y
 _atom_site_fract_z
 _atom_site_occupancy
  Ni  Ni0  1  0.00000000  0.00000000  0.50000000  1
  C  C1  1  0.50000000  0.50000000  0.00000000  1
  C  C2  1  0.50000000  0.00000000  0.50000000  1
  C  C3  1  0.00000000  0.50000000  0.50000000  1
  Cu  Cu4  1  0.50000000  0.50000000  0.50000000  1
  C  C5  1  0.23557000  0.23553400  0.29566200  1
  C  C6  1  0.70320500  0.23949900  0.27512800  1
  C  C7  1  0.23949600  0.70320300  0.27518700  1
  C  C8  1  0.26705200  0.26707100  0.70261400  1
  C  C9  1  0.73294800  0.73292900  0.29738600  1
  C  C10  1  0.76050400  0.29679700  0.72481300  1
  C  C11  1  0.29679500  0.76050100  0.72487200  1
  C  C12  1  0.76443000  0.76446600  0.70433800  1
