# generated using pymatgen
data_Cu3Ni2C15
_symmetry_space_group_name_H-M   'P 1'
_cell_length_a   9.10724850
_cell_length_b   9.10724819
_cell_length_c   22.79590967
_cell_angle_alpha   89.91470620
_cell_angle_beta   90.08529380
_cell_angle_gamma   119.98239966
_symmetry_Int_Tables_number   1
_chemical_formula_structural   Cu3Ni2C15
_chemical_formula_sum   'Cu18 Ni12 C90'
_cell_volume   1637.71479349
_cell_formula_units_Z   6
loop_
 _symmetry_equiv_pos_site_id
 _symmetry_equiv_pos_as_xyz
  1  'x, y, z'
loop_
 _atom_site_type_symbol
 _atom_site_label
 _atom_site_symmetry_multiplicity
 _atom_site_fract_x
 _atom_site_fract_y
 _atom_site_fract_z
 _atom_site_occupancy
  C  C0  1  0.00017307  0.99987121  0.50001197  1
  C  C1  1  0.00012879  0.99982693  0.00001197  1
  C  C2  1  0.64289265  0.32076853  0.83337175  1
  C  C3  1  0.67923147  0.35710735  0.33337175  1
  C  C4  1  0.33366387  0.66654558  0.16665098  1
  C  C5  1  0.33345442  0.66633613  0.66665098  1
  C  C6  1  0.63498679  0.99955767  0.24975759  1
  C  C7  1  0.36499521  0.36399599  0.24996118  1
  C  C8  1  0.63600401  0.63500479  0.74996118  1
  C  C9  1  0.00044233  0.36501321  0.74975759  1
  C  C10  1  0.03071308  0.69815233  0.58323208  1
  C  C11  1  0.66557679  0.96843960  0.58310496  1
  C  C12  1  0.30184767  0.96928692  0.08323208  1
  C  C13  1  0.03156040  0.33442321  0.08310496  1
  C  C14  1  0.96722975  0.66462506  0.91752803  1
  C  C15  1  0.69806809  0.03045132  0.91658634  1
  C  C16  1  0.96954868  0.30193191  0.41658634  1
  C  C17  1  0.33537494  0.03277025  0.41752803  1
  Ni  Ni18  1  0.99335385  0.98982883  0.34919342  1
  Ni  Ni19  1  0.01017117  0.00664615  0.84919342  1
  Ni  Ni20  1  0.01024099  0.00728347  0.65087395  1
  Ni  Ni21  1  0.99271653  0.98975901  0.15087395  1
  Ni  Ni22  1  0.65771183  0.32746290  0.68243704  1
  Ni  Ni23  1  0.67253710  0.34228817  0.18243704  1
  Ni  Ni24  1  0.66064156  0.33697590  0.98424628  1
  Ni  Ni25  1  0.66302410  0.33935844  0.48424628  1
  Ni  Ni26  1  0.34071268  0.66442709  0.01579836  1
  Ni  Ni27  1  0.33557291  0.65928732  0.51579836  1
  Ni  Ni28  1  0.32955639  0.66592686  0.31746574  1
  Ni  Ni29  1  0.33407314  0.67044361  0.81746574  1
  Cu  Cu30  1  0.29945142  0.00047355  0.24984157  1
  Cu  Cu31  1  0.69965643  0.70050946  0.25056655  1
  Cu  Cu32  1  0.99996451  0.29647143  0.24974507  1
  Cu  Cu33  1  0.29949054  0.30034357  0.75056655  1
  Cu  Cu34  1  0.99952645  0.70054858  0.74984157  1
  Cu  Cu35  1  0.70352857  0.00003549  0.74974507  1
  Cu  Cu36  1  0.96310198  0.33350276  0.58339191  1
  Cu  Cu37  1  0.36730213  0.03289469  0.58096814  1
  Cu  Cu38  1  0.66767044  0.63394884  0.58565212  1
  Cu  Cu39  1  0.96710531  0.63269787  0.08096814  1
  Cu  Cu40  1  0.66649724  0.03689802  0.08339191  1
  Cu  Cu41  1  0.36605116  0.33232956  0.08565212  1
  Cu  Cu42  1  0.63345253  0.66767197  0.91414613  1
  Cu  Cu43  1  0.03355347  0.36703205  0.91715896  1
  Cu  Cu44  1  0.33398776  0.96373576  0.91867348  1
  Cu  Cu45  1  0.63296795  0.96644653  0.41715896  1
  Cu  Cu46  1  0.33232803  0.36654747  0.41414613  1
  Cu  Cu47  1  0.03626424  0.66601224  0.41867348  1
  C  C48  1  0.21888172  0.02957938  0.30475461  1
  C  C49  1  0.80622413  0.77857716  0.30595564  1
  C  C50  1  0.97000106  0.18650724  0.30527819  1
  C  C51  1  0.22142284  0.19377587  0.80595564  1
  C  C52  1  0.97042062  0.78111828  0.80475461  1
  C  C53  1  0.81349276  0.02999894  0.80527819  1
  C  C54  1  0.78463768  0.97061176  0.69449980  1
  C  C55  1  0.18625108  0.22276901  0.69616787  1
  C  C56  1  0.02386706  0.80482773  0.69328904  1
  C  C57  1  0.77723099  0.81374892  0.19616787  1
  C  C58  1  0.02938824  0.21536232  0.19449980  1
  C  C59  1  0.19517227  0.97613294  0.19328904  1
  C  C60  1  0.88276257  0.36378032  0.63881665  1
  C  C61  1  0.48423128  0.11624067  0.63422162  1
  C  C62  1  0.64257710  0.53258260  0.64272105  1
  C  C63  1  0.88375933  0.51576872  0.13422162  1
  C  C64  1  0.63621968  0.11723743  0.13881665  1
  C  C65  1  0.46741740  0.35742290  0.14272105  1
  C  C66  1  0.44923974  0.29878639  0.03235430  1
  C  C67  1  0.86592627  0.55696345  0.02383783  1
  C  C68  1  0.69701427  0.14802008  0.02794112  1
  C  C69  1  0.44303655  0.13407373  0.52383783  1
  C  C70  1  0.70121361  0.55076026  0.53235430  1
  C  C71  1  0.85197992  0.30298573  0.52794112  1
  C  C72  1  0.55143493  0.70205998  0.96758454  1
  C  C73  1  0.13796709  0.44808492  0.97340954  1
  C  C74  1  0.30293705  0.85607194  0.97487144  1
  C  C75  1  0.55191508  0.86203291  0.47340954  1
  C  C76  1  0.29794002  0.44856507  0.46758454  1
  C  C77  1  0.14392806  0.69706295  0.47487144  1
  C  C78  1  0.11920997  0.63208501  0.36499872  1
  C  C79  1  0.52304106  0.88602146  0.36193107  1
  C  C80  1  0.35787580  0.46811029  0.35718318  1
  C  C81  1  0.11397854  0.47695894  0.86193107  1
  C  C82  1  0.36791499  0.88079003  0.86499872  1
  C  C83  1  0.53188971  0.64212420  0.85718318  1
  C  C84  1  0.02759890  0.83077682  0.41231749  1
  C  C85  1  0.81482126  0.99461133  0.41287413  1
  C  C86  1  0.16988191  0.18715979  0.41091848  1
  C  C87  1  0.00538867  0.18517874  0.91287413  1
  C  C88  1  0.16922318  0.97240110  0.91231749  1
  C  C89  1  0.81284021  0.83011809  0.91091848  1
  C  C90  1  0.97338802  0.16893344  0.58833493  1
  C  C91  1  0.18666294  0.00633226  0.58688503  1
  C  C92  1  0.83034966  0.81319660  0.58874662  1
  C  C93  1  0.99366774  0.81333706  0.08688503  1
  C  C94  1  0.83106656  0.02661198  0.08833493  1
  C  C95  1  0.18680340  0.16965034  0.08874662  1
  C  C96  1  0.69234750  0.16422538  0.74470315  1
  C  C97  1  0.48047249  0.32763873  0.74541117  1
  C  C98  1  0.83645675  0.52190265  0.74581659  1
  C  C99  1  0.67236127  0.51952751  0.24541117  1
  C  C100  1  0.83577462  0.30765250  0.24470315  1
  C  C101  1  0.47809735  0.16354325  0.24581659  1
  C  C102  1  0.65898716  0.51275623  0.92028040  1
  C  C103  1  0.85467777  0.35192364  0.92097100  1
  C  C104  1  0.49642315  0.13930214  0.92277224  1
  C  C105  1  0.64807636  0.14532223  0.42097100  1
  C  C106  1  0.48724377  0.34101284  0.42028040  1
  C  C107  1  0.86069786  0.50357685  0.42277224  1
  C  C108  1  0.33998888  0.48668147  0.07953699  1
  C  C109  1  0.14619220  0.64855986  0.07806345  1
  C  C110  1  0.50351279  0.86223527  0.07847463  1
  C  C111  1  0.35144014  0.85380780  0.57806345  1
  C  C112  1  0.51331853  0.66001112  0.57953699  1
  C  C113  1  0.13776473  0.49648721  0.57847463  1
  C  C114  1  0.32735782  0.84602210  0.25440775  1
  C  C115  1  0.52109575  0.68533852  0.25490970  1
  C  C116  1  0.16323060  0.47165421  0.25439642  1
  C  C117  1  0.31466148  0.47890425  0.75490970  1
  C  C118  1  0.15397790  0.67264218  0.75440775  1
  C  C119  1  0.52834579  0.83676940  0.75439642  1
