# generated using pymatgen
data_Cu2Ni9C8
_symmetry_space_group_name_H-M   'P 1'
_cell_length_a   5.07321300
_cell_length_b   13.20019100
_cell_length_c   16.03740800
_cell_angle_alpha   90.00000000
_cell_angle_beta   90.00000000
_cell_angle_gamma   90.00000000
_symmetry_Int_Tables_number   1
_chemical_formula_structural   Cu2Ni9C8
_chemical_formula_sum   'Cu8 Ni36 C32'
_cell_volume   1073.98320511
_cell_formula_units_Z   4
loop_
 _symmetry_equiv_pos_site_id
 _symmetry_equiv_pos_as_xyz
  1  'x, y, z'
loop_
 _atom_site_type_symbol
 _atom_site_label
 _atom_site_symmetry_multiplicity
 _atom_site_fract_x
 _atom_site_fract_y
 _atom_site_fract_z
 _atom_site_occupancy
  Ni  Ni0  1  0.49409200  0.86571500  0.17465900  1
  Ni  Ni1  1  0.99409200  0.13428500  0.82534100  1
  Ni  Ni2  1  0.00590800  0.36571500  0.32534100  1
  Ni  Ni3  1  0.50590800  0.63428500  0.67465900  1
  Ni  Ni4  1  0.50590800  0.13428500  0.82534100  1
  Ni  Ni5  1  0.00590800  0.86571500  0.17465900  1
  Ni  Ni6  1  0.99409200  0.63428500  0.67465900  1
  Ni  Ni7  1  0.49409200  0.36571500  0.32534100  1
  Ni  Ni8  1  0.49855900  0.56057000  0.12190600  1
  Ni  Ni9  1  0.99855900  0.43943000  0.87809400  1
  Ni  Ni10  1  0.00144100  0.06057000  0.37809400  1
  Ni  Ni11  1  0.50144100  0.93943000  0.62190600  1
  Ni  Ni12  1  0.50144100  0.43943000  0.87809400  1
  Ni  Ni13  1  0.00144100  0.56057000  0.12190600  1
  Ni  Ni14  1  0.99855900  0.93943000  0.62190600  1
  Ni  Ni15  1  0.49855900  0.06057000  0.37809400  1
  Ni  Ni16  1  0.75000000  0.56614600  0.30405700  1
  Ni  Ni17  1  0.25000000  0.43385400  0.69594300  1
  Ni  Ni18  1  0.75000000  0.06614600  0.19594300  1
  Ni  Ni19  1  0.25000000  0.93385400  0.80405700  1
  Ni  Ni20  1  0.75000000  0.63541300  0.84181400  1
  Ni  Ni21  1  0.25000000  0.36458700  0.15818600  1
  Ni  Ni22  1  0.75000000  0.13541300  0.65818600  1
  Ni  Ni23  1  0.25000000  0.86458700  0.34181400  1
  Ni  Ni24  1  0.75000000  0.95404400  0.90750200  1
  Ni  Ni25  1  0.25000000  0.04595600  0.09249800  1
  Ni  Ni26  1  0.75000000  0.45404400  0.59249800  1
  Ni  Ni27  1  0.25000000  0.54595600  0.40750200  1
  Ni  Ni28  1  0.75000000  0.62557300  0.50463900  1
  Ni  Ni29  1  0.25000000  0.37442700  0.49536100  1
  Ni  Ni30  1  0.75000000  0.12557300  0.99536100  1
  Ni  Ni31  1  0.25000000  0.87442700  0.00463900  1
  Ni  Ni32  1  0.75000000  0.81124000  0.75135800  1
  Ni  Ni33  1  0.25000000  0.18876000  0.24864200  1
  Ni  Ni34  1  0.75000000  0.31124000  0.74864200  1
  Ni  Ni35  1  0.25000000  0.68876000  0.25135800  1
  Cu  Cu36  1  0.75000000  0.86372000  0.45786300  1
  Cu  Cu37  1  0.25000000  0.13628000  0.54213700  1
  Cu  Cu38  1  0.75000000  0.36372000  0.04213700  1
  Cu  Cu39  1  0.25000000  0.63628000  0.95786300  1
  Cu  Cu40  1  0.75000000  0.75029500  0.02778500  1
  Cu  Cu41  1  0.25000000  0.24970500  0.97221500  1
  Cu  Cu42  1  0.75000000  0.25029500  0.47221500  1
  Cu  Cu43  1  0.25000000  0.74970500  0.52778500  1
  C  C44  1  0.50402200  0.70901800  0.38102800  1
  C  C45  1  0.00402200  0.29098200  0.61897200  1
  C  C46  1  0.99597800  0.20901800  0.11897200  1
  C  C47  1  0.49597800  0.79098200  0.88102800  1
  C  C48  1  0.49597800  0.29098200  0.61897200  1
  C  C49  1  0.99597800  0.70901800  0.38102800  1
  C  C50  1  0.00402200  0.79098200  0.88102800  1
  C  C51  1  0.50402200  0.20901800  0.11897200  1
  C  C52  1  0.75000000  0.70519200  0.19687400  1
  C  C53  1  0.25000000  0.29480800  0.80312600  1
  C  C54  1  0.75000000  0.20519200  0.30312600  1
  C  C55  1  0.25000000  0.79480800  0.69687400  1
  C  C56  1  0.75000000  0.91697300  0.30005600  1
  C  C57  1  0.25000000  0.08302700  0.69994400  1
  C  C58  1  0.75000000  0.41697300  0.19994400  1
  C  C59  1  0.25000000  0.58302700  0.80005600  1
  C  C60  1  0.75000000  0.55407300  0.98264000  1
  C  C61  1  0.25000000  0.44592700  0.01736000  1
  C  C62  1  0.75000000  0.05407300  0.51736000  1
  C  C63  1  0.25000000  0.94592700  0.48264000  1
  C  C64  1  0.75000000  0.95363000  0.06432500  1
  C  C65  1  0.25000000  0.04637000  0.93567500  1
  C  C66  1  0.75000000  0.45363000  0.43567500  1
  C  C67  1  0.25000000  0.54637000  0.56432500  1
  C  C68  1  0.75000000  0.77120100  0.60257200  1
  C  C69  1  0.25000000  0.22879900  0.39742800  1
  C  C70  1  0.75000000  0.27120100  0.89742800  1
  C  C71  1  0.25000000  0.72879900  0.10257200  1
  C  C72  1  0.75000000  0.99339700  0.75622900  1
  C  C73  1  0.25000000  0.00660300  0.24377100  1
  C  C74  1  0.75000000  0.49339700  0.74377100  1
  C  C75  1  0.25000000  0.50660300  0.25622900  1
