# generated using pymatgen
data_Cu2NiC7
_symmetry_space_group_name_H-M   'P 1'
_cell_length_a   3.08567311
_cell_length_b   5.18458825
_cell_length_c   6.51517495
_cell_angle_alpha   101.57425296
_cell_angle_beta   103.70241191
_cell_angle_gamma   89.99272988
_symmetry_Int_Tables_number   1
_chemical_formula_structural   Cu2NiC7
_chemical_formula_sum   'Cu2 Ni1 C7'
_cell_volume   99.08072219
_cell_formula_units_Z   1
loop_
 _symmetry_equiv_pos_site_id
 _symmetry_equiv_pos_as_xyz
  1  'x, y, z'
loop_
 _atom_site_type_symbol
 _atom_site_label
 _atom_site_symmetry_multiplicity
 _atom_site_fract_x
 _atom_site_fract_y
 _atom_site_fract_z
 _atom_site_occupancy
  Ni  Ni0  1  0.22585967  0.95077374  0.45293895  1
  Cu  Cu1  1  0.86008734  0.56919979  0.72099676  1
  Cu  Cu2  1  0.13350287  0.41064019  0.26723148  1
  C  C3  1  0.55131991  0.97444769  0.10231063  1
  C  C4  1  0.42112788  0.04722995  0.84131200  1
  C  C5  1  0.99472332  0.47719666  0.99044947  1
  C  C6  1  0.69970675  0.66830065  0.40118322  1
  C  C7  1  0.29030919  0.33465046  0.58294967  1
  C  C8  1  0.38275216  0.86261725  0.76510777  1
  C  C9  1  0.61769391  0.11119363  0.23489504  1
