# generated using pymatgen
data_Cu4Ni8C7
_symmetry_space_group_name_H-M   'P 1'
_cell_length_a   5.08638743
_cell_length_b   7.70746804
_cell_length_c   5.60738161
_cell_angle_alpha   92.14812400
_cell_angle_beta   96.75630656
_cell_angle_gamma   84.26001671
_symmetry_Int_Tables_number   1
_chemical_formula_structural   Cu4Ni8C7
_chemical_formula_sum   'Cu4 Ni8 C7'
_cell_volume   217.13240413
_cell_formula_units_Z   1
loop_
 _symmetry_equiv_pos_site_id
 _symmetry_equiv_pos_as_xyz
  1  'x, y, z'
loop_
 _atom_site_type_symbol
 _atom_site_label
 _atom_site_symmetry_multiplicity
 _atom_site_fract_x
 _atom_site_fract_y
 _atom_site_fract_z
 _atom_site_occupancy
  C  C0  1  0.03423532  0.48800532  0.05125362  1
  C  C1  1  0.47267948  0.99540169  0.49036717  1
  C  C2  1  0.51476471  0.68316170  0.18245633  1
  C  C3  1  0.53334492  0.35459699  0.84381296  1
  C  C4  1  0.02176912  0.69176868  0.64744997  1
  C  C5  1  0.84334287  0.27776069  0.44896164  1
  C  C6  1  0.00613208  0.01217093  0.97817378  1
  Ni  Ni7  1  0.82779129  0.45370721  0.70614840  1
  Ni  Ni8  1  0.79685750  0.09805478  0.22743001  1
  Ni  Ni9  1  0.71730246  0.13177423  0.72451369  1
  Ni  Ni10  1  0.68173412  0.77632163  0.48216273  1
  Ni  Ni11  1  0.71248257  0.44547383  0.19251606  1
  Ni  Ni12  1  0.32091538  0.57909054  0.88641488  1
  Ni  Ni13  1  0.30563490  0.90605640  0.19375218  1
  Ni  Ni14  1  0.16802761  0.90843820  0.70223879  1
  Cu  Cu15  1  0.84808634  0.74586243  0.99315412  1
  Cu  Cu16  1  0.26628343  0.22970593  0.49318154  1
  Cu  Cu17  1  0.20414594  0.56707371  0.36376690  1
  Cu  Cu18  1  0.23835993  0.25557613  0.98748423  1
