# generated using pymatgen
data_CuNi5C13
_symmetry_space_group_name_H-M   'P 1'
_cell_length_a   6.89754635
_cell_length_b   7.20556907
_cell_length_c   5.70207311
_cell_angle_alpha   73.88990063
_cell_angle_beta   109.62808670
_cell_angle_gamma   100.59111367
_symmetry_Int_Tables_number   1
_chemical_formula_structural   CuNi5C13
_chemical_formula_sum   'Cu1 Ni5 C13'
_cell_volume   255.15938041
_cell_formula_units_Z   1
loop_
 _symmetry_equiv_pos_site_id
 _symmetry_equiv_pos_as_xyz
  1  'x, y, z'
loop_
 _atom_site_type_symbol
 _atom_site_label
 _atom_site_symmetry_multiplicity
 _atom_site_fract_x
 _atom_site_fract_y
 _atom_site_fract_z
 _atom_site_occupancy
  C  C0  1  0.74245375  0.71690168  0.78673777  1
  Ni  Ni1  1  0.91169755  0.91518969  0.24611524  1
  Ni  Ni2  1  0.18317601  0.60122633  0.76695214  1
  Ni  Ni3  1  0.37485931  0.79472069  0.28388103  1
  Ni  Ni4  1  0.62736829  0.21540001  0.73180169  1
  Ni  Ni5  1  0.84687533  0.39001635  0.28862969  1
  Cu  Cu6  1  0.08942022  0.08600945  0.74191829  1
  C  C7  1  0.99768865  0.78445394  0.64461475  1
  C  C8  1  0.05908998  0.39331027  0.66323069  1
  C  C9  1  0.19768755  0.96639911  0.15247847  1
  C  C10  1  0.40762053  0.69363438  0.62148817  1
  C  C11  1  0.39266479  0.11455750  0.75476225  1
  C  C12  1  0.29751274  0.61243544  0.10602407  1
  C  C13  1  0.71530152  0.40564812  0.89510381  1
  C  C14  1  0.62301144  0.87974820  0.29727508  1
  C  C15  1  0.60837982  0.31372547  0.41113037  1
  C  C16  1  0.79547709  0.01762673  0.84972477  1
  C  C17  1  0.88186480  0.66379709  0.16759813  1
  C  C18  1  0.96784862  0.15742055  0.35095157  1
