# generated using pymatgen
data_Cu2Ni10C7
_symmetry_space_group_name_H-M   'P 1'
_cell_length_a   5.14657148
_cell_length_b   5.14657020
_cell_length_c   8.84297987
_cell_angle_alpha   89.84517892
_cell_angle_beta   90.15481587
_cell_angle_gamma   104.06563953
_symmetry_Int_Tables_number   1
_chemical_formula_structural   Cu2Ni10C7
_chemical_formula_sum   'Cu2 Ni10 C7'
_cell_volume   227.20179627
_cell_formula_units_Z   1
loop_
 _symmetry_equiv_pos_site_id
 _symmetry_equiv_pos_as_xyz
  1  'x, y, z'
loop_
 _atom_site_type_symbol
 _atom_site_label
 _atom_site_symmetry_multiplicity
 _atom_site_fract_x
 _atom_site_fract_y
 _atom_site_fract_z
 _atom_site_occupancy
  C  C0  1  0.69228102  0.30771898  0.00204605  1
  C  C1  1  0.03830822  0.96169278  0.00837478  1
  C  C2  1  0.99312969  0.00686931  0.33219102  1
  C  C3  1  0.00000278  -0.00000278  0.66083909  1
  C  C4  1  0.41577061  0.58422939  0.18660398  1
  C  C5  1  0.41039635  0.58960365  0.81409493  1
  C  C6  1  0.58496674  0.41503326  0.50144755  1
  Ni  Ni7  1  0.18549746  0.81450254  0.17742427  1
  Ni  Ni8  1  0.17427684  0.82572316  0.82961512  1
  Ni  Ni9  1  0.30901073  0.31828664  0.99549299  1
  Ni  Ni10  1  0.31916706  0.29948340  0.33704645  1
  Ni  Ni11  1  0.31035275  0.30548954  0.66508737  1
  Ni  Ni12  1  0.68171436  0.69099027  0.99549399  1
  Ni  Ni13  1  0.70051560  0.68083194  0.33704745  1
  Ni  Ni14  1  0.69450946  0.68964825  0.66508737  1
  Ni  Ni15  1  0.85898975  0.14101025  0.15292734  1
  Ni  Ni16  1  0.82839609  0.17160391  0.50080362  1
  Cu  Cu17  1  0.16595192  0.83404808  0.50040590  1
  Cu  Cu18  1  0.83120658  0.16879342  0.83082873  1
