# generated using pymatgen
data_Cu6Ni3C13
_symmetry_space_group_name_H-M   'P 1'
_cell_length_a   6.53958100
_cell_length_b   7.87638300
_cell_length_c   12.06721727
_cell_angle_alpha   52.94662685
_cell_angle_beta   90.00000000
_cell_angle_gamma   90.00000000
_symmetry_Int_Tables_number   1
_chemical_formula_structural   Cu6Ni3C13
_chemical_formula_sum   'Cu12 Ni6 C26'
_cell_volume   496.05215859
_cell_formula_units_Z   2
loop_
 _symmetry_equiv_pos_site_id
 _symmetry_equiv_pos_as_xyz
  1  'x, y, z'
loop_
 _atom_site_type_symbol
 _atom_site_label
 _atom_site_symmetry_multiplicity
 _atom_site_fract_x
 _atom_site_fract_y
 _atom_site_fract_z
 _atom_site_occupancy
  C  C0  1  0.84485400  0.00000000  0.75000000  1
  C  C1  1  0.15514600  0.00000000  0.25000000  1
  C  C2  1  0.90839000  0.76017300  0.63120700  1
  C  C3  1  0.90839000  0.23982700  0.86879300  1
  C  C4  1  0.09161000  0.23982700  0.36879300  1
  C  C5  1  0.09161000  0.76017300  0.13120700  1
  C  C6  1  0.08710200  0.67716600  0.73928200  1
  C  C7  1  0.08710200  0.32283400  0.76071800  1
  C  C8  1  0.91289800  0.32283400  0.26071800  1
  C  C9  1  0.91289800  0.67716600  0.23928200  1
  C  C10  1  0.52799900  0.79876200  0.68262500  1
  C  C11  1  0.52799900  0.20123800  0.81737500  1
  C  C12  1  0.47200100  0.20123800  0.31737500  1
  C  C13  1  0.47200100  0.79876200  0.18262500  1
  C  C14  1  0.44767600  0.03058900  0.61502900  1
  C  C15  1  0.44767600  0.96941100  0.88497100  1
  C  C16  1  0.55232400  0.96941100  0.38497100  1
  C  C17  1  0.55232400  0.03058900  0.11502900  1
  C  C18  1  0.75368500  0.53316600  0.95923500  1
  C  C19  1  0.75368500  0.46683400  0.54076500  1
  C  C20  1  0.24631500  0.46683400  0.04076500  1
  C  C21  1  0.24631500  0.53316600  0.45923500  1
  C  C22  1  0.33171300  0.63070700  0.53094100  1
  C  C23  1  0.33171300  0.36929300  0.96905900  1
  C  C24  1  0.66828700  0.36929300  0.46905900  1
  C  C25  1  0.66828700  0.63070700  0.03094100  1
  Ni  Ni26  1  0.36686600  0.50000000  0.75000000  1
  Ni  Ni27  1  0.63313400  0.50000000  0.25000000  1
  Ni  Ni28  1  0.16613100  0.20069300  0.55698800  1
  Ni  Ni29  1  0.16613100  0.79930700  0.94301200  1
  Ni  Ni30  1  0.83386900  0.79930700  0.44301200  1
  Ni  Ni31  1  0.83386900  0.20069300  0.05698800  1
  Cu  Cu32  1  0.95006300  0.74257800  0.71674100  1
  Cu  Cu33  1  0.95006300  0.25742200  0.78325900  1
  Cu  Cu34  1  0.04993700  0.25742200  0.28325900  1
  Cu  Cu35  1  0.04993700  0.74257800  0.21674100  1
  Cu  Cu36  1  0.57426300  0.94343600  0.64553300  1
  Cu  Cu37  1  0.57426300  0.05656400  0.85446700  1
  Cu  Cu38  1  0.42573700  0.05656400  0.35446700  1
  Cu  Cu39  1  0.42573700  0.94343600  0.14553300  1
  Cu  Cu40  1  0.70426000  0.66777700  0.93920100  1
  Cu  Cu41  1  0.70426000  0.33222300  0.56079900  1
  Cu  Cu42  1  0.29574000  0.33222300  0.06079900  1
  Cu  Cu43  1  0.29574000  0.66777700  0.43920100  1
