# generated using pymatgen
data_Cu3NiC2
_symmetry_space_group_name_H-M   'P 1'
_cell_length_a   8.28191100
_cell_length_b   8.47778000
_cell_length_c   21.65861200
_cell_angle_alpha   90.00000000
_cell_angle_beta   90.00000000
_cell_angle_gamma   90.00000000
_symmetry_Int_Tables_number   1
_chemical_formula_structural   Cu3NiC2
_chemical_formula_sum   'Cu24 Ni8 C16'
_cell_volume   1520.69921846
_cell_formula_units_Z   8
loop_
 _symmetry_equiv_pos_site_id
 _symmetry_equiv_pos_as_xyz
  1  'x, y, z'
loop_
 _atom_site_type_symbol
 _atom_site_label
 _atom_site_symmetry_multiplicity
 _atom_site_fract_x
 _atom_site_fract_y
 _atom_site_fract_z
 _atom_site_occupancy
  C  C0  1  0.67564200  0.98661200  0.66680400  1
  C  C1  1  0.82435800  0.48661200  0.16680400  1
  C  C2  1  0.17564200  0.51338800  0.66680400  1
  C  C3  1  0.67564200  0.98661200  0.83319600  1
  C  C4  1  0.32435800  0.01338800  0.33319600  1
  C  C5  1  0.17564200  0.51338800  0.83319600  1
  C  C6  1  0.82435800  0.48661200  0.33319600  1
  C  C7  1  0.32435800  0.01338800  0.16680400  1
  C  C8  1  0.26524500  0.94817000  0.49460900  1
  C  C9  1  0.76524500  0.55183000  0.00539100  1
  C  C10  1  0.23475500  0.44817000  0.50539100  1
  C  C11  1  0.73475500  0.05183000  0.99460900  1
  C  C12  1  0.73475500  0.05183000  0.50539100  1
  C  C13  1  0.23475500  0.44817000  0.99460900  1
  C  C14  1  0.76524500  0.55183000  0.49460900  1
  C  C15  1  0.26524500  0.94817000  0.00539100  1
  Ni  Ni16  1  0.17622700  0.00950400  0.66666100  1
  Ni  Ni17  1  0.67622700  0.49049600  0.66666100  1
  Ni  Ni18  1  0.32377300  0.50950400  0.16666100  1
  Ni  Ni19  1  0.82377300  0.99049600  0.33333900  1
  Ni  Ni20  1  0.82377300  0.99049600  0.16666100  1
  Ni  Ni21  1  0.32377300  0.50950400  0.33333900  1
  Ni  Ni22  1  0.67622700  0.49049600  0.83333900  1
  Ni  Ni23  1  0.17622700  0.00950400  0.83333900  1
  Cu  Cu24  1  0.01372200  0.83554300  0.90732900  1
  Cu  Cu25  1  0.51372200  0.66445700  0.59267100  1
  Cu  Cu26  1  0.48627800  0.33554300  0.09267100  1
  Cu  Cu27  1  0.98627800  0.16445700  0.40732900  1
  Cu  Cu28  1  0.98627800  0.16445700  0.09267100  1
  Cu  Cu29  1  0.48627800  0.33554300  0.40732900  1
  Cu  Cu30  1  0.51372200  0.66445700  0.90732900  1
  Cu  Cu31  1  0.01372200  0.83554300  0.59267100  1
  Cu  Cu32  1  0.12713400  0.68086400  0.39338200  1
  Cu  Cu33  1  0.62713400  0.81913600  0.10661800  1
  Cu  Cu34  1  0.37286600  0.18086400  0.60661800  1
  Cu  Cu35  1  0.87286600  0.31913600  0.89338200  1
  Cu  Cu36  1  0.87286600  0.31913600  0.60661800  1
  Cu  Cu37  1  0.37286600  0.18086400  0.89338200  1
  Cu  Cu38  1  0.62713400  0.81913600  0.39338200  1
  Cu  Cu39  1  0.33358500  0.84004600  0.75000000  1
  Cu  Cu40  1  0.00915600  0.16480600  0.75000000  1
  Cu  Cu41  1  0.50915600  0.33519400  0.75000000  1
  Cu  Cu42  1  0.49084400  0.66480600  0.25000000  1
  Cu  Cu43  1  0.99084400  0.83519400  0.25000000  1
  Cu  Cu44  1  0.66641500  0.15995400  0.25000000  1
  Cu  Cu45  1  0.16641500  0.34004600  0.25000000  1
  Cu  Cu46  1  0.83358500  0.65995400  0.75000000  1
  Cu  Cu47  1  0.12713400  0.68086400  0.10661800  1
