# generated using pymatgen
data_Cu(Ni4C5)3
_symmetry_space_group_name_H-M   'P 1'
_cell_length_a   7.21662089
_cell_length_b   7.21662089
_cell_length_c   7.21662010
_cell_angle_alpha   93.04506640
_cell_angle_beta   93.04506640
_cell_angle_gamma   93.04506448
_symmetry_Int_Tables_number   1
_chemical_formula_structural   Cu(Ni4C5)3
_chemical_formula_sum   'Cu1 Ni12 C15'
_cell_volume   374.18798633
_cell_formula_units_Z   1
loop_
 _symmetry_equiv_pos_site_id
 _symmetry_equiv_pos_as_xyz
  1  'x, y, z'
loop_
 _atom_site_type_symbol
 _atom_site_label
 _atom_site_symmetry_multiplicity
 _atom_site_fract_x
 _atom_site_fract_y
 _atom_site_fract_z
 _atom_site_occupancy
  C  C0  1  0.50000000  0.50000000  0.00000000  1
  C  C1  1  0.00000000  0.50000000  0.50000000  1
  C  C2  1  0.50000000  0.00000000  0.50000000  1
  C  C3  1  0.11863900  0.84355900  0.11863900  1
  C  C4  1  0.88136100  0.15644100  0.88136100  1
  C  C5  1  0.15644100  0.88136100  0.88136100  1
  C  C6  1  0.88136100  0.88136100  0.15644100  1
  C  C7  1  0.05738600  0.05738600  0.22726600  1
  C  C8  1  0.22726600  0.05738600  0.05738600  1
  C  C9  1  0.05738600  0.22726600  0.05738600  1
  C  C10  1  0.94261400  0.77273400  0.94261400  1
  C  C11  1  0.94261400  0.94261400  0.77273400  1
  C  C12  1  0.77273400  0.94261400  0.94261400  1
  C  C13  1  0.11863900  0.11863900  0.84355900  1
  C  C14  1  0.84355900  0.11863900  0.11863900  1
  Ni  Ni15  1  0.79620300  0.79620300  0.26726800  1
  Ni  Ni16  1  0.26726800  0.79620300  0.79620300  1
  Ni  Ni17  1  0.79620300  0.26726800  0.79620300  1
  Ni  Ni18  1  0.20379700  0.73273200  0.20379700  1
  Ni  Ni19  1  0.90232300  0.90232300  0.61123100  1
  Ni  Ni20  1  0.61123100  0.90232300  0.90232300  1
  Ni  Ni21  1  0.90232300  0.61123100  0.90232300  1
  Ni  Ni22  1  0.09767700  0.38876900  0.09767700  1
  Ni  Ni23  1  0.09767700  0.09767700  0.38876900  1
  Ni  Ni24  1  0.38876900  0.09767700  0.09767700  1
  Ni  Ni25  1  0.20379700  0.20379700  0.73273200  1
  Ni  Ni26  1  0.73273200  0.20379700  0.20379700  1
  Cu  Cu27  1  0.50000000  0.50000000  0.50000000  1
