# generated using pymatgen
data_CuNiC8
_symmetry_space_group_name_H-M   'P 1'
_cell_length_a   10.12591396
_cell_length_b   10.12591307
_cell_length_c   10.12591272
_cell_angle_alpha   33.07940878
_cell_angle_beta   33.07942253
_cell_angle_gamma   33.07940911
_symmetry_Int_Tables_number   1
_chemical_formula_structural   CuNiC8
_chemical_formula_sum   'Cu2 Ni2 C16'
_cell_volume   275.28021415
_cell_formula_units_Z   2
loop_
 _symmetry_equiv_pos_site_id
 _symmetry_equiv_pos_as_xyz
  1  'x, y, z'
loop_
 _atom_site_type_symbol
 _atom_site_label
 _atom_site_symmetry_multiplicity
 _atom_site_fract_x
 _atom_site_fract_y
 _atom_site_fract_z
 _atom_site_occupancy
  Ni  Ni0  1  0.28604000  0.28604000  0.28604000  1
  Ni  Ni1  1  0.71396000  0.71396000  0.71396000  1
  Cu  Cu2  1  0.13616900  0.13616900  0.13616900  1
  Cu  Cu3  1  0.86383100  0.86383100  0.86383100  1
  C  C4  1  0.50000000  0.50000000  0.50000000  1
  C  C5  1  0.00000000  0.00000000  0.00000000  1
  C  C6  1  0.41146400  0.41146400  0.41146400  1
  C  C7  1  0.58853600  0.58853600  0.58853600  1
  C  C8  1  0.20990000  0.71828200  0.20990000  1
  C  C9  1  0.20990000  0.20990000  0.71828200  1
  C  C10  1  0.71828200  0.20990000  0.20990000  1
  C  C11  1  0.12915300  0.62336700  0.62336700  1
  C  C12  1  0.62336700  0.12915300  0.62336700  1
  C  C13  1  0.62336700  0.62336700  0.12915300  1
  C  C14  1  0.37663300  0.37663300  0.87084700  1
  C  C15  1  0.37663300  0.87084700  0.37663300  1
  C  C16  1  0.87084700  0.37663300  0.37663300  1
  C  C17  1  0.28171800  0.79010000  0.79010000  1
  C  C18  1  0.79010000  0.79010000  0.28171800  1
  C  C19  1  0.79010000  0.28171800  0.79010000  1
