# generated using pymatgen
data_Cu(Ni2C11)3
_symmetry_space_group_name_H-M   'P 1'
_cell_length_a   16.04466508
_cell_length_b   9.18652882
_cell_length_c   9.24247699
_cell_angle_alpha   89.98530814
_cell_angle_beta   125.69025068
_cell_angle_gamma   90.10048765
_symmetry_Int_Tables_number   1
_chemical_formula_structural   Cu(Ni2C11)3
_chemical_formula_sum   'Cu2 Ni12 C66'
_cell_volume   1106.42863584
_cell_formula_units_Z   2
loop_
 _symmetry_equiv_pos_site_id
 _symmetry_equiv_pos_as_xyz
  1  'x, y, z'
loop_
 _atom_site_type_symbol
 _atom_site_label
 _atom_site_symmetry_multiplicity
 _atom_site_fract_x
 _atom_site_fract_y
 _atom_site_fract_z
 _atom_site_occupancy
  Ni  Ni0  1  0.25253877  0.75054926  0.00089132  1
  Ni  Ni1  1  0.74935359  0.75106575  0.49779226  1
  Ni  Ni2  1  0.75253877  0.25054926  0.00089132  1
  Ni  Ni3  1  0.24935359  0.25106575  0.49779226  1
  Ni  Ni4  1  0.50242824  0.09359404  0.75225161  1
  Ni  Ni5  1  0.50376260  0.89099812  0.24878294  1
  Ni  Ni6  1  0.00242824  0.59359404  0.75225161  1
  Ni  Ni7  1  0.00376260  0.39099812  0.24878294  1
  Ni  Ni8  1  0.80617292  0.92750911  0.21926368  1
  Ni  Ni9  1  0.18559243  0.07146177  0.78715633  1
  Ni  Ni10  1  0.30617292  0.42750911  0.21926368  1
  Ni  Ni11  1  0.68559243  0.57146177  0.78715633  1
  Cu  Cu12  1  0.09893950  0.23397339  0.05965431  1
  Cu  Cu13  1  0.59893950  0.73397339  0.05965431  1
  C  C14  1  0.10555763  0.74671722  0.55696187  1
  C  C15  1  0.89640450  0.75814915  0.93284470  1
  C  C16  1  0.89225788  0.25068772  0.44107008  1
  C  C17  1  0.60555763  0.24671722  0.55696187  1
  C  C18  1  0.39640450  0.25814915  0.93284470  1
  C  C19  1  0.39225788  0.75068772  0.44107008  1
  C  C20  1  0.99623563  0.94444960  0.73556190  1
  C  C21  1  0.99422139  0.04085247  0.26200149  1
  C  C22  1  0.49623563  0.44444960  0.73556190  1
  C  C23  1  0.49422139  0.54085247  0.26200149  1
  C  C24  1  0.34923734  0.90359461  0.75728185  1
  C  C25  1  0.65076587  0.89910606  0.74708494  1
  C  C26  1  0.64747750  0.12224581  0.24750921  1
  C  C27  1  0.36173421  0.09495635  0.25041340  1
  C  C28  1  0.84923734  0.40359461  0.75728185  1
  C  C29  1  0.15076587  0.39910606  0.74708494  1
  C  C30  1  0.14747750  0.62224581  0.24750921  1
  C  C31  1  0.86173421  0.59495635  0.25041340  1
  C  C32  1  0.16180595  0.57204543  0.71850497  1
  C  C33  1  0.84972716  0.58338030  0.74997138  1
  C  C34  1  0.85551682  0.41611368  0.25904207  1
  C  C35  1  0.16020590  0.44789063  0.26666607  1
  C  C36  1  0.66180595  0.07204543  0.71850497  1
  C  C37  1  0.34972716  0.08338030  0.74997138  1
  C  C38  1  0.35551682  0.91611368  0.25904207  1
  C  C39  1  0.66020590  0.94789063  0.26666607  1
  C  C40  1  0.42878649  0.56163137  0.56684860  1
  C  C41  1  0.58821819  0.53386178  0.90341585  1
  C  C42  1  0.54200143  0.42790057  0.42758865  1
  C  C43  1  0.43543262  0.43026375  0.08232858  1
  C  C44  1  0.92878649  0.06163137  0.56684860  1
  C  C45  1  0.08821819  0.03386178  0.90341585  1
  C  C46  1  0.04200143  0.92790057  0.42758865  1
  C  C47  1  0.93543262  0.93026375  0.08232858  1
  C  C48  1  0.24083406  0.85364130  0.72499000  1
  C  C49  1  0.74252856  0.80669981  0.76001073  1
  C  C50  1  0.74444245  0.19669381  0.25870171  1
  C  C51  1  0.28335014  0.18520028  0.27071445  1
  C  C52  1  0.74083406  0.35364130  0.72499000  1
  C  C53  1  0.24252856  0.30669981  0.76001073  1
  C  C54  1  0.24444245  0.69669381  0.25870171  1
  C  C55  1  0.78335014  0.68520028  0.27071445  1
  C  C56  1  0.36513426  0.84760946  0.59973087  1
  C  C57  1  0.65577639  0.89114830  0.92666156  1
  C  C58  1  0.64769962  0.19131581  0.41013154  1
  C  C59  1  0.35513223  0.13992075  0.06824767  1
  C  C60  1  0.86513426  0.34760946  0.59973087  1
  C  C61  1  0.15577639  0.39114830  0.92666156  1
  C  C62  1  0.14769962  0.69131581  0.41013154  1
  C  C63  1  0.85513223  0.63992075  0.06824767  1
  C  C64  1  0.44158468  0.84385831  0.94817988  1
  C  C65  1  0.53851830  0.82507821  0.58014270  1
  C  C66  1  0.53649314  0.17417904  0.06194299  1
  C  C67  1  0.47993735  0.13254496  0.41418428  1
  C  C68  1  0.94158468  0.34385831  0.94817988  1
  C  C69  1  0.03851830  0.32507821  0.58014270  1
  C  C70  1  0.03649314  0.67417904  0.06194299  1
  C  C71  1  0.97993735  0.63254496  0.41418428  1
  C  C72  1  0.05564107  0.81457219  0.70673252  1
  C  C73  1  0.91508903  0.86036299  0.76198870  1
  C  C74  1  0.90433509  0.13473893  0.25482007  1
  C  C75  1  0.07912903  0.14943791  0.28193227  1
  C  C76  1  0.55564107  0.31457219  0.70673252  1
  C  C77  1  0.41508903  0.36036299  0.76198870  1
  C  C78  1  0.40433509  0.63473893  0.25482007  1
  C  C79  1  0.57912903  0.64943791  0.28193227  1
