# generated using pymatgen
data_Cu5(Ni2C21)3
_symmetry_space_group_name_H-M   'P 1'
_cell_length_a   17.91264442
_cell_length_b   8.94220297
_cell_length_c   23.00349018
_cell_angle_alpha   90.10883341
_cell_angle_beta   90.04986688
_cell_angle_gamma   119.92203063
_symmetry_Int_Tables_number   1
_chemical_formula_structural   Cu5(Ni2C21)3
_chemical_formula_sum   'Cu15 Ni18 C189'
_cell_volume   3193.50449311
_cell_formula_units_Z   3
loop_
 _symmetry_equiv_pos_site_id
 _symmetry_equiv_pos_as_xyz
  1  'x, y, z'
loop_
 _atom_site_type_symbol
 _atom_site_label
 _atom_site_symmetry_multiplicity
 _atom_site_fract_x
 _atom_site_fract_y
 _atom_site_fract_z
 _atom_site_occupancy
  Ni  Ni0  1  0.48430164  0.68591764  0.91078243  1
  Ni  Ni1  1  0.16277738  0.31801619  0.91168191  1
  Ni  Ni2  1  0.48732870  0.29643615  0.41528401  1
  Ni  Ni3  1  0.97717126  0.28946506  0.40939689  1
  Ni  Ni4  1  0.16418262  0.02384324  0.41196514  1
  Ni  Ni5  1  0.66508536  0.03005330  0.41931147  1
  Ni  Ni6  1  0.98246690  0.96720632  0.49195887  1
  Ni  Ni7  1  0.49388005  0.98492795  0.49354861  1
  Ni  Ni8  1  0.99269415  0.99654779  0.99667072  1
  Ni  Ni9  1  0.50111964  0.99937373  0.98848872  1
  Ni  Ni10  1  0.33353084  0.32627450  0.82021703  1
  Ni  Ni11  1  0.83189561  0.33981882  0.82994065  1
  Ni  Ni12  1  0.33705856  0.33198878  0.32965452  1
  Ni  Ni13  1  0.83987257  0.34049845  0.33287728  1
  Ni  Ni14  1  0.15275402  0.65868834  0.16174848  1
  Ni  Ni15  1  0.66661526  0.64718379  0.16465396  1
  Ni  Ni16  1  0.16915894  0.67018384  0.67102588  1
  Ni  Ni17  1  0.66195311  0.65722296  0.66264579  1
  Cu  Cu18  1  0.99697521  0.99612238  0.35109205  1
  Cu  Cu19  1  0.49436844  0.00211215  0.35519303  1
  Cu  Cu20  1  0.00205435  0.99966594  0.85123448  1
  Cu  Cu21  1  0.50015077  0.99833990  0.85129254  1
  Cu  Cu22  1  0.33489530  0.33382393  0.69147818  1
  Cu  Cu23  1  0.83300734  0.34301589  0.68920762  1
  Cu  Cu24  1  0.33524241  0.32684683  0.19096799  1
  Cu  Cu25  1  0.84129490  0.34746125  0.18303366  1
  Cu  Cu26  1  0.33212768  0.33814724  0.97823201  1
  Cu  Cu27  1  0.33883483  0.33918152  0.47723387  1
  Cu  Cu28  1  0.83368211  0.33743213  0.47398985  1
  Cu  Cu29  1  0.16108908  0.65434461  0.01675900  1
  Cu  Cu30  1  0.66716519  0.66850708  0.02129400  1
  Cu  Cu31  1  0.16949595  0.67652021  0.51787855  1
  Cu  Cu32  1  0.66721422  0.66930692  0.51421941  1
  C  C33  1  0.00416174  0.99836987  0.65045274  1
  C  C34  1  0.50061125  0.00406849  0.65448118  1
  C  C35  1  0.00409858  0.99899922  0.14906761  1
  C  C36  1  0.50685144  0.01930685  0.14647819  1
  C  C37  1  0.83365527  0.33869443  0.97897011  1
  C  C38  1  0.16014408  0.67229880  0.30953905  1
  C  C39  1  0.66389006  0.65762961  0.31700818  1
  C  C40  1  0.16416412  0.64972438  0.80881702  1
  C  C41  1  0.66522309  0.67364782  0.80973122  1
  C  C42  1  0.14712075  0.00658365  0.25352495  1
  C  C43  1  0.99762623  0.29012988  0.25246921  1
  C  C44  1  0.50483088  0.30352884  0.25249401  1
  C  C45  1  0.14610663  0.28814722  0.75252992  1
  C  C46  1  0.64689374  0.29143600  0.75393538  1
  C  C47  1  0.99970144  0.70476501  0.75382170  1
  C  C48  1  0.49979317  0.71055354  0.75276983  1
  C  C49  1  0.35318709  0.99738758  0.75409875  1
  C  C50  1  0.98219324  0.63186291  0.08305372  1
  C  C51  1  0.69176074  0.33971739  0.08478359  1
  C  C52  1  0.31206759  0.67413937  0.91949926  1
  C  C53  1  0.01822853  0.37149708  0.91622045  1
  C  C54  1  0.66871793  0.96062710  0.91931674  1
  C  C55  1  0.30966874  0.95322106  0.41747083  1
  C  C56  1  0.81385561  0.95440747  0.41699287  1
  C  C57  1  0.66713476  0.37469807  0.41809322  1
  C  C58  1  0.02155836  0.67078943  0.41845208  1
  C  C59  1  0.52011730  0.66753453  0.41754826  1
  C  C60  1  0.64414154  0.99651122  0.24940345  1
  C  C61  1  0.35523278  0.71364920  0.24805187  1
  C  C62  1  0.85272403  0.71182609  0.24860971  1
  C  C63  1  0.85483866  0.99618021  0.74928189  1
  C  C64  1  0.48062840  0.32812394  0.58394617  1
  C  C65  1  0.98024888  0.32670866  0.58417498  1
  C  C66  1  0.18410567  0.04052292  0.58404032  1
  C  C67  1  0.68412929  0.03950791  0.58454771  1
  C  C68  1  0.33557351  0.63026753  0.58429206  1
  C  C69  1  0.83473745  0.63281963  0.58504406  1
  C  C70  1  0.47809164  0.62855873  0.08473553  1
  C  C71  1  0.33574207  0.04086569  0.08497525  1
  C  C72  1  0.83565103  0.04670247  0.08303651  1
  C  C73  1  0.18666778  0.32937845  0.08510511  1
  C  C74  1  0.80990797  0.66385208  0.91678181  1
  C  C75  1  0.52447480  0.38275349  0.91679655  1
  C  C76  1  0.16739642  0.95594634  0.91682316  1
  C  C77  1  0.16858411  0.38296266  0.41641997  1
  C  C78  1  0.10554398  0.02286188  0.31278177  1
  C  C79  1  0.60311516  0.01299931  0.30197788  1
  C  C80  1  0.40646404  0.78841193  0.30072756  1
  C  C81  1  0.90343864  0.79049554  0.30122732  1
  C  C82  1  0.49114433  0.19228580  0.30978372  1
  C  C83  1  0.98978538  0.18674350  0.31158060  1
  C  C84  1  0.10354248  0.18408667  0.81128186  1
  C  C85  1  0.60396576  0.17930081  0.80989500  1
  C  C86  1  0.48851045  0.78314780  0.81329485  1
  C  C87  1  0.98107064  0.79363469  0.80775739  1
  C  C88  1  0.41248208  0.03044427  0.80947765  1
  C  C89  1  0.90467346  0.02174771  0.80180472  1
  C  C90  1  0.40334204  0.96862558  0.69490752  1
  C  C91  1  0.89657371  0.96845756  0.69660087  1
  C  C92  1  0.08019836  0.18540503  0.69531871  1
  C  C93  1  0.58287182  0.20146194  0.69468558  1
  C  C94  1  0.00918459  0.83148798  0.69478776  1
  C  C95  1  0.51682290  0.83997501  0.69580505  1
  C  C96  1  0.39968912  0.82399725  0.19603168  1
  C  C97  1  0.89838825  0.81903984  0.19572851  1
  C  C98  1  0.00700095  0.18102963  0.19513294  1
  C  C99  1  0.51349964  0.19151944  0.19496156  1
  C  C100  1  0.08205094  0.97249741  0.19564049  1
  C  C101  1  0.58597838  0.97479533  0.19688581  1
  C  C102  1  0.43380310  0.34125539  0.63354603  1
  C  C103  1  0.93579579  0.34515036  0.63478766  1
  C  C104  1  0.23611770  0.13197654  0.63392861  1
  C  C105  1  0.73804070  0.13301477  0.63488514  1
  C  C106  1  0.32767929  0.52746094  0.63551331  1
  C  C107  1  0.82807634  0.53060845  0.63671470  1
  C  C108  1  0.43325197  0.51839801  0.13435924  1
  C  C109  1  0.93812004  0.51877178  0.14013182  1
  C  C110  1  0.32832263  0.12994505  0.13661793  1
  C  C111  1  0.82250177  0.12225484  0.13566737  1
  C  C112  1  0.23974884  0.34209854  0.13515310  1
  C  C113  1  0.74334329  0.35203148  0.14250545  1
  C  C114  1  0.22254592  0.30151440  0.03032928  1
  C  C115  1  0.73701530  0.30773535  0.02653941  1
  C  C116  1  0.42893644  0.55333304  0.02987984  1
  C  C117  1  0.91749435  0.52641356  0.02645298  1
  C  C118  1  0.35210041  0.14667287  0.03228405  1
  C  C119  1  0.84791274  0.15491106  0.03039878  1
  C  C120  1  0.21837040  0.13567159  0.52907884  1
  C  C121  1  0.72226555  0.13575433  0.52980916  1
  C  C122  1  0.34500556  0.54722190  0.53060620  1
  C  C123  1  0.84950155  0.55939931  0.53190586  1
  C  C124  1  0.43207931  0.30808993  0.52850120  1
  C  C125  1  0.93164950  0.30349276  0.52967640  1
  C  C126  1  0.26527910  0.68782774  0.97697167  1
  C  C127  1  0.76837308  0.67972610  0.96937382  1
  C  C128  1  0.08041451  0.45469116  0.97208416  1
  C  C129  1  0.57506656  0.46520857  0.96937711  1
  C  C130  1  0.15722491  0.85689457  0.96972287  1
  C  C131  1  0.65562694  0.83191273  0.97257657  1
  C  C132  1  0.26732858  0.84072904  0.47510460  1
  C  C133  1  0.76928592  0.83800107  0.47332236  1
  C  C134  1  0.15616232  0.46213173  0.46881513  1
  C  C135  1  0.64470663  0.45737714  0.47267064  1
  C  C136  1  0.08299697  0.69633389  0.47335332  1
  C  C137  1  0.57958442  0.70392946  0.47413521  1
  C  C138  1  0.06972856  0.64083347  0.35857964  1
  C  C139  1  0.56879664  0.63121842  0.35979037  1
  C  C140  1  0.24760962  0.84911186  0.35993382  1
  C  C141  1  0.75071602  0.85746628  0.35824404  1
  C  C142  1  0.17995164  0.48673220  0.36341885  1
  C  C143  1  0.67982718  0.49897047  0.35932844  1
  C  C144  1  0.06688952  0.49543192  0.85869522  1
  C  C145  1  0.56892272  0.49398376  0.86387354  1
  C  C146  1  0.17836952  0.87604387  0.86404883  1
  C  C147  1  0.68039289  0.85484860  0.86107054  1
  C  C148  1  0.24634644  0.63690374  0.86233874  1
  C  C149  1  0.75767109  0.64117522  0.86350615  1
  C  C150  1  0.01680579  0.84527024  0.41269455  1
  C  C151  1  0.51505732  0.83863655  0.40601851  1
  C  C152  1  0.40775933  0.99340846  0.41261002  1
  C  C153  1  0.91213347  0.99314835  0.41221437  1
  C  C154  1  0.09055632  0.20878646  0.41195786  1
  C  C155  1  0.58438806  0.18379019  0.40870005  1
  C  C156  1  0.00748355  0.17970610  0.90987372  1
  C  C157  1  0.51290799  0.21174488  0.91163984  1
  C  C158  1  0.09133158  0.98231222  0.91319443  1
  C  C159  1  0.58431184  0.97856032  0.91434512  1
  C  C160  1  0.40953296  0.83093668  0.91541233  1
  C  C161  1  0.89634124  0.81455357  0.91216926  1
  C  C162  1  0.48795095  0.16651585  0.58876167  1
  C  C163  1  0.98623920  0.16283520  0.59180732  1
  C  C164  1  0.09350027  0.02198749  0.59095609  1
  C  C165  1  0.59598220  0.02409498  0.59029132  1
  C  C166  1  0.41542460  0.80756746  0.58871566  1
  C  C167  1  0.91384116  0.81264619  0.59220732  1
  C  C168  1  0.48514948  0.80280497  0.09270493  1
  C  C169  1  0.98379700  0.82234727  0.09043144  1
  C  C170  1  0.41595811  0.02122818  0.09357911  1
  C  C171  1  0.91522766  0.03127884  0.08793822  1
  C  C172  1  0.09757072  0.16858048  0.09140286  1
  C  C173  1  0.59232545  0.15491106  0.09280314  1
  C  C174  1  0.33875171  0.15663824  0.73955840  1
  C  C175  1  0.84076320  0.14112155  0.73956697  1
  C  C176  1  0.23955943  0.31578202  0.74125311  1
  C  C177  1  0.74073722  0.31519043  0.74061575  1
  C  C178  1  0.42349164  0.51936387  0.74051933  1
  C  C179  1  0.92104663  0.51316774  0.74105235  1
  C  C180  1  0.34334600  0.53991736  0.23963740  1
  C  C181  1  0.83995241  0.53777313  0.24308333  1
  C  C182  1  0.42408955  0.33283060  0.24149840  1
  C  C183  1  0.91585810  0.31796397  0.24520304  1
  C  C184  1  0.24064193  0.17096400  0.24233408  1
  C  C185  1  0.72876161  0.14778567  0.24118642  1
  C  C186  1  0.31736921  0.48858802  0.92407173  1
  C  C187  1  0.81629368  0.50118227  0.92061819  1
  C  C188  1  0.43987207  0.37977072  0.92015198  1
  C  C189  1  0.92460365  0.36211027  0.92552746  1
  C  C190  1  0.24560441  0.13453515  0.92234838  1
  C  C191  1  0.75772274  0.14857170  0.92582635  1
  C  C192  1  0.31055456  0.13957778  0.42168999  1
  C  C193  1  0.81678172  0.14122634  0.42062180  1
  C  C194  1  0.24489959  0.35971364  0.42196798  1
  C  C195  1  0.75211916  0.35533848  0.42062161  1
  C  C196  1  0.42815208  0.48561957  0.42037342  1
  C  C197  1  0.93136283  0.48992724  0.42098518  1
  C  C198  1  0.17524222  0.48059596  0.08247736  1
  C  C199  1  0.67136283  0.49506612  0.07623214  1
  C  C200  1  0.07965924  0.66947785  0.07653549  1
  C  C201  1  0.56583761  0.65302198  0.08094727  1
  C  C202  1  0.26117908  0.86811370  0.08086688  1
  C  C203  1  0.76073007  0.87146569  0.07588999  1
  C  C204  1  0.17006965  0.86273390  0.58214795  1
  C  C205  1  0.67287983  0.86361816  0.58320551  1
  C  C206  1  0.25831832  0.65110938  0.58059015  1
  C  C207  1  0.75842469  0.65423293  0.58243840  1
  C  C208  1  0.06924908  0.47481939  0.58083079  1
  C  C209  1  0.56803078  0.48080257  0.58210909  1
  C  C210  1  0.15341560  0.82592159  0.25511772  1
  C  C211  1  0.64900605  0.83436803  0.25009618  1
  C  C212  1  0.26902646  0.70044835  0.25294890  1
  C  C213  1  0.76837732  0.70766568  0.25086012  1
  C  C214  1  0.09165294  0.47800750  0.25657762  1
  C  C215  1  0.59533628  0.49185967  0.25324940  1
  C  C216  1  0.14744856  0.47435675  0.75333235  1
  C  C217  1  0.65772980  0.48774396  0.76149149  1
  C  C218  1  0.09101349  0.70610102  0.75816827  1
  C  C219  1  0.59236893  0.70081848  0.75724253  1
  C  C220  1  0.25922290  0.81813307  0.75945757  1
  C  C221  1  0.76858875  0.83141965  0.75411750  1
