# generated using pymatgen
data_Cu4NiC10
_symmetry_space_group_name_H-M   'P 1'
_cell_length_a   6.21203819
_cell_length_b   6.04325307
_cell_length_c   6.41656521
_cell_angle_alpha   57.93060370
_cell_angle_beta   58.89564786
_cell_angle_gamma   61.37077480
_symmetry_Int_Tables_number   1
_chemical_formula_structural   Cu4NiC10
_chemical_formula_sum   'Cu4 Ni1 C10'
_cell_volume   167.66791485
_cell_formula_units_Z   1
loop_
 _symmetry_equiv_pos_site_id
 _symmetry_equiv_pos_as_xyz
  1  'x, y, z'
loop_
 _atom_site_type_symbol
 _atom_site_label
 _atom_site_symmetry_multiplicity
 _atom_site_fract_x
 _atom_site_fract_y
 _atom_site_fract_z
 _atom_site_occupancy
  Ni  Ni0  1  0.16148932  0.17057878  0.83429305  1
  C  C1  1  0.17796713  0.71239295  0.55477791  1
  C  C2  1  0.69682230  0.11938834  0.59190746  1
  Cu  Cu3  1  0.82575389  0.86859815  0.15281671  1
  Cu  Cu4  1  0.26704957  0.32045667  0.20628849  1
  Cu  Cu5  1  0.64038406  0.60172826  0.10718490  1
  Cu  Cu6  1  0.64086495  0.60144453  0.65073370  1
  C  C7  1  0.34780410  0.39367048  0.43068712  1
  C  C8  1  0.41972231  0.90429424  0.33758507  1
  C  C9  1  0.34803030  0.39388966  0.82771718  1
  C  C10  1  0.85625506  0.42295491  0.36027579  1
  C  C11  1  0.46665486  0.86857062  0.83234477  1
  C  C12  1  0.79576463  0.34265227  0.93092132  1
  C  C13  1  0.91743410  0.87918584  0.39477347  1
  C  C14  1  0.91716943  0.87936030  0.80852703  1
