# generated using pymatgen
data_Cu2NiC13
_symmetry_space_group_name_H-M   'P 1'
_cell_length_a   9.87918687
_cell_length_b   9.87918687
_cell_length_c   12.18304200
_cell_angle_alpha   90.00000000
_cell_angle_beta   90.00000000
_cell_angle_gamma   113.64517635
_symmetry_Int_Tables_number   1
_chemical_formula_structural   Cu2NiC13
_chemical_formula_sum   'Cu4 Ni2 C26'
_cell_volume   1089.22046970
_cell_formula_units_Z   2
loop_
 _symmetry_equiv_pos_site_id
 _symmetry_equiv_pos_as_xyz
  1  'x, y, z'
loop_
 _atom_site_type_symbol
 _atom_site_label
 _atom_site_symmetry_multiplicity
 _atom_site_fract_x
 _atom_site_fract_y
 _atom_site_fract_z
 _atom_site_occupancy
  Ni  Ni0  1  0.79031600  0.20968400  0.00084100  1
  Ni  Ni1  1  0.20968400  0.79031600  0.50084100  1
  Cu  Cu2  1  0.55216000  0.44784000  0.85039900  1
  Cu  Cu3  1  0.85695600  0.14304400  0.53835900  1
  Cu  Cu4  1  0.44784000  0.55216000  0.35039900  1
  Cu  Cu5  1  0.14304400  0.85695600  0.03835900  1
  C  C6  1  0.07426100  0.24247500  0.59901100  1
  C  C7  1  0.31100000  0.37770500  0.86968400  1
  C  C8  1  0.33223800  0.66776200  0.60788000  1
  C  C9  1  0.66776200  0.33223800  0.10788000  1
  C  C10  1  0.08866000  0.91134000  0.39030600  1
  C  C11  1  0.91134000  0.08866000  0.89030600  1
  C  C12  1  0.31033500  0.00476600  0.61761200  1
  C  C13  1  0.68966500  0.99523400  0.11761200  1
  C  C14  1  0.99523400  0.68966500  0.61761200  1
  C  C15  1  0.00476600  0.31033500  0.11761200  1
  C  C16  1  0.42507400  0.89239400  0.38281700  1
  C  C17  1  0.57492600  0.10760600  0.88281700  1
  C  C18  1  0.10760600  0.57492600  0.38281700  1
  C  C19  1  0.89239400  0.42507400  0.88281700  1
  C  C20  1  0.62229500  0.68900000  0.86968400  1
  C  C21  1  0.24247500  0.07426100  0.09901100  1
  C  C22  1  0.75752500  0.92573900  0.59901100  1
  C  C23  1  0.92573900  0.75752500  0.09901100  1
  C  C24  1  0.73562700  0.26437300  0.59138300  1
  C  C25  1  0.26437300  0.73562700  0.09138300  1
  C  C26  1  0.86020900  0.13979100  0.36525900  1
  C  C27  1  0.13979100  0.86020900  0.86525900  1
  C  C28  1  0.55829800  0.44170200  0.66612500  1
  C  C29  1  0.44170200  0.55829800  0.16612500  1
  C  C30  1  0.37770500  0.31100000  0.36968400  1
  C  C31  1  0.68900000  0.62229500  0.36968400  1
