# generated using pymatgen
data_Cu(NiC8)2
_symmetry_space_group_name_H-M   'P 1'
_cell_length_a   7.86547600
_cell_length_b   8.23153400
_cell_length_c   10.74952600
_cell_angle_alpha   90.00000000
_cell_angle_beta   90.00000000
_cell_angle_gamma   90.00000000
_symmetry_Int_Tables_number   1
_chemical_formula_structural   Cu(NiC8)2
_chemical_formula_sum   'Cu4 Ni8 C64'
_cell_volume   695.97734194
_cell_formula_units_Z   4
loop_
 _symmetry_equiv_pos_site_id
 _symmetry_equiv_pos_as_xyz
  1  'x, y, z'
loop_
 _atom_site_type_symbol
 _atom_site_label
 _atom_site_symmetry_multiplicity
 _atom_site_fract_x
 _atom_site_fract_y
 _atom_site_fract_z
 _atom_site_occupancy
  C  C0  1  0.75000000  0.79996300  0.00000000  1
  C  C1  1  0.25000000  0.70003700  0.50000000  1
  C  C2  1  0.25000000  0.20003700  0.00000000  1
  C  C3  1  0.75000000  0.29996300  0.50000000  1
  C  C4  1  0.64757900  0.61585000  0.52090600  1
  C  C5  1  0.14757900  0.88415000  0.97909400  1
  C  C6  1  0.85242100  0.61585000  0.47909400  1
  C  C7  1  0.35242100  0.88415000  0.02090600  1
  C  C8  1  0.35242100  0.38415000  0.47909400  1
  C  C9  1  0.85242100  0.11585000  0.02090600  1
  C  C10  1  0.14757900  0.38415000  0.52090600  1
  C  C11  1  0.64757900  0.11585000  0.97909400  1
  C  C12  1  0.90188900  0.50569600  0.88086700  1
  C  C13  1  0.40188900  0.99430400  0.61913300  1
  C  C14  1  0.59811100  0.50569600  0.11913300  1
  C  C15  1  0.09811100  0.99430400  0.38086700  1
  C  C16  1  0.09811100  0.49430400  0.11913300  1
  C  C17  1  0.59811100  0.00569600  0.38086700  1
  C  C18  1  0.40188900  0.49430400  0.88086700  1
  C  C19  1  0.90188900  0.00569600  0.61913300  1
  C  C20  1  0.04330900  0.37118800  0.81668300  1
  C  C21  1  0.54330900  0.12881200  0.68331700  1
  C  C22  1  0.97467000  0.43994200  0.24335400  1
  C  C23  1  0.45669100  0.37118800  0.18331700  1
  C  C24  1  0.95669100  0.62881200  0.18331700  1
  C  C25  1  0.45669100  0.87118800  0.31668300  1
  C  C26  1  0.54330900  0.62881200  0.81668300  1
  C  C27  1  0.04330900  0.87118800  0.68331700  1
  C  C28  1  0.86606000  0.42147400  0.74003100  1
  C  C29  1  0.36606000  0.07852600  0.75996900  1
  C  C30  1  0.63394000  0.42147400  0.25996900  1
  C  C31  1  0.13394000  0.07852600  0.24003100  1
  C  C32  1  0.13394000  0.57852600  0.25996900  1
  C  C33  1  0.63394000  0.92147400  0.24003100  1
  C  C34  1  0.36606000  0.57852600  0.74003100  1
  C  C35  1  0.86606000  0.92147400  0.75996900  1
  C  C36  1  0.02533000  0.56005800  0.75664600  1
  C  C37  1  0.52533000  0.93994200  0.74335400  1
  C  C38  1  0.47467000  0.56005800  0.24335400  1
  C  C39  1  0.97467000  0.93994200  0.25664600  1
  C  C40  1  0.02533000  0.06005800  0.74335400  1
  C  C41  1  0.52533000  0.43994200  0.75664600  1
  C  C42  1  0.47467000  0.06005800  0.25664600  1
  C  C43  1  0.95669100  0.12881200  0.31668300  1
  Ni  Ni44  1  0.95893200  0.96594500  0.70093700  1
  Ni  Ni45  1  0.95893200  0.46594500  0.79906300  1
  Ni  Ni46  1  0.45893200  0.03405500  0.70093700  1
  Ni  Ni47  1  0.54106800  0.46594500  0.20093700  1
  Ni  Ni48  1  0.45893200  0.53405500  0.79906300  1
  Ni  Ni49  1  0.04106800  0.03405500  0.29906300  1
  Ni  Ni50  1  0.04106800  0.53405500  0.20093700  1
  Ni  Ni51  1  0.54106800  0.96594500  0.29906300  1
  Cu  Cu52  1  0.75000000  0.04784800  0.00000000  1
  Cu  Cu53  1  0.25000000  0.45215200  0.50000000  1
  Cu  Cu54  1  0.25000000  0.95215200  0.00000000  1
  Cu  Cu55  1  0.75000000  0.54784800  0.50000000  1
  C  C56  1  0.98395900  0.29473700  0.55691300  1
  C  C57  1  0.48395900  0.20526300  0.94308700  1
  C  C58  1  0.51604100  0.29473700  0.44308700  1
  C  C59  1  0.01604100  0.20526300  0.05691300  1
  C  C60  1  0.01604100  0.70526300  0.44308700  1
  C  C61  1  0.51604100  0.79473700  0.05691300  1
  C  C62  1  0.67230500  0.80494400  0.82285100  1
  C  C63  1  0.98395900  0.79473700  0.94308700  1
  C  C64  1  0.75000000  0.06213100  0.50000000  1
  C  C65  1  0.25000000  0.43786900  0.00000000  1
  C  C66  1  0.25000000  0.93786900  0.50000000  1
  C  C67  1  0.75000000  0.56213100  0.00000000  1
  C  C68  1  0.32769500  0.19505600  0.17714900  1
  C  C69  1  0.67230500  0.30494400  0.67714900  1
  C  C70  1  0.17230500  0.19505600  0.82285100  1
  C  C71  1  0.82769500  0.30494400  0.32285100  1
  C  C72  1  0.17230500  0.69505600  0.67714900  1
  C  C73  1  0.82769500  0.80494400  0.17714900  1
  C  C74  1  0.32769500  0.69505600  0.32285100  1
  C  C75  1  0.48395900  0.70526300  0.55691300  1
