# generated using pymatgen
data_Cu2(NiC2)5
_symmetry_space_group_name_H-M   'P 1'
_cell_length_a   5.34238700
_cell_length_b   5.36416290
_cell_length_c   7.72994018
_cell_angle_alpha   97.65132568
_cell_angle_beta   89.19620324
_cell_angle_gamma   112.43177909
_symmetry_Int_Tables_number   1
_chemical_formula_structural   Cu2(NiC2)5
_chemical_formula_sum   'Cu2 Ni5 C10'
_cell_volume   202.77218698
_cell_formula_units_Z   1
loop_
 _symmetry_equiv_pos_site_id
 _symmetry_equiv_pos_as_xyz
  1  'x, y, z'
loop_
 _atom_site_type_symbol
 _atom_site_label
 _atom_site_symmetry_multiplicity
 _atom_site_fract_x
 _atom_site_fract_y
 _atom_site_fract_z
 _atom_site_occupancy
  Ni  Ni0  1  0.28539700  0.62260800  0.05181300  1
  Ni  Ni1  1  0.71460300  0.37739200  0.94818700  1
  Ni  Ni2  1  0.88420500  0.74956400  0.36119700  1
  Ni  Ni3  1  0.11579500  0.25043600  0.63880300  1
  Ni  Ni4  1  0.00000000  0.00000000  0.00000000  1
  Cu  Cu5  1  0.55174900  0.84229600  0.71339900  1
  Cu  Cu6  1  0.44825100  0.15770400  0.28660100  1
  C  C7  1  0.95346900  0.68194300  0.11522500  1
  C  C8  1  0.04653100  0.31805700  0.88477500  1
  C  C9  1  0.49250100  0.10283900  0.76344900  1
  C  C10  1  0.50749900  0.89716100  0.23655100  1
  C  C11  1  0.62566200  0.75068800  0.88679800  1
  C  C12  1  0.37433800  0.24931200  0.11320200  1
  C  C13  1  0.30654300  0.62012400  0.61456000  1
  C  C14  1  0.19062000  0.09842300  0.39910500  1
  C  C15  1  0.80938000  0.90157700  0.60089500  1
  C  C16  1  0.69345700  0.37987600  0.38544000  1
