# generated using pymatgen
data_Cu4Ni4C5
_symmetry_space_group_name_H-M   'P 1'
_cell_length_a   5.93915369
_cell_length_b   5.93915369
_cell_length_c   5.93915369
_cell_angle_alpha   89.10853892
_cell_angle_beta   89.10853892
_cell_angle_gamma   89.10853892
_symmetry_Int_Tables_number   1
_chemical_formula_structural   Cu4Ni4C5
_chemical_formula_sum   'Cu4 Ni4 C5'
_cell_volume   209.41972417
_cell_formula_units_Z   1
loop_
 _symmetry_equiv_pos_site_id
 _symmetry_equiv_pos_as_xyz
  1  'x, y, z'
loop_
 _atom_site_type_symbol
 _atom_site_label
 _atom_site_symmetry_multiplicity
 _atom_site_fract_x
 _atom_site_fract_y
 _atom_site_fract_z
 _atom_site_occupancy
  C  C0  1  0.20816300  0.20816300  0.20816300  1
  C  C1  1  0.48401200  0.52362900  0.00325500  1
  C  C2  1  0.52362900  0.00325500  0.48401200  1
  C  C3  1  0.97293800  0.97293800  0.97293800  1
  C  C4  1  0.00325500  0.48401200  0.52362900  1
  Ni  Ni5  1  0.39144300  0.10611100  0.84071700  1
  Ni  Ni6  1  0.84071700  0.39144300  0.10611100  1
  Ni  Ni7  1  0.64185200  0.64185200  0.64185200  1
  Ni  Ni8  1  0.10611100  0.84071700  0.39144300  1
  Cu  Cu9  1  0.60616300  0.89476800  0.10626500  1
  Cu  Cu10  1  0.10626500  0.60616300  0.89476800  1
  Cu  Cu11  1  0.89476800  0.10626500  0.60616300  1
  Cu  Cu12  1  0.42306500  0.42306500  0.42306500  1
