# generated using pymatgen
data_Cu4NiC12
_symmetry_space_group_name_H-M   'P 1'
_cell_length_a   5.22501495
_cell_length_b   5.43524911
_cell_length_c   8.92427637
_cell_angle_alpha   76.20936296
_cell_angle_beta   89.97969146
_cell_angle_gamma   59.50197184
_symmetry_Int_Tables_number   1
_chemical_formula_structural   Cu4NiC12
_chemical_formula_sum   'Cu4 Ni1 C12'
_cell_volume   209.86810928
_cell_formula_units_Z   1
loop_
 _symmetry_equiv_pos_site_id
 _symmetry_equiv_pos_as_xyz
  1  'x, y, z'
loop_
 _atom_site_type_symbol
 _atom_site_label
 _atom_site_symmetry_multiplicity
 _atom_site_fract_x
 _atom_site_fract_y
 _atom_site_fract_z
 _atom_site_occupancy
  Ni  Ni0  1  0.05975400  0.88841400  0.35181500  1
  Cu  Cu1  1  0.73788900  0.50876400  0.24851000  1
  Cu  Cu2  1  0.45107800  0.00637200  0.52522600  1
  Cu  Cu3  1  0.25787100  0.51181100  0.75621900  1
  Cu  Cu4  1  0.04102200  0.99451200  0.99667500  1
  C  C5  1  0.95057400  0.23648500  0.14036100  1
  C  C6  1  0.51093300  0.73146500  0.36834700  1
  C  C7  1  0.40918900  0.75806100  0.07250800  1
  C  C8  1  0.44797600  0.73419600  0.66782600  1
  C  C9  1  0.46187500  0.23698000  0.62382400  1
  C  C10  1  0.04652600  0.75324700  0.85983300  1
  C  C11  1  0.08325600  0.21929000  0.42795000  1
  C  C12  1  0.94264100  0.74411200  0.55394700  1
  C  C13  1  0.94355100  0.74205500  0.18979900  1
  C  C14  1  0.60042900  0.20418400  0.33431700  1
  C  C15  1  0.59296600  0.23276000  0.92343200  1
  C  C16  1  0.07496800  0.25979700  0.82369300  1
