# generated using pymatgen
data_CuNiC6
_symmetry_space_group_name_H-M   'P 1'
_cell_length_a   5.20837100
_cell_length_b   6.22843600
_cell_length_c   10.61615800
_cell_angle_alpha   90.00000000
_cell_angle_beta   90.00000000
_cell_angle_gamma   90.00000000
_symmetry_Int_Tables_number   1
_chemical_formula_structural   CuNiC6
_chemical_formula_sum   'Cu4 Ni4 C24'
_cell_volume   344.38822325
_cell_formula_units_Z   4
loop_
 _symmetry_equiv_pos_site_id
 _symmetry_equiv_pos_as_xyz
  1  'x, y, z'
loop_
 _atom_site_type_symbol
 _atom_site_label
 _atom_site_symmetry_multiplicity
 _atom_site_fract_x
 _atom_site_fract_y
 _atom_site_fract_z
 _atom_site_occupancy
  C  C0  1  0.80590600  0.00207400  0.33870800  1
  C  C1  1  0.69409400  0.00207400  0.83870800  1
  C  C2  1  0.80590600  0.49792600  0.33870800  1
  C  C3  1  0.69409400  0.49792600  0.83870800  1
  C  C4  1  0.19409400  0.99792600  0.66129200  1
  C  C5  1  0.30590600  0.99792600  0.16129200  1
  C  C6  1  0.19409400  0.50207400  0.66129200  1
  C  C7  1  0.30590600  0.50207400  0.16129200  1
  Ni  Ni8  1  0.24652100  0.75000000  0.39248800  1
  Ni  Ni9  1  0.25347900  0.75000000  0.89248800  1
  Ni  Ni10  1  0.74652100  0.25000000  0.10751200  1
  Ni  Ni11  1  0.75347900  0.25000000  0.60751200  1
  Cu  Cu12  1  0.18609300  0.25000000  0.91259700  1
  Cu  Cu13  1  0.31390700  0.25000000  0.41259700  1
  Cu  Cu14  1  0.68609300  0.75000000  0.58740300  1
  Cu  Cu15  1  0.81390700  0.75000000  0.08740300  1
  C  C16  1  0.76246000  0.75000000  0.44711800  1
  C  C17  1  0.11071600  0.75000000  0.10121400  1
  C  C18  1  0.80219400  0.95032400  0.65755800  1
  C  C19  1  0.61071600  0.25000000  0.39878600  1
  C  C20  1  0.30219400  0.04967600  0.84244200  1
  C  C21  1  0.38928400  0.75000000  0.60121400  1
  C  C22  1  0.88928400  0.25000000  0.89878600  1
  C  C23  1  0.23754000  0.25000000  0.55288200  1
  C  C24  1  0.19780600  0.04967600  0.34244200  1
  C  C25  1  0.26246000  0.25000000  0.05288200  1
  C  C26  1  0.30219400  0.45032400  0.84244200  1
  C  C27  1  0.19780600  0.45032400  0.34244200  1
  C  C28  1  0.80219400  0.54967600  0.65755800  1
  C  C29  1  0.69780600  0.54967600  0.15755800  1
  C  C30  1  0.73754000  0.75000000  0.94711800  1
  C  C31  1  0.69780600  0.95032400  0.15755800  1
