# generated using pymatgen
data_Cu8NiC20
_symmetry_space_group_name_H-M   'P 1'
_cell_length_a   10.03979451
_cell_length_b   3.66747300
_cell_length_c   11.34920374
_cell_angle_alpha   90.00000000
_cell_angle_beta   88.38032219
_cell_angle_gamma   90.00000000
_symmetry_Int_Tables_number   1
_chemical_formula_structural   Cu8NiC20
_chemical_formula_sum   'Cu8 Ni1 C20'
_cell_volume   417.71838649
_cell_formula_units_Z   1
loop_
 _symmetry_equiv_pos_site_id
 _symmetry_equiv_pos_as_xyz
  1  'x, y, z'
loop_
 _atom_site_type_symbol
 _atom_site_label
 _atom_site_symmetry_multiplicity
 _atom_site_fract_x
 _atom_site_fract_y
 _atom_site_fract_z
 _atom_site_occupancy
  Ni  Ni0  1  0.25244800  0.75000000  0.28996500  1
  Cu  Cu1  1  0.12027900  0.75000000  0.99476600  1
  Cu  Cu2  1  0.37410800  0.25000000  0.50131100  1
  Cu  Cu3  1  0.62349600  0.75000000  0.48809600  1
  Cu  Cu4  1  0.87203800  0.25000000  0.98722700  1
  Cu  Cu5  1  0.06894200  0.25000000  0.61589800  1
  Cu  Cu6  1  0.42775100  0.75000000  0.08435100  1
  Cu  Cu7  1  0.56820500  0.25000000  0.90421400  1
  Cu  Cu8  1  0.93753800  0.75000000  0.42921100  1
  C  C9  1  0.04277300  0.75000000  0.31406600  1
  C  C10  1  0.05073000  0.75000000  0.56432500  1
  C  C11  1  0.06753900  0.25000000  0.01680800  1
  C  C12  1  0.21344800  0.75000000  0.87710700  1
  C  C13  1  0.24326800  0.25000000  0.62281300  1
  C  C14  1  0.23346400  0.75000000  0.11538800  1
  C  C15  1  0.27989900  0.25000000  0.37430000  1
  C  C16  1  0.42605500  0.75000000  0.52152200  1
  C  C17  1  0.42624600  0.25000000  0.02480900  1
  C  C18  1  0.50248900  0.25000000  0.77632400  1
  C  C19  1  0.45516000  0.75000000  0.22978200  1
  C  C20  1  0.57038300  0.75000000  0.95852400  1
  C  C21  1  0.57255400  0.25000000  0.46431000  1
  C  C22  1  0.69628200  0.75000000  0.61207600  1
  C  C23  1  0.74897600  0.25000000  0.87613700  1
  C  C24  1  0.76791900  0.75000000  0.38306700  1
  C  C25  1  0.78981900  0.25000000  0.11149900  1
  C  C26  1  0.92599500  0.75000000  0.96593600  1
  C  C27  1  0.93684300  0.25000000  0.47983200  1
  C  C28  1  0.00535300  0.25000000  0.74758600  1
