# generated using pymatgen
data_CuNi2C27
_symmetry_space_group_name_H-M   'P 1'
_cell_length_a   15.50129124
_cell_length_b   26.81254992
_cell_length_c   8.93990558
_cell_angle_alpha   89.86431134
_cell_angle_beta   124.94073049
_cell_angle_gamma   90.10960613
_symmetry_Int_Tables_number   1
_chemical_formula_structural   CuNi2C27
_chemical_formula_sum   'Cu8 Ni16 C216'
_cell_volume   3045.90499622
_cell_formula_units_Z   8
loop_
 _symmetry_equiv_pos_site_id
 _symmetry_equiv_pos_as_xyz
  1  'x, y, z'
loop_
 _atom_site_type_symbol
 _atom_site_label
 _atom_site_symmetry_multiplicity
 _atom_site_fract_x
 _atom_site_fract_y
 _atom_site_fract_z
 _atom_site_occupancy
  C  C0  1  0.26048019  0.24901361  0.02804157  1
  C  C1  1  0.24691187  0.58216292  0.00030031  1
  C  C2  1  0.24996068  0.91804264  0.00399599  1
  C  C3  1  0.75447691  0.25118867  0.51481462  1
  C  C4  1  0.76194445  0.58966142  0.53040926  1
  C  C5  1  0.75246621  0.90902349  0.52205806  1
  C  C6  1  0.74691187  0.08216292  0.00030031  1
  C  C7  1  0.74996068  0.41804264  0.00399599  1
  C  C8  1  0.76048019  0.74901361  0.02804157  1
  C  C9  1  0.26194445  0.08966142  0.53040926  1
  C  C10  1  0.25246621  0.40902349  0.52205806  1
  C  C11  1  0.25447691  0.75118867  0.51481462  1
  C  C12  1  0.49408426  0.03976100  0.73896151  1
  C  C13  1  0.49577730  0.37488028  0.73953421  1
  C  C14  1  0.49649416  0.70215948  0.75729152  1
  C  C15  1  0.50176720  0.30037550  0.27154757  1
  C  C16  1  0.49255128  0.62989750  0.25044536  1
  C  C17  1  0.49833974  0.96845462  0.26663777  1
  C  C18  1  0.99649416  0.20215948  0.75729152  1
  C  C19  1  0.99408426  0.53976100  0.73896151  1
  C  C20  1  0.99577730  0.87488028  0.73953421  1
  C  C21  1  0.99255128  0.12989750  0.25044536  1
  C  C22  1  0.99833974  0.46845462  0.26663777  1
  C  C23  1  0.00176720  0.80037550  0.27154757  1
  C  C24  1  0.82363940  0.97612373  0.21772561  1
  C  C25  1  0.18591916  0.63748786  0.29771987  1
  C  C26  1  0.19532720  0.97293785  0.30479224  1
  C  C27  1  0.18399087  0.68885458  0.75483176  1
  C  C28  1  0.80584880  0.02009668  0.71400329  1
  C  C29  1  0.80549081  0.35620162  0.70644920  1
  C  C30  1  0.32363940  0.47612373  0.21772561  1
  C  C31  1  0.68591916  0.13748786  0.29771987  1
  C  C32  1  0.69532720  0.47293785  0.30479224  1
  C  C33  1  0.68399087  0.18885458  0.75483176  1
  C  C34  1  0.30584880  0.52009668  0.71400329  1
  C  C35  1  0.30549081  0.85620162  0.70644920  1
  Ni  Ni36  1  0.09624485  0.58451902  0.55687926  1
  Ni  Ni37  1  0.10334804  0.92022207  0.56400777  1
  Ni  Ni38  1  0.89767032  0.25125774  0.94510824  1
  Ni  Ni39  1  0.89717101  0.58445750  0.94781065  1
  Ni  Ni40  1  0.89718498  0.91634464  0.94654125  1
  Ni  Ni41  1  0.89867573  0.08191203  0.44269502  1
  Ni  Ni42  1  0.89656133  0.41560481  0.43734981  1
  Ni  Ni43  1  0.89606003  0.74804091  0.43928670  1
  Ni  Ni44  1  0.59624485  0.08451902  0.55687926  1
  Ni  Ni45  1  0.60334804  0.42022207  0.56400777  1
  Ni  Ni46  1  0.39717101  0.08445750  0.94781065  1
  Ni  Ni47  1  0.39718498  0.41634464  0.94654125  1
  Ni  Ni48  1  0.39767032  0.75125774  0.94510824  1
  Ni  Ni49  1  0.39606003  0.24804091  0.43928670  1
  Ni  Ni50  1  0.39867573  0.58191203  0.44269502  1
  Ni  Ni51  1  0.39656133  0.91560481  0.43734981  1
  Cu  Cu52  1  0.10757095  0.25163663  0.55995672  1
  Cu  Cu53  1  0.10636161  0.08410875  0.05763342  1
  Cu  Cu54  1  0.10588272  0.41301113  0.05908571  1
  Cu  Cu55  1  0.10275270  0.74924025  0.06026916  1
  Cu  Cu56  1  0.60757095  0.75163663  0.55995672  1
  Cu  Cu57  1  0.60275270  0.24924025  0.06026916  1
  Cu  Cu58  1  0.60636161  0.58410875  0.05763342  1
  Cu  Cu59  1  0.60588272  0.91301113  0.05908571  1
  C  C60  1  0.99772387  0.31827381  0.73887557  1
  C  C61  1  0.99854679  0.65100455  0.74711685  1
  C  C62  1  0.99896253  0.98483629  0.74322942  1
  C  C63  1  0.99941343  0.01568284  0.24325878  1
  C  C64  1  0.99562177  0.34849598  0.23707719  1
  C  C65  1  0.00052412  0.68158222  0.25502577  1
  C  C66  1  0.49854679  0.15100455  0.74711685  1
  C  C67  1  0.49896253  0.48483629  0.74322942  1
  C  C68  1  0.49772387  0.81827381  0.73887557  1
  C  C69  1  0.50052412  0.18158222  0.25502577  1
  C  C70  1  0.49941343  0.51568284  0.24325878  1
  C  C71  1  0.49562177  0.84849598  0.23707719  1
  C  C72  1  0.35434149  0.29804514  0.74558215  1
  C  C73  1  0.34997578  0.63222730  0.74841082  1
  C  C74  1  0.35216654  0.96484158  0.75034469  1
  C  C75  1  0.64458873  0.29994707  0.73910467  1
  C  C76  1  0.64385747  0.63280752  0.73420916  1
  C  C77  1  0.64540140  0.96536243  0.73875183  1
  C  C78  1  0.64744508  0.03219244  0.24377985  1
  C  C79  1  0.64528649  0.36763993  0.24303476  1
  C  C80  1  0.64349757  0.70156750  0.23623690  1
  C  C81  1  0.35414196  0.03529286  0.25612715  1
  C  C82  1  0.35575303  0.36762866  0.25971529  1
  C  C83  1  0.35045676  0.70235238  0.24813147  1
  C  C84  1  0.84997578  0.13222730  0.74841082  1
  C  C85  1  0.85216654  0.46484158  0.75034469  1
  C  C86  1  0.85434149  0.79804514  0.74558215  1
  C  C87  1  0.14385747  0.13280752  0.73420916  1
  C  C88  1  0.14540140  0.46536243  0.73875183  1
  C  C89  1  0.14458873  0.79994707  0.73910467  1
  C  C90  1  0.14349757  0.20156750  0.23623690  1
  C  C91  1  0.14744508  0.53219244  0.24377985  1
  C  C92  1  0.14528649  0.86763993  0.24303476  1
  C  C93  1  0.85045676  0.20235238  0.24813147  1
  C  C94  1  0.85414196  0.53529286  0.25612715  1
  C  C95  1  0.85575303  0.86762866  0.25971529  1
  C  C96  1  0.14704619  0.19266199  0.73522117  1
  C  C97  1  0.15407229  0.52286993  0.75897083  1
  C  C98  1  0.15457615  0.85677045  0.75711257  1
  C  C99  1  0.84167059  0.18942899  0.75475243  1
  C  C100  1  0.85209727  0.52152629  0.76529778  1
  C  C101  1  0.84812855  0.85392899  0.76558158  1
  C  C102  1  0.84218510  0.14588415  0.26520397  1
  C  C103  1  0.83618399  0.47862353  0.25924291  1
  C  C104  1  0.84621830  0.81096172  0.25788690  1
  C  C105  1  0.14880694  0.14236287  0.24306315  1
  C  C106  1  0.15467787  0.47242564  0.23322929  1
  C  C107  1  0.15042841  0.80795212  0.22897870  1
  C  C108  1  0.65407229  0.02286993  0.75897083  1
  C  C109  1  0.65457615  0.35677045  0.75711257  1
  C  C110  1  0.64704619  0.69266199  0.73522117  1
  C  C111  1  0.35209727  0.02152629  0.76529778  1
  C  C112  1  0.34812855  0.35392899  0.76558158  1
  C  C113  1  0.34167059  0.68942899  0.75475243  1
  C  C114  1  0.34621830  0.31096172  0.25788690  1
  C  C115  1  0.34218510  0.64588415  0.26520397  1
  C  C116  1  0.33618399  0.97862353  0.25924291  1
  C  C117  1  0.65042841  0.30795212  0.22897870  1
  C  C118  1  0.64880694  0.64236287  0.24306315  1
  C  C119  1  0.65467787  0.97242564  0.23322929  1
  C  C120  1  0.44193033  0.18463744  0.58313373  1
  C  C121  1  0.43438486  0.51698791  0.57312127  1
  C  C122  1  0.43476597  0.85154756  0.57667915  1
  C  C123  1  0.56226126  0.18702131  0.92635001  1
  C  C124  1  0.55877150  0.52393141  0.91396741  1
  C  C125  1  0.56536872  0.85069287  0.91808600  1
  C  C126  1  0.57766194  0.15277662  0.43440589  1
  C  C127  1  0.57246745  0.48314334  0.40999191  1
  C  C128  1  0.56092777  0.81140332  0.40900799  1
  C  C129  1  0.44422067  0.14851715  0.08986321  1
  C  C130  1  0.43075346  0.48575718  0.06809866  1
  C  C131  1  0.43386751  0.81804365  0.06566833  1
  C  C132  1  0.93438486  0.01698791  0.57312127  1
  C  C133  1  0.93476597  0.35154756  0.57667915  1
  C  C134  1  0.94193033  0.68463744  0.58313373  1
  C  C135  1  0.05877150  0.02393141  0.91396741  1
  C  C136  1  0.06536872  0.35069287  0.91808600  1
  C  C137  1  0.06226126  0.68702131  0.92635001  1
  C  C138  1  0.06092777  0.31140332  0.40900799  1
  C  C139  1  0.07766194  0.65277662  0.43440589  1
  C  C140  1  0.07246745  0.98314334  0.40999191  1
  C  C141  1  0.93386751  0.31804365  0.06566833  1
  C  C142  1  0.94422067  0.64851715  0.08986321  1
  C  C143  1  0.93075346  0.98575718  0.06809866  1
  C  C144  1  0.25643554  0.27211071  0.73008578  1
  C  C145  1  0.26699245  0.60553271  0.76183196  1
  C  C146  1  0.26946529  0.93703403  0.76103772  1
  C  C147  1  0.74111406  0.27628854  0.75718863  1
  C  C148  1  0.74081607  0.61111552  0.75990104  1
  C  C149  1  0.74142135  0.94393637  0.75298288  1
  C  C150  1  0.74334377  0.05342189  0.25308425  1
  C  C151  1  0.73933087  0.39090399  0.25597905  1
  C  C152  1  0.73988013  0.72346655  0.25998054  1
  C  C153  1  0.25063235  0.06030556  0.22856604  1
  C  C154  1  0.25275426  0.39112452  0.23602275  1
  C  C155  1  0.25773080  0.72690853  0.24650940  1
  C  C156  1  0.76699245  0.10553271  0.76183196  1
  C  C157  1  0.76946529  0.43703403  0.76103772  1
  C  C158  1  0.75643554  0.77211071  0.73008578  1
  C  C159  1  0.24081607  0.11111552  0.75990104  1
  C  C160  1  0.24142135  0.44393637  0.75298288  1
  C  C161  1  0.24111406  0.77628854  0.75718863  1
  C  C162  1  0.23988013  0.22346655  0.25998054  1
  C  C163  1  0.24334377  0.55342189  0.25308425  1
  C  C164  1  0.23933087  0.89090399  0.25597905  1
  C  C165  1  0.75773080  0.22690853  0.24650940  1
  C  C166  1  0.75063235  0.56030556  0.22856604  1
  C  C167  1  0.75275426  0.89112452  0.23602275  1
  C  C168  1  0.35573897  0.28474596  0.58460180  1
  C  C169  1  0.34564593  0.61825374  0.57838888  1
  C  C170  1  0.34848405  0.95036343  0.58165553  1
  C  C171  1  0.63842163  0.27987270  0.90396605  1
  C  C172  1  0.63764366  0.62100102  0.90350876  1
  C  C173  1  0.64637947  0.94635348  0.91283366  1
  C  C174  1  0.65110023  0.04194929  0.41777345  1
  C  C175  1  0.64628908  0.37517888  0.41581005  1
  C  C176  1  0.63528617  0.71460397  0.40380083  1
  C  C177  1  0.35874405  0.04741270  0.09595439  1
  C  C178  1  0.35522255  0.38588215  0.09812356  1
  C  C179  1  0.34527444  0.71402406  0.07685237  1
  C  C180  1  0.84564593  0.11825374  0.57838888  1
  C  C181  1  0.84848405  0.45036343  0.58165553  1
  C  C182  1  0.85573897  0.78474596  0.58460180  1
  C  C183  1  0.13764366  0.12100102  0.90350876  1
  C  C184  1  0.14637947  0.44635348  0.91283366  1
  C  C185  1  0.13842163  0.77987270  0.90396605  1
  C  C186  1  0.13528617  0.21460397  0.40380083  1
  C  C187  1  0.15110023  0.54194929  0.41777345  1
  C  C188  1  0.14628908  0.87517888  0.41581005  1
  C  C189  1  0.84527444  0.21402406  0.07685237  1
  C  C190  1  0.85874405  0.54741270  0.09595439  1
  C  C191  1  0.85522255  0.88588215  0.09812356  1
  C  C192  1  0.45659152  0.27608479  0.92729125  1
  C  C193  1  0.46232988  0.61474975  0.92153576  1
  C  C194  1  0.46476320  0.94233556  0.92166481  1
  C  C195  1  0.54495140  0.28141955  0.56457166  1
  C  C196  1  0.54073544  0.61742632  0.56095322  1
  C  C197  1  0.54261145  0.94873981  0.56696025  1
  C  C198  1  0.54624986  0.05074513  0.07193826  1
  C  C199  1  0.54280082  0.38516350  0.06909923  1
  C  C200  1  0.54039098  0.71721514  0.06291891  1
  C  C201  1  0.44827531  0.05509094  0.43883764  1
  C  C202  1  0.44807681  0.39061448  0.43958763  1
  C  C203  1  0.45658112  0.72403374  0.42171717  1
  C  C204  1  0.96232988  0.11474975  0.92153576  1
  C  C205  1  0.96476320  0.44233556  0.92166481  1
  C  C206  1  0.95659152  0.77608479  0.92729125  1
  C  C207  1  0.04073544  0.11742632  0.56095322  1
  C  C208  1  0.04261145  0.44873981  0.56696025  1
  C  C209  1  0.04495140  0.78141955  0.56457166  1
  C  C210  1  0.04039098  0.21721514  0.06291891  1
  C  C211  1  0.04624986  0.55074513  0.07193826  1
  C  C212  1  0.04280082  0.88516350  0.06909923  1
  C  C213  1  0.95658112  0.22403374  0.42171717  1
  C  C214  1  0.94827531  0.55509094  0.43883764  1
  C  C215  1  0.94807681  0.89061448  0.43958763  1
  C  C216  1  0.08041210  0.28492077  0.73357583  1
  C  C217  1  0.08848614  0.62068922  0.76154055  1
  C  C218  1  0.08444929  0.95275837  0.75769186  1
  C  C219  1  0.92578975  0.28231467  0.75439802  1
  C  C220  1  0.92636728  0.61607380  0.76330196  1
  C  C221  1  0.92283639  0.95265046  0.76159561  1
  C  C222  1  0.92678453  0.05174405  0.25779828  1
  C  C223  1  0.93035576  0.38572459  0.26014767  1
  C  C224  1  0.92863314  0.71993516  0.25837267  1
  C  C225  1  0.07800776  0.05144046  0.22838831  1
  C  C226  1  0.08377028  0.37996768  0.24127037  1
  C  C227  1  0.08347000  0.71672283  0.24129308  1
  C  C228  1  0.58848614  0.12068922  0.76154055  1
  C  C229  1  0.58444929  0.45275837  0.75769186  1
  C  C230  1  0.58041210  0.78492077  0.73357583  1
  C  C231  1  0.42636728  0.11607380  0.76330196  1
  C  C232  1  0.42283639  0.45265046  0.76159561  1
  C  C233  1  0.42578975  0.78231467  0.75439802  1
  C  C234  1  0.42863314  0.21993516  0.25837267  1
  C  C235  1  0.42678453  0.55174405  0.25779828  1
  C  C236  1  0.43035576  0.88572459  0.26014767  1
  C  C237  1  0.58347000  0.21672283  0.24129308  1
  C  C238  1  0.57800776  0.55144046  0.22838831  1
  C  C239  1  0.58377028  0.87996768  0.24127037  1
