# generated using pymatgen
data_Cu8Ni8C9
_symmetry_space_group_name_H-M   'P 1'
_cell_length_a   9.84765620
_cell_length_b   9.71087979
_cell_length_c   3.07363166
_cell_angle_alpha   89.87943078
_cell_angle_beta   90.12745031
_cell_angle_gamma   87.40233866
_symmetry_Int_Tables_number   1
_chemical_formula_structural   Cu8Ni8C9
_chemical_formula_sum   'Cu8 Ni8 C9'
_cell_volume   293.62609136
_cell_formula_units_Z   1
loop_
 _symmetry_equiv_pos_site_id
 _symmetry_equiv_pos_as_xyz
  1  'x, y, z'
loop_
 _atom_site_type_symbol
 _atom_site_label
 _atom_site_symmetry_multiplicity
 _atom_site_fract_x
 _atom_site_fract_y
 _atom_site_fract_z
 _atom_site_occupancy
  C  C0  1  0.98886200  0.75888100  0.00960500  1
  C  C1  1  0.04010900  0.03522900  0.00580600  1
  C  C2  1  0.99661800  0.47533100  0.99483900  1
  C  C3  1  0.24244100  0.26103400  0.50073500  1
  C  C4  1  0.24025600  0.74263500  0.50859400  1
  C  C5  1  0.51735200  0.48525800  0.00387700  1
  C  C6  1  0.50525500  0.00691700  0.00544800  1
  C  C7  1  0.75879400  0.26993800  0.50205400  1
  C  C8  1  0.72361900  0.71230300  0.50860700  1
  Ni  Ni9  1  0.09415600  0.40019400  0.49701100  1
  Ni  Ni10  1  0.07260900  0.87699600  0.50744500  1
  Ni  Ni11  1  0.18356800  0.16063900  0.00092400  1
  Ni  Ni12  1  0.16412400  0.64927500  0.00816600  1
  Ni  Ni13  1  0.59060800  0.38680900  0.50453200  1
  Ni  Ni14  1  0.64292200  0.63135000  0.00811900  1
  Ni  Ni15  1  0.84387300  0.35532800  0.00177800  1
  Ni  Ni16  1  0.91229800  0.62570700  0.51243500  1
  Cu  Cu17  1  0.34791800  0.36558100  0.00188300  1
  Cu  Cu18  1  0.34203300  0.85285100  0.00677400  1
  Cu  Cu19  1  0.41845700  0.12370300  0.50448800  1
  Cu  Cu20  1  0.40787700  0.59957200  0.50691100  1
  Cu  Cu21  1  0.58427200  0.88177500  0.50627700  1
  Cu  Cu22  1  0.66713700  0.14707000  0.00359600  1
  Cu  Cu23  1  0.80452400  0.84115600  0.01045800  1
  Cu  Cu24  1  0.90337700  0.11141200  0.50463900  1
