# generated using pymatgen
data_Cu2NiC14
_symmetry_space_group_name_H-M   'P 1'
_cell_length_a   8.75939077
_cell_length_b   8.76450662
_cell_length_c   22.51845463
_cell_angle_alpha   89.94668635
_cell_angle_beta   90.00000000
_cell_angle_gamma   119.98069323
_symmetry_Int_Tables_number   1
_chemical_formula_structural   Cu2NiC14
_chemical_formula_sum   'Cu12 Ni6 C84'
_cell_volume   1497.45850635
_cell_formula_units_Z   6
loop_
 _symmetry_equiv_pos_site_id
 _symmetry_equiv_pos_as_xyz
  1  'x, y, z'
loop_
 _atom_site_type_symbol
 _atom_site_label
 _atom_site_symmetry_multiplicity
 _atom_site_fract_x
 _atom_site_fract_y
 _atom_site_fract_z
 _atom_site_occupancy
  C  C0  1  0.00542423  0.01181902  0.64375965  1
  C  C1  1  0.00639479  0.01181902  0.14375965  1
  C  C2  1  0.65517263  0.32748194  0.97718532  1
  C  C3  1  0.67231031  0.32748194  0.47718532  1
  C  C4  1  0.33604406  0.66849428  0.31039249  1
  C  C5  1  0.33244922  0.66849428  0.81039249  1
  C  C6  1  0.99410869  0.00373399  0.35361424  1
  C  C7  1  0.00962529  0.00373399  0.85361424  1
  C  C8  1  0.66691824  0.33502965  0.68686271  1
  C  C9  1  0.66811241  0.33502965  0.18686271  1
  C  C10  1  0.33160285  0.66658192  0.02028336  1
  C  C11  1  0.33497807  0.66658192  0.52028336  1
  Ni  Ni12  1  0.99138812  0.28796774  0.25204099  1
  Ni  Ni13  1  0.29657962  0.28796774  0.75204099  1
  Ni  Ni14  1  0.96155682  0.34456578  0.58544976  1
  Ni  Ni15  1  0.38300996  0.34456578  0.08544976  1
  Ni  Ni16  1  0.32323891  0.94849579  0.91825123  1
  Ni  Ni17  1  0.62525588  0.94849579  0.41825123  1
  Cu  Cu18  1  0.29136737  0.00589325  0.25141209  1
  Cu  Cu19  1  0.71517637  0.70860068  0.25078375  1
  Cu  Cu20  1  0.99342431  0.70860068  0.75078375  1
  Cu  Cu21  1  0.71452588  0.00589325  0.75141209  1
  Cu  Cu22  1  0.38061212  0.04089869  0.58440810  1
  Cu  Cu23  1  0.66245872  0.62048927  0.58433450  1
  Cu  Cu24  1  0.95803155  0.62048927  0.08433450  1
  Cu  Cu25  1  0.66028757  0.04089869  0.08440810  1
  Cu  Cu26  1  0.62666009  0.67389598  0.91746970  1
  Cu  Cu27  1  0.04512470  0.37391417  0.91794591  1
  Cu  Cu28  1  0.32878846  0.37391417  0.41794591  1
  Cu  Cu29  1  0.04723489  0.67389598  0.41746970  1
  C  C30  1  0.20840992  0.02767659  0.30364330  1
  C  C31  1  0.81963519  0.78922721  0.30335405  1
  C  C32  1  0.97211965  0.17583828  0.30458624  1
  C  C33  1  0.20371863  0.17583828  0.80458624  1
  C  C34  1  0.96959202  0.78922721  0.80335405  1
  C  C35  1  0.81926667  0.02767659  0.80364330  1
  C  C36  1  0.79158576  0.96606353  0.69669496  1
  C  C37  1  0.16725894  0.19939842  0.69471370  1
  C  C38  1  0.03291420  0.82481064  0.69675583  1
  C  C39  1  0.79189645  0.82481064  0.19675583  1
  C  C40  1  0.03213948  0.19939842  0.19471370  1
  C  C41  1  0.17447777  0.96606353  0.19669496  1
  C  C42  1  0.86913827  0.36098933  0.63870163  1
  C  C43  1  0.48577006  0.12340150  0.63659243  1
  C  C44  1  0.63713846  0.51408760  0.63651893  1
  C  C45  1  0.87695014  0.51408760  0.13651893  1
  C  C46  1  0.63763244  0.12340150  0.13659243  1
  C  C47  1  0.49185206  0.36098933  0.13870163  1
  C  C48  1  0.46659491  0.30089083  0.02825897  1
  C  C49  1  0.84138974  0.54014689  0.02996174  1
  C  C50  1  0.70099489  0.15866425  0.02996426  1
  C  C51  1  0.45767036  0.15866425  0.52996426  1
  C  C52  1  0.69875815  0.54014689  0.52996174  1
  C  C53  1  0.83429691  0.30089083  0.52825897  1
  C  C54  1  0.54354788  0.69567861  0.96996081  1
  C  C55  1  0.15328531  0.45629676  0.96978770  1
  C  C56  1  0.30636803  0.84167766  0.97210433  1
  C  C57  1  0.53530864  0.84167766  0.47210433  1
  C  C58  1  0.30301045  0.45629676  0.46978770  1
  C  C59  1  0.15212973  0.69567861  0.46996081  1
  C  C60  1  0.12470515  0.63303845  0.36316342  1
  C  C61  1  0.49993470  0.86595013  0.36156546  1
  C  C62  1  0.36565920  0.49248934  0.36327418  1
  C  C63  1  0.12682914  0.49248934  0.86327418  1
  C  C64  1  0.36601443  0.86595013  0.86156546  1
  C  C65  1  0.50833230  0.63303845  0.86316342  1
  C  C66  1  0.02231673  0.82197597  0.40707604  1
  C  C67  1  0.80655720  0.97989073  0.40720449  1
  C  C68  1  0.18049332  0.20033734  0.40775454  1
  C  C69  1  0.01984402  0.20033734  0.90775454  1
  C  C70  1  0.17333353  0.97989073  0.90720449  1
  C  C71  1  0.79965924  0.82197597  0.90707604  1
  C  C72  1  0.97108992  0.16617408  0.59296949  1
  C  C73  1  0.19929431  0.02608011  0.59146837  1
  C  C74  1  0.82819581  0.80027223  0.59226579  1
  C  C75  1  0.97207642  0.80027223  0.09226579  1
  C  C76  1  0.82678580  0.02608011  0.09146837  1
  C  C77  1  0.19508416  0.16617408  0.09296949  1
  C  C78  1  0.68792125  0.15375578  0.74131994  1
  C  C79  1  0.47460252  0.31365435  0.73901961  1
  C  C80  1  0.84643077  0.53363999  0.74148337  1
  C  C81  1  0.68721022  0.53363999  0.24148337  1
  C  C82  1  0.83905283  0.31365435  0.23901961  1
  C  C83  1  0.46583552  0.15375578  0.24131994  1
  C  C84  1  0.64083692  0.50707702  0.92479833  1
  C  C85  1  0.86689867  0.36176558  0.92513567  1
  C  C86  1  0.50111900  0.13904155  0.92671740  1
  C  C87  1  0.63792356  0.13904155  0.42671740  1
  C  C88  1  0.49486791  0.36176558  0.42513567  1
  C  C89  1  0.86624110  0.50707702  0.42479833  1
  C  C90  1  0.35253658  0.49384624  0.07252011  1
  C  C91  1  0.13253573  0.64523648  0.07468872  1
  C  C92  1  0.51262252  0.86696224  0.07455874  1
  C  C93  1  0.35433872  0.86696224  0.57455874  1
  C  C94  1  0.51269975  0.64523648  0.57468872  1
  C  C95  1  0.14130866  0.49384624  0.57252011  1
  C  C96  1  0.30462545  0.83850192  0.25820397  1
  C  C97  1  0.53272702  0.69352213  0.25847011  1
  C  C98  1  0.16729264  0.47407808  0.26054956  1
  C  C99  1  0.30678444  0.47407808  0.76054956  1
  C  C100  1  0.16079411  0.69352213  0.75847011  1
  C  C101  1  0.53387548  0.83850192  0.75820397  1
