# generated using pymatgen
data_Cu(NiC11)3
_symmetry_space_group_name_H-M   'P 1'
_cell_length_a   8.61321143
_cell_length_b   8.61637191
_cell_length_c   22.26390739
_cell_angle_alpha   90.00472042
_cell_angle_beta   89.99179049
_cell_angle_gamma   120.13756955
_symmetry_Int_Tables_number   1
_chemical_formula_structural   Cu(NiC11)3
_chemical_formula_sum   'Cu3 Ni9 C99'
_cell_volume   1428.95269095
_cell_formula_units_Z   3
loop_
 _symmetry_equiv_pos_site_id
 _symmetry_equiv_pos_as_xyz
  1  'x, y, z'
loop_
 _atom_site_type_symbol
 _atom_site_label
 _atom_site_symmetry_multiplicity
 _atom_site_fract_x
 _atom_site_fract_y
 _atom_site_fract_z
 _atom_site_occupancy
  C  C0  1  0.63646007  0.99875214  0.24899400  1
  C  C1  1  0.36329291  0.36187053  0.24879659  1
  C  C2  1  0.03310246  0.69916095  0.58597390  1
  C  C3  1  0.99894777  0.00943987  0.49912751  1
  C  C4  1  0.99995720  0.99922465  0.99792640  1
  C  C5  1  0.66578988  0.33233251  0.83184459  1
  C  C6  1  0.67797192  0.34358365  0.33736811  1
  C  C7  1  0.32120756  0.66537255  0.15936644  1
  C  C8  1  0.34452364  0.66548194  0.67050904  1
  Ni  Ni9  1  0.99998083  0.99776313  0.35418931  1
  Ni  Ni10  1  0.00011021  0.00058305  0.85143926  1
  Ni  Ni11  1  0.99897483  0.00811626  0.65306353  1
  Ni  Ni12  1  0.99986641  0.99708640  0.14281434  1
  Ni  Ni13  1  0.66389479  0.33048731  0.68835971  1
  Ni  Ni14  1  0.67296254  0.33903835  0.18011487  1
  Ni  Ni15  1  0.33326613  0.66689328  0.01728166  1
  Ni  Ni16  1  0.33884643  0.66593178  0.51682940  1
  Ni  Ni17  1  0.32637794  0.66587898  0.32153383  1
  Cu  Cu18  1  0.66762345  0.33436211  0.98055090  1
  Cu  Cu19  1  0.66472291  0.33109471  0.48308509  1
  Cu  Cu20  1  0.33422513  0.66670923  0.81706855  1
  C  C21  1  0.29033372  0.99640919  0.24962549  1
  C  C22  1  0.70902928  0.70654290  0.25022348  1
  C  C23  1  0.00046375  0.29418644  0.24994653  1
  C  C24  1  0.29453777  0.30186524  0.75245703  1
  C  C25  1  0.00722075  0.70507174  0.75119023  1
  C  C26  1  0.69850382  0.99284012  0.75239925  1
  C  C27  1  0.95226289  0.33037862  0.58153173  1
  C  C28  1  0.37988336  0.04674174  0.58177554  1
  C  C29  1  0.66402163  0.61910515  0.58222885  1
  C  C30  1  0.95592449  0.62136902  0.08062077  1
  C  C31  1  0.66560555  0.04423242  0.08194811  1
  C  C32  1  0.37861629  0.33454330  0.08187488  1
  C  C33  1  0.62166454  0.66121984  0.91724433  1
  C  C34  1  0.03973113  0.37840851  0.91714307  1
  C  C35  1  0.33873802  0.96033203  0.91716777  1
  C  C36  1  0.62999327  0.97004450  0.41782199  1
  C  C37  1  0.33993144  0.37000922  0.41783322  1
  C  C38  1  0.03012647  0.66010238  0.41999445  1
  C  C39  1  0.21171266  0.02991475  0.30345068  1
  C  C40  1  0.81520799  0.78794008  0.30461957  1
  C  C41  1  0.96820625  0.18121603  0.30373871  1
  C  C42  1  0.21085533  0.18917288  0.80508061  1
  C  C43  1  0.97918353  0.79266109  0.80285635  1
  C  C44  1  0.81102328  0.02203127  0.80504802  1
  C  C45  1  0.77202989  0.95916098  0.69687567  1
  C  C46  1  0.18760484  0.22794605  0.69690125  1
  C  C47  1  0.03888512  0.80885383  0.69415282  1
  C  C48  1  0.78841781  0.81912031  0.19675016  1
  C  C49  1  0.03220405  0.21301911  0.19635102  1
  C  C50  1  0.18425854  0.97229688  0.19560649  1
  C  C51  1  0.87410792  0.36367466  0.63510555  1
  C  C52  1  0.48554079  0.12632256  0.63579729  1
  C  C53  1  0.64027201  0.51397509  0.63634365  1
  C  C54  1  0.88007841  0.51906786  0.13641362  1
  C  C55  1  0.64026584  0.11797461  0.13923434  1
  C  C56  1  0.47726743  0.35898732  0.13919686  1
  C  C57  1  0.47356784  0.31180176  0.02963577  1
  C  C58  1  0.84025795  0.52950093  0.02746359  1
  C  C59  1  0.68864926  0.16197175  0.02967615  1
  C  C60  1  0.46745854  0.15801962  0.52732038  1
  C  C61  1  0.69479204  0.53225765  0.52812593  1
  C  C62  1  0.84047999  0.30749321  0.52703291  1
  C  C63  1  0.54265496  0.68984246  0.97111457  1
  C  C64  1  0.14742281  0.45747698  0.97100556  1
  C  C65  1  0.31016119  0.85281359  0.97102723  1
  C  C66  1  0.54215363  0.85470897  0.46961694  1
  C  C67  1  0.31151783  0.45724328  0.46959420  1
  C  C68  1  0.13930201  0.68822164  0.47409467  1
  C  C69  1  0.10815005  0.62812312  0.36563818  1
  C  C70  1  0.52613224  0.89704273  0.36120778  1
  C  C71  1  0.37173803  0.47431789  0.36126632  1
  C  C72  1  0.12479333  0.49330419  0.86284836  1
  C  C73  1  0.36857504  0.87555237  0.86288263  1
  C  C74  1  0.50699668  0.63143118  0.86298318  1
  C  C75  1  0.01037251  0.81938140  0.41283529  1
  C  C76  1  0.81004416  0.99098913  0.41198828  1
  C  C77  1  0.18026126  0.19001857  0.41183244  1
  C  C78  1  0.01586428  0.19805690  0.90935069  1
  C  C79  1  0.18183627  0.98348695  0.90925047  1
  C  C80  1  0.80236773  0.81806959  0.90933784  1
  C  C81  1  0.96937161  0.16923667  0.58596663  1
  C  C82  1  0.19730708  0.02575461  0.58529585  1
  C  C83  1  0.83105836  0.79870961  0.58572859  1
  C  C84  1  0.96919325  0.79883934  0.08433664  1
  C  C85  1  0.82998866  0.03117261  0.08524075  1
  C  C86  1  0.20055816  0.17015332  0.08498235  1
  C  C87  1  0.67680174  0.15123325  0.74540073  1
  C  C88  1  0.47504330  0.32413779  0.74560357  1
  C  C89  1  0.84810727  0.52460081  0.74499644  1
  C  C90  1  0.68260554  0.52305723  0.24445909  1
  C  C91  1  0.83762020  0.31086551  0.24382511  1
  C  C92  1  0.47512243  0.16056806  0.24457917  1
  C  C93  1  0.63629017  0.49433051  0.92385198  1
  C  C94  1  0.85770392  0.36299959  0.92376547  1
  C  C95  1  0.50581280  0.14260270  0.92396846  1
  C  C96  1  0.64583206  0.15036620  0.42611209  1
  C  C97  1  0.50439116  0.35425842  0.42635464  1
  C  C98  1  0.84844183  0.49522269  0.42706176  1
  C  C99  1  0.36086301  0.49510712  0.07578355  1
  C  C100  1  0.13516978  0.64077079  0.07472953  1
  C  C101  1  0.50493270  0.86537933  0.07580711  1
  C  C102  1  0.35517194  0.86347607  0.57519572  1
  C  C103  1  0.50608798  0.63998249  0.57491682  1
  C  C104  1  0.13237060  0.49431438  0.57450867  1
  C  C105  1  0.31619915  0.83916894  0.25613037  1
  C  C106  1  0.52488848  0.68619929  0.25609997  1
  C  C107  1  0.16380253  0.47375603  0.25688388  1
  C  C108  1  0.31168743  0.48382572  0.76088626  1
  C  C109  1  0.17205839  0.68903489  0.76007472  1
  C  C110  1  0.51612100  0.82778208  0.76087131  1
