# generated using pymatgen
data_Cu4NiC4
_symmetry_space_group_name_H-M   'P 1'
_cell_length_a   6.70418400
_cell_length_b   9.57072200
_cell_length_c   11.72238900
_cell_angle_alpha   90.00000000
_cell_angle_beta   90.00000000
_cell_angle_gamma   90.00000000
_symmetry_Int_Tables_number   1
_chemical_formula_structural   Cu4NiC4
_chemical_formula_sum   'Cu32 Ni8 C32'
_cell_volume   752.15397636
_cell_formula_units_Z   8
loop_
 _symmetry_equiv_pos_site_id
 _symmetry_equiv_pos_as_xyz
  1  'x, y, z'
loop_
 _atom_site_type_symbol
 _atom_site_label
 _atom_site_symmetry_multiplicity
 _atom_site_fract_x
 _atom_site_fract_y
 _atom_site_fract_z
 _atom_site_occupancy
  Ni  Ni0  1  0.91314500  0.71027000  0.73663200  1
  Ni  Ni1  1  0.41314500  0.78973000  0.26336800  1
  Ni  Ni2  1  0.58685500  0.71027000  0.76336800  1
  Ni  Ni3  1  0.08685500  0.78973000  0.23663200  1
  Ni  Ni4  1  0.08685500  0.28973000  0.26336800  1
  Ni  Ni5  1  0.58685500  0.21027000  0.73663200  1
  Ni  Ni6  1  0.41314500  0.28973000  0.23663200  1
  Ni  Ni7  1  0.91314500  0.21027000  0.76336800  1
  Cu  Cu8  1  0.62845700  0.90204900  0.10285200  1
  Cu  Cu9  1  0.12845700  0.59795100  0.89714800  1
  Cu  Cu10  1  0.87154300  0.90204900  0.39714800  1
  Cu  Cu11  1  0.37154300  0.59795100  0.60285200  1
  Cu  Cu12  1  0.37154300  0.09795100  0.89714800  1
  Cu  Cu13  1  0.87154300  0.40204900  0.10285200  1
  Cu  Cu14  1  0.12845700  0.09795100  0.60285200  1
  Cu  Cu15  1  0.62845700  0.40204900  0.39714800  1
  Cu  Cu16  1  0.65269100  0.82148300  0.97455500  1
  Cu  Cu17  1  0.15269100  0.67851700  0.02544500  1
  Cu  Cu18  1  0.84730900  0.82148300  0.52544500  1
  Cu  Cu19  1  0.34730900  0.67851700  0.47455500  1
  Cu  Cu20  1  0.34730900  0.17851700  0.02544500  1
  Cu  Cu21  1  0.84730900  0.32148300  0.97455500  1
  Cu  Cu22  1  0.15269100  0.17851700  0.47455500  1
  Cu  Cu23  1  0.65269100  0.32148300  0.52544500  1
  Cu  Cu24  1  0.85282100  0.84516700  0.05947700  1
  Cu  Cu25  1  0.35282100  0.65483300  0.94052300  1
  Cu  Cu26  1  0.64717900  0.84516700  0.44052300  1
  Cu  Cu27  1  0.14717900  0.65483300  0.55947700  1
  Cu  Cu28  1  0.14717900  0.15483300  0.94052300  1
  Cu  Cu29  1  0.64717900  0.34516700  0.05947700  1
  Cu  Cu30  1  0.35282100  0.15483300  0.55947700  1
  Cu  Cu31  1  0.85282100  0.34516700  0.44052300  1
  Cu  Cu32  1  0.99531700  0.93394400  0.76644900  1
  Cu  Cu33  1  0.49531700  0.56605600  0.23355100  1
  Cu  Cu34  1  0.50468300  0.93394400  0.73355100  1
  Cu  Cu35  1  0.00468300  0.56605600  0.26644900  1
  Cu  Cu36  1  0.00468300  0.06605600  0.23355100  1
  Cu  Cu37  1  0.50468300  0.43394400  0.76644900  1
  Cu  Cu38  1  0.49531700  0.06605600  0.26644900  1
  Cu  Cu39  1  0.99531700  0.43394400  0.73355100  1
  C  C40  1  0.72041400  0.88828300  0.03213200  1
  C  C41  1  0.22041400  0.61171700  0.96786800  1
  C  C42  1  0.77958600  0.88828300  0.46786800  1
  C  C43  1  0.27958600  0.61171700  0.53213200  1
  C  C44  1  0.27958600  0.11171700  0.96786800  1
  C  C45  1  0.77958600  0.38828300  0.03213200  1
  C  C46  1  0.22041400  0.11171700  0.53213200  1
  C  C47  1  0.72041400  0.38828300  0.46786800  1
  C  C48  1  0.00027100  0.57907500  0.79263100  1
  C  C49  1  0.50027100  0.92092500  0.20736900  1
  C  C50  1  0.49972900  0.57907500  0.70736900  1
  C  C51  1  0.99972900  0.92092500  0.29263100  1
  C  C52  1  0.99972900  0.42092500  0.20736900  1
  C  C53  1  0.49972900  0.07907500  0.79263100  1
  C  C54  1  0.50027100  0.42092500  0.29263100  1
  C  C55  1  0.00027100  0.07907500  0.70736900  1
  C  C56  1  0.95307200  0.72251500  0.60835200  1
  C  C57  1  0.45307200  0.77748500  0.39164800  1
  C  C58  1  0.54692800  0.72251500  0.89164800  1
  C  C59  1  0.04692800  0.77748500  0.10835200  1
  C  C60  1  0.04692800  0.27748500  0.39164800  1
  C  C61  1  0.54692800  0.22251500  0.60835200  1
  C  C62  1  0.45307200  0.27748500  0.10835200  1
  C  C63  1  0.95307200  0.22251500  0.89164800  1
  C  C64  1  0.99459800  0.83877200  0.80686800  1
  C  C65  1  0.49459800  0.66122800  0.19313200  1
  C  C66  1  0.50540200  0.83877200  0.69313200  1
  C  C67  1  0.00540200  0.66122800  0.30686800  1
  C  C68  1  0.00540200  0.16122800  0.19313200  1
  C  C69  1  0.50540200  0.33877200  0.80686800  1
  C  C70  1  0.49459800  0.16122800  0.30686800  1
  C  C71  1  0.99459800  0.33877200  0.69313200  1
