# generated using pymatgen
data_CuNi2C17
_symmetry_space_group_name_H-M   'P 1'
_cell_length_a   9.22773983
_cell_length_b   9.22773950
_cell_length_c   22.69555787
_cell_angle_alpha   89.80085571
_cell_angle_beta   90.19914429
_cell_angle_gamma   119.85487732
_symmetry_Int_Tables_number   1
_chemical_formula_structural   CuNi2C17
_chemical_formula_sum   'Cu6 Ni12 C102'
_cell_volume   1676.06900326
_cell_formula_units_Z   6
loop_
 _symmetry_equiv_pos_site_id
 _symmetry_equiv_pos_as_xyz
  1  'x, y, z'
loop_
 _atom_site_type_symbol
 _atom_site_label
 _atom_site_symmetry_multiplicity
 _atom_site_fract_x
 _atom_site_fract_y
 _atom_site_fract_z
 _atom_site_occupancy
  C  C0  1  0.99743960  0.98415726  0.50125865  1
  C  C1  1  0.01584274  0.00256040  0.00125865  1
  C  C2  1  0.66410660  0.31749026  0.83459165  1
  C  C3  1  0.68250974  0.33589340  0.33459165  1
  C  C4  1  0.33077260  0.65082426  0.16792565  1
  C  C5  1  0.34917574  0.66922740  0.66792565  1
  C  C6  1  0.63988676  0.00135073  0.25098733  1
  C  C7  1  0.99626495  0.63147815  0.25435354  1
  C  C8  1  0.99864927  0.36011324  0.75098733  1
  C  C9  1  0.36852185  0.00373505  0.75435354  1
  C  C10  1  0.30655376  0.33468373  0.58432033  1
  C  C11  1  0.66293195  0.96481115  0.58768654  1
  C  C12  1  0.66531627  0.69344624  0.08432033  1
  C  C13  1  0.03518885  0.33706805  0.08768654  1
  C  C14  1  0.97321976  0.66801773  0.91765433  1
  C  C15  1  0.32959795  0.29814515  0.92102054  1
  C  C16  1  0.33198227  0.02678024  0.41765433  1
  C  C17  1  0.70185485  0.67040205  0.42102054  1
  C  C18  1  0.99491887  0.00470531  0.35317293  1
  C  C19  1  0.99529469  0.00508113  0.85317293  1
  C  C20  1  0.99507520  0.99062767  0.64698762  1
  C  C21  1  0.00937233  0.00492480  0.14698762  1
  C  C22  1  0.66158587  0.33803831  0.68650593  1
  C  C23  1  0.66196169  0.33841413  0.18650593  1
  C  C24  1  0.66174220  0.32396067  0.98032062  1
  C  C25  1  0.67603933  0.33825780  0.48032062  1
  C  C26  1  0.32825187  0.67137231  0.01983993  1
  C  C27  1  0.32862769  0.67174813  0.51983993  1
  C  C28  1  0.32840820  0.65729467  0.31365462  1
  C  C29  1  0.34270533  0.67159180  0.81365462  1
  Ni  Ni30  1  0.70461092  0.70696641  0.24940728  1
  Ni  Ni31  1  0.00039614  0.29749626  0.24603302  1
  Ni  Ni32  1  0.29303359  0.29538908  0.74940728  1
  Ni  Ni33  1  0.70250374  0.99960386  0.74603302  1
  Ni  Ni34  1  0.37127792  0.04029941  0.58274028  1
  Ni  Ni35  1  0.66706314  0.63082926  0.57936602  1
  Ni  Ni36  1  0.95970059  0.62872208  0.08274028  1
  Ni  Ni37  1  0.36917074  0.33293686  0.07936602  1
  Ni  Ni38  1  0.03794392  0.37363341  0.91607428  1
  Ni  Ni39  1  0.33372914  0.96416326  0.91270002  1
  Ni  Ni40  1  0.62636659  0.96205608  0.41607428  1
  Ni  Ni41  1  0.03583674  0.66627086  0.41270002  1
  Cu  Cu42  1  0.29533719  0.00033816  0.25351041  1
  Cu  Cu43  1  0.99966184  0.70466281  0.75351041  1
  Cu  Cu44  1  0.96200419  0.33367116  0.58684341  1
  Cu  Cu45  1  0.66632884  0.03799581  0.08684341  1
  Cu  Cu46  1  0.62867019  0.66700516  0.92017741  1
  Cu  Cu47  1  0.33299484  0.37132981  0.42017741  1
  C  C48  1  0.21733402  0.01665287  0.31137862  1
  C  C49  1  0.82331900  0.79891649  0.30752605  1
  C  C50  1  0.98803521  0.17614289  0.30123154  1
  C  C51  1  0.20108351  0.17668100  0.80752605  1
  C  C52  1  0.98334713  0.78266598  0.81137862  1
  C  C53  1  0.82385711  0.01196479  0.80123154  1
  C  C54  1  0.78809876  0.98377701  0.68502453  1
  C  C55  1  0.17743217  0.19939893  0.69137729  1
  C  C56  1  0.01380339  0.81951039  0.70072039  1
  C  C57  1  0.80060107  0.82256783  0.19137729  1
  C  C58  1  0.01622299  0.21190124  0.18502453  1
  C  C59  1  0.18048961  0.98619661  0.20072039  1
  C  C60  1  0.88400102  0.34998587  0.64471162  1
  C  C61  1  0.48998600  0.13224949  0.64085905  1
  C  C62  1  0.65470221  0.50947589  0.63456454  1
  C  C63  1  0.86775051  0.51001400  0.14085905  1
  C  C64  1  0.65001413  0.11599898  0.14471162  1
  C  C65  1  0.49052411  0.34529779  0.13456454  1
  C  C66  1  0.45476576  0.31711001  0.01835753  1
  C  C67  1  0.84409917  0.53273193  0.02471029  1
  C  C68  1  0.68047039  0.15284339  0.03405339  1
  C  C69  1  0.46726807  0.15590083  0.52471029  1
  C  C70  1  0.68288999  0.54523424  0.51835753  1
  C  C71  1  0.84715661  0.31952961  0.53405339  1
  C  C72  1  0.55066702  0.68331987  0.97804562  1
  C  C73  1  0.15665200  0.46558349  0.97419305  1
  C  C74  1  0.32136821  0.84280989  0.96789854  1
  C  C75  1  0.53441651  0.84334800  0.47419305  1
  C  C76  1  0.31668013  0.44933298  0.47804562  1
  C  C77  1  0.15719011  0.67863179  0.46789854  1
  C  C78  1  0.12143176  0.65044401  0.35169153  1
  C  C79  1  0.51076517  0.86606593  0.35804429  1
  C  C80  1  0.34713639  0.48617739  0.36738739  1
  C  C81  1  0.13393407  0.48923483  0.85804429  1
  C  C82  1  0.34955599  0.87856824  0.85169153  1
  C  C83  1  0.51382261  0.65286361  0.86738739  1
  C  C84  1  0.02750126  0.84072390  0.41433779  1
  C  C85  1  0.81116423  0.97636769  0.41265726  1
  C  C86  1  0.18309132  0.19212860  0.41398051  1
  C  C87  1  0.02363231  0.18883577  0.91265726  1
  C  C88  1  0.15927610  0.97249874  0.91433779  1
  C  C89  1  0.80787140  0.81690868  0.91398051  1
  C  C90  1  0.97369685  0.17082345  0.58567490  1
  C  C91  1  0.18872303  0.02940755  0.58661550  1
  C  C92  1  0.82622707  0.82138625  0.58376483  1
  C  C93  1  0.97059245  0.81127697  0.08661550  1
  C  C94  1  0.82917655  0.02630315  0.08567490  1
  C  C95  1  0.17861375  0.17377293  0.08376483  1
  C  C96  1  0.69416826  0.17405690  0.74767079  1
  C  C97  1  0.47783123  0.30970069  0.74599026  1
  C  C98  1  0.84975832  0.52546160  0.74731351  1
  C  C99  1  0.69029931  0.52216877  0.24599026  1
  C  C100  1  0.82594310  0.30583174  0.24767079  1
  C  C101  1  0.47453840  0.15024168  0.24731351  1
  C  C102  1  0.64036385  0.50415645  0.91900790  1
  C  C103  1  0.85539003  0.36274055  0.91994850  1
  C  C104  1  0.49289407  0.15471925  0.91709783  1
  C  C105  1  0.63725945  0.14460997  0.41994850  1
  C  C106  1  0.49584355  0.35963615  0.41900790  1
  C  C107  1  0.84528075  0.50710593  0.41709783  1
  C  C108  1  0.36083426  0.50739090  0.08100479  1
  C  C109  1  0.14449723  0.64303469  0.07932426  1
  C  C110  1  0.51642432  0.85879560  0.08064751  1
  C  C111  1  0.35696531  0.85550277  0.57932426  1
  C  C112  1  0.49260910  0.63916574  0.58100479  1
  C  C113  1  0.14120440  0.48357568  0.58064751  1
  C  C114  1  0.30702985  0.83749045  0.25234190  1
  C  C115  1  0.52205603  0.69607455  0.25328250  1
  C  C116  1  0.15956007  0.48805325  0.25043183  1
  C  C117  1  0.30392545  0.47794397  0.75328250  1
  C  C118  1  0.16250955  0.69297015  0.75234190  1
  C  C119  1  0.51194675  0.84043993  0.75043183  1
