# generated using pymatgen
data_Cu3Ni2C9
_symmetry_space_group_name_H-M   'P 1'
_cell_length_a   5.90680053
_cell_length_b   6.86250567
_cell_length_c   7.11071898
_cell_angle_alpha   118.85185918
_cell_angle_beta   121.20323042
_cell_angle_gamma   89.99999303
_symmetry_Int_Tables_number   1
_chemical_formula_structural   Cu3Ni2C9
_chemical_formula_sum   'Cu3 Ni2 C9'
_cell_volume   203.55820980
_cell_formula_units_Z   1
loop_
 _symmetry_equiv_pos_site_id
 _symmetry_equiv_pos_as_xyz
  1  'x, y, z'
loop_
 _atom_site_type_symbol
 _atom_site_label
 _atom_site_symmetry_multiplicity
 _atom_site_fract_x
 _atom_site_fract_y
 _atom_site_fract_z
 _atom_site_occupancy
  C  C0  1  0.43507653  0.76629783  0.53259467  1
  Ni  Ni1  1  0.72615311  0.65293634  0.30587269  1
  Ni  Ni2  1  0.32268685  0.32388696  0.64777292  1
  Cu  Cu3  1  0.62831310  0.10540597  0.21081395  1
  Cu  Cu4  1  0.97884568  0.71715592  0.95505452  1
  Cu  Cu5  1  0.97884568  0.23789860  0.95505452  1
  C  C6  1  0.97021587  0.32339164  0.64678329  1
  C  C7  1  0.01240292  0.62611266  0.25222433  1
  C  C8  1  0.90314757  0.85353690  0.70707480  1
  C  C9  1  0.04249840  0.11492038  0.22984175  1
  C  C10  1  0.47105143  0.42334415  0.26921741  1
  C  C11  1  0.47105143  0.84587326  0.26921741  1
  C  C12  1  0.51943772  0.13115804  0.77775638  1
  C  C13  1  0.51943772  0.64659733  0.77775638  1
