# generated using pymatgen
data_Cu2Ni2C9
_symmetry_space_group_name_H-M   'P 1'
_cell_length_a   3.37412400
_cell_length_b   3.37390872
_cell_length_c   41.95770819
_cell_angle_alpha   89.93080669
_cell_angle_beta   90.00000551
_cell_angle_gamma   120.00223747
_symmetry_Int_Tables_number   1
_chemical_formula_structural   Cu2Ni2C9
_chemical_formula_sum   'Cu2 Ni2 C9'
_cell_volume   413.64382320
_cell_formula_units_Z   1
loop_
 _symmetry_equiv_pos_site_id
 _symmetry_equiv_pos_as_xyz
  1  'x, y, z'
loop_
 _atom_site_type_symbol
 _atom_site_label
 _atom_site_symmetry_multiplicity
 _atom_site_fract_x
 _atom_site_fract_y
 _atom_site_fract_z
 _atom_site_occupancy
  C  C0  1  0.33529500  0.67060800  0.38166400  1
  C  C1  1  0.33276000  0.66551700  0.70276100  1
  C  C2  1  0.66725100  0.33450100  0.04883200  1
  C  C3  1  0.66611900  0.33223300  0.13864700  1
  C  C4  1  0.33380500  0.66760800  0.61233900  1
  Ni  Ni5  1  0.33331200  0.66662000  0.09374100  1
  Ni  Ni6  1  0.33437300  0.66874600  0.47472700  1
  Cu  Cu7  1  0.66695800  0.33391600  0.27834900  1
  Cu  Cu8  1  0.66665400  0.33330700  0.65756200  1
  C  C9  1  0.33331300  0.66662400  0.31435800  1
  C  C10  1  0.66801200  0.33602500  0.43832200  1
  C  C11  1  0.66752100  0.33504300  0.51036000  1
  C  C12  1  0.33391100  0.66782300  0.24250500  1
