# generated using pymatgen
data_Cu3Ni3C31
_symmetry_space_group_name_H-M   'P 1'
_cell_length_a   8.93428594
_cell_length_b   8.88378902
_cell_length_c   23.20847349
_cell_angle_alpha   90.11516472
_cell_angle_beta   89.82320221
_cell_angle_gamma   119.93855407
_symmetry_Int_Tables_number   1
_chemical_formula_structural   Cu3Ni3C31
_chemical_formula_sum   'Cu9 Ni9 C93'
_cell_volume   1596.25301172
_cell_formula_units_Z   3
loop_
 _symmetry_equiv_pos_site_id
 _symmetry_equiv_pos_as_xyz
  1  'x, y, z'
loop_
 _atom_site_type_symbol
 _atom_site_label
 _atom_site_symmetry_multiplicity
 _atom_site_fract_x
 _atom_site_fract_y
 _atom_site_fract_z
 _atom_site_occupancy
  C  C0  1  0.66622320  0.69244231  0.08503354  1
  C  C1  1  0.33100307  0.29642957  0.91588310  1
  C  C2  1  0.33034948  0.03445226  0.41554051  1
  C  C3  1  0.98933339  0.00083014  0.50219186  1
  C  C4  1  0.00285638  0.99693104  0.00182637  1
  C  C5  1  0.68125411  0.33555311  0.83081785  1
  C  C6  1  0.67985691  0.34429930  0.33014632  1
  C  C7  1  0.31795771  0.66059045  0.16564536  1
  C  C8  1  0.33437151  0.67155156  0.66466855  1
  C  C9  1  0.99374636  0.00007542  0.34370966  1
  C  C10  1  0.99191105  0.99263563  0.84303943  1
  C  C11  1  0.67521490  0.33653935  0.98389573  1
  C  C12  1  0.67077476  0.33780382  0.48366943  1
  C  C13  1  0.31967036  0.66517551  0.02472206  1
  C  C14  1  0.33323243  0.66751650  0.52541543  1
  C  C15  1  0.00923554  -0.00001081  0.65594396  1
  C  C16  1  0.01723402  0.00774669  0.15595345  1
  C  C17  1  0.65686178  0.32304181  0.68564603  1
  C  C18  1  0.66764047  0.34151211  0.18558055  1
  C  C19  1  0.33258215  0.66182467  0.30549122  1
  C  C20  1  0.33238102  0.67128406  0.80513381  1
  Ni  Ni21  1  0.30666985  0.00388672  0.25089133  1
  Ni  Ni22  1  0.70064211  0.70065606  0.24763373  1
  Ni  Ni23  1  0.99481584  0.29847163  0.24829732  1
  Ni  Ni24  1  0.30225890  0.30045915  0.75030655  1
  Ni  Ni25  1  0.99403088  0.69365934  0.74802327  1
  Ni  Ni26  1  0.70273166  0.00170381  0.74782938  1
  Ni  Ni27  1  0.36359364  0.04363140  0.58742528  1
  Ni  Ni28  1  0.95659565  0.63671685  0.09039098  1
  Ni  Ni29  1  0.36809924  0.32079499  0.08714749  1
  Cu  Cu30  1  0.95386246  0.31823332  0.59004371  1
  Cu  Cu31  1  0.68164414  0.63622365  0.59020595  1
  Cu  Cu32  1  0.68164393  0.04462702  0.08936987  1
  Cu  Cu33  1  0.61836671  0.66783449  0.91426722  1
  Cu  Cu34  1  0.04774283  0.38169204  0.91114573  1
  Cu  Cu35  1  0.33402623  0.95532711  0.91185015  1
  Cu  Cu36  1  0.61802240  0.95075858  0.41297557  1
  Cu  Cu37  1  0.33398662  0.38004976  0.41269091  1
  Cu  Cu38  1  0.04852020  0.66527889  0.41211268  1
  C  C39  1  0.24848260  0.04350787  0.30716417  1
  C  C40  1  0.80265256  0.75876014  0.30229898  1
  C  C41  1  0.95343219  0.19946474  0.30368880  1
  C  C42  1  0.24820588  0.20432982  0.80690892  1
  C  C43  1  0.95194672  0.75197394  0.80325954  1
  C  C44  1  0.80076117  0.04759199  0.80344033  1
  C  C45  1  0.79762059  0.96818432  0.69767485  1
  C  C46  1  0.17078846  0.19898773  0.70077144  1
  C  C47  1  0.02951790  0.82649883  0.69775582  1
  C  C48  1  0.78793463  0.82168441  0.19522347  1
  C  C49  1  0.02916938  0.20111711  0.19800259  1
  C  C50  1  0.17321602  0.97292406  0.20094516  1
  C  C51  1  0.85402597  0.33626623  0.63834137  1
  C  C52  1  0.49320916  0.16221004  0.63576463  1
  C  C53  1  0.66681535  0.51995099  0.63848811  1
  C  C54  1  0.84530176  0.51124832  0.13983284  1
  C  C55  1  0.66225087  0.13913540  0.13835647  1
  C  C56  1  0.49616212  0.33410745  0.13517370  1
  C  C57  1  0.42232002  0.28783545  0.02791565  1
  C  C58  1  0.85388012  0.57587971  0.03421066  1
  C  C59  1  0.70442680  0.13497782  0.03437038  1
  C  C60  1  0.42160108  0.13257271  0.52883174  1
  C  C61  1  0.70840344  0.57209189  0.53498619  1
  C  C62  1  0.86404972  0.29365700  0.53493252  1
  C  C63  1  0.54023992  0.67653159  0.96940647  1
  C  C64  1  0.14223453  0.45995280  0.96466364  1
  C  C65  1  0.32304103  0.86397736  0.96507926  1
  C  C66  1  0.53675041  0.85967002  0.46658966  1
  C  C67  1  0.32261721  0.46078432  0.46595267  1
  C  C68  1  0.14348922  0.68122759  0.46543012  1
  C  C69  1  0.14705893  0.65781386  0.36008611  1
  C  C70  1  0.51017001  0.85286190  0.36119840  1
  C  C71  1  0.33950274  0.48383583  0.36038197  1
  C  C72  1  0.14707002  0.48869307  0.85948777  1
  C  C73  1  0.33854088  0.85532754  0.85964367  1
  C  C74  1  0.50840632  0.65894740  0.86350764  1
  C  C75  1  0.03551576  0.82587232  0.40907135  1
  C  C76  1  0.79290835  0.97542902  0.41034422  1
  C  C77  1  0.18212812  0.20127105  0.41027680  1
  C  C78  1  0.03501697  0.20833701  0.90811703  1
  C  C79  1  0.18184537  0.98113807  0.90955927  1
  C  C80  1  0.79326524  0.81871606  0.91111802  1
  C  C81  1  0.97137296  0.16029778  0.59901440  1
  C  C82  1  0.18310576  0.02829947  0.60202178  1
  C  C83  1  0.83790362  0.81252437  0.59912657  1
  C  C84  1  0.97130413  0.81840748  0.10240376  1
  C  C85  1  0.83680347  0.02205694  0.09654897  1
  C  C86  1  0.18511602  0.16164173  0.10135785  1
  C  C87  1  0.66711575  0.15284468  0.73255824  1
  C  C88  1  0.48506774  0.33118423  0.73400035  1
  C  C89  1  0.84513434  0.51123533  0.73194912  1
  C  C90  1  0.66421522  0.51166923  0.23466937  1
  C  C91  1  0.84487317  0.33077879  0.23269135  1
  C  C92  1  0.48669093  0.15436556  0.23401917  1
  C  C93  1  0.62304841  0.50115748  0.91213671  1
  C  C94  1  0.87602552  0.36679816  0.91088095  1
  C  C95  1  0.49313881  0.13008954  0.91011164  1
  C  C96  1  0.62324337  0.12250003  0.41217488  1
  C  C97  1  0.49305237  0.36414284  0.41115996  1
  C  C98  1  0.87625459  0.50809307  0.41174911  1
  C  C99  1  0.36527250  0.49235338  0.08986675  1
  C  C100  1  0.13307324  0.65233040  0.09151414  1
  C  C101  1  0.52747072  0.86702531  0.08815804  1
  C  C102  1  0.34827196  0.86578825  0.59185743  1
  C  C103  1  0.52449380  0.65070266  0.59018471  1
  C  C104  1  0.12657917  0.47455863  0.59012948  1
  C  C105  1  0.31668721  0.83211610  0.25592543  1
  C  C106  1  0.51499517  0.68157114  0.25678370  1
  C  C107  1  0.16568984  0.48224029  0.25537352  1
  C  C108  1  0.31742857  0.48456006  0.75595931  1
  C  C109  1  0.16596751  0.68331264  0.75527140  1
  C  C110  1  0.51701768  0.83374731  0.75625517  1
