# generated using pymatgen
data_Cu3(NiC16)2
_symmetry_space_group_name_H-M   'P 1'
_cell_length_a   8.90610533
_cell_length_b   8.91675608
_cell_length_c   23.43324899
_cell_angle_alpha   87.72728814
_cell_angle_beta   91.81288874
_cell_angle_gamma   119.85477351
_symmetry_Int_Tables_number   1
_chemical_formula_structural   Cu3(NiC16)2
_chemical_formula_sum   'Cu9 Ni6 C96'
_cell_volume   1612.53397847
_cell_formula_units_Z   3
loop_
 _symmetry_equiv_pos_site_id
 _symmetry_equiv_pos_as_xyz
  1  'x, y, z'
loop_
 _atom_site_type_symbol
 _atom_site_label
 _atom_site_symmetry_multiplicity
 _atom_site_fract_x
 _atom_site_fract_y
 _atom_site_fract_z
 _atom_site_occupancy
  C  C0  1  0.36923874  0.36736525  0.25143683  1
  C  C1  1  0.67837398  0.01156049  0.92248041  1
  C  C2  1  0.97649595  0.30573182  0.41391164  1
  C  C3  1  0.00717402  0.99361416  0.49039008  1
  C  C4  1  0.00789451  0.98661074  0.00905901  1
  C  C5  1  0.65592611  0.33796930  0.83851300  1
  C  C6  1  0.66448401  0.33272479  0.33293936  1
  C  C7  1  0.33715589  0.69862773  0.17550747  1
  C  C8  1  0.33142514  0.66868661  0.66660119  1
  C  C9  1  0.00535499  0.99062181  0.85410067  1
  C  C10  1  0.98958910  0.01519551  0.64042806  1
  C  C11  1  0.67262654  0.31957444  0.68230273  1
  C  C12  1  0.33682679  0.66876433  0.03168396  1
  C  C13  1  0.32294836  0.66421548  0.50094645  1
  C  C14  1  0.35145124  0.67971675  0.82806267  1
  Ni  Ni15  1  0.02172897  0.00837559  0.34096136  1
  Ni  Ni16  1  0.99739485  0.01359457  0.15845781  1
  Ni  Ni17  1  0.67028795  0.30513439  0.18653510  1
  Ni  Ni18  1  0.66638664  0.32763598  0.99421193  1
  Ni  Ni19  1  0.66787421  0.35707162  0.47497907  1
  Ni  Ni20  1  0.28384260  0.64724003  0.31524540  1
  Cu  Cu21  1  0.28429295  0.99430863  0.24826228  1
  Cu  Cu22  1  0.99790328  0.28633393  0.25060449  1
  Cu  Cu23  1  0.68229896  0.99038728  0.75471345  1
  Cu  Cu24  1  0.95122082  0.33432424  0.56786960  1
  Cu  Cu25  1  0.69972421  0.06603869  0.09139958  1
  Cu  Cu26  1  0.63966892  0.64196439  0.92760600  1
  Cu  Cu27  1  0.35795741  0.00225503  0.92698462  1
  Cu  Cu28  1  0.33015044  0.35816046  0.40663575  1
  Cu  Cu29  1  0.01759559  0.67344586  0.40772119  1
  C  C30  1  0.71602360  0.71958191  0.24795655  1
  C  C31  1  0.31188949  0.31847434  0.74939148  1
  C  C32  1  0.00485009  0.68962980  0.74902204  1
  C  C33  1  0.37724397  0.04735720  0.57043644  1
  C  C34  1  0.67109703  0.62584974  0.57211625  1
  C  C35  1  0.92387621  0.61214942  0.09304067  1
  C  C36  1  0.38199944  0.30278427  0.09294634  1
  C  C37  1  0.00708201  0.36153178  0.92431063  1
  C  C38  1  0.64350003  0.97239021  0.40775080  1
  C  C39  1  0.21043547  0.04376918  0.29884387  1
  C  C40  1  0.82586004  0.80581176  0.29847834  1
  C  C41  1  0.97215152  0.17132731  0.30465746  1
  C  C42  1  0.22126928  0.22344146  0.80188329  1
  C  C43  1  0.01791985  0.78491829  0.80098424  1
  C  C44  1  0.76087014  0.97452105  0.81291829  1
  C  C45  1  0.79522747  0.00561068  0.70333623  1
  C  C46  1  0.21972348  0.22006418  0.69761725  1
  C  C47  1  0.00150298  0.78609487  0.69657730  1
  C  C48  1  0.79921811  0.82806711  0.19546156  1
  C  C49  1  0.04556879  0.20899517  0.20045487  1
  C  C50  1  0.16241799  0.96459846  0.19576965  1
  C  C51  1  0.87237332  0.32457993  0.62630793  1
  C  C52  1  0.44656945  0.11742164  0.62773082  1
  C  C53  1  0.67024392  0.54782953  0.62884125  1
  C  C54  1  0.83291213  0.50812972  0.14503983  1
  C  C55  1  0.67577928  0.15747766  0.14149816  1
  C  C56  1  0.48924604  0.32188956  0.14552108  1
  C  C57  1  0.46667003  0.29405258  0.04073390  1
  C  C58  1  0.82923913  0.52554798  0.03976432  1
  C  C59  1  0.71361949  0.16749678  0.03419542  1
  C  C60  1  0.49114027  0.16016695  0.52329480  1
  C  C61  1  0.65620536  0.51249171  0.52441790  1
  C  C62  1  0.84365945  0.34838230  0.51617070  1
  C  C63  1  0.53290625  0.67860677  0.96976738  1
  C  C64  1  0.12718419  0.44993405  0.97154531  1
  C  C65  1  0.32196049  0.86539134  0.97410026  1
  C  C66  1  0.59279430  0.88213268  0.46406852  1
  C  C67  1  0.26899127  0.40985539  0.45941663  1
  C  C68  1  0.11849287  0.72631929  0.46410065  1
  C  C69  1  0.11816066  0.62286284  0.36437276  1
  C  C70  1  0.51446847  0.87435359  0.36250050  1
  C  C71  1  0.35849853  0.49217473  0.35591646  1
  C  C72  1  0.07543403  0.45217401  0.86843064  1
  C  C73  1  0.38935099  0.93567544  0.87024030  1
  C  C74  1  0.54863318  0.60752401  0.86788936  1
  C  C75  1  0.99634224  0.82618629  0.38676942  1
  C  C76  1  0.82128819  -0.00002208  0.39755367  1
  C  C77  1  0.17707568  0.17482831  0.39300113  1
  C  C78  1  0.97657707  0.18109960  0.92305869  1
  C  C79  1  0.20806348  0.04004156  0.92438013  1
  C  C80  1  0.81922623  0.81007053  0.92552596  1
  C  C81  1  0.95903748  0.16563720  0.56140691  1
  C  C82  1  0.20465472  0.03422061  0.56444734  1
  C  C83  1  0.83630754  0.79134098  0.56575018  1
  C  C84  1  0.94039760  0.78537692  0.09365708  1
  C  C85  1  0.86787010  0.05290941  0.10087093  1
  C  C86  1  0.20777476  0.14547096  0.09687111  1
  C  C87  1  0.66365521  0.15217167  0.75903580  1
  C  C88  1  0.48797993  0.34198386  0.75294281  1
  C  C89  1  0.84400771  0.52111521  0.75451516  1
  C  C90  1  0.69276594  0.54059621  0.24508723  1
  C  C91  1  0.83611615  0.30738277  0.24002604  1
  C  C92  1  0.47219467  0.15539098  0.23880859  1
  C  C93  1  0.65828202  0.48688038  0.94501396  1
  C  C94  1  0.83879995  0.35178611  0.93234505  1
  C  C95  1  0.52858100  0.16830195  0.93961668  1
  C  C96  1  0.66120835  0.14960914  0.41195034  1
  C  C97  1  0.49925696  0.35078256  0.42066890  1
  C  C98  1  0.83987114  0.50239820  0.41686006  1
  C  C99  1  0.36219544  0.45858576  0.09146677  1
  C  C100  1  0.09908556  0.62755054  0.09365353  1
  C  C101  1  0.53831260  0.88317188  0.09062164  1
  C  C102  1  0.36368853  0.87593443  0.57099409  1
  C  C103  1  0.52185600  0.65339313  0.57078667  1
  C  C104  1  0.13443348  0.49219316  0.57095956  1
  C  C105  1  0.29682060  0.82622639  0.26277847  1
  C  C106  1  0.53840097  0.69697779  0.25165777  1
  C  C107  1  0.16254686  0.47215453  0.26089119  1
  C  C108  1  0.31849279  0.48656463  0.74578554  1
  C  C109  1  0.15589103  0.66439441  0.74689387  1
  C  C110  1  0.50335474  0.82923944  0.74631215  1
