# generated using pymatgen
data_Cu3Ni3C11
_symmetry_space_group_name_H-M   'P 1'
_cell_length_a   8.06471469
_cell_length_b   8.06471469
_cell_length_c   7.36137700
_cell_angle_alpha   90.00000000
_cell_angle_beta   90.00000000
_cell_angle_gamma   120.00000570
_symmetry_Int_Tables_number   1
_chemical_formula_structural   Cu3Ni3C11
_chemical_formula_sum   'Cu6 Ni6 C22'
_cell_volume   414.63664577
_cell_formula_units_Z   2
loop_
 _symmetry_equiv_pos_site_id
 _symmetry_equiv_pos_as_xyz
  1  'x, y, z'
loop_
 _atom_site_type_symbol
 _atom_site_label
 _atom_site_symmetry_multiplicity
 _atom_site_fract_x
 _atom_site_fract_y
 _atom_site_fract_z
 _atom_site_occupancy
  C  C0  1  0.33333300  0.66666700  0.54938600  1
  C  C1  1  0.66666700  0.33333300  0.04938600  1
  C  C2  1  0.66666700  0.33333300  0.45061400  1
  C  C3  1  0.33333300  0.66666700  0.95061400  1
  Ni  Ni4  1  0.95199400  0.31056900  0.75000000  1
  Ni  Ni5  1  0.64142400  0.95199400  0.25000000  1
  Ni  Ni6  1  0.31056900  0.35857600  0.25000000  1
  Ni  Ni7  1  0.68943100  0.64142400  0.75000000  1
  Ni  Ni8  1  0.35857600  0.04800600  0.75000000  1
  Ni  Ni9  1  0.04800600  0.68943100  0.25000000  1
  Cu  Cu10  1  0.81823900  0.83925000  0.75000000  1
  Cu  Cu11  1  0.97898900  0.81823900  0.25000000  1
  Cu  Cu12  1  0.83925000  0.02101100  0.25000000  1
  Cu  Cu13  1  0.16075000  0.97898900  0.75000000  1
  Cu  Cu14  1  0.02101100  0.18176100  0.75000000  1
  Cu  Cu15  1  0.18176100  0.16075000  0.25000000  1
  C  C16  1  0.13072600  0.51731500  0.75000000  1
  C  C17  1  0.61341100  0.13072600  0.25000000  1
  C  C18  1  0.51731500  0.38658900  0.25000000  1
  C  C19  1  0.48268500  0.61341100  0.75000000  1
  C  C20  1  0.16287500  0.72904700  0.07467900  1
  C  C21  1  0.43382800  0.16287500  0.57467900  1
  C  C22  1  0.72904700  0.56617200  0.57467900  1
  C  C23  1  0.27095300  0.43382800  0.07467900  1
  C  C24  1  0.56617200  0.83712500  0.07467900  1
  C  C25  1  0.83712500  0.27095300  0.57467900  1
  C  C26  1  0.83712500  0.27095300  0.92532100  1
  C  C27  1  0.56617200  0.83712500  0.42532100  1
  C  C28  1  0.27095300  0.43382800  0.42532100  1
  C  C29  1  0.72904700  0.56617200  0.92532100  1
  C  C30  1  0.43382800  0.16287500  0.92532100  1
  C  C31  1  0.16287500  0.72904700  0.42532100  1
  C  C32  1  0.86927400  0.48268500  0.25000000  1
  C  C33  1  0.38658900  0.86927400  0.75000000  1
