# generated using pymatgen
data_Cu4NiC2
_symmetry_space_group_name_H-M   'P 1'
_cell_length_a   7.80984500
_cell_length_b   12.13165100
_cell_length_c   12.92001300
_cell_angle_alpha   90.00000000
_cell_angle_beta   90.00000000
_cell_angle_gamma   90.00000000
_symmetry_Int_Tables_number   1
_chemical_formula_structural   Cu4NiC2
_chemical_formula_sum   'Cu16 Ni4 C8'
_cell_volume   1224.12360734
_cell_formula_units_Z   4
loop_
 _symmetry_equiv_pos_site_id
 _symmetry_equiv_pos_as_xyz
  1  'x, y, z'
loop_
 _atom_site_type_symbol
 _atom_site_label
 _atom_site_symmetry_multiplicity
 _atom_site_fract_x
 _atom_site_fract_y
 _atom_site_fract_z
 _atom_site_occupancy
  C  C0  1  0.89491500  0.05526700  0.85367800  1
  C  C1  1  0.39491500  0.94473300  0.64632200  1
  C  C2  1  0.10508500  0.55526700  0.14632200  1
  C  C3  1  0.60508500  0.44473300  0.35367800  1
  C  C4  1  0.10508500  0.94473300  0.14632200  1
  C  C5  1  0.60508500  0.05526700  0.35367800  1
  C  C6  1  0.89491500  0.44473300  0.85367800  1
  C  C7  1  0.39491500  0.55526700  0.64632200  1
  Ni  Ni8  1  0.49770500  0.25000000  0.06556900  1
  Ni  Ni9  1  0.50229500  0.75000000  0.93443100  1
  Ni  Ni10  1  0.00229500  0.25000000  0.56556900  1
  Ni  Ni11  1  0.99770500  0.75000000  0.43443100  1
  Cu  Cu12  1  0.15906700  0.75000000  0.87524300  1
  Cu  Cu13  1  0.65906700  0.25000000  0.62475700  1
  Cu  Cu14  1  0.84093300  0.25000000  0.12475700  1
  Cu  Cu15  1  0.34093300  0.75000000  0.37524300  1
  Cu  Cu16  1  0.74810700  0.75000000  0.27540700  1
  Cu  Cu17  1  0.75189300  0.75000000  0.77540700  1
  Cu  Cu18  1  0.24810700  0.25000000  0.22459300  1
  Cu  Cu19  1  0.25189300  0.25000000  0.72459300  1
  Cu  Cu20  1  0.90876400  0.57066000  0.57025600  1
  Cu  Cu21  1  0.40876400  0.42934000  0.92974400  1
  Cu  Cu22  1  0.09123600  0.07066000  0.42974400  1
  Cu  Cu23  1  0.59123600  0.92934000  0.07025600  1
  Cu  Cu24  1  0.09123600  0.42934000  0.42974400  1
  Cu  Cu25  1  0.59123600  0.57066000  0.07025600  1
  Cu  Cu26  1  0.90876400  0.92934000  0.57025600  1
  Cu  Cu27  1  0.40876400  0.07066000  0.92974400  1
