# generated using pymatgen
data_CuNiC9
_symmetry_space_group_name_H-M   'P 1'
_cell_length_a   6.44465423
_cell_length_b   5.41918893
_cell_length_c   5.42925773
_cell_angle_alpha   90.00000000
_cell_angle_beta   90.00000000
_cell_angle_gamma   90.00000000
_symmetry_Int_Tables_number   1
_chemical_formula_structural   CuNiC9
_chemical_formula_sum   'Cu1 Ni1 C9'
_cell_volume   189.61573418
_cell_formula_units_Z   1
loop_
 _symmetry_equiv_pos_site_id
 _symmetry_equiv_pos_as_xyz
  1  'x, y, z'
loop_
 _atom_site_type_symbol
 _atom_site_label
 _atom_site_symmetry_multiplicity
 _atom_site_fract_x
 _atom_site_fract_y
 _atom_site_fract_z
 _atom_site_occupancy
  Ni  Ni0  1  0.68836145  0.00000000  0.00000000  1
  Cu  Cu1  1  0.45507807  0.50000000  0.00000000  1
  C  C2  1  0.48035123  0.00000000  0.50000000  1
  C  C3  1  0.14061914  0.00000000  0.00000000  1
  C  C4  1  0.82750305  0.50000000  0.50000000  1
  C  C5  1  0.59176958  0.24769930  0.25833444  1
  C  C6  1  0.59176958  0.24769930  0.74166556  1
  C  C7  1  0.59176958  0.75230070  0.25833444  1
  C  C8  1  0.59176958  0.75230070  0.74166556  1
  C  C9  1  0.20986177  0.00000000  0.50000000  1
  C  C10  1  0.15625998  0.50000000  0.00000000  1
