# generated using pymatgen
data_CuNiC11
_symmetry_space_group_name_H-M   'P 1'
_cell_length_a   5.20281419
_cell_length_b   5.20282724
_cell_length_c   7.58424097
_cell_angle_alpha   85.32134324
_cell_angle_beta   85.32157807
_cell_angle_gamma   70.62776005
_symmetry_Int_Tables_number   1
_chemical_formula_structural   CuNiC11
_chemical_formula_sum   'Cu1 Ni1 C11'
_cell_volume   192.70703371
_cell_formula_units_Z   1
loop_
 _symmetry_equiv_pos_site_id
 _symmetry_equiv_pos_as_xyz
  1  'x, y, z'
loop_
 _atom_site_type_symbol
 _atom_site_label
 _atom_site_symmetry_multiplicity
 _atom_site_fract_x
 _atom_site_fract_y
 _atom_site_fract_z
 _atom_site_occupancy
  C  C0  1  0.80926445  0.19073555  0.50000001  1
  Ni  Ni1  1  0.28607397  0.71392602  0.50000000  1
  Cu  Cu2  1  0.02374129  0.97625871  0.00000000  1
  C  C3  1  0.64711415  0.60167621  0.20406629  1
  C  C4  1  0.39832178  0.35288786  0.79593370  1
  C  C5  1  0.77078137  0.75648937  0.07333351  1
  C  C6  1  0.24350862  0.22922063  0.92666649  1
  C  C7  1  0.68304251  0.65606151  0.39336233  1
  C  C8  1  0.34393650  0.31695949  0.60663767  1
  C  C9  1  0.77071729  0.30331998  0.18653964  1
  C  C10  1  0.34116555  0.69490254  0.19306409  1
  C  C11  1  0.30509647  0.65883443  0.80693691  1
  C  C12  1  0.69668003  0.22928370  0.81345936  1
