# generated using pymatgen
data_Cu5NiC31
_symmetry_space_group_name_H-M   'P 1'
_cell_length_a   8.78886750
_cell_length_b   8.78381590
_cell_length_c   22.82845788
_cell_angle_alpha   90.07084979
_cell_angle_beta   89.92500661
_cell_angle_gamma   119.88712209
_symmetry_Int_Tables_number   1
_chemical_formula_structural   Cu5NiC31
_chemical_formula_sum   'Cu15 Ni3 C93'
_cell_volume   1527.97319579
_cell_formula_units_Z   3
loop_
 _symmetry_equiv_pos_site_id
 _symmetry_equiv_pos_as_xyz
  1  'x, y, z'
loop_
 _atom_site_type_symbol
 _atom_site_label
 _atom_site_symmetry_multiplicity
 _atom_site_fract_x
 _atom_site_fract_y
 _atom_site_fract_z
 _atom_site_occupancy
  C  C0  1  0.36658940  0.99623375  0.75012676  1
  C  C1  1  0.66331066  0.96787679  0.58602287  1
  C  C2  1  0.67055337  0.69755348  0.08276426  1
  C  C3  1  0.01595682  0.00109147  0.50207360  1
  C  C4  1  0.01014216  0.00309343  0.00153282  1
  C  C5  1  0.67586314  0.33733208  0.83397932  1
  C  C6  1  0.66673573  0.33335132  0.33335407  1
  C  C7  1  0.31708998  0.66510261  0.16697200  1
  C  C8  1  0.33062002  0.65993083  0.66666720  1
  C  C9  1  0.00350470  0.99964432  0.64924993  1
  C  C10  1  0.00721613  0.00018932  0.14924595  1
  C  C11  1  0.32027339  0.66575339  0.01771785  1
  C  C12  1  0.32707314  0.66736664  0.51734548  1
  C  C13  1  0.33194978  0.66645338  0.31545863  1
  C  C14  1  0.33878562  0.66624113  0.81580181  1
  C  C15  1  0.00188519  0.00031412  0.35185953  1
  C  C16  1  0.99064525  0.00149264  0.85134659  1
  C  C17  1  0.66781116  0.32820063  0.68428035  1
  C  C18  1  0.67625542  0.33847638  0.18501777  1
  C  C19  1  0.67335018  0.33934446  0.98209052  1
  C  C20  1  0.65654517  0.32803400  0.48169815  1
  Ni  Ni21  1  0.70460852  0.99535348  0.74767262  1
  Ni  Ni22  1  0.36607875  0.03502600  0.58368690  1
  Ni  Ni23  1  0.96531622  0.63092311  0.08373319  1
  Cu  Cu24  1  0.29255767  0.99753314  0.24944766  1
  Cu  Cu25  1  0.70423983  0.70901998  0.24918263  1
  Cu  Cu26  1  0.00413235  0.29287163  0.24944249  1
  Cu  Cu27  1  0.28954051  0.29493935  0.74949646  1
  Cu  Cu28  1  0.00034541  0.70780138  0.75013630  1
  Cu  Cu29  1  0.96439941  0.33591557  0.58261094  1
  Cu  Cu30  1  0.66651534  0.62759396  0.58304140  1
  Cu  Cu31  1  0.66674689  0.03829323  0.08336214  1
  Cu  Cu32  1  0.37084046  0.33169939  0.08315542  1
  Cu  Cu33  1  0.62161957  0.66591167  0.91774046  1
  Cu  Cu34  1  0.04609400  0.37871562  0.91637473  1
  Cu  Cu35  1  0.33309204  0.95805030  0.91598567  1
  Cu  Cu36  1  0.62338021  0.95553179  0.41674252  1
  Cu  Cu37  1  0.33263832  0.37950052  0.41633901  1
  Cu  Cu38  1  0.04302309  0.66537930  0.41633900  1
  C  C39  1  0.21042301  0.02558916  0.30272103  1
  C  C40  1  0.81675409  0.79321902  0.30137858  1
  C  C41  1  0.97661426  0.18391736  0.30270322  1
  C  C42  1  0.21235340  0.18093402  0.80222104  1
  C  C43  1  0.97497196  0.78991997  0.80334877  1
  C  C44  1  0.82083120  0.02421809  0.80240281  1
  C  C45  1  0.78765798  0.97352308  0.69175382  1
  C  C46  1  0.18497978  0.21209632  0.69700690  1
  C  C47  1  0.03212648  0.81911707  0.69815134  1
  C  C48  1  0.78448853  0.81188340  0.19544707  1
  C  C49  1  0.02578483  0.20908510  0.19695250  1
  C  C50  1  0.18562391  0.97354344  0.19724447  1
  C  C51  1  0.88222562  0.36386047  0.63572041  1
  C  C52  1  0.48482473  0.12127391  0.63941097  1
  C  C53  1  0.64251430  0.52012738  0.63585741  1
  C  C54  1  0.87140580  0.51304212  0.13802539  1
  C  C55  1  0.63732533  0.11943364  0.13591886  1
  C  C56  1  0.48402937  0.36143888  0.13553781  1
  C  C57  1  0.45354065  0.30353203  0.03043841  1
  C  C58  1  0.84198455  0.54082241  0.02981157  1
  C  C59  1  0.69145670  0.14672827  0.03076182  1
  C  C60  1  0.46303369  0.15479715  0.53018496  1
  C  C61  1  0.69411417  0.54507201  0.53055035  1
  C  C62  1  0.85008440  0.30636521  0.53081045  1
  C  C63  1  0.54442019  0.69015473  0.97197387  1
  C  C64  1  0.14974971  0.45694612  0.96934837  1
  C  C65  1  0.30909581  0.85084526  0.96807829  1
  C  C66  1  0.54799863  0.85433868  0.47106566  1
  C  C67  1  0.30776316  0.45806880  0.46960401  1
  C  C68  1  0.14809276  0.69298188  0.46931231  1
  C  C69  1  0.12296351  0.64045694  0.36343783  1
  C  C70  1  0.51584805  0.87337368  0.36477779  1
  C  C71  1  0.35743306  0.48351170  0.36345791  1
  C  C72  1  0.12493804  0.48294255  0.86336699  1
  C  C73  1  0.35785943  0.88057442  0.86169182  1
  C  C74  1  0.51578498  0.64217064  0.86545946  1
  C  C75  1  0.02220976  0.82487321  0.41009384  1
  C  C76  1  0.80273212  0.97651816  0.41016075  1
  C  C77  1  0.17518477  0.19881921  0.41047565  1
  C  C78  1  0.02523082  0.19888259  0.91097481  1
  C  C79  1  0.17471584  0.97876592  0.91043148  1
  C  C80  1  0.80128101  0.82339151  0.91182884  1
  C  C81  1  0.97321033  0.17233855  0.58900696  1
  C  C82  1  0.18650309  0.01926650  0.58987380  1
  C  C83  1  0.82215070  0.80611448  0.58856719  1
  C  C84  1  0.97179979  0.80945695  0.08980092  1
  C  C85  1  0.82508939  0.02015515  0.08988080  1
  C  C86  1  0.19578220  0.17779024  0.09012531  1
  C  C87  1  0.68285745  0.16359809  0.74452432  1
  C  C88  1  0.46792593  0.31016715  0.74413583  1
  C  C89  1  0.84168339  0.53246542  0.74394814  1
  C  C90  1  0.68703115  0.53060253  0.24467460  1
  C  C91  1  0.84169927  0.30847319  0.24505266  1
  C  C92  1  0.46945941  0.15819604  0.24402921  1
  C  C93  1  0.64187540  0.50645411  0.92231560  1
  C  C94  1  0.86535918  0.35582851  0.92212483  1
  C  C95  1  0.49198447  0.13646263  0.92246401  1
  C  C96  1  0.64575717  0.13593814  0.42217076  1
  C  C97  1  0.49154860  0.35802968  0.42171124  1
  C  C98  1  0.86386886  0.50830485  0.42275234  1
  C  C99  1  0.36268384  0.49594923  0.07641539  1
  C  C100  1  0.14483672  0.64674628  0.07755058  1
  C  C101  1  0.51222854  0.85922778  0.07679532  1
  C  C102  1  0.36101197  0.85733303  0.57709832  1
  C  C103  1  0.50841540  0.64644895  0.57671277  1
  C  C104  1  0.13902657  0.49043869  0.57603140  1
  C  C105  1  0.31157866  0.84079400  0.25667715  1
  C  C106  1  0.52897223  0.68986527  0.25671451  1
  C  C107  1  0.15908164  0.46918053  0.25631990  1
  C  C108  1  0.30910929  0.46937500  0.75743070  1
  C  C109  1  0.15917722  0.69002573  0.75717525  1
  C  C110  1  0.51715075  0.83734813  0.75559155  1
