# generated using pymatgen
data_Cu2NiC9
_symmetry_space_group_name_H-M   'P 1'
_cell_length_a   7.32993098
_cell_length_b   7.32993098
_cell_length_c   13.17260106
_cell_angle_alpha   89.64964909
_cell_angle_beta   89.64964909
_cell_angle_gamma   120.03282446
_symmetry_Int_Tables_number   1
_chemical_formula_structural   Cu2NiC9
_chemical_formula_sum   'Cu8 Ni4 C36'
_cell_volume   612.66869196
_cell_formula_units_Z   4
loop_
 _symmetry_equiv_pos_site_id
 _symmetry_equiv_pos_as_xyz
  1  'x, y, z'
loop_
 _atom_site_type_symbol
 _atom_site_label
 _atom_site_symmetry_multiplicity
 _atom_site_fract_x
 _atom_site_fract_y
 _atom_site_fract_z
 _atom_site_occupancy
  C  C0  1  0.74684400  0.28481100  0.49460900  1
  C  C1  1  0.28481100  0.74684400  0.99460900  1
  C  C2  1  0.73900600  0.26099400  0.25000000  1
  C  C3  1  0.28128100  0.71871900  0.25000000  1
  C  C4  1  0.71871900  0.28128100  0.75000000  1
  C  C5  1  0.26099400  0.73900600  0.75000000  1
  C  C6  1  0.71518900  0.25315600  0.00539100  1
  C  C7  1  0.25315600  0.71518900  0.50539100  1
  Ni  Ni8  1  0.66730000  0.65729200  0.37893200  1
  Ni  Ni9  1  0.65729200  0.66730000  0.87893200  1
  Ni  Ni10  1  0.34270800  0.33270000  0.12106800  1
  Ni  Ni11  1  0.33270000  0.34270800  0.62106800  1
  Cu  Cu12  1  0.70717100  0.91756000  0.11453800  1
  Cu  Cu13  1  0.91756000  0.70717100  0.61453800  1
  Cu  Cu14  1  0.89563100  0.65447700  0.14412600  1
  Cu  Cu15  1  0.65447700  0.89563100  0.64412600  1
  Cu  Cu16  1  0.34552300  0.10436900  0.35587400  1
  Cu  Cu17  1  0.10436900  0.34552300  0.85587400  1
  Cu  Cu18  1  0.08244000  0.29282900  0.38546200  1
  Cu  Cu19  1  0.29282900  0.08244000  0.88546200  1
  C  C20  1  0.91221700  0.88157000  0.12239800  1
  C  C21  1  0.88157000  0.91221700  0.62239800  1
  C  C22  1  0.61371200  0.85601300  0.00640300  1
  C  C23  1  0.85601300  0.61371200  0.50640300  1
  C  C24  1  0.84209200  0.59007500  0.25794200  1
  C  C25  1  0.59007500  0.84209200  0.75794200  1
  C  C26  1  0.55215600  0.77154400  0.19531500  1
  C  C27  1  0.77154400  0.55215600  0.69531500  1
  C  C28  1  0.70925500  0.49355600  0.07895600  1
  C  C29  1  0.31550600  0.89005300  0.38214700  1
  C  C30  1  0.49355600  0.70925500  0.57895600  1
  C  C31  1  0.89005300  0.31550600  0.88214700  1
  C  C32  1  0.84739200  0.20085000  0.37097200  1
  C  C33  1  0.20085000  0.84739200  0.87097200  1
  C  C34  1  0.79915000  0.15260800  0.12902800  1
  C  C35  1  0.15260800  0.79915000  0.62902800  1
  C  C36  1  0.10994700  0.68449400  0.11785300  1
  C  C37  1  0.50644400  0.29074500  0.42104400  1
  C  C38  1  0.68449400  0.10994700  0.61785300  1
  C  C39  1  0.29074500  0.50644400  0.92104400  1
  C  C40  1  0.22845600  0.44784400  0.30468500  1
  C  C41  1  0.44784400  0.22845600  0.80468500  1
  C  C42  1  0.40992500  0.15790800  0.24205800  1
  C  C43  1  0.15790800  0.40992500  0.74205800  1
  C  C44  1  0.14398700  0.38628800  0.49359700  1
  C  C45  1  0.38628800  0.14398700  0.99359700  1
  C  C46  1  0.11843000  0.08778300  0.37760200  1
  C  C47  1  0.08778300  0.11843000  0.87760200  1
