# generated using pymatgen
data_Cu2NiC10
_symmetry_space_group_name_H-M   'P 1'
_cell_length_a   5.51440375
_cell_length_b   5.70329289
_cell_length_c   7.27988322
_cell_angle_alpha   66.93867538
_cell_angle_beta   89.94442334
_cell_angle_gamma   89.85810974
_symmetry_Int_Tables_number   1
_chemical_formula_structural   Cu2NiC10
_chemical_formula_sum   'Cu2 Ni1 C10'
_cell_volume   210.65695204
_cell_formula_units_Z   1
loop_
 _symmetry_equiv_pos_site_id
 _symmetry_equiv_pos_as_xyz
  1  'x, y, z'
loop_
 _atom_site_type_symbol
 _atom_site_label
 _atom_site_symmetry_multiplicity
 _atom_site_fract_x
 _atom_site_fract_y
 _atom_site_fract_z
 _atom_site_occupancy
  C  C0  1  0.25000000  0.20095521  0.59808958  1
  C  C1  1  0.75000000  0.76014236  0.47971528  1
  C  C2  1  0.25000000  0.63697922  0.72604156  1
  C  C3  1  0.75000000  0.42731046  0.14537908  1
  Ni  Ni4  1  0.25000000  0.45011971  0.09976058  1
  Cu  Cu5  1  0.75000000  0.04101369  0.91797262  1
  Cu  Cu6  1  0.25000000  0.94118314  0.11763272  1
  C  C7  1  0.48662124  0.76836899  0.99669951  1
  C  C8  1  0.00816852  0.76625023  0.00390901  1
  C  C9  1  0.01337976  0.23493150  0.99669951  1
  C  C10  1  0.49183148  0.22984076  0.00390901  1
  C  C11  1  0.25000000  0.80418110  0.39163779  1
  C  C12  1  0.75000000  0.17275163  0.65449675  1
