# generated using pymatgen
data_Cu3Ni3C31
_symmetry_space_group_name_H-M   'P 1'
_cell_length_a   9.06402344
_cell_length_b   9.06735489
_cell_length_c   23.56689153
_cell_angle_alpha   89.94356026
_cell_angle_beta   90.21184314
_cell_angle_gamma   120.24288234
_symmetry_Int_Tables_number   1
_chemical_formula_structural   Cu3Ni3C31
_chemical_formula_sum   'Cu9 Ni9 C93'
_cell_volume   1673.25932367
_cell_formula_units_Z   3
loop_
 _symmetry_equiv_pos_site_id
 _symmetry_equiv_pos_as_xyz
  1  'x, y, z'
loop_
 _atom_site_type_symbol
 _atom_site_label
 _atom_site_symmetry_multiplicity
 _atom_site_fract_x
 _atom_site_fract_y
 _atom_site_fract_z
 _atom_site_occupancy
  Ni  Ni0  1  0.63896445  0.99981712  0.24932249  1
  Ni  Ni1  1  0.36038945  0.35957918  0.24916383  1
  Ni  Ni2  1  0.03758674  0.70103604  0.58572174  1
  Ni  Ni3  1  0.99944078  0.01495586  0.49956560  1
  Ni  Ni4  1  0.00004110  0.99950907  0.99718233  1
  Ni  Ni5  1  0.66606429  0.33250626  0.83601604  1
  Ni  Ni6  1  0.68224986  0.34826186  0.34337204  1
  Ni  Ni7  1  0.31544683  0.66565046  0.15608210  1
  Ni  Ni8  1  0.34961779  0.66574077  0.67824120  1
  Cu  Cu9  1  0.00034968  0.99362566  0.35459172  1
  Cu  Cu10  1  0.00031039  0.99896948  0.85125666  1
  Cu  Cu11  1  0.99843548  0.01159466  0.65578517  1
  Cu  Cu12  1  0.99942058  0.99422257  0.14186289  1
  Cu  Cu13  1  0.66120765  0.32741098  0.68938089  1
  Cu  Cu14  1  0.67534073  0.34203077  0.17995941  1
  Cu  Cu15  1  0.33556457  0.66689494  0.01494644  1
  Cu  Cu16  1  0.34112936  0.66577222  0.51486261  1
  Cu  Cu17  1  0.32454180  0.66639964  0.32780174  1
  C  C18  1  0.66618547  0.33254765  0.98136117  1
  C  C19  1  0.66089696  0.32808172  0.48601081  1
  C  C20  1  0.33314410  0.66629148  0.82193334  1
  C  C21  1  0.30322896  0.00034903  0.24964148  1
  C  C22  1  0.69360009  0.69923259  0.25076162  1
  C  C23  1  0.00244702  0.29690683  0.25028317  1
  C  C24  1  0.30285915  0.32356176  0.75569435  1
  C  C25  1  0.02025119  0.69755107  0.75250602  1
  C  C26  1  0.67726270  0.97957476  0.75558148  1
  C  C27  1  0.94853722  0.33085577  0.57848717  1
  C  C28  1  0.37290490  0.04432206  0.57866246  1
  C  C29  1  0.67294985  0.61960355  0.57963962  1
  C  C30  1  0.95513755  0.62297462  0.07616548  1
  C  C31  1  0.66789608  0.04633774  0.07972944  1
  C  C32  1  0.37819434  0.33220103  0.07933009  1
  C  C33  1  0.62176297  0.64822077  0.91682449  1
  C  C34  1  0.02678997  0.37821081  0.91666236  1
  C  C35  1  0.35164910  0.97284634  0.91689966  1
  C  C36  1  0.64103745  0.99312362  0.41903232  1
  C  C37  1  0.35143947  0.35901407  0.41900832  1
  C  C38  1  0.00751182  0.64819436  0.42438304  1
  C  C39  1  0.21974725  0.01765548  0.30061865  1
  C  C40  1  0.79269922  0.78101447  0.30238536  1
  C  C41  1  0.98290058  0.19372607  0.30120444  1
  C  C42  1  0.21526034  0.21402395  0.80402584  1
  C  C43  1  0.00007314  0.79157027  0.79924627  1
  C  C44  1  0.78709075  0.00215149  0.80401454  1
  C  C45  1  0.74773781  0.95383247  0.70196061  1
  C  C46  1  0.20572712  0.25264366  0.70199802  1
  C  C47  1  0.04400799  0.78920901  0.69723571  1
  C  C48  1  0.77781717  0.79992963  0.19977465  1
  C  C49  1  0.02111881  0.21378630  0.19913556  1
  C  C50  1  0.20563416  0.98504493  0.19804336  1
  C  C51  1  0.86829742  0.34887812  0.62964293  1
  C  C52  1  0.46868543  0.12500747  0.63028903  1
  C  C53  1  0.65838570  0.52509705  0.63145297  1
  C  C54  1  0.88017768  0.53664295  0.13020851  1
  C  C55  1  0.65813375  0.11810822  0.13527325  1
  C  C56  1  0.45972862  0.34187041  0.13499378  1
  C  C57  1  0.48126775  0.32452119  0.03111791  1
  C  C58  1  0.84761939  0.52481635  0.02627155  1
  C  C59  1  0.67675972  0.15760060  0.03129312  1
  C  C60  1  0.46267725  0.14602818  0.52666758  1
  C  C61  1  0.68872526  0.52889226  0.52833801  1
  C  C62  1  0.84425890  0.31420879  0.52647535  1
  C  C63  1  0.54553877  0.67097487  0.96773435  1
  C  C64  1  0.12644563  0.45510470  0.96769667  1
  C  C65  1  0.32942766  0.87377735  0.96785837  1
  C  C66  1  0.54673536  0.87930835  0.46596620  1
  C  C67  1  0.33165418  0.45247753  0.46605006  1
  C  C68  1  0.11155065  0.66921594  0.47477739  1
  C  C69  1  0.08477111  0.62447093  0.37236590  1
  C  C70  1  0.54946965  0.92418386  0.36408035  1
  C  C71  1  0.37481376  0.45089615  0.36421291  1
  C  C72  1  0.11320711  0.48753859  0.86494396  1
  C  C73  1  0.37468754  0.88781922  0.86512913  1
  C  C74  1  0.51278578  0.62558985  0.86507465  1
  C  C75  1  0.98514961  0.79844792  0.41933057  1
  C  C76  1  0.81491617  0.01745044  0.41711912  1
  C  C77  1  0.20083354  0.18534688  0.41690395  1
  C  C78  1  0.00110038  0.20543888  0.90982140  1
  C  C79  1  0.20427770  0.99768440  0.90996659  1
  C  C80  1  0.79499079  0.79603648  0.91022932  1
  C  C81  1  0.96917739  0.17930812  0.58020000  1
  C  C82  1  0.19949377  0.02539670  0.57967546  1
  C  C83  1  0.83545947  0.78891238  0.58081490  1
  C  C84  1  0.96785317  0.79230537  0.07495546  1
  C  C85  1  0.82433357  0.03354235  0.07745218  1
  C  C86  1  0.20806722  0.17535079  0.07673318  1
  C  C87  1  0.65202344  0.12804687  0.75109256  1
  C  C88  1  0.47693555  0.34921251  0.75129415  1
  C  C89  1  0.87034445  0.52327903  0.74974184  1
  C  C90  1  0.66436639  0.52224876  0.24787176  1
  C  C91  1  0.84584061  0.31095984  0.24698490  1
  C  C92  1  0.47667153  0.15943776  0.24735295  1
  C  C93  1  0.63281098  0.48669516  0.92139589  1
  C  C94  1  0.85344032  0.36578663  0.92098935  1
  C  C95  1  0.51352362  0.14721263  0.92174760  1
  C  C96  1  0.65330449  0.16360496  0.42638716  1
  C  C97  1  0.50951605  0.34671172  0.42668574  1
  C  C98  1  0.83475403  0.49019191  0.42882042  1
  C  C99  1  0.36181697  0.48587321  0.07585111  1
  C  C100  1  0.12618290  0.64158363  0.07373828  1
  C  C101  1  0.51365037  0.87574618  0.07615809  1
  C  C102  1  0.34927605  0.86990083  0.57451826  1
  C  C103  1  0.52469931  0.64321216  0.57450673  1
  C  C104  1  0.11787893  0.49031271  0.57381458  1
  C  C105  1  0.33112057  0.85181357  0.25365181  1
  C  C106  1  0.52117288  0.68549114  0.25429673  1
  C  C107  1  0.15935269  0.46839194  0.25472875  1
  C  C108  1  0.31621549  0.49580535  0.76302987  1
  C  C109  1  0.17928728  0.68555372  0.76124346  1
  C  C110  1  0.50472302  0.82004420  0.76295913  1
