# generated using pymatgen
data_Cu2NiC6
_symmetry_space_group_name_H-M   'P 1'
_cell_length_a   6.53306916
_cell_length_b   6.53306975
_cell_length_c   6.53306935
_cell_angle_alpha   52.44097655
_cell_angle_beta   52.44097552
_cell_angle_gamma   52.44097833
_symmetry_Int_Tables_number   1
_chemical_formula_structural   Cu2NiC6
_chemical_formula_sum   'Cu2 Ni1 C6'
_cell_volume   162.17341820
_cell_formula_units_Z   1
loop_
 _symmetry_equiv_pos_site_id
 _symmetry_equiv_pos_as_xyz
  1  'x, y, z'
loop_
 _atom_site_type_symbol
 _atom_site_label
 _atom_site_symmetry_multiplicity
 _atom_site_fract_x
 _atom_site_fract_y
 _atom_site_fract_z
 _atom_site_occupancy
  Ni  Ni0  1  0.00000000  0.00000000  0.00000000  1
  C  C1  1  0.80195800  0.80195800  0.80195800  1
  C  C2  1  0.19804200  0.19804200  0.19804200  1
  Cu  Cu3  1  0.38862300  0.38862300  0.38862300  1
  Cu  Cu4  1  0.61137700  0.61137700  0.61137700  1
  C  C5  1  0.50000000  0.00000000  0.50000000  1
  C  C6  1  0.00000000  0.50000000  0.50000000  1
  C  C7  1  0.50000000  0.50000000  0.50000000  1
  C  C8  1  0.50000000  0.50000000  0.00000000  1
