# generated using pymatgen
data_Cu9Ni7C101
_symmetry_space_group_name_H-M   'P 1'
_cell_length_a   9.10182249
_cell_length_b   9.02189225
_cell_length_c   22.45294225
_cell_angle_alpha   90.08472697
_cell_angle_beta   90.86903869
_cell_angle_gamma   120.27652425
_symmetry_Int_Tables_number   1
_chemical_formula_structural   Cu9Ni7C101
_chemical_formula_sum   'Cu9 Ni7 C101'
_cell_volume   1591.98431367
_cell_formula_units_Z   1
loop_
 _symmetry_equiv_pos_site_id
 _symmetry_equiv_pos_as_xyz
  1  'x, y, z'
loop_
 _atom_site_type_symbol
 _atom_site_label
 _atom_site_symmetry_multiplicity
 _atom_site_fract_x
 _atom_site_fract_y
 _atom_site_fract_z
 _atom_site_occupancy
  C  C0  1  0.63357524  0.00692772  0.23829522  1
  C  C1  1  0.99148969  0.64166347  0.24839375  1
  C  C2  1  0.65030914  0.63879834  0.75370395  1
  C  C3  1  0.34927573  0.00037827  0.74284800  1
  C  C4  1  0.97676885  0.69064897  0.91329321  1
  C  C5  1  0.70618202  0.01188168  0.91783096  1
  C  C6  1  0.31346120  0.29878542  0.91828456  1
  C  C7  1  0.30343534  0.01854708  0.41231046  1
  C  C8  1  0.70817510  0.68265119  0.40741976  1
  C  C9  1  0.01636216  0.01597496  0.49836302  1
  C  C10  1  0.99951770  0.00225108  0.99204005  1
  C  C11  1  0.69177206  0.35114818  0.82615083  1
  C  C12  1  0.64848298  0.33526995  0.32116123  1
  C  C13  1  0.34799179  0.67136467  0.15217918  1
  C  C14  1  0.31010583  0.65736967  0.65955688  1
  C  C15  1  0.98912549  0.98594167  0.14580647  1
  C  C16  1  0.66821403  0.32446262  0.97894302  1
  C  C17  1  0.66885059  0.34038936  0.47976043  1
  C  C18  1  0.32911581  0.65727341  0.31259701  1
  C  C19  1  0.32007316  0.66297416  0.81912427  1
  Ni  Ni20  1  0.01603712  0.99054259  0.34973630  1
  Ni  Ni21  1  0.99418654  0.98565323  0.85201124  1
  Ni  Ni22  1  0.00624417  0.99021742  0.65292900  1
  Ni  Ni23  1  0.69032127  0.34547316  0.68130047  1
  Ni  Ni24  1  0.63610683  0.31691340  0.18476216  1
  Ni  Ni25  1  0.35091551  0.68354538  0.01378286  1
  Ni  Ni26  1  0.31114612  0.64800515  0.51390606  1
  Cu  Cu27  1  0.29777544  0.00414739  0.25378531  1
  Cu  Cu28  1  0.70385969  0.70085200  0.25331822  1
  Cu  Cu29  1  0.99878638  0.70189968  0.74936483  1
  Cu  Cu30  1  0.66178861  0.03574220  0.08911801  1
  Cu  Cu31  1  0.62612271  0.66650873  0.91802524  1
  Cu  Cu32  1  0.04354471  0.37266144  0.92293868  1
  Cu  Cu33  1  0.32693993  0.95776127  0.91980613  1
  Cu  Cu34  1  0.32133875  0.36819015  0.42075899  1
  Cu  Cu35  1  0.04441117  0.66719856  0.41985599  1
  C  C36  1  0.00554810  0.28801223  0.25103811  1
  C  C37  1  0.29241283  0.29883361  0.74875140  1
  C  C38  1  0.70115671  0.99865872  0.74891355  1
  C  C39  1  0.95920528  0.32693593  0.58502859  1
  C  C40  1  0.37909752  0.04335277  0.58476625  1
  C  C41  1  0.66504132  0.63183266  0.58444968  1
  C  C42  1  0.95872185  0.62358160  0.08623650  1
  C  C43  1  0.36949618  0.32988479  0.08356555  1
  C  C44  1  0.62255437  0.95970628  0.41887957  1
  C  C45  1  0.22480117  0.02623240  0.31502695  1
  C  C46  1  0.81002725  0.79044289  0.31311243  1
  C  C47  1  0.98119554  0.18696076  0.30390108  1
  C  C48  1  0.21705043  0.20390269  0.80402697  1
  C  C49  1  0.96895967  0.77883841  0.81048293  1
  C  C50  1  0.79707426  0.02401674  0.80525729  1
  C  C51  1  0.78480165  0.97663603  0.69696822  1
  C  C52  1  0.18653031  0.22119145  0.69508566  1
  C  C53  1  0.05640836  0.83363114  0.69363817  1
  C  C54  1  0.80574003  0.83641411  0.19486315  1
  C  C55  1  0.02673397  0.20635316  0.19629982  1
  C  C56  1  0.16334981  0.97453885  0.19652034  1
  C  C57  1  0.87938585  0.34569199  0.63888145  1
  C  C58  1  0.47797731  0.13256138  0.63970783  1
  C  C59  1  0.64603002  0.52797022  0.63766305  1
  C  C60  1  0.87373758  0.53077139  0.14015338  1
  C  C61  1  0.66193466  0.13497112  0.14812420  1
  C  C62  1  0.47329588  0.35505699  0.13710243  1
  C  C63  1  0.45543290  0.30872745  0.02879222  1
  C  C64  1  0.84900385  0.54051783  0.03118045  1
  C  C65  1  0.68571353  0.16330128  0.02916781  1
  C  C66  1  0.48081037  0.15346388  0.53070870  1
  C  C67  1  0.67865834  0.52902460  0.52947179  1
  C  C68  1  0.84761065  0.31735024  0.53094429  1
  C  C69  1  0.54562965  0.71020959  0.97208911  1
  C  C70  1  0.16739651  0.45595676  0.97827585  1
  C  C71  1  0.27776498  0.82946436  0.97337927  1
  C  C72  1  0.54655950  0.85484682  0.47088568  1
  C  C73  1  0.32690976  0.46702650  0.47920815  1
  C  C74  1  0.17671404  0.72262949  0.47387937  1
  C  C75  1  0.13603152  0.63532893  0.35901419  1
  C  C76  1  0.51026170  0.87958419  0.36292950  1
  C  C77  1  0.36746400  0.50184524  0.36160988  1
  C  C78  1  0.13275369  0.50671526  0.86333522  1
  C  C79  1  0.37122909  0.87189476  0.85909006  1
  C  C80  1  0.50101099  0.62741096  0.85578410  1
  C  C81  1  0.99498762  0.81457088  0.41378688  1
  C  C82  1  0.79326059  0.99041227  0.40981599  1
  C  C83  1  0.16570129  0.17719410  0.41290961  1
  C  C84  1  0.00235679  0.18223797  0.90691466  1
  C  C85  1  0.18297291  0.00744002  0.90874799  1
  C  C86  1  0.81698185  0.82486016  0.91068807  1
  C  C87  1  0.96465513  0.16681516  0.58446417  1
  C  C88  1  0.21489254  0.03777463  0.58111196  1
  C  C89  1  0.82570695  0.79672705  0.58344755  1
  C  C90  1  0.96911108  0.80107927  0.08717472  1
  C  C91  1  0.84771656  0.02920862  0.09149360  1
  C  C92  1  0.20033256  0.16312243  0.08686573  1
  C  C93  1  0.66109861  0.13957681  0.74326886  1
  C  C94  1  0.46436608  0.31458511  0.74404697  1
  C  C95  1  0.82514927  0.51373851  0.74293240  1
  C  C96  1  0.69805560  0.52211453  0.24173569  1
  C  C97  1  0.86603329  0.32529248  0.24453470  1
  C  C98  1  0.49296504  0.15206328  0.24811420  1
  C  C99  1  0.63374055  0.48561065  0.92518064  1
  C  C100  1  0.85650955  0.36971115  0.92673299  1
  C  C101  1  0.51265655  0.14455583  0.92442348  1
  C  C102  1  0.62600334  0.13036191  0.42314363  1
  C  C103  1  0.50598366  0.35283344  0.42616520  1
  C  C104  1  0.85205277  0.48494922  0.42794143  1
  C  C105  1  0.34188440  0.47435019  0.07788104  1
  C  C106  1  0.12655875  0.64730598  0.08118838  1
  C  C107  1  0.50247942  0.84696373  0.08151111  1
  C  C108  1  0.36640323  0.87502970  0.58034460  1
  C  C109  1  0.51556806  0.64968660  0.57706430  1
  C  C110  1  0.12796271  0.48270389  0.58036806  1
  C  C111  1  0.29946737  0.81500262  0.25617423  1
  C  C112  1  0.51804096  0.69688904  0.25659999  1
  C  C113  1  0.16889953  0.46375526  0.25380258  1
  C  C114  1  0.32335465  0.48088065  0.75247873  1
  C  C115  1  0.17789842  0.68461062  0.75667207  1
  C  C116  1  0.52782549  0.83172920  0.75195683  1
