# generated using pymatgen
data_CuNiC8
_symmetry_space_group_name_H-M   'P 1'
_cell_length_a   8.67857315
_cell_length_b   8.67857288
_cell_length_c   21.60849741
_cell_angle_alpha   90.24268547
_cell_angle_beta   89.75731454
_cell_angle_gamma   120.06502665
_symmetry_Int_Tables_number   1
_chemical_formula_structural   CuNiC8
_chemical_formula_sum   'Cu12 Ni12 C96'
_cell_volume   1408.51574910
_cell_formula_units_Z   12
loop_
 _symmetry_equiv_pos_site_id
 _symmetry_equiv_pos_as_xyz
  1  'x, y, z'
loop_
 _atom_site_type_symbol
 _atom_site_label
 _atom_site_symmetry_multiplicity
 _atom_site_fract_x
 _atom_site_fract_y
 _atom_site_fract_z
 _atom_site_occupancy
  C  C0  1  0.99887008  0.99651330  0.50018029  1
  C  C1  1  0.00348670  0.00112992  0.00018029  1
  C  C2  1  0.66553708  0.32984630  0.83351329  1
  C  C3  1  0.67015370  0.33446292  0.33351329  1
  C  C4  1  0.33220308  0.66318030  0.16684729  1
  C  C5  1  0.33681970  0.66779692  0.66684729  1
  C  C6  1  0.63564167  0.00146581  0.25040443  1
  C  C7  1  0.00052105  0.63223059  0.25130572  1
  C  C8  1  0.99853419  0.36435833  0.75040443  1
  C  C9  1  0.36776941  0.99947895  0.75130572  1
  C  C10  1  0.30230867  0.33479881  0.58373743  1
  C  C11  1  0.66718805  0.96556359  0.58463872  1
  C  C12  1  0.66520119  0.69769133  0.08373743  1
  C  C13  1  0.03443641  0.33281195  0.08463872  1
  C  C14  1  0.96897467  0.66813281  0.91707143  1
  C  C15  1  0.33385405  0.29889759  0.91797272  1
  C  C16  1  0.33186719  0.03102533  0.41707143  1
  C  C17  1  0.70110241  0.66614595  0.41797272  1
  Ni  Ni18  1  0.70813281  0.70914266  0.24980397  1
  Ni  Ni19  1  0.00451256  0.28743687  0.24974790  1
  Ni  Ni20  1  0.29085734  0.29186719  0.74980397  1
  Ni  Ni21  1  0.71256313  0.99548744  0.74974790  1
  Ni  Ni22  1  0.37479981  0.04247566  0.58313697  1
  Ni  Ni23  1  0.67117956  0.62076987  0.58308090  1
  Ni  Ni24  1  0.95752434  0.62520019  0.08313697  1
  Ni  Ni25  1  0.37923013  0.32882044  0.08308090  1
  Ni  Ni26  1  0.04146581  0.37580966  0.91647097  1
  Ni  Ni27  1  0.33784556  0.95410387  0.91641490  1
  Ni  Ni28  1  0.62419034  0.95853419  0.41647097  1
  Ni  Ni29  1  0.04589613  0.66215444  0.41641490  1
  Cu  Cu30  1  0.99068490  0.99626409  0.35327519  1
  Cu  Cu31  1  0.00373591  0.00931510  0.85327519  1
  Cu  Cu32  1  0.99812607  0.99382285  0.64710997  1
  Cu  Cu33  1  0.00617715  0.00187393  0.14710997  1
  Cu  Cu34  1  0.65735190  0.32959709  0.68660819  1
  Cu  Cu35  1  0.67040291  0.34264810  0.18660819  1
  Cu  Cu36  1  0.66479307  0.32715585  0.98044297  1
  Cu  Cu37  1  0.67284415  0.33520693  0.48044297  1
  Cu  Cu38  1  0.32401790  0.66293109  0.01994219  1
  Cu  Cu39  1  0.33706891  0.67598210  0.51994219  1
  Cu  Cu40  1  0.33145907  0.66048985  0.31377697  1
  Cu  Cu41  1  0.33951015  0.66854093  0.81377697  1
  C  C42  1  0.28868764  0.00549281  0.25027449  1
  C  C43  1  0.99450719  0.71131236  0.75027449  1
  C  C44  1  0.95535464  0.33882581  0.58360749  1
  C  C45  1  0.66117419  0.04464536  0.08360749  1
  C  C46  1  0.62202064  0.67215981  0.91694149  1
  C  C47  1  0.32784019  0.37797936  0.41694149  1
  C  C48  1  0.20933264  0.03749332  0.30982385  1
  C  C49  1  0.83765216  0.79115665  0.31046711  1
  C  C50  1  0.95822385  0.15527479  0.30865259  1
  C  C51  1  0.20884335  0.16234784  0.81046711  1
  C  C52  1  0.96250668  0.79066736  0.80982385  1
  C  C53  1  0.84472521  0.04177615  0.80865259  1
  C  C54  1  0.79723874  0.96352646  0.68685446  1
  C  C55  1  0.16126119  0.20466715  0.68924810  1
  C  C56  1  0.03896748  0.83548390  0.69389518  1
  C  C57  1  0.79533285  0.83873881  0.18924810  1
  C  C58  1  0.03647354  0.20276126  0.18685446  1
  C  C59  1  0.16451610  0.96103252  0.19389518  1
  C  C60  1  0.87599964  0.37082632  0.64315685  1
  C  C61  1  0.50431916  0.12448965  0.64380011  1
  C  C62  1  0.62489085  0.48860779  0.64198559  1
  C  C63  1  0.87551035  0.49568084  0.14380011  1
  C  C64  1  0.62917368  0.12400036  0.14315685  1
  C  C65  1  0.51139221  0.37510915  0.14198559  1
  C  C66  1  0.46390574  0.29685946  0.02018746  1
  C  C67  1  0.82792819  0.53800015  0.02258110  1
  C  C68  1  0.70563448  0.16881690  0.02722818  1
  C  C69  1  0.46199985  0.17207181  0.52258110  1
  C  C70  1  0.70314054  0.53609426  0.52018746  1
  C  C71  1  0.83118310  0.29436552  0.52722818  1
  C  C72  1  0.54266564  0.70416032  0.97649085  1
  C  C73  1  0.17098516  0.45782365  0.97713411  1
  C  C74  1  0.29155685  0.82194179  0.97531959  1
  C  C75  1  0.54217635  0.82901484  0.47713411  1
  C  C76  1  0.29583968  0.45733436  0.47649085  1
  C  C77  1  0.17805821  0.70844315  0.47531959  1
  C  C78  1  0.13057174  0.63019346  0.35352146  1
  C  C79  1  0.49459419  0.87133415  0.35591510  1
  C  C80  1  0.37230048  0.50215090  0.36056218  1
  C  C81  1  0.12866585  0.50540581  0.85591510  1
  C  C82  1  0.36980654  0.86942826  0.85352146  1
  C  C83  1  0.49784910  0.62769952  0.86056218  1
  C  C84  1  0.02964277  0.84483944  0.41011142  1
  C  C85  1  0.81796888  0.97165635  0.41085770  1
  C  C86  1  0.16543852  0.18914720  0.41013322  1
  C  C87  1  0.02834365  0.18203112  0.91085770  1
  C  C88  1  0.15516056  0.97035723  0.91011142  1
  C  C89  1  0.81085280  0.83456148  0.91013322  1
  C  C90  1  0.97423356  0.16968722  0.58787320  1
  C  C91  1  0.18203562  0.03177242  0.59085806  1
  C  C92  1  0.84222231  0.82232061  0.58912316  1
  C  C93  1  0.96822758  0.81796438  0.09085806  1
  C  C94  1  0.83031278  0.02576644  0.08787320  1
  C  C95  1  0.17767939  0.15777769  0.08912316  1
  C  C96  1  0.69630977  0.17817244  0.74344442  1
  C  C97  1  0.48463588  0.30498935  0.74419070  1
  C  C98  1  0.83210552  0.52248020  0.74346622  1
  C  C99  1  0.69501065  0.51536412  0.24419070  1
  C  C100  1  0.82182756  0.30369023  0.24344442  1
  C  C101  1  0.47751980  0.16789448  0.24346622  1
  C  C102  1  0.64090056  0.50302022  0.92120620  1
  C  C103  1  0.84870262  0.36510542  0.92419106  1
  C  C104  1  0.50888931  0.15565361  0.92245616  1
  C  C105  1  0.63489458  0.15129738  0.42419106  1
  C  C106  1  0.49697978  0.35909944  0.42120620  1
  C  C107  1  0.84434639  0.49111069  0.42245616  1
  C  C108  1  0.36297577  0.51150644  0.07677842  1
  C  C109  1  0.15130188  0.63832335  0.07752470  1
  C  C110  1  0.49877152  0.85581420  0.07680022  1
  C  C111  1  0.36167665  0.84869812  0.57752470  1
  C  C112  1  0.48849356  0.63702423  0.57677842  1
  C  C113  1  0.14418580  0.50122848  0.57680022  1
  C  C114  1  0.30756656  0.83635422  0.25454020  1
  C  C115  1  0.51536862  0.69843942  0.25752506  1
  C  C116  1  0.17555531  0.48898761  0.25579016  1
  C  C117  1  0.30156058  0.48463138  0.75752506  1
  C  C118  1  0.16364578  0.69243344  0.75454020  1
  C  C119  1  0.51101239  0.82444469  0.75579016  1
