# generated using pymatgen
data_CuNiC9
_symmetry_space_group_name_H-M   'P 1'
_cell_length_a   7.42913300
_cell_length_b   7.59947600
_cell_length_c   10.42856300
_cell_angle_alpha   90.00000000
_cell_angle_beta   90.00000000
_cell_angle_gamma   90.00000000
_symmetry_Int_Tables_number   1
_chemical_formula_structural   CuNiC9
_chemical_formula_sum   'Cu4 Ni4 C36'
_cell_volume   588.77078260
_cell_formula_units_Z   4
loop_
 _symmetry_equiv_pos_site_id
 _symmetry_equiv_pos_as_xyz
  1  'x, y, z'
loop_
 _atom_site_type_symbol
 _atom_site_label
 _atom_site_symmetry_multiplicity
 _atom_site_fract_x
 _atom_site_fract_y
 _atom_site_fract_z
 _atom_site_occupancy
  C  C0  1  0.00000000  0.50000000  0.00000000  1
  C  C1  1  0.50000000  0.50000000  0.00000000  1
  C  C2  1  0.00000000  0.00000000  0.50000000  1
  C  C3  1  0.50000000  0.00000000  0.50000000  1
  C  C4  1  0.25000000  0.24722300  0.76876300  1
  C  C5  1  0.25000000  0.25277700  0.26876300  1
  C  C6  1  0.75000000  0.74722300  0.73123700  1
  C  C7  1  0.75000000  0.75277700  0.23123700  1
  Ni  Ni8  1  0.25000000  0.77244200  0.76801800  1
  Ni  Ni9  1  0.75000000  0.22755800  0.23198200  1
  Ni  Ni10  1  0.75000000  0.27244200  0.73198200  1
  Ni  Ni11  1  0.25000000  0.72755800  0.26801800  1
  Cu  Cu12  1  0.50000000  0.50000000  0.50000000  1
  Cu  Cu13  1  0.50000000  0.00000000  0.00000000  1
  Cu  Cu14  1  0.00000000  0.50000000  0.50000000  1
  Cu  Cu15  1  0.00000000  0.00000000  0.00000000  1
  C  C16  1  0.49479100  0.30323000  0.63125700  1
  C  C17  1  0.99479100  0.69677000  0.36874300  1
  C  C18  1  0.50520900  0.80323000  0.86874300  1
  C  C19  1  0.00520900  0.19677000  0.13125700  1
  C  C20  1  0.50520900  0.69677000  0.36874300  1
  C  C21  1  0.00520900  0.30323000  0.63125700  1
  C  C22  1  0.49479100  0.19677000  0.13125700  1
  C  C23  1  0.99479100  0.80323000  0.86874300  1
  C  C24  1  0.44840600  0.69229900  0.62875900  1
  C  C25  1  0.94840600  0.30770100  0.37124100  1
  C  C26  1  0.55159400  0.19229900  0.87124100  1
  C  C27  1  0.05159400  0.80770100  0.12875900  1
  C  C28  1  0.55159400  0.30770100  0.37124100  1
  C  C29  1  0.05159400  0.69229900  0.62875900  1
  C  C30  1  0.44840600  0.80770100  0.12875900  1
  C  C31  1  0.94840600  0.19229900  0.87124100  1
  C  C32  1  0.25000000  0.01718500  0.93058900  1
  C  C33  1  0.75000000  0.98281500  0.06941100  1
  C  C34  1  0.75000000  0.51718500  0.56941100  1
  C  C35  1  0.25000000  0.48281500  0.43058900  1
  C  C36  1  0.25000000  0.99715900  0.65321500  1
  C  C37  1  0.75000000  0.00284100  0.34678500  1
  C  C38  1  0.75000000  0.49715900  0.84678500  1
  C  C39  1  0.25000000  0.50284100  0.15321500  1
  C  C40  1  0.25000000  0.52453400  0.85988800  1
  C  C41  1  0.75000000  0.47546600  0.14011200  1
  C  C42  1  0.75000000  0.02453400  0.64011200  1
  C  C43  1  0.25000000  0.97546600  0.35988800  1
