# generated using pymatgen
data_Cu6NiC12
_symmetry_space_group_name_H-M   'P 1'
_cell_length_a   5.21138642
_cell_length_b   7.87386267
_cell_length_c   5.66622227
_cell_angle_alpha   94.29909314
_cell_angle_beta   100.07317298
_cell_angle_gamma   83.36332728
_symmetry_Int_Tables_number   1
_chemical_formula_structural   Cu6NiC12
_chemical_formula_sum   'Cu6 Ni1 C12'
_cell_volume   227.03166479
_cell_formula_units_Z   1
loop_
 _symmetry_equiv_pos_site_id
 _symmetry_equiv_pos_as_xyz
  1  'x, y, z'
loop_
 _atom_site_type_symbol
 _atom_site_label
 _atom_site_symmetry_multiplicity
 _atom_site_fract_x
 _atom_site_fract_y
 _atom_site_fract_z
 _atom_site_occupancy
  Ni  Ni0  1  0.01908221  0.49597959  0.03674467  1
  Cu  Cu1  1  0.46236420  -0.00142517  0.54876999  1
  Cu  Cu2  1  0.51996850  0.67831279  0.17074418  1
  Cu  Cu3  1  0.48883605  0.33046570  0.84250687  1
  Cu  Cu4  1  0.02969123  0.69867745  0.63857667  1
  Cu  Cu5  1  0.87776506  0.26930965  0.42022129  1
  Cu  Cu6  1  0.00689182  0.02637552  0.96325191  1
  C  C7  1  0.81308451  0.08594108  0.21198658  1
  C  C8  1  0.73775953  0.14089453  0.72394801  1
  C  C9  1  0.69146853  0.79175277  0.48353008  1
  C  C10  1  0.70986058  0.42332100  0.15239023  1
  C  C11  1  0.30118307  0.56430828  0.86789536  1
  C  C12  1  0.26434327  0.22443305  0.56243757  1
  C  C13  1  0.19429366  0.90580125  0.72156194  1
  C  C14  1  0.84088494  0.46666700  0.66521177  1
  C  C15  1  0.83841893  0.73764922  0.98230773  1
  C  C16  1  0.29055029  0.91771513  0.20323370  1
  C  C17  1  0.19895506  0.58424411  0.34703420  1
  C  C18  1  0.20070955  0.25957604  0.04097526  1
