# generated using pymatgen
data_Cu24Ni3C2
_symmetry_space_group_name_H-M   'P 1'
_cell_length_a   15.98324300
_cell_length_b   15.98324300
_cell_length_c   13.60982700
_cell_angle_alpha   90.00000000
_cell_angle_beta   90.00000000
_cell_angle_gamma   90.00000000
_symmetry_Int_Tables_number   1
_chemical_formula_structural   Cu24Ni3C2
_chemical_formula_sum   'Cu96 Ni12 C8'
_cell_volume   3476.82161773
_cell_formula_units_Z   4
loop_
 _symmetry_equiv_pos_site_id
 _symmetry_equiv_pos_as_xyz
  1  'x, y, z'
loop_
 _atom_site_type_symbol
 _atom_site_label
 _atom_site_symmetry_multiplicity
 _atom_site_fract_x
 _atom_site_fract_y
 _atom_site_fract_z
 _atom_site_occupancy
  C  C0  1  0.37394300  0.24804400  0.00000000  1
  C  C1  1  0.24804400  0.62605700  0.50000000  1
  C  C2  1  0.75195600  0.37394300  0.50000000  1
  C  C3  1  0.62605700  0.75195600  0.00000000  1
  C  C4  1  0.12605700  0.74804400  0.00000000  1
  C  C5  1  0.87394300  0.25195600  0.00000000  1
  C  C6  1  0.74804400  0.87394300  0.50000000  1
  C  C7  1  0.25195600  0.12605700  0.50000000  1
  Ni  Ni8  1  0.37669600  0.87669600  0.75000000  1
  Ni  Ni9  1  0.87669600  0.62330400  0.25000000  1
  Ni  Ni10  1  0.12330400  0.37669600  0.25000000  1
  Ni  Ni11  1  0.62330400  0.12330400  0.75000000  1
  Ni  Ni12  1  0.62330400  0.12330400  0.25000000  1
  Ni  Ni13  1  0.12330400  0.37669600  0.75000000  1
  Ni  Ni14  1  0.87669600  0.62330400  0.75000000  1
  Ni  Ni15  1  0.37669600  0.87669600  0.25000000  1
  Ni  Ni16  1  0.50000000  0.50000000  0.25000000  1
  Ni  Ni17  1  0.50000000  0.50000000  0.75000000  1
  Ni  Ni18  1  0.00000000  0.00000000  0.75000000  1
  Ni  Ni19  1  0.00000000  0.00000000  0.25000000  1
  Cu  Cu20  1  0.45247600  0.12183300  0.00000000  1
  Cu  Cu21  1  0.12183300  0.54752400  0.50000000  1
  Cu  Cu22  1  0.87816700  0.45247600  0.50000000  1
  Cu  Cu23  1  0.54752400  0.87816700  0.00000000  1
  Cu  Cu24  1  0.04752400  0.62183300  0.00000000  1
  Cu  Cu25  1  0.95247600  0.37816700  0.00000000  1
  Cu  Cu26  1  0.62183300  0.95247600  0.50000000  1
  Cu  Cu27  1  0.37816700  0.04752400  0.50000000  1
  Cu  Cu28  1  0.49924100  0.32829800  0.00000000  1
  Cu  Cu29  1  0.32829800  0.50075900  0.50000000  1
  Cu  Cu30  1  0.67170200  0.49924100  0.50000000  1
  Cu  Cu31  1  0.50075900  0.67170200  0.00000000  1
  Cu  Cu32  1  0.00075900  0.82829800  0.00000000  1
  Cu  Cu33  1  0.99924100  0.17170200  0.00000000  1
  Cu  Cu34  1  0.82829800  0.99924100  0.50000000  1
  Cu  Cu35  1  0.17170200  0.00075900  0.50000000  1
  Cu  Cu36  1  0.29366700  0.37419800  0.00000000  1
  Cu  Cu37  1  0.37419800  0.70633300  0.50000000  1
  Cu  Cu38  1  0.62580200  0.29366700  0.50000000  1
  Cu  Cu39  1  0.70633300  0.62580200  0.00000000  1
  Cu  Cu40  1  0.20633300  0.87419800  0.00000000  1
  Cu  Cu41  1  0.79366700  0.12580200  0.00000000  1
  Cu  Cu42  1  0.87419800  0.79366700  0.50000000  1
  Cu  Cu43  1  0.12580200  0.20633300  0.50000000  1
  Cu  Cu44  1  0.37664000  0.25057900  0.17127800  1
  Cu  Cu45  1  0.25057900  0.62336000  0.67127800  1
  Cu  Cu46  1  0.74942100  0.37664000  0.67127800  1
  Cu  Cu47  1  0.62336000  0.74942100  0.17127800  1
  Cu  Cu48  1  0.12336000  0.75057900  0.82872200  1
  Cu  Cu49  1  0.87664000  0.24942100  0.82872200  1
  Cu  Cu50  1  0.75057900  0.87664000  0.32872200  1
  Cu  Cu51  1  0.24942100  0.12336000  0.32872200  1
  Cu  Cu52  1  0.62336000  0.74942100  0.82872200  1
  Cu  Cu53  1  0.74942100  0.37664000  0.32872200  1
  Cu  Cu54  1  0.25057900  0.62336000  0.32872200  1
  Cu  Cu55  1  0.37664000  0.25057900  0.82872200  1
  Cu  Cu56  1  0.87664000  0.24942100  0.17127800  1
  Cu  Cu57  1  0.12336000  0.75057900  0.17127800  1
  Cu  Cu58  1  0.24942100  0.12336000  0.67127800  1
  Cu  Cu59  1  0.75057900  0.87664000  0.67127800  1
  Cu  Cu60  1  0.25106100  0.16790900  0.00000000  1
  Cu  Cu61  1  0.16790900  0.74893900  0.50000000  1
  Cu  Cu62  1  0.83209100  0.25106100  0.50000000  1
  Cu  Cu63  1  0.74893900  0.83209100  0.00000000  1
  Cu  Cu64  1  0.24893900  0.66790900  0.00000000  1
  Cu  Cu65  1  0.75106100  0.33209100  0.00000000  1
  Cu  Cu66  1  0.66790900  0.75106100  0.50000000  1
  Cu  Cu67  1  0.33209100  0.24893900  0.50000000  1
  Cu  Cu68  1  0.27883000  0.87598700  0.66397100  1
  Cu  Cu69  1  0.87598700  0.72117000  0.16397100  1
  Cu  Cu70  1  0.12401300  0.27883000  0.16397100  1
  Cu  Cu71  1  0.72117000  0.12401300  0.66397100  1
  Cu  Cu72  1  0.22117000  0.37598700  0.33602900  1
  Cu  Cu73  1  0.77883000  0.62401300  0.33602900  1
  Cu  Cu74  1  0.37598700  0.77883000  0.83602900  1
  Cu  Cu75  1  0.62401300  0.22117000  0.83602900  1
  Cu  Cu76  1  0.72117000  0.12401300  0.33602900  1
  Cu  Cu77  1  0.12401300  0.27883000  0.83602900  1
  Cu  Cu78  1  0.87598700  0.72117000  0.83602900  1
  Cu  Cu79  1  0.27883000  0.87598700  0.33602900  1
  Cu  Cu80  1  0.77883000  0.62401300  0.66397100  1
  Cu  Cu81  1  0.22117000  0.37598700  0.66397100  1
  Cu  Cu82  1  0.62401300  0.22117000  0.16397100  1
  Cu  Cu83  1  0.37598700  0.77883000  0.16397100  1
  Cu  Cu84  1  0.37684100  0.97815700  0.83195000  1
  Cu  Cu85  1  0.97815700  0.62315900  0.33195000  1
  Cu  Cu86  1  0.02184300  0.37684100  0.33195000  1
  Cu  Cu87  1  0.62315900  0.02184300  0.83195000  1
  Cu  Cu88  1  0.12315900  0.47815700  0.16805000  1
  Cu  Cu89  1  0.87684100  0.52184300  0.16805000  1
  Cu  Cu90  1  0.47815700  0.87684100  0.66805000  1
  Cu  Cu91  1  0.52184300  0.12315900  0.66805000  1
  Cu  Cu92  1  0.62315900  0.02184300  0.16805000  1
  Cu  Cu93  1  0.02184300  0.37684100  0.66805000  1
  Cu  Cu94  1  0.97815700  0.62315900  0.66805000  1
  Cu  Cu95  1  0.37684100  0.97815700  0.16805000  1
  Cu  Cu96  1  0.87684100  0.52184300  0.83195000  1
  Cu  Cu97  1  0.12315900  0.47815700  0.83195000  1
  Cu  Cu98  1  0.52184300  0.12315900  0.33195000  1
  Cu  Cu99  1  0.47815700  0.87684100  0.33195000  1
  Cu  Cu100  1  0.59878600  0.51253200  0.16584100  1
  Cu  Cu101  1  0.51253200  0.40121400  0.66584100  1
  Cu  Cu102  1  0.48746800  0.59878600  0.66584100  1
  Cu  Cu103  1  0.40121400  0.48746800  0.16584100  1
  Cu  Cu104  1  0.90121400  0.01253200  0.83415900  1
  Cu  Cu105  1  0.09878600  0.98746800  0.83415900  1
  Cu  Cu106  1  0.01253200  0.09878600  0.33415900  1
  Cu  Cu107  1  0.98746800  0.90121400  0.33415900  1
  Cu  Cu108  1  0.40121400  0.48746800  0.83415900  1
  Cu  Cu109  1  0.48746800  0.59878600  0.33415900  1
  Cu  Cu110  1  0.51253200  0.40121400  0.33415900  1
  Cu  Cu111  1  0.59878600  0.51253200  0.83415900  1
  Cu  Cu112  1  0.09878600  0.98746800  0.16584100  1
  Cu  Cu113  1  0.90121400  0.01253200  0.16584100  1
  Cu  Cu114  1  0.98746800  0.90121400  0.66584100  1
  Cu  Cu115  1  0.01253200  0.09878600  0.66584100  1
