# generated using pymatgen
data_Cu2NiC6
_symmetry_space_group_name_H-M   'P 1'
_cell_length_a   7.66256163
_cell_length_b   7.66256160
_cell_length_c   7.08211463
_cell_angle_alpha   57.21670095
_cell_angle_beta   122.78330005
_cell_angle_gamma   154.43279499
_symmetry_Int_Tables_number   1
_chemical_formula_structural   Cu2NiC6
_chemical_formula_sum   'Cu2 Ni1 C6'
_cell_volume   149.25476023
_cell_formula_units_Z   1
loop_
 _symmetry_equiv_pos_site_id
 _symmetry_equiv_pos_as_xyz
  1  'x, y, z'
loop_
 _atom_site_type_symbol
 _atom_site_label
 _atom_site_symmetry_multiplicity
 _atom_site_fract_x
 _atom_site_fract_y
 _atom_site_fract_z
 _atom_site_occupancy
  C  C0  1  0.23655180  0.76344820  0.76033871  1
  C  C1  1  0.73658279  0.26341721  0.25477280  1
  Ni  Ni2  1  0.44528062  0.55471938  0.32770583  1
  Cu  Cu3  1  0.03975215  0.96024785  0.19056772  1
  Cu  Cu4  1  0.97242631  0.02757369  0.71947645  1
  C  C5  1  0.09440756  0.90559244  0.99496250  1
  C  C6  1  0.40575154  0.59424846  0.55647419  1
  C  C7  1  0.59360525  0.40639475  0.38769269  1
  C  C8  1  0.89230898  0.10769102  0.14729512  1
