# generated using pymatgen
data_Cu4NiC14
_symmetry_space_group_name_H-M   'P 1'
_cell_length_a   5.81480835
_cell_length_b   5.95750275
_cell_length_c   8.96211506
_cell_angle_alpha   105.23158484
_cell_angle_beta   110.22930065
_cell_angle_gamma   94.89279196
_symmetry_Int_Tables_number   1
_chemical_formula_structural   Cu4NiC14
_chemical_formula_sum   'Cu4 Ni1 C14'
_cell_volume   275.70885582
_cell_formula_units_Z   1
loop_
 _symmetry_equiv_pos_site_id
 _symmetry_equiv_pos_as_xyz
  1  'x, y, z'
loop_
 _atom_site_type_symbol
 _atom_site_label
 _atom_site_symmetry_multiplicity
 _atom_site_fract_x
 _atom_site_fract_y
 _atom_site_fract_z
 _atom_site_occupancy
  C  C0  1  0.60152300  0.15834500  0.20578100  1
  C  C1  1  0.35845000  0.89267500  0.77483700  1
  C  C2  1  0.19360700  0.55029000  0.18296700  1
  C  C3  1  0.89366300  0.40603200  0.76165900  1
  Ni  Ni4  1  0.91211700  0.82091400  0.33234900  1
  Cu  Cu5  1  0.00478700  0.00168300  0.00373500  1
  Cu  Cu6  1  0.52239600  0.49686900  0.96932700  1
  Cu  Cu7  1  0.23783100  0.22761500  0.49207000  1
  Cu  Cu8  1  0.65109400  0.83118900  0.53018100  1
  C  C9  1  0.24503800  0.23114500  0.96142600  1
  C  C10  1  0.30150000  0.72538400  0.99083200  1
  C  C11  1  0.74181700  0.26352900  0.97786600  1
  C  C12  1  0.82354900  0.77700900  0.08393400  1
  C  C13  1  0.17954900  0.17275000  0.24798600  1
  C  C14  1  0.85535000  0.83185400  0.76221200  1
  C  C15  1  0.65599500  0.58411800  0.32336000  1
  C  C16  1  0.42230100  0.44651800  0.71809200  1
  C  C17  1  0.85736800  0.10870500  0.48183200  1
  C  C18  1  0.27482800  0.85432700  0.47098500  1
