# generated using pymatgen
data_CuNiC16
_symmetry_space_group_name_H-M   'P 1'
_cell_length_a   8.62597471
_cell_length_b   8.60523210
_cell_length_c   22.52175811
_cell_angle_alpha   89.94416812
_cell_angle_beta   90.00000000
_cell_angle_gamma   120.07976967
_symmetry_Int_Tables_number   1
_chemical_formula_structural   CuNiC16
_chemical_formula_sum   'Cu6 Ni6 C96'
_cell_volume   1446.61765960
_cell_formula_units_Z   6
loop_
 _symmetry_equiv_pos_site_id
 _symmetry_equiv_pos_as_xyz
  1  'x, y, z'
loop_
 _atom_site_type_symbol
 _atom_site_label
 _atom_site_symmetry_multiplicity
 _atom_site_fract_x
 _atom_site_fract_y
 _atom_site_fract_z
 _atom_site_occupancy
  C  C0  1  0.02099529  0.01493920  0.50288865  1
  C  C1  1  0.99394392  0.01493920  0.00288865  1
  C  C2  1  0.68059095  0.32571551  0.83549113  1
  C  C3  1  0.64512556  0.32571551  0.33549113  1
  C  C4  1  0.34176546  0.68693472  0.16915074  1
  C  C5  1  0.34516826  0.68693472  0.66915074  1
  C  C6  1  0.99469331  0.99566892  0.64706884  1
  C  C7  1  0.00097562  0.99566892  0.14706884  1
  C  C8  1  0.69281082  0.32391296  0.97912241  1
  C  C9  1  0.63110314  0.32391296  0.47912241  1
  C  C10  1  0.33487180  0.66867114  0.31265036  1
  C  C11  1  0.33379835  0.66867114  0.81265036  1
  Ni  Ni12  1  0.28374812  0.98576576  0.24738445  1
  Ni  Ni13  1  0.70201765  0.98576576  0.74738445  1
  Ni  Ni14  1  0.36100440  0.04024802  0.58184555  1
  Ni  Ni15  1  0.67924462  0.04024802  0.08184555  1
  Ni  Ni16  1  0.04800192  0.38892597  0.91391331  1
  Ni  Ni17  1  0.34092305  0.38892597  0.41391331  1
  Cu  Cu18  1  0.01686127  0.01274525  0.35245758  1
  Cu  Cu19  1  0.99588397  0.01274525  0.85245758  1
  Cu  Cu20  1  0.66013362  0.31308888  0.68508541  1
  Cu  Cu21  1  0.65295627  0.31308888  0.18508541  1
  Cu  Cu22  1  0.33537695  0.66800893  0.01827974  1
  Cu  Cu23  1  0.33263099  0.66800893  0.51827974  1
  C  C24  1  0.70993696  0.71351180  0.24887707  1
  C  C25  1  0.00605636  0.29499260  0.24843567  1
  C  C26  1  0.28893624  0.29499260  0.74843567  1
  C  C27  1  0.00357484  0.71351180  0.74887707  1
  C  C28  1  0.95138217  0.32799668  0.58105643  1
  C  C29  1  0.67386099  0.62249846  0.58289626  1
  C  C30  1  0.94863847  0.62249846  0.08289626  1
  C  C31  1  0.37661552  0.32799668  0.08105643  1
  C  C32  1  0.62315126  0.65612826  0.91578714  1
  C  C33  1  0.33772548  0.96281779  0.91434724  1
  C  C34  1  0.62509130  0.96281779  0.41434724  1
  C  C35  1  0.03297600  0.65612826  0.41578714  1
  C  C36  1  0.21493350  0.03321339  0.30842793  1
  C  C37  1  0.81438752  0.78773799  0.30478649  1
  C  C38  1  0.95701313  0.18170793  0.30334362  1
  C  C39  1  0.22469481  0.18170793  0.80334362  1
  C  C40  1  0.97335048  0.78773799  0.80478649  1
  C  C41  1  0.81827988  0.03321339  0.80842793  1
  C  C42  1  0.80632750  0.96585458  0.69031771  1
  C  C43  1  0.17878895  0.20509846  0.69611013  1
  C  C44  1  0.03158247  0.82654435  0.69624620  1
  C  C45  1  0.79496188  0.82654435  0.19624620  1
  C  C46  1  0.02630951  0.20509846  0.19611013  1
  C  C47  1  0.15952708  0.96585458  0.19031771  1
  C  C48  1  0.88570061  0.37216485  0.63691291  1
  C  C49  1  0.48147832  0.10794217  0.64214916  1
  C  C50  1  0.64356071  0.51668948  0.63863719  1
  C  C51  1  0.87312977  0.51668948  0.13863719  1
  C  C52  1  0.62646485  0.10794217  0.14214916  1
  C  C53  1  0.48646524  0.37216485  0.13691291  1
  C  C54  1  0.46661487  0.30986233  0.02887274  1
  C  C55  1  0.83795929  0.53689920  0.03001136  1
  C  C56  1  0.70166677  0.16373602  0.02472705  1
  C  C57  1  0.46207026  0.16373602  0.52472705  1
  C  C58  1  0.69894091  0.53689920  0.53001136  1
  C  C59  1  0.84324846  0.30986233  0.52887274  1
  C  C60  1  0.55796607  0.70530473  0.97022842  1
  C  C61  1  0.16084831  0.46020750  0.97623002  1
  C  C62  1  0.30056349  0.85680119  0.97022247  1
  C  C63  1  0.55623670  0.85680119  0.47022247  1
  C  C64  1  0.29935819  0.46020750  0.47623002  1
  C  C65  1  0.14733766  0.70530473  0.47022842  1
  C  C66  1  0.12244502  0.63779270  0.36286567  1
  C  C67  1  0.50951636  0.87908788  0.36237673  1
  C  C68  1  0.36039068  0.51263625  0.35718278  1
  C  C69  1  0.15224457  0.51263625  0.85718278  1
  C  C70  1  0.36957053  0.87908788  0.86237673  1
  C  C71  1  0.51534668  0.63779270  0.86286567  1
  C  C72  1  0.00081278  0.81175812  0.41088063  1
  C  C73  1  0.80219239  0.97312109  0.40743520  1
  C  C74  1  0.15874821  0.18697977  0.41438046  1
  C  C75  1  0.02823156  0.18697977  0.91438046  1
  C  C76  1  0.17092871  0.97312109  0.90743520  1
  C  C77  1  0.81094533  0.81175812  0.91088063  1
  C  C78  1  0.96275787  0.16335898  0.58915597  1
  C  C79  1  0.16684998  0.02250097  0.59443945  1
  C  C80  1  0.83430551  0.80198172  0.58895474  1
  C  C81  1  0.96767621  0.80198172  0.08895474  1
  C  C82  1  0.85565099  0.02250097  0.09443945  1
  C  C83  1  0.20060111  0.16335898  0.08915597  1
  C  C84  1  0.68831944  0.17150149  0.74728715  1
  C  C85  1  0.47609122  0.32839170  0.74357150  1
  C  C86  1  0.83781602  0.53395999  0.74265201  1
  C  C87  1  0.69614498  0.53395999  0.24265201  1
  C  C88  1  0.85230148  0.32839170  0.24357150  1
  C  C89  1  0.48318305  0.17150149  0.24728715  1
  C  C90  1  0.62859158  0.49015617  0.92534989  1
  C  C91  1  0.85149138  0.37114321  0.92143055  1
  C  C92  1  0.49379139  0.14415297  0.92279666  1
  C  C93  1  0.65036258  0.14415297  0.42279666  1
  C  C94  1  0.51965283  0.37114321  0.42143055  1
  C  C95  1  0.86156559  0.49015617  0.42534989  1
  C  C96  1  0.35040010  0.48679139  0.07838964  1
  C  C97  1  0.12970404  0.64072642  0.07897537  1
  C  C98  1  0.49561685  0.83964932  0.07656010  1
  C  C99  1  0.34403147  0.83964932  0.57656010  1
  C  C100  1  0.51102138  0.64072642  0.57897537  1
  C  C101  1  0.13639029  0.48679139  0.57838964  1
  C  C102  1  0.30599059  0.81050989  0.25950076  1
  C  C103  1  0.53035170  0.69305092  0.25543980  1
  C  C104  1  0.17145502  0.46841402  0.25641355  1
  C  C105  1  0.29695799  0.46841402  0.75641355  1
  C  C106  1  0.16269822  0.69305092  0.75543980  1
  C  C107  1  0.50451830  0.81050989  0.75950076  1
