# generated using pymatgen
data_Cu(NiC4)2
_symmetry_space_group_name_H-M   'P 1'
_cell_length_a   6.29318843
_cell_length_b   6.29318891
_cell_length_c   6.10949500
_cell_angle_alpha   60.96097262
_cell_angle_beta   60.96097023
_cell_angle_gamma   56.11676786
_symmetry_Int_Tables_number   1
_chemical_formula_structural   Cu(NiC4)2
_chemical_formula_sum   'Cu1 Ni2 C8'
_cell_volume   167.75304091
_cell_formula_units_Z   1
loop_
 _symmetry_equiv_pos_site_id
 _symmetry_equiv_pos_as_xyz
  1  'x, y, z'
loop_
 _atom_site_type_symbol
 _atom_site_label
 _atom_site_symmetry_multiplicity
 _atom_site_fract_x
 _atom_site_fract_y
 _atom_site_fract_z
 _atom_site_occupancy
  Ni  Ni0  1  0.81012300  0.81012300  0.68987700  1
  Ni  Ni1  1  0.18987700  0.18987700  0.31012300  1
  Cu  Cu2  1  0.00000000  0.00000000  0.00000000  1
  C  C3  1  0.50000000  0.50000000  0.00000000  1
  C  C4  1  0.50000000  0.50000000  0.50000000  1
  C  C5  1  0.27094800  0.72905200  0.75652000  1
  C  C6  1  0.27094800  0.72905200  0.24348000  1
  C  C7  1  0.72905200  0.27094800  0.75652000  1
  C  C8  1  0.26472800  0.26472800  0.73527200  1
  C  C9  1  0.72905200  0.27094800  0.24348000  1
  C  C10  1  0.73527200  0.73527200  0.26472800  1
