# generated using pymatgen
data_Cu6NiC18
_symmetry_space_group_name_H-M   'P 1'
_cell_length_a   7.55902027
_cell_length_b   8.31451754
_cell_length_c   9.50793420
_cell_angle_alpha   83.74920755
_cell_angle_beta   96.80805170
_cell_angle_gamma   152.04444053
_symmetry_Int_Tables_number   1
_chemical_formula_structural   Cu6NiC18
_chemical_formula_sum   'Cu6 Ni1 C18'
_cell_volume   278.14634378
_cell_formula_units_Z   1
loop_
 _symmetry_equiv_pos_site_id
 _symmetry_equiv_pos_as_xyz
  1  'x, y, z'
loop_
 _atom_site_type_symbol
 _atom_site_label
 _atom_site_symmetry_multiplicity
 _atom_site_fract_x
 _atom_site_fract_y
 _atom_site_fract_z
 _atom_site_occupancy
  Ni  Ni0  1  0.54252900  0.28961000  0.06929900  1
  Cu  Cu1  1  0.79775700  0.25810400  0.79048000  1
  Cu  Cu2  1  0.25544300  0.76491700  0.22526100  1
  Cu  Cu3  1  0.89728800  0.23714700  0.48694000  1
  Cu  Cu4  1  0.10760100  0.76744200  0.53746500  1
  Cu  Cu5  1  0.98902500  0.24101300  0.16907700  1
  Cu  Cu6  1  0.04108200  0.79422400  0.82418600  1
  C  C7  1  0.95509600  0.93024400  0.12803200  1
  C  C8  1  0.08286500  0.94154000  0.31620000  1
  C  C9  1  0.96645100  0.02199500  0.93403500  1
  C  C10  1  0.88125700  0.98226900  0.76843600  1
  C  C11  1  0.89641800  0.24488100  0.96118400  1
  C  C12  1  0.09579800  0.77979300  0.05313100  1
  C  C13  1  0.95849000  0.21613000  0.67012000  1
  C  C14  1  0.03763500  0.78904000  0.33764200  1
  C  C15  1  0.04829300  0.21999300  0.36641800  1
  C  C16  1  0.94506400  0.79684100  0.63153300  1
  C  C17  1  0.18622600  0.17929700  0.11621000  1
  C  C18  1  0.85456400  0.87868000  0.85382300  1
  C  C19  1  0.57032300  0.28975400  0.85460400  1
  C  C20  1  0.47354100  0.73908200  0.15969500  1
  C  C21  1  0.67218100  0.26909700  0.54839800  1
  C  C22  1  0.33301200  0.74676800  0.44021000  1
  C  C23  1  0.75040800  0.26544900  0.22634300  1
  C  C24  1  0.24769500  0.76242000  0.74365700  1
