# generated using pymatgen
data_Cu2NiC14
_symmetry_space_group_name_H-M   'P 1'
_cell_length_a   9.12225737
_cell_length_b   9.12462042
_cell_length_c   23.46797303
_cell_angle_alpha   89.87465525
_cell_angle_beta   90.00000000
_cell_angle_gamma   119.99143349
_symmetry_Int_Tables_number   1
_chemical_formula_structural   Cu2NiC14
_chemical_formula_sum   'Cu12 Ni6 C84'
_cell_volume   1691.84058008
_cell_formula_units_Z   6
loop_
 _symmetry_equiv_pos_site_id
 _symmetry_equiv_pos_as_xyz
  1  'x, y, z'
loop_
 _atom_site_type_symbol
 _atom_site_label
 _atom_site_symmetry_multiplicity
 _atom_site_fract_x
 _atom_site_fract_y
 _atom_site_fract_z
 _atom_site_occupancy
  C  C0  1  0.00162145  0.00149973  0.35852359  1
  C  C1  1  -0.00012173  0.00149973  0.85852359  1
  C  C2  1  0.67539415  0.33782224  0.69211134  1
  C  C3  1  0.66242909  0.33782224  0.19211134  1
  C  C4  1  0.32959052  0.65634672  0.02498225  1
  C  C5  1  0.32675520  0.65634672  0.52498225  1
  C  C6  1  0.99971834  0.99972323  0.64496819  1
  C  C7  1  0.00000489  0.99972323  0.14496819  1
  C  C8  1  0.66316702  0.33193068  0.97890328  1
  C  C9  1  0.66876466  0.33193068  0.47890328  1
  C  C10  1  0.34380970  0.66075896  0.31170063  1
  C  C11  1  0.31694826  0.66075896  0.81170063  1
  Ni  Ni12  1  0.71451736  0.72413768  0.25039290  1
  Ni  Ni13  1  0.00962032  0.72413768  0.75039290  1
  Ni  Ni14  1  0.94378145  0.31836616  0.58361078  1
  Ni  Ni15  1  0.37458571  0.31836616  0.08361078  1
  Ni  Ni16  1  0.03793953  0.38522895  0.91738566  1
  Ni  Ni17  1  0.34728843  0.38522895  0.41738566  1
  Cu  Cu18  1  0.27989990  0.98406662  0.25035825  1
  Cu  Cu19  1  0.01112171  0.29235613  0.24931909  1
  Cu  Cu20  1  0.28123442  0.29235613  0.74931909  1
  Cu  Cu21  1  0.70416672  0.98406662  0.75035825  1
  Cu  Cu22  1  0.37569382  0.05298748  0.58342096  1
  Cu  Cu23  1  0.67861420  0.62597455  0.58328722  1
  Cu  Cu24  1  0.94736136  0.62597455  0.08328722  1
  Cu  Cu25  1  0.67729466  0.05298748  0.08342096  1
  Cu  Cu26  1  0.61299955  0.65554529  0.91639174  1
  Cu  Cu27  1  0.34601151  0.95826849  0.91684361  1
  Cu  Cu28  1  0.61225598  0.95826849  0.41684361  1
  Cu  Cu29  1  0.04254474  0.65554529  0.41639174  1
  C  C30  1  0.20677979  0.01809367  0.30054779  1
  C  C31  1  0.82112557  0.80580314  0.30276192  1
  C  C32  1  0.98152878  0.18900051  0.30020525  1
  C  C33  1  0.20747173  0.18900051  0.80020525  1
  C  C34  1  0.98467757  0.80580314  0.80276192  1
  C  C35  1  0.81131388  0.01809367  0.80054779  1
  C  C36  1  0.78796576  0.95994057  0.69909255  1
  C  C37  1  0.17047752  0.21155548  0.69847223  1
  C  C38  1  0.03477781  0.83937086  0.69728615  1
  C  C39  1  0.80459306  0.83937086  0.19728615  1
  C  C40  1  0.04107796  0.21155548  0.19847223  1
  C  C41  1  0.17197482  0.95994057  0.19909255  1
  C  C42  1  0.86196011  0.34597369  0.63568140  1
  C  C43  1  0.47824404  0.12852446  0.63413526  1
  C  C44  1  0.64418410  0.51987923  0.63377234  1
  C  C45  1  0.87569613  0.51987923  0.13377234  1
  C  C46  1  0.65028142  0.12852446  0.13413526  1
  C  C47  1  0.48401458  0.34597369  0.13568140  1
  C  C48  1  0.46414689  0.29250272  0.03034977  1
  C  C49  1  0.83852237  0.54370678  0.03237176  1
  C  C50  1  0.70559463  0.16359404  0.03239754  1
  C  C51  1  0.45800041  0.16359404  0.53239754  1
  C  C52  1  0.70518540  0.54370678  0.53237176  1
  C  C53  1  0.82835683  0.29250272  0.53034977  1
  C  C54  1  0.53999695  0.68680880  0.96722708  1
  C  C55  1  0.15043708  0.46615796  0.96877072  1
  C  C56  1  0.31937252  0.85545966  0.96756132  1
  C  C57  1  0.53608614  0.85545966  0.46756132  1
  C  C58  1  0.31571989  0.46615796  0.46877072  1
  C  C59  1  0.14681085  0.68680880  0.46722708  1
  C  C60  1  0.12467935  0.62963988  0.36559374  1
  C  C61  1  0.50352278  0.87572898  0.36570455  1
  C  C62  1  0.37603202  0.50271228  0.36358164  1
  C  C63  1  0.12667926  0.50271228  0.86358164  1
  C  C64  1  0.37220520  0.87572898  0.86570455  1
  C  C65  1  0.50495953  0.62963988  0.86559374  1
  C  C66  1  0.01484444  0.79883764  0.40836108  1
  C  C67  1  0.78234404  0.98458722  0.40850585  1
  C  C68  1  0.19966575  0.21032625  0.40551705  1
  C  C69  1  0.01066050  0.21032625  0.90551705  1
  C  C70  1  0.20224318  0.98458722  0.90850585  1
  C  C71  1  0.78399320  0.79883764  0.90836108  1
  C  C72  1  0.95588720  0.15500880  0.59350112  1
  C  C73  1  0.20652324  0.04082577  0.59055416  1
  C  C74  1  0.83707004  0.79270785  0.59107004  1
  C  C75  1  0.95563781  0.79270785  0.09107004  1
  C  C76  1  0.83430253  0.04082577  0.09055416  1
  C  C77  1  0.19912160  0.15500880  0.09350112  1
  C  C78  1  0.67425872  0.12578250  0.74146874  1
  C  C79  1  0.44925294  0.31552628  0.73972941  1
  C  C80  1  0.86052399  0.54811484  0.74061774  1
  C  C81  1  0.68759184  0.54811484  0.24061774  1
  C  C82  1  0.86627434  0.31552628  0.23972941  1
  C  C83  1  0.45152478  0.12578250  0.24146874  1
  C  C84  1  0.62411042  0.49827015  0.92468547  1
  C  C85  1  0.86352405  0.37345087  0.92819701  1
  C  C86  1  0.50355592  0.12688812  0.92352206  1
  C  C87  1  0.62333320  0.12688812  0.42352206  1
  C  C88  1  0.50992783  0.37345087  0.42819701  1
  C  C89  1  0.87416073  0.49827015  0.42468547  1
  C  C90  1  0.34813850  0.46790572  0.07358420  1
  C  C91  1  0.11905586  0.65718134  0.07433363  1
  C  C92  1  0.53268398  0.88456592  0.07385284  1
  C  C93  1  0.35188094  0.88456592  0.57385284  1
  C  C94  1  0.53812448  0.65718134  0.57433363  1
  C  C95  1  0.11976621  0.46790572  0.57358420  1
  C  C96  1  0.28722314  0.82607605  0.25895271  1
  C  C97  1  0.53726932  0.71262732  0.25877174  1
  C  C98  1  0.16652659  0.46185173  0.25706265  1
  C  C99  1  0.29532414  0.46185173  0.75706265  1
  C  C100  1  0.17535700  0.71262732  0.75877174  1
  C  C101  1  0.53885190  0.82607605  0.75895271  1
