# generated using pymatgen
data_Cu2NiC18
_symmetry_space_group_name_H-M   'P 1'
_cell_length_a   9.18224220
_cell_length_b   9.18724842
_cell_length_c   22.57672936
_cell_angle_alpha   90.00081807
_cell_angle_beta   90.06185414
_cell_angle_gamma   120.00390185
_symmetry_Int_Tables_number   1
_chemical_formula_structural   Cu2NiC18
_chemical_formula_sum   'Cu12 Ni6 C108'
_cell_volume   1649.33336068
_cell_formula_units_Z   6
loop_
 _symmetry_equiv_pos_site_id
 _symmetry_equiv_pos_as_xyz
  1  'x, y, z'
loop_
 _atom_site_type_symbol
 _atom_site_label
 _atom_site_symmetry_multiplicity
 _atom_site_fract_x
 _atom_site_fract_y
 _atom_site_fract_z
 _atom_site_occupancy
  C  C0  1  0.63848837  0.00312140  0.25230014  1
  C  C1  1  0.36098289  0.36588586  0.24873323  1
  C  C2  1  0.99850436  0.62638352  0.24903077  1
  C  C3  1  0.63545292  0.63773428  0.74732862  1
  C  C4  1  0.99403412  0.35970865  0.75094977  1
  C  C5  1  0.37353825  0.00056067  0.75003444  1
  C  C6  1  0.30164643  0.32821760  0.58208458  1
  C  C7  1  0.04000480  0.70544584  0.58032657  1
  C  C8  1  0.66258196  0.96682994  0.58710610  1
  C  C9  1  0.29399208  0.96026026  0.08077079  1
  C  C10  1  0.67322145  0.69826768  0.08207404  1
  C  C11  1  0.03230717  0.33796840  0.08811711  1
  C  C12  1  0.97142110  0.67217526  0.92114964  1
  C  C13  1  0.69553598  0.03369043  0.91176892  1
  C  C14  1  0.33323068  0.29567082  0.91642563  1
  C  C15  1  0.96705717  0.30486775  0.41258172  1
  C  C16  1  0.32696719  0.02571530  0.42043322  1
  C  C17  1  0.70501826  0.66774359  0.41631160  1
  C  C18  1  0.00554998  0.99487859  0.49973840  1
  C  C19  1  0.00401217  0.99370574  -0.00008594  1
  C  C20  1  0.66300475  0.32363380  0.83345710  1
  C  C21  1  0.67664550  0.33752824  0.33371878  1
  C  C22  1  0.32328312  0.66092085  0.16653820  1
  C  C23  1  0.33895534  0.67630130  0.66626930  1
  C  C24  1  0.00000862  0.00117765  0.34975810  1
  C  C25  1  0.99892334  0.99871569  0.64925074  1
  C  C26  1  0.00097355  0.00077457  0.15045673  1
  C  C27  1  0.66234731  0.32344902  0.68291309  1
  C  C28  1  0.66466240  0.33138723  0.48282211  1
  C  C29  1  0.32260937  0.66125133  0.31629241  1
  C  C30  1  0.00028514  -0.00024230  0.84793441  1
  C  C31  1  0.67199024  0.33457091  0.18292024  1
  C  C32  1  0.66773461  0.33372613  0.98496331  1
  C  C33  1  0.32923308  0.66991802  0.01533023  1
  C  C34  1  0.33094177  0.67082831  0.51543562  1
  C  C35  1  0.33724661  0.67466578  0.81678115  1
  Ni  Ni36  1  0.00036761  0.29612835  0.25026368  1
  Ni  Ni37  1  0.70352166  0.00071776  0.74922466  1
  Ni  Ni38  1  0.36897000  0.03623765  0.58277619  1
  Ni  Ni39  1  0.96756240  0.63478932  0.08367965  1
  Ni  Ni40  1  0.33378702  0.97034208  0.91638961  1
  Ni  Ni41  1  0.03175450  0.66666402  0.41650355  1
  Cu  Cu42  1  0.29608187  0.00091331  0.25010538  1
  Cu  Cu43  1  0.70294770  0.70542911  0.25030834  1
  Cu  Cu44  1  0.29781415  0.29846841  0.74929542  1
  Cu  Cu45  1  0.99731571  0.70077763  0.74902586  1
  Cu  Cu46  1  0.96170099  0.33239431  0.58336586  1
  Cu  Cu47  1  0.66652737  0.62687049  0.58318326  1
  Cu  Cu48  1  0.66725121  0.03287816  0.08394875  1
  Cu  Cu49  1  0.36790045  0.33307196  0.08396535  1
  Cu  Cu50  1  0.62972457  0.66510101  0.91678936  1
  Cu  Cu51  1  0.03712797  0.36876430  0.91601210  1
  Cu  Cu52  1  0.63068926  0.96232320  0.41609166  1
  Cu  Cu53  1  0.33401480  0.37128035  0.41664963  1
  C  C54  1  0.21107414  0.02517605  0.30543469  1
  C  C55  1  0.81532389  0.78919313  0.30532500  1
  C  C56  1  0.97444528  0.17979961  0.30852505  1
  C  C57  1  0.22714111  0.19199641  0.80632746  1
  C  C58  1  0.96828650  0.77456136  0.80666272  1
  C  C59  1  0.81502624  0.03630351  0.80986551  1
  C  C60  1  0.79741636  0.97369105  0.69222445  1
  C  C61  1  0.18421321  0.20853365  0.69523470  1
  C  C62  1  0.02675133  0.81753770  0.69548851  1
  C  C63  1  0.78812612  0.81198966  0.19436350  1
  C  C64  1  0.02717634  0.20763677  0.19152641  1
  C  C65  1  0.18624550  0.97226700  0.19449078  1
  C  C66  1  0.87898752  0.36059214  0.63861137  1
  C  C67  1  0.48620408  0.12741299  0.64105159  1
  C  C68  1  0.64321442  0.51950969  0.63879921  1
  C  C69  1  0.88634654  0.51731634  0.14237768  1
  C  C70  1  0.62896613  0.10893851  0.13890785  1
  C  C71  1  0.47727400  0.36216506  0.13985544  1
  C  C72  1  0.44423361  0.29950693  0.02806408  1
  C  C73  1  0.85053364  0.55579651  0.02431921  1
  C  C74  1  0.69837033  0.14143707  0.02781560  1
  C  C75  1  0.45729665  0.15237044  0.52405869  1
  C  C76  1  0.69259486  0.54366225  0.52751228  1
  C  C77  1  0.85343212  0.30914799  0.52766180  1
  C  C78  1  0.54886206  0.69102144  0.97301824  1
  C  C79  1  0.14617762  0.44614902  0.97206350  1
  C  C80  1  0.29650444  0.85492938  0.97556514  1
  C  C81  1  0.55909228  0.85379902  0.47281358  1
  C  C82  1  0.30280020  0.44630593  0.47361078  1
  C  C83  1  0.14692456  0.70689553  0.47640533  1
  C  C84  1  0.12458822  0.63614991  0.35955287  1
  C  C85  1  0.51721351  0.87534676  0.36189167  1
  C  C86  1  0.36169833  0.48558316  0.36246952  1
  C  C87  1  0.11798089  0.47625799  0.85989208  1
  C  C88  1  0.37079056  0.89169816  0.85720046  1
  C  C89  1  0.52021749  0.63370153  0.86078547  1
  C  C90  1  0.01210590  0.83465663  0.41069093  1
  C  C91  1  0.80948358  0.98461590  0.41038939  1
  C  C92  1  0.17542328  0.19377445  0.41097647  1
  C  C93  1  0.01721009  0.19112064  0.91296458  1
  C  C94  1  0.16315488  0.98688951  0.91264559  1
  C  C95  1  0.80543017  0.82684615  0.91342652  1
  C  C96  1  0.97612877  0.17096235  0.58799248  1
  C  C97  1  0.18094322  0.01701759  0.58730328  1
  C  C98  1  0.82554553  0.80520451  0.58747016  1
  C  C99  1  0.98634584  0.82228347  0.08859845  1
  C  C100  1  0.82868537  0.01976889  0.09001168  1
  C  C101  1  0.19051400  0.17499282  0.08921728  1
  C  C102  1  0.68424159  0.16982209  0.74522665  1
  C  C103  1  0.47777119  0.32419219  0.74331213  1
  C  C104  1  0.83764315  0.52573494  0.74290893  1
  C  C105  1  0.67960264  0.52545256  0.24728591  1
  C  C106  1  0.82817657  0.31105309  0.24933444  1
  C  C107  1  0.47135567  0.16352164  0.24602738  1
  C  C108  1  0.64913620  0.50683557  0.91996546  1
  C  C109  1  0.86135484  0.35516354  0.91975034  1
  C  C110  1  0.50439796  0.15770338  0.92061849  1
  C  C111  1  0.64436692  0.13791141  0.42131937  1
  C  C112  1  0.49409837  0.35474406  0.42099831  1
  C  C113  1  0.84570567  0.49554205  0.42086881  1
  C  C114  1  0.35477171  0.49487854  0.07911271  1
  C  C115  1  0.15394765  0.64878785  0.08142617  1
  C  C116  1  0.51213705  0.85333761  0.07932476  1
  C  C117  1  0.35584883  0.85019082  0.58220161  1
  C  C118  1  0.50463198  0.64144667  0.57916842  1
  C  C119  1  0.14162791  0.48884981  0.58018358  1
  C  C120  1  0.31876149  0.84453556  0.25519434  1
  C  C121  1  0.52840125  0.69275023  0.25528337  1
  C  C122  1  0.17135584  0.48406328  0.25372897  1
  C  C123  1  0.30736587  0.47225770  0.75331180  1
  C  C124  1  0.15590048  0.68042501  0.75211316  1
  C  C125  1  0.51744717  0.82769827  0.75027668  1
