# generated using pymatgen
data_Cu2NiC4
_symmetry_space_group_name_H-M   'P 1'
_cell_length_a   3.01590276
_cell_length_b   3.01590259
_cell_length_c   9.88090180
_cell_angle_alpha   90.00000000
_cell_angle_beta   90.00000000
_cell_angle_gamma   59.99999814
_symmetry_Int_Tables_number   1
_chemical_formula_structural   Cu2NiC4
_chemical_formula_sum   'Cu2 Ni1 C4'
_cell_volume   77.83265618
_cell_formula_units_Z   1
loop_
 _symmetry_equiv_pos_site_id
 _symmetry_equiv_pos_as_xyz
  1  'x, y, z'
loop_
 _atom_site_type_symbol
 _atom_site_label
 _atom_site_symmetry_multiplicity
 _atom_site_fract_x
 _atom_site_fract_y
 _atom_site_fract_z
 _atom_site_occupancy
  Ni  Ni0  1  0.00000000  0.00000000  0.25002455  1
  Cu  Cu1  1  0.00000000  0.00000000  0.98239383  1
  Cu  Cu2  1  0.00000000  0.00000000  0.51767366  1
  C  C3  1  0.33333400  0.33333300  0.37463192  1
  C  C4  1  0.33333400  0.33333300  0.90176884  1
  C  C5  1  0.66666600  0.66666700  0.12538436  1
  C  C6  1  0.66666600  0.66666700  0.59812284  1
