# generated using pymatgen
data_CuNi4C5
_symmetry_space_group_name_H-M   'P 1'
_cell_length_a   8.48214600
_cell_length_b   9.04082500
_cell_length_c   11.92697600
_cell_angle_alpha   90.00000000
_cell_angle_beta   90.00000000
_cell_angle_gamma   90.00000000
_symmetry_Int_Tables_number   1
_chemical_formula_structural   CuNi4C5
_chemical_formula_sum   'Cu4 Ni16 C20'
_cell_volume   914.62728225
_cell_formula_units_Z   4
loop_
 _symmetry_equiv_pos_site_id
 _symmetry_equiv_pos_as_xyz
  1  'x, y, z'
loop_
 _atom_site_type_symbol
 _atom_site_label
 _atom_site_symmetry_multiplicity
 _atom_site_fract_x
 _atom_site_fract_y
 _atom_site_fract_z
 _atom_site_occupancy
  C  C0  1  0.60719100  0.50000000  0.19691100  1
  C  C1  1  0.10719100  0.50000000  0.30308900  1
  C  C2  1  0.39280900  0.50000000  0.80308900  1
  C  C3  1  0.89280900  0.50000000  0.69691100  1
  C  C4  1  0.57989000  0.00000000  0.15509300  1
  C  C5  1  0.07989000  0.00000000  0.34490700  1
  C  C6  1  0.42011000  0.00000000  0.84490700  1
  C  C7  1  0.92011000  0.00000000  0.65509300  1
  C  C8  1  0.50000000  0.22484200  0.50000000  1
  C  C9  1  0.00000000  0.77515800  0.00000000  1
  C  C10  1  0.50000000  0.77515800  0.50000000  1
  C  C11  1  0.00000000  0.22484200  0.00000000  1
  C  C12  1  0.58631400  0.29973700  0.97735000  1
  C  C13  1  0.08631400  0.70026300  0.52265000  1
  C  C14  1  0.41368600  0.29973700  0.02265000  1
  C  C15  1  0.91368600  0.70026300  0.47735000  1
  C  C16  1  0.41368600  0.70026300  0.02265000  1
  C  C17  1  0.91368600  0.29973700  0.47735000  1
  C  C18  1  0.58631400  0.70026300  0.97735000  1
  C  C19  1  0.08631400  0.29973700  0.52265000  1
  Ni  Ni20  1  0.79846100  0.00000000  0.92408400  1
  Ni  Ni21  1  0.29846100  0.00000000  0.57591600  1
  Ni  Ni22  1  0.20153900  0.00000000  0.07591600  1
  Ni  Ni23  1  0.70153900  0.00000000  0.42408400  1
  Ni  Ni24  1  0.73771700  0.50000000  0.94028600  1
  Ni  Ni25  1  0.23771700  0.50000000  0.55971400  1
  Ni  Ni26  1  0.26228300  0.50000000  0.05971400  1
  Ni  Ni27  1  0.76228300  0.50000000  0.44028600  1
  Ni  Ni28  1  0.11532700  0.25431700  0.81412500  1
  Ni  Ni29  1  0.61532700  0.74568300  0.68587500  1
  Ni  Ni30  1  0.88467300  0.25431700  0.18587500  1
  Ni  Ni31  1  0.38467300  0.74568300  0.31412500  1
  Ni  Ni32  1  0.88467300  0.74568300  0.18587500  1
  Ni  Ni33  1  0.38467300  0.25431700  0.31412500  1
  Ni  Ni34  1  0.11532700  0.74568300  0.81412500  1
  Ni  Ni35  1  0.61532700  0.25431700  0.68587500  1
  Cu  Cu36  1  0.50000000  0.23280400  0.00000000  1
  Cu  Cu37  1  0.00000000  0.76719600  0.50000000  1
  Cu  Cu38  1  0.50000000  0.76719600  0.00000000  1
  Cu  Cu39  1  0.00000000  0.23280400  0.50000000  1
