# generated using pymatgen
data_CuNi2
_symmetry_space_group_name_H-M   'P 1'
_cell_length_a   4.17862713
_cell_length_b   4.17862713
_cell_length_c   6.80324400
_cell_angle_alpha   90.00000000
_cell_angle_beta   90.00000000
_cell_angle_gamma   119.99998628
_symmetry_Int_Tables_number   1
_chemical_formula_structural   CuNi2
_chemical_formula_sum   'Cu4 Ni8'
_cell_volume   102.87597849
_cell_formula_units_Z   4
loop_
 _symmetry_equiv_pos_site_id
 _symmetry_equiv_pos_as_xyz
  1  'x, y, z'
loop_
 _atom_site_type_symbol
 _atom_site_label
 _atom_site_symmetry_multiplicity
 _atom_site_fract_x
 _atom_site_fract_y
 _atom_site_fract_z
 _atom_site_occupancy
  Ni  Ni0  1  0.00000000  0.00000000  0.00000000  1
  Ni  Ni1  1  0.00000000  0.00000000  0.50000000  1
  Ni  Ni2  1  0.34075400  0.17037700  0.75000000  1
  Ni  Ni3  1  0.17037700  0.82962300  0.25000000  1
  Ni  Ni4  1  0.17037700  0.34075400  0.25000000  1
  Ni  Ni5  1  0.82962300  0.65924600  0.75000000  1
  Ni  Ni6  1  0.82962300  0.17037700  0.75000000  1
  Ni  Ni7  1  0.65924600  0.82962300  0.25000000  1
  Cu  Cu8  1  0.33333300  0.66666700  0.93832800  1
  Cu  Cu9  1  0.66666700  0.33333300  0.43832800  1
  Cu  Cu10  1  0.66666700  0.33333300  0.06167200  1
  Cu  Cu11  1  0.33333300  0.66666700  0.56167200  1
