# generated using pymatgen
data_Cu8Ni9C94
_symmetry_space_group_name_H-M   'P 1'
_cell_length_a   18.32814891
_cell_length_b   9.18938500
_cell_length_c   23.54657220
_cell_angle_alpha   90.06297155
_cell_angle_beta   90.18155054
_cell_angle_gamma   120.03556288
_symmetry_Int_Tables_number   1
_chemical_formula_structural   Cu8Ni9C94
_chemical_formula_sum   'Cu16 Ni18 C188'
_cell_volume   3433.23368249
_cell_formula_units_Z   2
loop_
 _symmetry_equiv_pos_site_id
 _symmetry_equiv_pos_as_xyz
  1  'x, y, z'
loop_
 _atom_site_type_symbol
 _atom_site_label
 _atom_site_symmetry_multiplicity
 _atom_site_fract_x
 _atom_site_fract_y
 _atom_site_fract_z
 _atom_site_occupancy
  Ni  Ni0  1  0.35577847  0.03951699  0.90508949  1
  Ni  Ni1  1  0.84809545  0.03573519  0.90570971  1
  Ni  Ni2  1  0.66390842  0.28161119  0.90422912  1
  Ni  Ni3  1  0.16407278  0.04772440  0.40861335  1
  Ni  Ni4  1  0.34496041  0.65387017  0.42033231  1
  Ni  Ni5  1  0.85492333  0.67278365  0.40816406  1
  Ni  Ni6  1  0.01240724  0.04112689  0.50030506  1
  Ni  Ni7  1  0.50977838  0.01052771  0.50722717  1
  Ni  Ni8  1  0.00821558  0.00783742  0.99912820  1
  Ni  Ni9  1  0.50947969  0.98235010  0.99124867  1
  Ni  Ni10  1  0.32338032  0.32493150  0.81814826  1
  Ni  Ni11  1  0.82270269  0.30877755  0.82170173  1
  Ni  Ni12  1  0.32098177  0.31636554  0.32963340  1
  Ni  Ni13  1  0.82332910  0.32339266  0.31931992  1
  Ni  Ni14  1  0.16630554  0.67003398  0.16389630  1
  Ni  Ni15  1  0.67063653  0.67151162  0.16088161  1
  Ni  Ni16  1  0.16838035  0.67183237  0.66176986  1
  Ni  Ni17  1  0.66806979  0.66356729  0.66682626  1
  Cu  Cu18  1  0.00332835  0.01185025  0.34867615  1
  Cu  Cu19  1  0.50512686  0.00930616  0.35178746  1
  Cu  Cu20  1  0.00358219  0.00211220  0.85020550  1
  Cu  Cu21  1  0.50304690  0.99470020  0.84859008  1
  Cu  Cu22  1  0.33030577  0.32912706  0.68388543  1
  Cu  Cu23  1  0.82851862  0.33065274  0.68571944  1
  Cu  Cu24  1  0.32861022  0.32498174  0.18460386  1
  Cu  Cu25  1  0.83176180  0.33093834  0.18432262  1
  Cu  Cu26  1  0.33104010  0.33995181  0.98236645  1
  Cu  Cu27  1  0.83351889  0.32659290  0.98023603  1
  Cu  Cu28  1  0.33243605  0.33466730  0.48580358  1
  Cu  Cu29  1  0.83009168  0.32125719  0.48710274  1
  Cu  Cu30  1  0.16474193  0.66238027  0.02031096  1
  Cu  Cu31  1  0.66458246  0.67214166  0.01834299  1
  Cu  Cu32  1  0.16509081  0.65736459  0.52161415  1
  Cu  Cu33  1  0.66407808  0.66650505  0.52180856  1
  C  C34  1  0.99936068  0.00991936  0.65614958  1
  C  C35  1  0.49963592  0.01134164  0.65868856  1
  C  C36  1  0.99982013  0.98528603  0.15663770  1
  C  C37  1  0.50522092  0.99968418  0.15136824  1
  C  C38  1  0.16337828  0.65827738  0.31300488  1
  C  C39  1  0.66953284  0.67499236  0.30792708  1
  C  C40  1  0.16803546  0.66283628  0.80732490  1
  C  C41  1  0.67144930  0.68243269  0.80892019  1
  C  C42  1  0.15126725  0.99412440  0.25635506  1
  C  C43  1  0.64892892  0.99860799  0.25345713  1
  C  C44  1  0.85261305  0.70119514  0.25693252  1
  C  C45  1  0.15004132  0.29764508  0.75381293  1
  C  C46  1  0.65023623  0.31006357  0.75732475  1
  C  C47  1  0.35158019  0.00284645  0.75722357  1
  C  C48  1  0.85316983  0.00469186  0.75653378  1
  C  C49  1  0.66625485  0.96281892  0.91696296  1
  C  C50  1  0.16721642  0.36815594  0.41702572  1
  C  C51  1  0.35130206  0.71361058  0.25116562  1
  C  C52  1  0.00576878  0.30132092  0.24881858  1
  C  C53  1  0.50461583  0.29762966  0.24980636  1
  C  C54  1  0.00520367  0.71261201  0.74983963  1
  C  C55  1  0.50497432  0.71028245  0.74824340  1
  C  C56  1  0.48382293  0.32039433  0.58649406  1
  C  C57  1  0.98261198  0.32144846  0.58767573  1
  C  C58  1  0.17448968  0.02847504  0.58455390  1
  C  C59  1  0.67479208  0.03008342  0.58618984  1
  C  C60  1  0.34196594  0.65244375  0.58486968  1
  C  C61  1  0.84074966  0.64851882  0.58336657  1
  C  C62  1  0.48276819  0.64223220  0.08853765  1
  C  C63  1  0.98392827  0.64441557  0.08653790  1
  C  C64  1  0.33964583  0.03141096  0.08511259  1
  C  C65  1  0.84110527  0.03011096  0.08571231  1
  C  C66  1  0.17569919  0.32135944  0.08692896  1
  C  C67  1  0.67643058  0.32431234  0.08583052  1
  C  C68  1  0.30693452  0.66254041  0.91350122  1
  C  C69  1  0.80894772  0.66421319  0.91451945  1
  C  C70  1  0.02260869  0.37882412  0.91447923  1
  C  C71  1  0.51974557  0.37679477  0.91492871  1
  C  C72  1  0.16833841  0.95172216  0.91526481  1
  C  C73  1  0.30777266  0.95031721  0.41353199  1
  C  C74  1  0.80678020  0.95218740  0.41365444  1
  C  C75  1  0.66870370  0.38644081  0.41458727  1
  C  C76  1  0.02087387  0.66089686  0.41402311  1
  C  C77  1  0.52113625  0.66353884  0.41368286  1
  C  C78  1  0.11199544  0.01250283  0.31362227  1
  C  C79  1  0.60243413  0.01620136  0.30588167  1
  C  C80  1  0.39578138  0.78664006  0.30408244  1
  C  C81  1  0.89511671  0.78047409  0.31569332  1
  C  C82  1  0.49056904  0.20063759  0.30100289  1
  C  C83  1  0.99405163  0.21011549  0.30128272  1
  C  C84  1  0.10807525  0.19139949  0.80768724  1
  C  C85  1  0.61170739  0.20688016  0.81306456  1
  C  C86  1  0.49273290  0.77787703  0.80038113  1
  C  C87  1  0.99322777  0.78162881  0.80175286  1
  C  C88  1  0.39456907  0.00828694  0.81548327  1
  C  C89  1  0.89533837  0.00668339  0.81495451  1
  C  C90  1  0.40559114  0.97287814  0.70144257  1
  C  C91  1  0.90810457  0.97617932  0.70045688  1
  C  C92  1  0.08317466  0.19019147  0.69678157  1
  C  C93  1  0.58072218  0.18779611  0.70081285  1
  C  C94  1  0.01900619  0.82705894  0.69946878  1
  C  C95  1  0.51601128  0.82566721  0.69823501  1
  C  C96  1  0.39811129  0.82837489  0.20133649  1
  C  C97  1  0.90707294  0.83894183  0.20144846  1
  C  C98  1  0.01905105  0.21444069  0.19905574  1
  C  C99  1  0.51576849  0.20627046  0.19927774  1
  C  C100  1  0.08264490  0.97628365  0.20034066  1
  C  C101  1  0.58184523  0.97653452  0.19627753  1
  C  C102  1  0.44264714  0.34139942  0.63541483  1
  C  C103  1  0.93920526  0.33730938  0.63613328  1
  C  C104  1  0.22989958  0.11961374  0.63171678  1
  C  C105  1  0.72826128  0.11474086  0.63463226  1
  C  C106  1  0.33301955  0.54173637  0.63144250  1
  C  C107  1  0.83098822  0.53939292  0.63079722  1
  C  C108  1  0.43929955  0.54265613  0.13818746  1
  C  C109  1  0.94305578  0.54336373  0.13622422  1
  C  C110  1  0.32960438  0.12116028  0.13287219  1
  C  C111  1  0.83133570  0.12099061  0.13339526  1
  C  C112  1  0.22921967  0.34521856  0.13622351  1
  C  C113  1  0.72923091  0.34058322  0.13416471  1
  C  C114  1  0.21082619  0.29377814  0.03432806  1
  C  C115  1  0.70601519  0.29218327  0.03203971  1
  C  C116  1  0.43533850  0.57708057  0.03555204  1
  C  C117  1  0.93573887  0.57705506  0.03392654  1
  C  C118  1  0.35464054  0.12383393  0.03129432  1
  C  C119  1  0.85320063  0.12025992  0.03147824  1
  C  C120  1  0.20777184  0.11837665  0.52967523  1
  C  C121  1  0.70945668  0.12579259  0.53261108  1
  C  C122  1  0.35266786  0.58559097  0.52938926  1
  C  C123  1  0.85182363  0.57936898  0.52866843  1
  C  C124  1  0.43599521  0.29297642  0.53316679  1
  C  C125  1  0.93597328  0.29510276  0.53367754  1
  C  C126  1  0.26594136  0.67634357  0.96476790  1
  C  C127  1  0.76850937  0.67916618  0.96577862  1
  C  C128  1  0.06912672  0.45980128  0.96666041  1
  C  C129  1  0.56778677  0.45295208  0.96741042  1
  C  C130  1  0.16408820  0.86170330  0.96742347  1
  C  C131  1  0.66413854  0.86104925  0.97136967  1
  C  C132  1  0.26855899  0.85717570  0.46472333  1
  C  C133  1  0.76498652  0.85437755  0.46390344  1
  C  C134  1  0.16792599  0.47829427  0.46865753  1
  C  C135  1  0.66356734  0.46733088  0.46631229  1
  C  C136  1  0.07105571  0.68191497  0.46430150  1
  C  C137  1  0.56896398  0.68247630  0.46544997  1
  C  C138  1  0.06956746  0.65300651  0.36153164  1
  C  C139  1  0.57013006  0.65895502  0.36265077  1
  C  C140  1  0.25319806  0.85622599  0.36125090  1
  C  C141  1  0.75284426  0.85325587  0.36116503  1
  C  C142  1  0.16842013  0.49495330  0.35823650  1
  C  C143  1  0.67171676  0.49056117  0.36319670  1
  C  C144  1  0.07124700  0.48103958  0.86365355  1
  C  C145  1  0.56557297  0.47825026  0.86444432  1
  C  C146  1  0.17165728  0.85422702  0.86418268  1
  C  C147  1  0.66894354  0.84198867  0.85898129  1
  C  C148  1  0.25344039  0.65357863  0.86186036  1
  C  C149  1  0.75588211  0.65155886  0.86239144  1
  C  C150  1  0.01046818  0.80933554  0.40908278  1
  C  C151  1  0.50497941  0.80685890  0.41029179  1
  C  C152  1  0.39037121  0.96142025  0.40711903  1
  C  C153  1  0.88941599  0.96394949  0.40939121  1
  C  C154  1  0.08775088  0.17939581  0.41790243  1
  C  C155  1  0.59542958  0.21662174  0.41112559  1
  C  C156  1  0.00926841  0.20602696  0.91311871  1
  C  C157  1  0.50820061  0.20448321  0.91203208  1
  C  C158  1  0.09509829  0.97532147  0.91273196  1
  C  C159  1  0.58840066  0.99639778  0.91662072  1
  C  C160  1  0.38991115  0.81541003  0.91010016  1
  C  C161  1  0.89324590  0.81444106  0.91108407  1
  C  C162  1  0.49065580  0.16013219  0.59460788  1
  C  C163  1  0.98998970  0.16102257  0.59454048  1
  C  C164  1  0.08891570  0.01392496  0.59330583  1
  C  C165  1  0.58862542  0.01405766  0.59398863  1
  C  C166  1  0.42095484  0.82236249  0.59320416  1
  C  C167  1  0.91947197  0.81901086  0.59261524  1
  C  C168  1  0.48903497  0.81859611  0.09706723  1
  C  C169  1  0.99100302  0.81999129  0.09536456  1
  C  C170  1  0.41764508  0.01540238  0.09745697  1
  C  C171  1  0.92086492  0.01925293  0.09578847  1
  C  C172  1  0.08977035  0.16487738  0.09561831  1
  C  C173  1  0.58780904  0.16265989  0.09671866  1
  C  C174  1  0.33480614  0.15048508  0.74343534  1
  C  C175  1  0.83883550  0.15569780  0.74359513  1
  C  C176  1  0.24446533  0.35392578  0.74178506  1
  C  C177  1  0.74201725  0.35014399  0.74321622  1
  C  C178  1  0.43585907  0.54228971  0.73762014  1
  C  C179  1  0.93730270  0.54440749  0.73888584  1
  C  C180  1  0.34029611  0.54699687  0.24175920  1
  C  C181  1  0.83501869  0.51901483  0.24323957  1
  C  C182  1  0.43656191  0.33146239  0.23911566  1
  C  C183  1  0.93737177  0.33410609  0.23938059  1
  C  C184  1  0.24350699  0.14580726  0.24493142  1
  C  C185  1  0.74310485  0.13672805  0.24254389  1
  C  C186  1  0.31322823  0.50896739  0.91274839  1
  C  C187  1  0.81230998  0.50669043  0.91502595  1
  C  C188  1  0.43391633  0.35824064  0.91715593  1
  C  C189  1  0.93905191  0.36775153  0.91355306  1
  C  C190  1  0.24945671  0.11644409  0.91467255  1
  C  C191  1  0.75607260  0.14220602  0.91046963  1
  C  C192  1  0.31341899  0.11633944  0.41317248  1
  C  C193  1  0.81271550  0.11745922  0.41242348  1
  C  C194  1  0.25597547  0.36665784  0.40993424  1
  C  C195  1  0.74963478  0.38334234  0.41354392  1
  C  C196  1  0.43810832  0.50636706  0.41343510  1
  C  C197  1  0.93744136  0.50673879  0.41362725  1
  C  C198  1  0.16288008  0.46729773  0.08248160  1
  C  C199  1  0.65962133  0.46408282  0.08360964  1
  C  C200  1  0.07121538  0.67783109  0.08267707  1
  C  C201  1  0.56920464  0.67369917  0.08623473  1
  C  C202  1  0.26714431  0.85919437  0.08186771  1
  C  C203  1  0.76882270  0.85650809  0.08389134  1
  C  C204  1  0.16185870  0.85660674  0.58205164  1
  C  C205  1  0.66240217  0.85854929  0.58144318  1
  C  C206  1  0.26890640  0.67965298  0.58323918  1
  C  C207  1  0.76759174  0.67514081  0.58014620  1
  C  C208  1  0.06923886  0.46512342  0.58484617  1
  C  C209  1  0.57094383  0.46276147  0.58211034  1
  C  C210  1  0.15142033  0.81010573  0.25866068  1
  C  C211  1  0.64645465  0.80987777  0.25930621  1
  C  C212  1  0.26552548  0.70178714  0.25324162  1
  C  C213  1  0.75628727  0.69393454  0.26046797  1
  C  C214  1  0.08736931  0.47365330  0.25342008  1
  C  C215  1  0.58669278  0.46422528  0.25457133  1
  C  C216  1  0.14626757  0.48191933  0.76001344  1
  C  C217  1  0.64515424  0.48772882  0.75956236  1
  C  C218  1  0.08731295  0.70648384  0.75502243  1
  C  C219  1  0.58670009  0.70649912  0.75071993  1
  C  C220  1  0.25582636  0.81740016  0.76049028  1
  C  C221  1  0.75809128  0.82053916  0.75753502  1
