# generated using pymatgen
data_CuNiC15
_symmetry_space_group_name_H-M   'P 1'
_cell_length_a   8.84706461
_cell_length_b   8.84706431
_cell_length_c   22.71272666
_cell_angle_alpha   90.00000000
_cell_angle_beta   90.00000000
_cell_angle_gamma   120.00000108
_symmetry_Int_Tables_number   1
_chemical_formula_structural   CuNiC15
_chemical_formula_sum   'Cu6 Ni6 C90'
_cell_volume   1539.56590449
_cell_formula_units_Z   6
loop_
 _symmetry_equiv_pos_site_id
 _symmetry_equiv_pos_as_xyz
  1  'x, y, z'
loop_
 _atom_site_type_symbol
 _atom_site_label
 _atom_site_symmetry_multiplicity
 _atom_site_fract_x
 _atom_site_fract_y
 _atom_site_fract_z
 _atom_site_occupancy
  Ni  Ni0  1  -0.00000000  -0.00000000  0.35379227  1
  Ni  Ni1  1  -0.00000000  -0.00000000  0.85379227  1
  Ni  Ni2  1  0.66666700  0.33333300  0.68712527  1
  Ni  Ni3  1  0.66666700  0.33333300  0.18712527  1
  Ni  Ni4  1  0.33333300  0.66666700  0.02045927  1
  Ni  Ni5  1  0.33333300  0.66666700  0.52045927  1
  Cu  Cu6  1  -0.00000000  -0.00000000  0.64463606  1
  Cu  Cu7  1  -0.00000000  -0.00000000  0.14463606  1
  Cu  Cu8  1  0.66666700  0.33333300  0.97796906  1
  Cu  Cu9  1  0.66666700  0.33333300  0.47796906  1
  Cu  Cu10  1  0.33333300  0.66666700  0.31130306  1
  Cu  Cu11  1  0.33333300  0.66666700  0.81130306  1
  C  C12  1  0.29335683  0.00662390  0.25122533  1
  C  C13  1  0.71326706  0.70664317  0.25122533  1
  C  C14  1  0.99337610  0.28673294  0.25122533  1
  C  C15  1  0.29335683  0.28673294  0.75122533  1
  C  C16  1  0.99337610  0.70664317  0.75122533  1
  C  C17  1  0.71326706  0.00662390  0.75122533  1
  C  C18  1  0.96002383  0.33995690  0.58455833  1
  C  C19  1  0.37993406  0.03997617  0.58455833  1
  C  C20  1  0.66004310  0.62006594  0.58455833  1
  C  C21  1  0.96002383  0.62006594  0.08455833  1
  C  C22  1  0.66004310  0.03997617  0.08455833  1
  C  C23  1  0.37993406  0.33995690  0.08455833  1
  C  C24  1  0.62668983  0.67329090  0.91789233  1
  C  C25  1  0.04660006  0.37331017  0.91789233  1
  C  C26  1  0.32670910  0.95339994  0.91789233  1
  C  C27  1  0.62668983  0.95339994  0.41789233  1
  C  C28  1  0.32670910  0.37331017  0.41789233  1
  C  C29  1  0.04660006  0.67329090  0.41789233  1
  C  C30  1  0.20855681  0.02906291  0.30272044  1
  C  C31  1  0.82050610  0.79144319  0.30272044  1
  C  C32  1  0.97093709  0.17949390  0.30272044  1
  C  C33  1  0.20855681  0.17949390  0.80272044  1
  C  C34  1  0.97093709  0.79144319  0.80272044  1
  C  C35  1  0.82050610  0.02906291  0.80272044  1
  C  C36  1  0.78998983  0.96869850  0.69758085  1
  C  C37  1  0.17870868  0.21001017  0.69758085  1
  C  C38  1  0.03130150  0.82129132  0.69758085  1
  C  C39  1  0.78998983  0.82129132  0.19758085  1
  C  C40  1  0.03130150  0.21001017  0.19758085  1
  C  C41  1  0.17870868  0.96869850  0.19758085  1
  C  C42  1  0.87522381  0.36239591  0.63605344  1
  C  C43  1  0.48717310  0.12477619  0.63605344  1
  C  C44  1  0.63760409  0.51282690  0.63605344  1
  C  C45  1  0.87522381  0.51282690  0.13605344  1
  C  C46  1  0.63760409  0.12477619  0.13605344  1
  C  C47  1  0.48717310  0.36239591  0.13605344  1
  C  C48  1  0.45665683  0.30203150  0.03091385  1
  C  C49  1  0.84537568  0.54334317  0.03091385  1
  C  C50  1  0.69796850  0.15462432  0.03091385  1
  C  C51  1  0.45665683  0.15462432  0.53091385  1
  C  C52  1  0.69796850  0.54334317  0.53091385  1
  C  C53  1  0.84537568  0.30203150  0.53091385  1
  C  C54  1  0.54188981  0.69572991  0.96938744  1
  C  C55  1  0.15383910  0.45811019  0.96938744  1
  C  C56  1  0.30427009  0.84616090  0.96938744  1
  C  C57  1  0.54188981  0.84616090  0.46938744  1
  C  C58  1  0.30427009  0.45811019  0.46938744  1
  C  C59  1  0.15383910  0.69572991  0.46938744  1
  C  C60  1  0.12332283  0.63536550  0.36424785  1
  C  C61  1  0.51204168  0.87667717  0.36424785  1
  C  C62  1  0.36463450  0.48795832  0.36424785  1
  C  C63  1  0.12332283  0.48795832  0.86424785  1
  C  C64  1  0.36463450  0.87667717  0.86424785  1
  C  C65  1  0.51204168  0.63536550  0.86424785  1
  C  C66  1  0.02345375  0.82247241  0.40746134  1
  C  C67  1  0.79901866  0.97654625  0.40746134  1
  C  C68  1  0.17752759  0.20098134  0.40746134  1
  C  C69  1  0.02345375  0.20098134  0.90746134  1
  C  C70  1  0.17752759  0.97654625  0.90746134  1
  C  C71  1  0.79901866  0.82247241  0.90746134  1
  C  C72  1  0.97433275  0.17779892  0.59153593  1
  C  C73  1  0.20346617  0.02566725  0.59153593  1
  C  C74  1  0.82220108  0.79653383  0.59153593  1
  C  C75  1  0.97433275  0.79653383  0.09153593  1
  C  C76  1  0.82220108  0.02566725  0.09153593  1
  C  C77  1  0.20346617  0.17779892  0.09153593  1
  C  C78  1  0.69012075  0.15580541  0.74079434  1
  C  C79  1  0.46568566  0.30987925  0.74079434  1
  C  C80  1  0.84419459  0.53431434  0.74079434  1
  C  C81  1  0.69012075  0.53431434  0.24079434  1
  C  C82  1  0.84419459  0.30987925  0.24079434  1
  C  C83  1  0.46568566  0.15580541  0.24079434  1
  C  C84  1  0.64099975  0.51113192  0.92486893  1
  C  C85  1  0.87013317  0.35900025  0.92486893  1
  C  C86  1  0.48886808  0.12986683  0.92486893  1
  C  C87  1  0.64099975  0.12986683  0.42486893  1
  C  C88  1  0.48886808  0.35900025  0.42486893  1
  C  C89  1  0.87013317  0.51113192  0.42486893  1
  C  C90  1  0.35678675  0.48913941  0.07412834  1
  C  C91  1  0.13235166  0.64321325  0.07412834  1
  C  C92  1  0.51086059  0.86764834  0.07412834  1
  C  C93  1  0.35678675  0.86764834  0.57412834  1
  C  C94  1  0.51086059  0.64321325  0.57412834  1
  C  C95  1  0.13235166  0.48913941  0.57412834  1
  C  C96  1  0.30766575  0.84446592  0.25820293  1
  C  C97  1  0.53679917  0.69233425  0.25820293  1
  C  C98  1  0.15553408  0.46320083  0.25820293  1
  C  C99  1  0.30766575  0.46320083  0.75820293  1
  C  C100  1  0.15553408  0.69233425  0.75820293  1
  C  C101  1  0.53679917  0.84446592  0.75820293  1
