# generated using pymatgen
data_Cu3NiC9
_symmetry_space_group_name_H-M   'P 1'
_cell_length_a   5.27892766
_cell_length_b   5.27342158
_cell_length_c   6.42442741
_cell_angle_alpha   89.42815354
_cell_angle_beta   89.34484454
_cell_angle_gamma   65.60425995
_symmetry_Int_Tables_number   1
_chemical_formula_structural   Cu3NiC9
_chemical_formula_sum   'Cu3 Ni1 C9'
_cell_volume   162.86178441
_cell_formula_units_Z   1
loop_
 _symmetry_equiv_pos_site_id
 _symmetry_equiv_pos_as_xyz
  1  'x, y, z'
loop_
 _atom_site_type_symbol
 _atom_site_label
 _atom_site_symmetry_multiplicity
 _atom_site_fract_x
 _atom_site_fract_y
 _atom_site_fract_z
 _atom_site_occupancy
  Ni  Ni0  1  0.33438400  0.34130100  0.25127400  1
  Cu  Cu1  1  0.35447600  0.35573400  0.73673600  1
  Cu  Cu2  1  0.65591500  0.65925300  0.26962200  1
  Cu  Cu3  1  0.99540500  0.99785500  0.50009300  1
  C  C4  1  0.99762600  0.00039900  0.99262100  1
  C  C5  1  0.73062800  0.21649100  0.72969200  1
  C  C6  1  0.24281000  0.24175700  0.97571600  1
  C  C7  1  0.75180100  0.26599000  0.26481500  1
  C  C8  1  0.22642600  0.22442300  0.51882400  1
  C  C9  1  0.26324400  0.75629600  0.26392000  1
  C  C10  1  0.21556000  0.73197600  0.72933400  1
  C  C11  1  0.78074300  0.77382000  0.47641100  1
  C  C12  1  0.76348300  0.75970400  0.04094000  1
