# generated using pymatgen
data_Cu12Ni3C4
_symmetry_space_group_name_H-M   'P 1'
_cell_length_a   9.05664220
_cell_length_b   9.02473214
_cell_length_c   23.26771342
_cell_angle_alpha   90.10033905
_cell_angle_beta   89.90836314
_cell_angle_gamma   120.17687819
_symmetry_Int_Tables_number   1
_chemical_formula_structural   Cu12Ni3C4
_chemical_formula_sum   'Cu72 Ni18 C24'
_cell_volume   1644.02428578
_cell_formula_units_Z   6
loop_
 _symmetry_equiv_pos_site_id
 _symmetry_equiv_pos_as_xyz
  1  'x, y, z'
loop_
 _atom_site_type_symbol
 _atom_site_label
 _atom_site_symmetry_multiplicity
 _atom_site_fract_x
 _atom_site_fract_y
 _atom_site_fract_z
 _atom_site_occupancy
  C  C0  1  0.36375541  0.36375466  0.25004652  1
  C  C1  1  0.63941216  0.63780546  0.74758745  1
  C  C2  1  0.02748215  0.69589713  0.58556078  1
  C  C3  1  0.30417883  0.97228056  0.08637754  1
  C  C4  1  0.69259726  0.02593040  0.91664088  1
  C  C5  1  0.97200688  0.30376544  0.41379591  1
  C  C6  1  0.99995333  0.99992968  0.49971133  1
  C  C7  1  0.99914258  0.00007725  0.00126562  1
  C  C8  1  0.66676605  0.33249307  0.83238495  1
  C  C9  1  0.66756653  0.33312526  0.33133163  1
  C  C10  1  0.33318150  0.66783377  0.16925266  1
  C  C11  1  0.33351745  0.66666418  0.66612179  1
  C  C12  1  0.01369774  0.00501604  0.84619745  1
  C  C13  1  0.67135030  0.34697722  0.98756098  1
  C  C14  1  0.65315538  0.32840957  0.48262637  1
  C  C15  1  0.32910167  0.65296783  0.02025032  1
  C  C16  1  0.34661216  0.67153604  0.51645238  1
  C  C17  1  0.31974599  0.66203791  0.81355134  1
  C  C18  1  0.99617717  0.98808889  0.34604062  1
  C  C19  1  0.00344404  0.01152718  0.65109045  1
  C  C20  1  0.98810214  0.99602421  0.15430035  1
  C  C21  1  0.66323881  0.32196854  0.68141650  1
  C  C22  1  0.67946030  0.33773983  0.18461697  1
  C  C23  1  0.33714728  0.67925521  0.31587656  1
  Ni  Ni24  1  0.29350196  0.00000683  0.24891098  1
  Ni  Ni25  1  0.70359061  0.70365121  0.25005940  1
  Ni  Ni26  1  0.00019599  0.29364368  0.25128108  1
  Ni  Ni27  1  0.30829172  0.29795423  0.74436594  1
  Ni  Ni28  1  0.98979802  0.69570463  0.74266916  1
  Ni  Ni29  1  0.70725330  0.00764208  0.74702966  1
  Ni  Ni30  1  0.95882003  0.32644398  0.58526294  1
  Ni  Ni31  1  0.36014862  0.03624037  0.58790747  1
  Ni  Ni32  1  0.67570578  0.63595065  0.58950005  1
  Ni  Ni33  1  0.96387549  0.64108947  0.08980139  1
  Ni  Ni34  1  0.67488801  0.04146806  0.08721014  1
  Ni  Ni35  1  0.36336227  0.32265534  0.09173784  1
  Ni  Ni36  1  0.63446131  0.66824950  0.91362612  1
  Ni  Ni37  1  0.02580387  0.35942909  0.91678069  1
  Ni  Ni38  1  0.33500320  0.96799211  0.91981758  1
  Ni  Ni39  1  0.63941696  0.96270922  0.41108067  1
  Ni  Ni40  1  0.32366427  0.36482308  0.40923469  1
  Ni  Ni41  1  0.04210864  0.67421103  0.41372081  1
  Cu  Cu42  1  0.20714146  0.02826660  0.29864044  1
  Cu  Cu43  1  0.80719637  0.78484119  0.30169556  1
  Cu  Cu44  1  0.97616006  0.19366263  0.30475711  1
  Cu  Cu45  1  0.23709675  0.20862392  0.79922908  1
  Cu  Cu46  1  0.96486239  0.77230240  0.79577709  1
  Cu  Cu47  1  0.79375080  0.02784398  0.80323127  1
  Cu  Cu48  1  0.80569411  0.98694355  0.70000689  1
  Cu  Cu49  1  0.19684400  0.20472227  0.69582703  1
  Cu  Cu50  1  0.00778377  0.80304883  0.69211307  1
  Cu  Cu51  1  0.78469427  0.80735731  0.19841612  1
  Cu  Cu52  1  0.02811816  0.20708126  0.20149235  1
  Cu  Cu53  1  0.19402137  0.97612492  0.19542772  1
  Cu  Cu54  1  0.86230495  0.34775587  0.63283444  1
  Cu  Cu55  1  0.46988005  0.12735581  0.63708461  1
  Cu  Cu56  1  0.65741697  0.53020331  0.64059564  1
  Cu  Cu57  1  0.87065939  0.52883962  0.13828154  1
  Cu  Cu58  1  0.65408963  0.14036056  0.13423885  1
  Cu  Cu59  1  0.47114984  0.34115846  0.14226922  1
  Cu  Cu60  1  0.43877119  0.29708348  0.03843993  1
  Cu  Cu61  1  0.87501085  0.57047940  0.03479917  1
  Cu  Cu62  1  0.69532546  0.12782817  0.03085680  1
  Cu  Cu63  1  0.43346583  0.12795689  0.53352776  1
  Cu  Cu64  1  0.70079849  0.55752920  0.53682178  1
  Cu  Cu65  1  0.87041524  0.30569806  0.52936050  1
  Cu  Cu66  1  0.54401666  0.68441437  0.96420206  1
  Cu  Cu67  1  0.12271721  0.44465377  0.96891362  1
  Cu  Cu68  1  0.32193292  0.87453417  0.97376875  1
  Cu  Cu69  1  0.56687775  0.87155022  0.46567356  1
  Cu  Cu70  1  0.29824814  0.44214868  0.46218713  1
  Cu  Cu71  1  0.13000315  0.69513878  0.46980910  1
  Cu  Cu72  1  0.13882467  0.65238717  0.36621997  1
  Cu  Cu73  1  0.52884360  0.87129801  0.36203482  1
  Cu  Cu74  1  0.34273277  0.47159573  0.35818067  1
  Cu  Cu75  1  0.11061140  0.45613554  0.86449015  1
  Cu  Cu76  1  0.35080550  0.87734163  0.86916593  1
  Cu  Cu77  1  0.54148553  0.65534800  0.85963204  1
  Cu  Cu78  1  0.01932419  0.82382114  0.40525209  1
  Cu  Cu79  1  0.81464989  0.98615270  0.40510558  1
  Cu  Cu80  1  0.16533196  0.19266502  0.40393273  1
  Cu  Cu81  1  0.00298531  0.18355211  0.91514368  1
  Cu  Cu82  1  0.18368618  0.98848677  0.91591346  1
  Cu  Cu83  1  0.80444321  0.82934122  0.91284374  1
  Cu  Cu84  1  0.98195010  0.17701530  0.59343455  1
  Cu  Cu85  1  0.18466502  0.01233049  0.59348828  1
  Cu  Cu86  1  0.83360751  0.80847656  0.59427837  1
  Cu  Cu87  1  0.98729950  0.81667932  0.09581998  1
  Cu  Cu88  1  0.82384551  0.01856414  0.09561258  1
  Cu  Cu89  1  0.19164113  0.16467410  0.09696196  1
  Cu  Cu90  1  0.68436307  0.15704834  0.73891212  1
  Cu  Cu91  1  0.48342701  0.32168499  0.73878356  1
  Cu  Cu92  1  0.83230631  0.52341412  0.73789328  1
  Cu  Cu93  1  0.67890788  0.52588820  0.24434009  1
  Cu  Cu94  1  0.84935667  0.31505828  0.24319619  1
  Cu  Cu95  1  0.46594340  0.16035672  0.24402965  1
  Cu  Cu96  1  0.65462869  0.51630075  0.91750116  1
  Cu  Cu97  1  0.85062235  0.33681747  0.91843319  1
  Cu  Cu98  1  0.49592381  0.13824652  0.92063912  1
  Cu  Cu99  1  0.66249977  0.13972295  0.41379866  1
  Cu  Cu100  1  0.47663674  0.34653015  0.41381454  1
  Cu  Cu101  1  0.87199343  0.51107785  0.41569069  1
  Cu  Cu102  1  0.34592699  0.47656672  0.08784182  1
  Cu  Cu103  1  0.13990773  0.66362523  0.08768952  1
  Cu  Cu104  1  0.51207681  0.87119280  0.08589703  1
  Cu  Cu105  1  0.33703013  0.85930814  0.58545947  1
  Cu  Cu106  1  0.52260609  0.65396043  0.58524525  1
  Cu  Cu107  1  0.12884141  0.48941881  0.58354442  1
  Cu  Cu108  1  0.31453334  0.84840916  0.25698215  1
  Cu  Cu109  1  0.52659808  0.67911491  0.25574819  1
  Cu  Cu110  1  0.16044708  0.46635547  0.25622668  1
  Cu  Cu111  1  0.33106909  0.47461558  0.74616008  1
  Cu  Cu112  1  0.14307554  0.67814729  0.74628251  1
  Cu  Cu113  1  0.53741524  0.84479659  0.74804787  1
