# generated using pymatgen
data_Cu14NiC3
_symmetry_space_group_name_H-M   'P 1'
_cell_length_a   9.01997727
_cell_length_b   9.01997727
_cell_length_c   9.01997727
_cell_angle_alpha   119.74741490
_cell_angle_beta   119.74741490
_cell_angle_gamma   90.43804982
_symmetry_Int_Tables_number   1
_chemical_formula_structural   Cu14NiC3
_chemical_formula_sum   'Cu14 Ni1 C3'
_cell_volume   520.88576420
_cell_formula_units_Z   1
loop_
 _symmetry_equiv_pos_site_id
 _symmetry_equiv_pos_as_xyz
  1  'x, y, z'
loop_
 _atom_site_type_symbol
 _atom_site_label
 _atom_site_symmetry_multiplicity
 _atom_site_fract_x
 _atom_site_fract_y
 _atom_site_fract_z
 _atom_site_occupancy
  C  C0  1  0.24894400  0.74894400  0.50000000  1
  C  C1  1  0.49640400  0.49640400  0.00000000  1
  C  C2  1  0.74894400  0.24894400  0.50000000  1
  Ni  Ni3  1  0.00054300  0.00054300  0.00000000  1
  Cu  Cu4  1  0.32633300  0.32633300  0.00000000  1
  Cu  Cu5  1  0.51265100  0.87402400  0.70991800  1
  Cu  Cu6  1  0.87402400  0.16410500  0.36137300  1
  Cu  Cu7  1  0.80273200  0.51265100  0.63862700  1
  Cu  Cu8  1  0.16410500  0.80273200  0.29008200  1
  Cu  Cu9  1  0.19554800  0.48527900  0.36170900  1
  Cu  Cu10  1  0.48527900  0.12357000  0.28973100  1
  Cu  Cu11  1  0.83383800  0.19554800  0.71026900  1
  Cu  Cu12  1  0.12357000  0.83383800  0.63829100  1
  Cu  Cu13  1  0.38375700  0.28471300  0.67557100  1
  Cu  Cu14  1  0.28471300  0.60914300  0.90095600  1
  Cu  Cu15  1  0.70818600  0.38375700  0.09904400  1
  Cu  Cu16  1  0.60914300  0.70818600  0.32442900  1
  Cu  Cu17  1  0.66658700  0.66658700  0.00000000  1
