# generated using pymatgen
data_Cu2Ni4C15
_symmetry_space_group_name_H-M   'P 1'
_cell_length_a   9.84351873
_cell_length_b   9.84351833
_cell_length_c   23.71970847
_cell_angle_alpha   90.18650422
_cell_angle_beta   89.81349577
_cell_angle_gamma   120.04732614
_symmetry_Int_Tables_number   1
_chemical_formula_structural   Cu2Ni4C15
_chemical_formula_sum   'Cu12 Ni24 C90'
_cell_volume   1989.43764022
_cell_formula_units_Z   6
loop_
 _symmetry_equiv_pos_site_id
 _symmetry_equiv_pos_as_xyz
  1  'x, y, z'
loop_
 _atom_site_type_symbol
 _atom_site_label
 _atom_site_symmetry_multiplicity
 _atom_site_fract_x
 _atom_site_fract_y
 _atom_site_fract_z
 _atom_site_occupancy
  Ni  Ni0  1  0.65784029  0.00126135  0.25988235  1
  Ni  Ni1  1  0.36784879  0.38751796  0.23647528  1
  Ni  Ni2  1  0.98574371  0.61186154  0.25631935  1
  Ni  Ni3  1  0.61248204  0.63215121  0.73647528  1
  Ni  Ni4  1  0.99873865  0.34215971  0.75988235  1
  Ni  Ni5  1  0.38813846  0.01425629  0.75631935  1
  Ni  Ni6  1  0.32450729  0.33459435  0.59321535  1
  Ni  Ni7  1  0.03451579  0.72085096  0.56980828  1
  Ni  Ni8  1  0.65241071  0.94519454  0.58965235  1
  Ni  Ni9  1  0.27914904  0.96548421  0.06980828  1
  Ni  Ni10  1  0.66540565  0.67549271  0.09321535  1
  Ni  Ni11  1  0.05480546  0.34758929  0.08965235  1
  Ni  Ni12  1  0.99117329  0.66792835  0.92654935  1
  Ni  Ni13  1  0.70118179  0.05418496  0.90314228  1
  Ni  Ni14  1  0.31907671  0.27852854  0.92298635  1
  Ni  Ni15  1  0.94581504  0.29881821  0.40314228  1
  Ni  Ni16  1  0.33207165  0.00882671  0.42654935  1
  Ni  Ni17  1  0.72147146  0.68092329  0.42298635  1
  Ni  Ni18  1  0.98500038  0.96769080  0.50046179  1
  Ni  Ni19  1  0.03230920  0.01499962  0.00046179  1
  Ni  Ni20  1  0.65166738  0.30102380  0.83379479  1
  Ni  Ni21  1  0.69897620  0.34833262  0.33379479  1
  Ni  Ni22  1  0.31833338  0.63435780  0.16712879  1
  Ni  Ni23  1  0.36564220  0.68166662  0.66712879  1
  Cu  Cu24  1  0.98610154  0.99181635  0.34706476  1
  Cu  Cu25  1  0.00818365  0.01389846  0.84706476  1
  Cu  Cu26  1  -0.00007668  0.00154732  0.65357768  1
  Cu  Cu27  1  0.99845268  0.00007668  0.15357768  1
  Cu  Cu28  1  0.65276854  0.32514935  0.68039776  1
  Cu  Cu29  1  0.67485065  0.34723146  0.18039776  1
  Cu  Cu30  1  0.66659032  0.33488032  0.98691068  1
  Cu  Cu31  1  0.66511968  0.33340968  0.48691068  1
  Cu  Cu32  1  0.31943454  0.65848335  0.01373176  1
  Cu  Cu33  1  0.34151665  0.68056546  0.51373176  1
  Cu  Cu34  1  0.33325632  0.66821432  0.32024468  1
  Cu  Cu35  1  0.33178568  0.66674368  0.82024468  1
  C  C36  1  0.68459506  0.68788200  0.24824611  1
  C  C37  1  -0.00015064  0.31115976  0.25053085  1
  C  C38  1  0.31211800  0.31540494  0.74824611  1
  C  C39  1  0.68884024  0.00015064  0.75053085  1
  C  C40  1  0.35126206  0.02121500  0.58157911  1
  C  C41  1  0.66651636  0.64449276  0.58386385  1
  C  C42  1  0.97878500  0.64873794  0.08157911  1
  C  C43  1  0.35550724  0.33348364  0.08386385  1
  C  C44  1  0.01792806  0.35454900  0.91491311  1
  C  C45  1  0.33318236  0.97782676  0.91719785  1
  C  C46  1  0.64545100  0.98207194  0.41491311  1
  C  C47  1  0.02217324  0.66681764  0.41719785  1
  C  C48  1  0.31007775  0.00024687  0.25059304  1
  C  C49  1  -0.00024687  0.68992225  0.75059304  1
  C  C50  1  0.97674475  0.33357987  0.58392604  1
  C  C51  1  0.66642013  0.02325525  0.08392604  1
  C  C52  1  0.64341075  0.66691387  0.91726004  1
  C  C53  1  0.33308613  0.35658925  0.41726004  1
  C  C54  1  0.23235880  0.01582121  0.30181610  1
  C  C55  1  0.79338793  0.77944029  0.30354977  1
  C  C56  1  0.99225336  0.21045652  0.30720160  1
  C  C57  1  0.22055971  0.20661207  0.80354977  1
  C  C58  1  0.98417879  0.76764120  0.80181610  1
  C  C59  1  0.78954348  0.00774664  0.80720160  1
  C  C60  1  0.77790891  0.98474912  0.69385978  1
  C  C61  1  0.21012291  0.22626875  0.69127415  1
  C  C62  1  0.00929269  0.78307816  0.69970194  1
  C  C63  1  0.77373125  0.78987709  0.19127415  1
  C  C64  1  0.01525088  0.22209109  0.19385978  1
  C  C65  1  0.21692184  0.99070731  0.19970194  1
  C  C66  1  0.89902580  0.34915421  0.63514910  1
  C  C67  1  0.46005493  0.11277329  0.63688277  1
  C  C68  1  0.65892036  0.54378952  0.64053460  1
  C  C69  1  0.88722671  0.53994507  0.13688277  1
  C  C70  1  0.65084579  0.10097420  0.13514910  1
  C  C71  1  0.45621048  0.34107964  0.14053460  1
  C  C72  1  0.44457591  0.31808212  0.02719278  1
  C  C73  1  0.87678991  0.55960175  0.02460715  1
  C  C74  1  0.67595969  0.11641116  0.03303494  1
  C  C75  1  0.44039825  0.12321009  0.52460715  1
  C  C76  1  0.68191788  0.55542409  0.52719278  1
  C  C77  1  0.88358884  0.32404031  0.53303494  1
  C  C78  1  0.56569180  0.68248821  0.96848310  1
  C  C79  1  0.12672093  0.44610729  0.97021677  1
  C  C80  1  0.32558636  0.87712352  0.97386860  1
  C  C81  1  0.55389271  0.87327907  0.47021677  1
  C  C82  1  0.31751179  0.43430820  0.46848310  1
  C  C83  1  0.12287648  0.67441364  0.47386860  1
  C  C84  1  0.11124191  0.65141612  0.36052678  1
  C  C85  1  0.54345591  0.89293575  0.35794115  1
  C  C86  1  0.34262569  0.44974516  0.36636894  1
  C  C87  1  0.10706425  0.45654409  0.85794115  1
  C  C88  1  0.34858388  0.88875809  0.86052678  1
  C  C89  1  0.55025484  0.65737431  0.86636894  1
  C  C90  1  0.01461974  0.83200059  0.41785526  1
  C  C91  1  0.82398198  0.00419310  0.41555960  1
  C  C92  1  0.19485204  0.19520239  0.41402299  1
  C  C93  1  0.99580690  0.17601802  0.91555960  1
  C  C94  1  0.16799941  0.98538026  0.91785526  1
  C  C95  1  0.80479761  0.80514796  0.91402299  1
  C  C96  1  0.98691995  0.18779239  0.58506703  1
  C  C97  1  0.17549554  0.00522251  0.58346356  1
  C  C98  1  0.82129423  0.82425929  0.58347700  1
  C  C99  1  0.99477749  0.82450446  0.08346356  1
  C  C100  1  0.81220761  0.01308005  0.08506703  1
  C  C101  1  0.17574071  0.17870577  0.08347700  1
  C  C102  1  0.68128674  0.16533359  0.75118826  1
  C  C103  1  0.49064898  0.33752610  0.74889260  1
  C  C104  1  0.86151904  0.52853539  0.74735599  1
  C  C105  1  0.66247390  0.50935102  0.24889260  1
  C  C106  1  0.83466641  0.31871326  0.25118826  1
  C  C107  1  0.47146461  0.13848096  0.24735599  1
  C  C108  1  0.65358695  0.52112539  0.91840003  1
  C  C109  1  0.84216254  0.33855551  0.91679656  1
  C  C110  1  0.48796123  0.15759229  0.91681000  1
  C  C111  1  0.66144449  0.15783746  0.41679656  1
  C  C112  1  0.47887461  0.34641305  0.41840003  1
  C  C113  1  0.84240771  0.51203877  0.41681000  1
  C  C114  1  0.34795274  0.49866759  0.08452226  1
  C  C115  1  0.15731498  0.67086010  0.08222660  1
  C  C116  1  0.52818504  0.86186939  0.08068999  1
  C  C117  1  0.32913990  0.84268502  0.58222660  1
  C  C118  1  0.50133241  0.65204726  0.58452226  1
  C  C119  1  0.13813061  0.47181496  0.58068999  1
  C  C120  1  0.32025295  0.85445939  0.25173403  1
  C  C121  1  0.50882854  0.67188951  0.25013056  1
  C  C122  1  0.15462723  0.49092629  0.25014400  1
  C  C123  1  0.32811049  0.49117146  0.75013056  1
  C  C124  1  0.14554061  0.67974705  0.75173403  1
  C  C125  1  0.50907371  0.84537277  0.75014400  1
