# generated using pymatgen
data_Cu16NiC33
_symmetry_space_group_name_H-M   'P 1'
_cell_length_a   5.93516300
_cell_length_b   9.64724514
_cell_length_c   10.27502462
_cell_angle_alpha   88.87033763
_cell_angle_beta   89.99953665
_cell_angle_gamma   89.99901900
_symmetry_Int_Tables_number   1
_chemical_formula_structural   Cu16NiC33
_chemical_formula_sum   'Cu16 Ni1 C33'
_cell_volume   588.21272901
_cell_formula_units_Z   1
loop_
 _symmetry_equiv_pos_site_id
 _symmetry_equiv_pos_as_xyz
  1  'x, y, z'
loop_
 _atom_site_type_symbol
 _atom_site_label
 _atom_site_symmetry_multiplicity
 _atom_site_fract_x
 _atom_site_fract_y
 _atom_site_fract_z
 _atom_site_occupancy
  C  C0  1  0.99998600  0.50304800  0.52495200  1
  Ni  Ni1  1  0.50001200  0.47793000  0.34657200  1
  Cu  Cu2  1  0.50000200  0.16554200  0.35307900  1
  Cu  Cu3  1  0.99999600  0.17459800  0.35731700  1
  Cu  Cu4  1  0.50000600  0.34674900  0.83378100  1
  Cu  Cu5  1  0.99999600  0.34323200  0.83712400  1
  Cu  Cu6  1  0.00000300  0.64851000  0.16357000  1
  Cu  Cu7  1  0.49999600  0.66474300  0.14968600  1
  Cu  Cu8  1  0.00000200  0.83321100  0.64706100  1
  Cu  Cu9  1  0.49999700  0.83137500  0.64584400  1
  Cu  Cu10  1  0.74914600  0.67252900  0.85006900  1
  Cu  Cu11  1  0.25085200  0.67253000  0.85006800  1
  Cu  Cu12  1  0.74778700  0.84182200  0.33875700  1
  Cu  Cu13  1  0.25220900  0.84182400  0.33875500  1
  Cu  Cu14  1  0.74973800  0.15646100  0.66295400  1
  Cu  Cu15  1  0.25025400  0.15646500  0.66295300  1
  Cu  Cu16  1  0.75140200  0.32426600  0.14220000  1
  Cu  Cu17  1  0.24862400  0.32426900  0.14221000  1
  C  C18  1  0.74918800  0.95843500  0.64649600  1
  C  C19  1  0.25080800  0.95843400  0.64649500  1
  C  C20  1  0.74680600  0.68043200  0.03584800  1
  C  C21  1  0.25319200  0.68043500  0.03584900  1
  C  C22  1  0.75199000  0.32151700  0.95608100  1
  C  C23  1  0.24801200  0.32148800  0.95609900  1
  C  C24  1  0.74690000  0.03963600  0.35188600  1
  C  C25  1  0.25309300  0.03964200  0.35189000  1
  C  C26  1  0.00001400  0.45187200  0.15036100  1
  C  C27  1  0.49999500  0.45791600  0.14818000  1
  C  C28  1  0.99999600  0.18553200  0.54358300  1
  C  C29  1  0.49999600  0.18359100  0.54254200  1
  C  C30  1  0.49999700  0.81619500  0.45837400  1
  C  C31  1  0.00000100  0.81269700  0.45837000  1
  C  C32  1  0.49999800  0.54542600  0.84146300  1
  C  C33  1  0.00000300  0.54449400  0.84237300  1
  C  C34  1  0.49999800  0.80440700  0.83372100  1
  C  C35  1  0.99999800  0.80469000  0.83482200  1
  C  C36  1  0.00000000  0.84031300  0.21609000  1
  C  C37  1  0.49999900  0.85153400  0.21147800  1
  C  C38  1  0.00002900  0.19542800  0.16793600  1
  C  C39  1  0.50000000  0.19364700  0.16237000  1
  C  C40  1  0.49999700  0.15198800  0.78607900  1
  C  C41  1  0.99999700  0.14898300  0.78728100  1
  C  C42  1  0.72844700  0.31579700  0.34300800  1
  C  C43  1  0.27155800  0.31581400  0.34296400  1
  C  C44  1  0.75664300  0.35065800  0.70691300  1
  C  C45  1  0.24332900  0.35065600  0.70689300  1
  C  C46  1  0.75172300  0.69935000  0.65721200  1
  C  C47  1  0.24827900  0.69934900  0.65721500  1
  C  C48  1  0.72694400  0.63809600  0.29350700  1
  C  C49  1  0.27306100  0.63810400  0.29351200  1
