# generated using pymatgen
data_Cu2NiC14
_symmetry_space_group_name_H-M   'P 1'
_cell_length_a   5.99878455
_cell_length_b   7.50425976
_cell_length_c   7.60926021
_cell_angle_alpha   111.26954586
_cell_angle_beta   117.57752288
_cell_angle_gamma   83.57578685
_symmetry_Int_Tables_number   1
_chemical_formula_structural   Cu2NiC14
_chemical_formula_sum   'Cu2 Ni1 C14'
_cell_volume   282.29027408
_cell_formula_units_Z   1
loop_
 _symmetry_equiv_pos_site_id
 _symmetry_equiv_pos_as_xyz
  1  'x, y, z'
loop_
 _atom_site_type_symbol
 _atom_site_label
 _atom_site_symmetry_multiplicity
 _atom_site_fract_x
 _atom_site_fract_y
 _atom_site_fract_z
 _atom_site_occupancy
  Ni  Ni0  1  0.06330500  0.86067500  0.08539600  1
  Cu  Cu1  1  0.17947200  0.62604600  0.32932100  1
  Cu  Cu2  1  0.82692000  0.36830500  0.68700400  1
  C  C3  1  0.44792900  0.23170300  0.04760500  1
  C  C4  1  0.52825900  0.72949500  0.94842800  1
  C  C5  1  0.16012400  0.24567500  0.44164000  1
  C  C6  1  0.77351100  0.90733500  0.62100500  1
  C  C7  1  0.27543500  0.96949600  0.00374000  1
  C  C8  1  0.70634000  0.96274000  0.94887800  1
  C  C9  1  0.74376200  0.32802300  0.40686000  1
  C  C10  1  0.26793200  0.58528700  0.57876700  1
  C  C11  1  0.61278200  0.21797800  0.68491800  1
  C  C12  1  0.91401500  0.77959000  0.26375900  1
  C  C13  1  0.88237000  0.62015500  0.83794600  1
  C  C14  1  0.15371800  0.38314000  0.15229000  1
  C  C15  1  0.11627700  0.23235000  0.72624200  1
  C  C16  1  0.38356300  0.76682300  0.30101700  1
