# generated using pymatgen
data_Cu6NiC15
_symmetry_space_group_name_H-M   'P 1'
_cell_length_a   8.48988026
_cell_length_b   8.33655536
_cell_length_c   10.27760974
_cell_angle_alpha   65.10329690
_cell_angle_beta   113.77996885
_cell_angle_gamma   154.81537021
_symmetry_Int_Tables_number   1
_chemical_formula_structural   Cu6NiC15
_chemical_formula_sum   'Cu6 Ni1 C15'
_cell_volume   280.30688305
_cell_formula_units_Z   1
loop_
 _symmetry_equiv_pos_site_id
 _symmetry_equiv_pos_as_xyz
  1  'x, y, z'
loop_
 _atom_site_type_symbol
 _atom_site_label
 _atom_site_symmetry_multiplicity
 _atom_site_fract_x
 _atom_site_fract_y
 _atom_site_fract_z
 _atom_site_occupancy
  Ni  Ni0  1  0.09340400  0.11839700  0.72982700  1
  Cu  Cu1  1  0.14893200  0.91407900  0.09833000  1
  Cu  Cu2  1  0.89330800  0.14925100  0.89547100  1
  Cu  Cu3  1  0.25395000  0.67434400  0.42561500  1
  Cu  Cu4  1  0.34192000  0.65728600  0.12733400  1
  Cu  Cu5  1  0.70498400  0.37259000  0.89879400  1
  Cu  Cu6  1  0.70321400  0.28001700  0.58894700  1
  C  C7  1  0.21806400  0.84791400  0.95172000  1
  C  C8  1  0.13030600  0.90464700  0.25359200  1
  C  C9  1  0.22577100  0.74916200  0.56720300  1
  C  C10  1  0.37456400  0.63152600  0.95865800  1
  C  C11  1  0.27187900  0.72440000  0.23927600  1
  C  C12  1  0.31081300  0.51189600  0.52472700  1
  C  C13  1  0.42035200  0.53815600  0.25549700  1
  C  C14  1  0.64062300  0.53048200  0.76625600  1
  C  C15  1  0.05837400  0.04551500  0.96182500  1
  C  C16  1  0.61614100  0.40881800  0.51666200  1
  C  C17  1  0.74667100  0.27846700  0.77929700  1
  C  C18  1  0.67064500  0.38667500  0.07239700  1
  C  C19  1  0.74126100  0.22596900  0.42964600  1
  C  C20  1  0.83632900  0.09390800  0.72881500  1
  C  C21  1  0.82349600  0.18983500  0.06761100  1
