# generated using pymatgen
data_Cu3NiC15
_symmetry_space_group_name_H-M   'P 1'
_cell_length_a   9.00594135
_cell_length_b   9.00594105
_cell_length_c   22.99280744
_cell_angle_alpha   90.00765762
_cell_angle_beta   89.99234238
_cell_angle_gamma   120.35316826
_symmetry_Int_Tables_number   1
_chemical_formula_structural   Cu3NiC15
_chemical_formula_sum   'Cu18 Ni6 C90'
_cell_volume   1609.25277747
_cell_formula_units_Z   6
loop_
 _symmetry_equiv_pos_site_id
 _symmetry_equiv_pos_as_xyz
  1  'x, y, z'
loop_
 _atom_site_type_symbol
 _atom_site_label
 _atom_site_symmetry_multiplicity
 _atom_site_fract_x
 _atom_site_fract_y
 _atom_site_fract_z
 _atom_site_occupancy
  C  C0  1  0.36435577  0.35827013  0.24839132  1
  C  C1  1  0.64172987  0.63564423  0.74839132  1
  C  C2  1  0.03102277  0.69160313  0.58172432  1
  C  C3  1  0.30839687  0.96897723  0.08172432  1
  C  C4  1  0.69768877  0.02493713  0.91505832  1
  C  C5  1  0.97506287  0.30231123  0.41505832  1
  C  C6  1  0.99942679  0.99815061  0.49610009  1
  C  C7  1  0.00184939  0.00057321  0.99610009  1
  C  C8  1  0.66609379  0.33148361  0.82943309  1
  C  C9  1  0.66851639  0.33390621  0.32943309  1
  C  C10  1  0.33275979  0.66481761  0.16276709  1
  C  C11  1  0.33518239  0.66724021  0.66276709  1
  C  C12  1  0.00251788  0.00889331  0.64754472  1
  C  C13  1  0.99110669  0.99748212  0.14754472  1
  C  C14  1  0.66918488  0.34222631  0.98087772  1
  C  C15  1  0.65777369  0.33081512  0.48087772  1
  C  C16  1  0.33585088  0.67556031  0.31421172  1
  C  C17  1  0.32443969  0.66414912  0.81421172  1
  Ni  Ni18  1  0.99747851  0.99012917  0.35014494  1
  Ni  Ni19  1  0.00987083  0.00252149  0.85014494  1
  Ni  Ni20  1  0.66414551  0.32346217  0.68347794  1
  Ni  Ni21  1  0.67653783  0.33585449  0.18347794  1
  Ni  Ni22  1  0.33081151  0.65679617  0.01681194  1
  Ni  Ni23  1  0.34320383  0.66918849  0.51681194  1
  Cu  Cu24  1  0.29242659  0.99968559  0.24838339  1
  Cu  Cu25  1  0.70317330  0.70353192  0.25052620  1
  Cu  Cu26  1  0.99904614  0.29298452  0.25258260  1
  Cu  Cu27  1  0.29646808  0.29682670  0.75052620  1
  Cu  Cu28  1  0.00031441  0.70757341  0.74838339  1
  Cu  Cu29  1  0.70701548  0.00095386  0.75258260  1
  Cu  Cu30  1  0.95909359  0.33301859  0.58171639  1
  Cu  Cu31  1  0.36984030  0.03686492  0.58385920  1
  Cu  Cu32  1  0.66571314  0.62631752  0.58591560  1
  Cu  Cu33  1  0.96313508  0.63015970  0.08385920  1
  Cu  Cu34  1  0.66698141  0.04090641  0.08171639  1
  Cu  Cu35  1  0.37368248  0.33428686  0.08591560  1
  Cu  Cu36  1  0.62575959  0.66635259  0.91505039  1
  Cu  Cu37  1  0.03650630  0.37019892  0.91719320  1
  Cu  Cu38  1  0.33237914  0.95965152  0.91924960  1
  Cu  Cu39  1  0.62980108  0.96349370  0.41719320  1
  Cu  Cu40  1  0.33364741  0.37424041  0.41505039  1
  Cu  Cu41  1  0.04034848  0.66762086  0.41924960  1
  C  C42  1  0.21382311  0.03542027  0.30174961  1
  C  C43  1  0.80730316  0.77941543  0.30564192  1
  C  C44  1  0.97712132  0.19490486  0.30921252  1
  C  C45  1  0.22058457  0.19269684  0.80564192  1
  C  C46  1  0.96457973  0.78617689  0.80174961  1
  C  C47  1  0.80509514  0.02287868  0.80921252  1
  C  C48  1  0.80183947  0.97399218  0.69989450  1
  C  C49  1  0.18248830  0.20514849  0.69652832  1
  C  C50  1  0.02465386  0.81862318  0.69300745  1
  C  C51  1  0.79485151  0.81751170  0.19652832  1
  C  C52  1  0.02600782  0.19816053  0.19989450  1
  C  C53  1  0.18137682  0.97534614  0.19300745  1
  C  C54  1  0.88049011  0.36875327  0.63508261  1
  C  C55  1  0.47397016  0.11274843  0.63897492  1
  C  C56  1  0.64378832  0.52823786  0.64254552  1
  C  C57  1  0.88725157  0.52602984  0.13897492  1
  C  C58  1  0.63124673  0.11950989  0.13508261  1
  C  C59  1  0.47176214  0.35621168  0.14254552  1
  C  C60  1  0.46850647  0.30732518  0.03322750  1
  C  C61  1  0.84915530  0.53848149  0.02986132  1
  C  C62  1  0.69132086  0.15195618  0.02634045  1
  C  C63  1  0.46151851  0.15084470  0.52986132  1
  C  C64  1  0.69267482  0.53149353  0.53322750  1
  C  C65  1  0.84804382  0.30867914  0.52634045  1
  C  C66  1  0.54715611  0.70208727  0.96841661  1
  C  C67  1  0.14063616  0.44608243  0.97230892  1
  C  C68  1  0.31045432  0.86157186  0.97587952  1
  C  C69  1  0.55391757  0.85936384  0.47230892  1
  C  C70  1  0.29791273  0.45284389  0.46841661  1
  C  C71  1  0.13842814  0.68954568  0.47587952  1
  C  C72  1  0.13517247  0.64065918  0.36656150  1
  C  C73  1  0.51582130  0.87181549  0.36319532  1
  C  C74  1  0.35798686  0.48529018  0.35967445  1
  C  C75  1  0.12818451  0.48417870  0.86319532  1
  C  C76  1  0.35934082  0.86482753  0.86656150  1
  C  C77  1  0.51470982  0.64201314  0.85967445  1
  C  C78  1  0.01509374  0.82171926  0.41216387  1
  C  C79  1  0.81517119  0.99761212  0.41107256  1
  C  C80  1  0.17185260  0.19396049  0.40965624  1
  C  C81  1  0.00238788  0.18482881  0.91107256  1
  C  C82  1  0.17828074  0.98490626  0.91216387  1
  C  C83  1  0.80603951  0.82814740  0.90965624  1
  C  C84  1  0.97347112  0.16903962  0.58929558  1
  C  C85  1  0.18812691  0.02076303  0.58871860  1
  C  C86  1  0.83823415  0.80535973  0.58938557  1
  C  C87  1  0.97923697  0.81187309  0.08871860  1
  C  C88  1  0.83096038  0.02652888  0.08929558  1
  C  C89  1  0.19464027  0.16176585  0.08938557  1
  C  C90  1  0.68176074  0.15505226  0.74549687  1
  C  C91  1  0.48183819  0.33094512  0.74440556  1
  C  C92  1  0.83851960  0.52729349  0.74298924  1
  C  C93  1  0.66905488  0.51816181  0.24440556  1
  C  C94  1  0.84494774  0.31823926  0.24549687  1
  C  C95  1  0.47270651  0.16148040  0.24298924  1
  C  C96  1  0.64013812  0.50237262  0.92262858  1
  C  C97  1  0.85479391  0.35409603  0.92205160  1
  C  C98  1  0.50490115  0.13869273  0.92271857  1
  C  C99  1  0.64590397  0.14520609  0.42205160  1
  C  C100  1  0.49762738  0.35986188  0.42262858  1
  C  C101  1  0.86130727  0.49509885  0.42271857  1
  C  C102  1  0.34842674  0.48838626  0.07883087  1
  C  C103  1  0.14850419  0.66427912  0.07773956  1
  C  C104  1  0.50518560  0.86062749  0.07632324  1
  C  C105  1  0.33572088  0.85149581  0.57773956  1
  C  C106  1  0.51161374  0.65157326  0.57883087  1
  C  C107  1  0.13937251  0.49481440  0.57632324  1
  C  C108  1  0.30680412  0.83570662  0.25596258  1
  C  C109  1  0.52145991  0.68743003  0.25538560  1
  C  C110  1  0.17156715  0.47202673  0.25605257  1
  C  C111  1  0.31256997  0.47854009  0.75538560  1
  C  C112  1  0.16429338  0.69319588  0.75596258  1
  C  C113  1  0.52797327  0.82843285  0.75605257  1
