# generated using pymatgen
data_CuNi2C17
_symmetry_space_group_name_H-M   'P 1'
_cell_length_a   9.21631926
_cell_length_b   9.24439096
_cell_length_c   22.62950006
_cell_angle_alpha   89.64603821
_cell_angle_beta   90.28186657
_cell_angle_gamma   120.12111681
_symmetry_Int_Tables_number   1
_chemical_formula_structural   CuNi2C17
_chemical_formula_sum   'Cu6 Ni12 C102'
_cell_volume   1667.63432868
_cell_formula_units_Z   6
loop_
 _symmetry_equiv_pos_site_id
 _symmetry_equiv_pos_as_xyz
  1  'x, y, z'
loop_
 _atom_site_type_symbol
 _atom_site_label
 _atom_site_symmetry_multiplicity
 _atom_site_fract_x
 _atom_site_fract_y
 _atom_site_fract_z
 _atom_site_occupancy
  C  C0  1  0.62287152  0.99900721  0.25269876  1
  C  C1  1  0.64353450  0.62706332  0.75277891  1
  C  C2  1  0.00475250  0.36486498  0.74108351  1
  C  C3  1  0.29707417  0.34918082  0.58483376  1
  C  C4  1  0.02348396  0.69076916  0.59095349  1
  C  C5  1  0.67902337  0.95979759  0.57244573  1
  C  C6  1  0.29701958  0.94597970  0.08771642  1
  C  C7  1  0.66898469  0.71227772  0.07343457  1
  C  C8  1  0.02986462  0.33980351  0.08114364  1
  C  C9  1  0.97903379  0.68777461  0.91312214  1
  C  C10  1  0.32442847  0.29111368  0.91001988  1
  C  C11  1  0.67784808  0.67260127  0.41381982  1
  C  C12  1  0.00210855  0.03329280  0.49362526  1
  C  C13  1  0.97666948  0.99102313  0.99206794  1
  C  C14  1  0.64839458  0.32069114  0.82802129  1
  C  C15  1  0.62290377  0.30462866  0.33063131  1
  C  C16  1  0.31074938  0.67957716  0.16952338  1
  C  C17  1  0.32605881  0.65515713  0.66514124  1
  C  C18  1  0.68203782  0.33139711  0.97560357  1
  C  C19  1  0.67269662  0.33552150  0.47906831  1
  C  C20  1  0.32665537  0.66414037  0.81951381  1
  C  C21  1  0.01977682  0.01596937  0.35170290  1
  C  C22  1  0.00270684  0.99923990  0.85004577  1
  C  C23  1  0.00655013  0.00310218  0.65007309  1
  C  C24  1  0.00414053  0.98922223  0.14755420  1
  C  C25  1  0.67099831  0.34734805  0.68479099  1
  C  C26  1  0.66005769  0.32310061  0.18455874  1
  C  C27  1  0.33432849  0.67363888  0.01503010  1
  C  C28  1  0.33831564  0.65852157  0.51272656  1
  C  C29  1  0.33990329  0.67627491  0.31949494  1
  Ni  Ni30  1  0.29810928  0.99503130  0.24750762  1
  Ni  Ni31  1  0.30069126  0.30365309  0.75072672  1
  Ni  Ni32  1  0.00614284  0.70388546  0.74984371  1
  Ni  Ni33  1  0.96386410  0.33667889  0.58613411  1
  Ni  Ni34  1  0.66803313  0.63423006  0.58386437  1
  Ni  Ni35  1  0.95648886  0.62208328  0.08362835  1
  Ni  Ni36  1  0.66838707  0.03651535  0.08584611  1
  Ni  Ni37  1  0.62947396  0.66489551  0.92015488  1
  Ni  Ni38  1  0.04061859  0.36634167  0.92021166  1
  Ni  Ni39  1  0.33722307  0.96471884  0.92009636  1
  Ni  Ni40  1  0.64013213  0.97079379  0.41605322  1
  Ni  Ni41  1  0.33421798  0.36774820  0.42040364  1
  Cu  Cu42  1  0.70017476  0.70001654  0.25035527  1
  Cu  Cu43  1  0.00211846  0.29980797  0.24837967  1
  Cu  Cu44  1  0.69508200  0.99388156  0.74922502  1
  Cu  Cu45  1  0.38064004  0.04666773  0.58110508  1
  Cu  Cu46  1  0.37581653  0.33402226  0.08081964  1
  Cu  Cu47  1  0.03095237  0.66221329  0.41930900  1
  C  C48  1  0.19744905  0.00904131  0.30282844  1
  C  C49  1  0.79724029  0.78467544  0.30410505  1
  C  C50  1  0.97307345  0.18666991  0.29913732  1
  C  C51  1  0.21121818  0.20078068  0.80983825  1
  C  C52  1  0.96020740  0.78413514  0.80493352  1
  C  C53  1  0.80635322  0.02448745  0.79986500  1
  C  C54  1  0.76551534  0.96491619  0.69375656  1
  C  C55  1  0.18194937  0.23079413  0.69082193  1
  C  C56  1  0.03040360  0.80556510  0.68738387  1
  C  C57  1  0.77984198  0.80357666  0.19581578  1
  C  C58  1  0.01705554  0.22382334  0.19185351  1
  C  C59  1  0.20790005  0.98269262  0.18253860  1
  C  C60  1  0.88202938  0.35222731  0.64758108  1
  C  C61  1  0.48012928  0.11650938  0.63520216  1
  C  C62  1  0.62660533  0.52122937  0.64340651  1
  C  C63  1  0.86110725  0.50523890  0.13961528  1
  C  C64  1  0.62663320  0.10555975  0.14497253  1
  C  C65  1  0.47363159  0.35631407  0.13494409  1
  C  C66  1  0.46104997  0.31729764  0.02747657  1
  C  C67  1  0.83915235  0.52239372  0.02307448  1
  C  C68  1  0.68562973  0.16667580  0.02879324  1
  C  C69  1  0.46974309  0.15051967  0.52835621  1
  C  C70  1  0.68127245  0.52233443  0.52756970  1
  C  C71  1  0.83242322  0.31944317  0.53176889  1
  C  C72  1  0.55124326  0.68364655  0.98109273  1
  C  C73  1  0.14785376  0.44381321  0.97964997  1
  C  C74  1  0.29467411  0.85819790  0.98068492  1
  C  C75  1  0.55318849  0.85794280  0.47558016  1
  C  C76  1  0.30922265  0.43574694  0.48381783  1
  C  C77  1  0.12560973  0.68434528  0.47460561  1
  C  C78  1  0.10962111  0.63657242  0.36716321  1
  C  C79  1  0.52781474  0.90135083  0.35665459  1
  C  C80  1  0.38022318  0.50547990  0.36759760  1
  C  C81  1  0.13928643  0.49774792  0.86340797  1
  C  C82  1  0.35793680  0.85515484  0.86520642  1
  C  C83  1  0.50116213  0.63990945  0.86324819  1
  C  C84  1  0.99428620  0.79896571  0.41376811  1
  C  C85  1  0.81960592  0.97386235  0.41054211  1
  C  C86  1  0.18183625  0.17836730  0.41485346  1
  C  C87  1  0.01284382  0.18372531  0.91044787  1
  C  C88  1  0.17943575  0.99316130  0.91085321  1
  C  C89  1  0.81942191  0.81659533  0.91180519  1
  C  C90  1  0.97908384  0.16656953  0.58373630  1
  C  C91  1  0.21670607  0.04300500  0.58249709  1
  C  C92  1  0.84735395  0.81369651  0.58394098  1
  C  C93  1  0.96633522  0.80507925  0.08136977  1
  C  C94  1  0.84984186  0.03982790  0.08617834  1
  C  C95  1  0.20636751  0.17902922  0.08222347  1
  C  C96  1  0.67049159  0.13995968  0.74420968  1
  C  C97  1  0.49002420  0.33010892  0.74731896  1
  C  C98  1  0.84985908  0.50761662  0.74967652  1
  C  C99  1  0.68388802  0.53239488  0.24707597  1
  C  C100  1  0.84986813  0.31740939  0.24734763  1
  C  C101  1  0.49044258  0.16263251  0.24867457  1
  C  C102  1  0.63174152  0.48320806  0.92270704  1
  C  C103  1  0.86036673  0.36883121  0.92141412  1
  C  C104  1  0.50999620  0.15082201  0.92267805  1
  C  C105  1  0.66558726  0.16148307  0.42885800  1
  C  C106  1  0.51460654  0.35831084  0.42566202  1
  C  C107  1  0.85926317  0.50365703  0.42349002  1
  C  C108  1  0.35324132  0.48204332  0.07823502  1
  C  C109  1  0.14256323  0.63959023  0.08159098  1
  C  C110  1  0.50999715  0.84698567  0.07906094  1
  C  C111  1  0.35047945  0.87377839  0.57484232  1
  C  C112  1  0.50946474  0.66832984  0.58045096  1
  C  C113  1  0.14456927  0.51213815  0.57936162  1
  C  C114  1  0.32337116  0.82880152  0.25241227  1
  C  C115  1  0.53066093  0.68444621  0.25188175  1
  C  C116  1  0.15602538  0.46590474  0.25476221  1
  C  C117  1  0.32544195  0.49836398  0.75821736  1
  C  C118  1  0.17812250  0.68678894  0.75946534  1
  C  C119  1  0.52962209  0.83713481  0.75715352  1
