# generated using pymatgen
data_CuNi4C3
_symmetry_space_group_name_H-M   'P 1'
_cell_length_a   7.04355100
_cell_length_b   12.39077800
_cell_length_c   15.06913815
_cell_angle_alpha   61.69587900
_cell_angle_beta   90.00000000
_cell_angle_gamma   90.00000000
_symmetry_Int_Tables_number   1
_chemical_formula_structural   CuNi4C3
_chemical_formula_sum   'Cu4 Ni16 C12'
_cell_volume   1157.92391386
_cell_formula_units_Z   4
loop_
 _symmetry_equiv_pos_site_id
 _symmetry_equiv_pos_as_xyz
  1  'x, y, z'
loop_
 _atom_site_type_symbol
 _atom_site_label
 _atom_site_symmetry_multiplicity
 _atom_site_fract_x
 _atom_site_fract_y
 _atom_site_fract_z
 _atom_site_occupancy
  C  C0  1  0.15597600  0.81409500  0.12725600  1
  C  C1  1  0.65597600  0.18590500  0.37274400  1
  C  C2  1  0.84402400  0.18590500  0.87274400  1
  C  C3  1  0.34402400  0.81409500  0.62725600  1
  C  C4  1  0.92143700  0.67984200  0.98930900  1
  C  C5  1  0.42143700  0.32015800  0.51069100  1
  C  C6  1  0.07856300  0.32015800  0.01069100  1
  C  C7  1  0.57856300  0.67984200  0.48930900  1
  C  C8  1  0.22596200  0.71773700  0.95311300  1
  C  C9  1  0.72596200  0.28226300  0.54688700  1
  C  C10  1  0.77403800  0.28226300  0.04688700  1
  C  C11  1  0.27403800  0.71773700  0.45311300  1
  Ni  Ni12  1  0.28954200  0.88465300  0.97090100  1
  Ni  Ni13  1  0.78954200  0.11534700  0.52909900  1
  Ni  Ni14  1  0.71045800  0.11534700  0.02909900  1
  Ni  Ni15  1  0.21045800  0.88465300  0.47090100  1
  Ni  Ni16  1  0.86696700  0.74404200  0.10631500  1
  Ni  Ni17  1  0.36696700  0.25595800  0.39368500  1
  Ni  Ni18  1  0.13303300  0.25595800  0.89368500  1
  Ni  Ni19  1  0.63303300  0.74404200  0.60631500  1
  Ni  Ni20  1  0.31340900  0.55406000  0.10262000  1
  Ni  Ni21  1  0.81340900  0.44594000  0.39738000  1
  Ni  Ni22  1  0.68659100  0.44594000  0.89738000  1
  Ni  Ni23  1  0.18659100  0.55406000  0.60262000  1
  Ni  Ni24  1  0.32198200  0.64156600  0.21569100  1
  Ni  Ni25  1  0.82198200  0.35843400  0.28430900  1
  Ni  Ni26  1  0.67801800  0.35843400  0.78430900  1
  Ni  Ni27  1  0.17801800  0.64156600  0.71569100  1
  Cu  Cu28  1  0.79028800  0.84791300  0.82451500  1
  Cu  Cu29  1  0.29028800  0.15208700  0.67548500  1
  Cu  Cu30  1  0.20971200  0.15208700  0.17548500  1
  Cu  Cu31  1  0.70971200  0.84791300  0.32451500  1
