# generated using pymatgen
data_CuNiC17
_symmetry_space_group_name_H-M   'P 1'
_cell_length_a   8.84846353
_cell_length_b   8.80031978
_cell_length_c   22.31458907
_cell_angle_alpha   89.99999999
_cell_angle_beta   90.21648745
_cell_angle_gamma   119.82018070
_symmetry_Int_Tables_number   1
_chemical_formula_structural   CuNiC17
_chemical_formula_sum   'Cu6 Ni6 C102'
_cell_volume   1507.52946620
_cell_formula_units_Z   6
loop_
 _symmetry_equiv_pos_site_id
 _symmetry_equiv_pos_as_xyz
  1  'x, y, z'
loop_
 _atom_site_type_symbol
 _atom_site_label
 _atom_site_symmetry_multiplicity
 _atom_site_fract_x
 _atom_site_fract_y
 _atom_site_fract_z
 _atom_site_occupancy
  C  C0  1  0.98878599  0.63330020  0.24666939  1
  C  C1  1  0.98878599  0.35548579  0.74666939  1
  C  C2  1  0.65545299  0.96663320  0.58000239  1
  C  C3  1  0.65545299  0.68881879  0.08000239  1
  C  C4  1  0.32211899  0.29996720  0.91333639  1
  C  C5  1  0.32211899  0.02215279  0.41333639  1
  C  C6  1  0.99697511  0.00078204  0.49159583  1
  C  C7  1  0.99697511  0.99619307  0.99159583  1
  C  C8  1  0.66364211  0.33411504  0.82492883  1
  C  C9  1  0.66364211  0.32952607  0.32492883  1
  C  C10  1  0.33030811  0.66744904  0.15826283  1
  C  C11  1  0.33030811  0.66286007  0.65826283  1
  Ni  Ni12  1  0.99449037  0.00045240  0.35262139  1
  Ni  Ni13  1  0.99449037  0.99403797  0.85262139  1
  Ni  Ni14  1  0.66115737  0.33378540  0.68595439  1
  Ni  Ni15  1  0.66115737  0.32737097  0.18595439  1
  Ni  Ni16  1  0.32782337  0.66711940  0.01928839  1
  Ni  Ni17  1  0.32782337  0.66070497  0.51928839  1
  Cu  Cu18  1  0.00450237  0.99739196  0.64648924  1
  Cu  Cu19  1  0.00450237  0.00711041  0.14648924  1
  Cu  Cu20  1  0.67116937  0.33072496  0.97982224  1
  Cu  Cu21  1  0.67116937  0.34044341  0.47982224  1
  Cu  Cu22  1  0.33783537  0.66405896  0.31315624  1
  Cu  Cu23  1  0.33783537  0.67377741  0.81315624  1
  C  C24  1  0.29511598  0.00540088  0.25388783  1
  C  C25  1  0.71119332  0.71057611  0.25077809  1
  C  C26  1  0.99722277  0.28986034  0.25294662  1
  C  C27  1  0.29511598  0.28971510  0.75388783  1
  C  C28  1  0.99722277  0.70736243  0.75294662  1
  C  C29  1  0.71119332  0.00061721  0.75077809  1
  C  C30  1  0.96178298  0.33873388  0.58722083  1
  C  C31  1  0.37786032  0.04390911  0.58411109  1
  C  C32  1  0.66388977  0.62319334  0.58627962  1
  C  C33  1  0.96178298  0.62304810  0.08722083  1
  C  C34  1  0.66388977  0.04069543  0.08627962  1
  C  C35  1  0.37786032  0.33395021  0.08411109  1
  C  C36  1  0.62844898  0.67206788  0.92055483  1
  C  C37  1  0.04452632  0.37724311  0.91744509  1
  C  C38  1  0.33055577  0.95652734  0.91961362  1
  C  C39  1  0.62844898  0.95638210  0.42055483  1
  C  C40  1  0.33055577  0.37402943  0.41961362  1
  C  C41  1  0.04452632  0.66728421  0.41744509  1
  C  C42  1  0.21004468  0.01962152  0.31032399  1
  C  C43  1  0.82713093  0.79814933  0.30352735  1
  C  C44  1  0.97891978  0.18290298  0.30694643  1
  C  C45  1  0.21004468  0.19042316  0.81032399  1
  C  C46  1  0.97891978  0.79601681  0.80694643  1
  C  C47  1  0.82713093  0.02898160  0.80352735  1
  C  C48  1  0.79546007  0.96862094  0.69191129  1
  C  C49  1  0.16624436  0.19602037  0.69783815  1
  C  C50  1  0.02640458  0.82574945  0.69487349  1
  C  C51  1  0.79546007  0.82683913  0.19191129  1
  C  C52  1  0.02640458  0.20065513  0.19487349  1
  C  C53  1  0.16624436  0.97022399  0.19783815  1
  C  C54  1  0.87671168  0.35295452  0.64365699  1
  C  C55  1  0.49379793  0.13148233  0.63686035  1
  C  C56  1  0.64558678  0.51623598  0.64027943  1
  C  C57  1  0.87671168  0.52375616  0.14365699  1
  C  C58  1  0.64558678  0.12934981  0.14027943  1
  C  C59  1  0.49379793  0.36231460  0.13686035  1
  C  C60  1  0.46212707  0.30195394  0.02524429  1
  C  C61  1  0.83291136  0.52935337  0.03117115  1
  C  C62  1  0.69307158  0.15908245  0.02820649  1
  C  C63  1  0.46212707  0.16017213  0.52524429  1
  C  C64  1  0.69307158  0.53398813  0.52820649  1
  C  C65  1  0.83291136  0.30355699  0.53117115  1
  C  C66  1  0.54337768  0.68628852  0.97699099  1
  C  C67  1  0.16046393  0.46481633  0.97019435  1
  C  C68  1  0.31225278  0.84956998  0.97361343  1
  C  C69  1  0.54337768  0.85709016  0.47699099  1
  C  C70  1  0.31225278  0.46268381  0.47361343  1
  C  C71  1  0.16046393  0.69564860  0.47019435  1
  C  C72  1  0.12879307  0.63528794  0.35857829  1
  C  C73  1  0.49957736  0.86268737  0.36450515  1
  C  C74  1  0.35973758  0.49241645  0.36154049  1
  C  C75  1  0.12879307  0.49350613  0.85857829  1
  C  C76  1  0.35973758  0.86732213  0.86154049  1
  C  C77  1  0.49957736  0.63689099  0.86450515  1
  C  C78  1  0.01854584  0.82351470  0.40888628  1
  C  C79  1  0.80793850  0.98425172  0.41075702  1
  C  C80  1  0.18276834  0.18828071  0.41090838  1
  C  C81  1  0.01854584  0.19503114  0.90888628  1
  C  C82  1  0.18276834  0.99448763  0.91090838  1
  C  C83  1  0.80793850  0.82368678  0.91075702  1
  C  C84  1  0.96547444  0.15836248  0.58936861  1
  C  C85  1  0.19392354  0.03265089  0.59035694  1
  C  C86  1  0.83885902  0.81006587  0.58931367  1
  C  C87  1  0.96547444  0.80711196  0.08936861  1
  C  C88  1  0.83885902  0.02879315  0.08931367  1
  C  C89  1  0.19392354  0.16127265  0.09035694  1
  C  C90  1  0.68521284  0.15684770  0.74221928  1
  C  C91  1  0.47460550  0.31758472  0.74409002  1
  C  C92  1  0.84943534  0.52161371  0.74424138  1
  C  C93  1  0.68521284  0.52836414  0.24221928  1
  C  C94  1  0.84943534  0.32782063  0.24424138  1
  C  C95  1  0.47460550  0.15701978  0.24409002  1
  C  C96  1  0.63214144  0.49169548  0.92270161  1
  C  C97  1  0.86059054  0.36598389  0.92368994  1
  C  C98  1  0.50552602  0.14339887  0.92264667  1
  C  C99  1  0.63214144  0.14044496  0.42270161  1
  C  C100  1  0.50552602  0.36212615  0.42264667  1
  C  C101  1  0.86059054  0.49460565  0.42368994  1
  C  C102  1  0.35187884  0.49018170  0.07555328  1
  C  C103  1  0.14127150  0.65091872  0.07742402  1
  C  C104  1  0.51610134  0.85494771  0.07757538  1
  C  C105  1  0.35187884  0.86169814  0.57555328  1
  C  C106  1  0.51610134  0.66115463  0.57757538  1
  C  C107  1  0.14127150  0.49035378  0.57742402  1
  C  C108  1  0.29880744  0.82502948  0.25603561  1
  C  C109  1  0.52725654  0.69931789  0.25702394  1
  C  C110  1  0.17219202  0.47673287  0.25598067  1
  C  C111  1  0.29880744  0.47377896  0.75603561  1
  C  C112  1  0.17219202  0.69546015  0.75598067  1
  C  C113  1  0.52725654  0.82793965  0.75702394  1
