# generated using pymatgen
data_CuNiC9
_symmetry_space_group_name_H-M   'P 1'
_cell_length_a   6.34965131
_cell_length_b   5.83686232
_cell_length_c   5.90764843
_cell_angle_alpha   60.55019086
_cell_angle_beta   59.01747813
_cell_angle_gamma   58.46437666
_symmetry_Int_Tables_number   1
_chemical_formula_structural   CuNiC9
_chemical_formula_sum   'Cu1 Ni1 C9'
_cell_volume   152.39704939
_cell_formula_units_Z   1
loop_
 _symmetry_equiv_pos_site_id
 _symmetry_equiv_pos_as_xyz
  1  'x, y, z'
loop_
 _atom_site_type_symbol
 _atom_site_label
 _atom_site_symmetry_multiplicity
 _atom_site_fract_x
 _atom_site_fract_y
 _atom_site_fract_z
 _atom_site_occupancy
  C  C0  1  0.65276041  0.77559354  0.77317372  1
  C  C1  1  0.32166693  0.23393338  0.22312572  1
  Ni  Ni2  1  0.29904333  0.57192464  0.55023838  1
  Cu  Cu3  1  0.77984524  0.39254181  0.41353384  1
  C  C4  1  0.95095922  0.01951415  0.01656393  1
  C  C5  1  0.17252970  0.26757243  0.69044112  1
  C  C6  1  0.16787183  0.89556511  0.25659999  1
  C  C7  1  0.21331443  0.68862826  0.86022650  1
  C  C8  1  0.65997339  0.32497181  0.21625103  1
  C  C9  1  0.71593585  0.19184517  0.79676065  1
  C  C10  1  0.70895666  0.79267270  0.28641614  1
