# generated using pymatgen
data_Cu2NiC7
_symmetry_space_group_name_H-M   'P 1'
_cell_length_a   8.93717800
_cell_length_b   5.45541100
_cell_length_c   9.75078461
_cell_angle_alpha   76.94526811
_cell_angle_beta   90.00000000
_cell_angle_gamma   90.00000000
_symmetry_Int_Tables_number   1
_chemical_formula_structural   Cu2NiC7
_chemical_formula_sum   'Cu8 Ni4 C28'
_cell_volume   463.12197853
_cell_formula_units_Z   4
loop_
 _symmetry_equiv_pos_site_id
 _symmetry_equiv_pos_as_xyz
  1  'x, y, z'
loop_
 _atom_site_type_symbol
 _atom_site_label
 _atom_site_symmetry_multiplicity
 _atom_site_fract_x
 _atom_site_fract_y
 _atom_site_fract_z
 _atom_site_occupancy
  C  C0  1  0.01121300  0.03664300  0.74212600  1
  C  C1  1  0.51121300  0.46335700  0.25787400  1
  C  C2  1  0.98878700  0.96335700  0.25787400  1
  C  C3  1  0.48878700  0.53664300  0.74212600  1
  Ni  Ni4  1  0.84920900  0.53650800  0.74927000  1
  Ni  Ni5  1  0.34920900  0.96349200  0.25073000  1
  Ni  Ni6  1  0.15079100  0.46349200  0.25073000  1
  Ni  Ni7  1  0.65079100  0.03650800  0.74927000  1
  Cu  Cu8  1  0.15803900  0.26621100  0.95442600  1
  Cu  Cu9  1  0.65803900  0.23378900  0.04557400  1
  Cu  Cu10  1  0.84196100  0.73378900  0.04557400  1
  Cu  Cu11  1  0.34196100  0.76621100  0.95442600  1
  Cu  Cu12  1  0.66020500  0.82160100  0.44820200  1
  Cu  Cu13  1  0.16020500  0.67839900  0.55179800  1
  Cu  Cu14  1  0.33979500  0.17839900  0.55179800  1
  Cu  Cu15  1  0.83979500  0.32160100  0.44820200  1
  C  C16  1  0.16818200  0.18357500  0.14154100  1
  C  C17  1  0.66818200  0.31642500  0.85845900  1
  C  C18  1  0.83181800  0.81642500  0.85845900  1
  C  C19  1  0.33181800  0.68357500  0.14154100  1
  C  C20  1  0.97986800  0.32791300  0.88516300  1
  C  C21  1  0.47986800  0.17208700  0.11483700  1
  C  C22  1  0.02013200  0.67208700  0.11483700  1
  C  C23  1  0.52013200  0.82791300  0.88516300  1
  C  C24  1  0.20937900  0.00433400  0.88274900  1
  C  C25  1  0.70937900  0.49566600  0.11725100  1
  C  C26  1  0.79062100  0.99566600  0.11725100  1
  C  C27  1  0.29062100  0.50433400  0.88274900  1
  C  C28  1  0.66825100  0.75673100  0.63613500  1
  C  C29  1  0.16825100  0.74326900  0.36386500  1
  C  C30  1  0.33174900  0.24326900  0.36386500  1
  C  C31  1  0.83174900  0.25673100  0.63613500  1
  C  C32  1  0.49663900  0.74642200  0.37067100  1
  C  C33  1  0.99663900  0.75357800  0.62932900  1
  C  C34  1  0.50336100  0.25357800  0.62932900  1
  C  C35  1  0.00336100  0.24642200  0.37067100  1
  C  C36  1  0.80922500  0.65298300  0.38752500  1
  C  C37  1  0.30922500  0.84701700  0.61247500  1
  C  C38  1  0.19077500  0.34701700  0.61247500  1
  C  C39  1  0.69077500  0.15298300  0.38752500  1
