# generated using pymatgen
data_Cu2Ni3C32
_symmetry_space_group_name_H-M   'P 1'
_cell_length_a   18.29321470
_cell_length_b   9.15951540
_cell_length_c   24.01201871
_cell_angle_alpha   89.83725465
_cell_angle_beta   90.04894788
_cell_angle_gamma   119.90322042
_symmetry_Int_Tables_number   1
_chemical_formula_structural   Cu2Ni3C32
_chemical_formula_sum   'Cu12 Ni18 C192'
_cell_volume   3487.72870223
_cell_formula_units_Z   6
loop_
 _symmetry_equiv_pos_site_id
 _symmetry_equiv_pos_as_xyz
  1  'x, y, z'
loop_
 _atom_site_type_symbol
 _atom_site_label
 _atom_site_symmetry_multiplicity
 _atom_site_fract_x
 _atom_site_fract_y
 _atom_site_fract_z
 _atom_site_occupancy
  Ni  Ni0  1  0.81996930  0.99821847  0.24457756  1
  Ni  Ni1  1  0.99431787  0.63718132  0.25451077  1
  Ni  Ni2  1  0.31688085  0.65350002  0.75095400  1
  Ni  Ni3  1  0.81844884  0.65105110  0.74518745  1
  Ni  Ni4  1  0.99000518  0.34956536  0.75172278  1
  Ni  Ni5  1  0.68807111  0.00368329  0.74838736  1
  Ni  Ni6  1  0.99610508  0.99643537  0.49880917  1
  Ni  Ni7  1  0.50526792  0.00373020  0.49100001  1
  Ni  Ni8  1  0.00249675  0.00253628  0.00059629  1
  Ni  Ni9  1  0.50070830  0.00067673  0.00046079  1
  Ni  Ni10  1  0.33450085  0.30399558  0.83932328  1
  Ni  Ni11  1  0.83423200  0.31904175  0.83803975  1
  Ni  Ni12  1  0.33433383  0.33624288  0.32374123  1
  Ni  Ni13  1  0.82580008  0.35083234  0.33536662  1
  Ni  Ni14  1  0.17794934  0.67069883  0.17448108  1
  Ni  Ni15  1  0.66680892  0.65058445  0.17256354  1
  Ni  Ni16  1  0.17319226  0.69191594  0.66472120  1
  Ni  Ni17  1  0.67296591  0.67637357  0.66039033  1
  Cu  Cu18  1  0.99682246  0.98714604  0.35309911  1
  Cu  Cu19  1  0.99442144  0.99897068  0.84996220  1
  Cu  Cu20  1  0.49841572  0.01270185  0.85181542  1
  Cu  Cu21  1  0.98997791  0.99442475  0.64651697  1
  Cu  Cu22  1  0.49671704  0.00211978  0.64865186  1
  Cu  Cu23  1  0.00143214  0.00163602  0.14782697  1
  Cu  Cu24  1  0.49544694  0.99133813  0.14890066  1
  Cu  Cu25  1  0.33369466  0.31196868  0.68001989  1
  Cu  Cu26  1  0.33058951  0.32701267  0.47634012  1
  Cu  Cu27  1  0.16755884  0.66779102  0.02161032  1
  Cu  Cu28  1  0.66729941  0.66963227  0.02260151  1
  Cu  Cu29  1  0.66896716  0.65330122  0.32072134  1
  C  C30  1  0.49592677  0.99569245  0.35034491  1
  C  C31  1  0.83339677  0.31896203  0.67442220  1
  C  C32  1  0.33374965  0.33307158  0.18359211  1
  C  C33  1  0.82971977  0.34445396  0.18274571  1
  C  C34  1  0.33316530  0.33404363  0.98284429  1
  C  C35  1  0.83280849  0.33317680  0.98316043  1
  C  C36  1  0.83195847  0.33054216  0.48563938  1
  C  C37  1  0.16562321  0.66432941  0.51329618  1
  C  C38  1  0.67023550  0.66886347  0.51478950  1
  C  C39  1  0.17166680  0.67089011  0.32115150  1
  C  C40  1  0.17145435  0.68676340  0.81994773  1
  C  C41  1  0.67000228  0.67352545  0.82011066  1
  C  C42  1  0.84810206  0.68834829  0.24641647  1
  C  C43  1  0.33873370  0.98474470  0.75248702  1
  C  C44  1  0.84146513  0.00004033  0.75017199  1
  C  C45  1  0.15835853  0.99854671  0.25052570  1
  C  C46  1  0.65145179  0.01070827  0.25230373  1
  C  C47  1  0.34758841  0.69466256  0.25503615  1
  C  C48  1  0.00143831  0.31434063  0.24995597  1
  C  C49  1  0.49136278  0.28806596  0.25155955  1
  C  C50  1  0.15133786  0.31496889  0.75214428  1
  C  C51  1  0.65868373  0.31665172  0.74962144  1
  C  C52  1  -0.00086869  0.68605605  0.74907439  1
  C  C53  1  0.50538011  0.69680052  0.75315733  1
  C  C54  1  0.49589237  0.35480972  0.57822299  1
  C  C55  1  0.98051626  0.34942173  0.58043014  1
  C  C56  1  0.17827164  0.00846256  0.57882624  1
  C  C57  1  0.69239914  0.03752099  0.58137979  1
  C  C58  1  0.32477210  0.63350068  0.58155275  1
  C  C59  1  0.82586945  0.60791023  0.58072075  1
  C  C60  1  0.46897542  0.60601452  0.08349747  1
  C  C61  1  0.97050397  0.60844959  0.08274633  1
  C  C62  1  0.33414238  0.06189231  0.08312565  1
  C  C63  1  0.83433894  0.06215210  0.08432209  1
  C  C64  1  0.19753924  0.33327110  0.08317455  1
  C  C65  1  0.69369943  0.32827702  0.08241762  1
  C  C66  1  0.31193540  0.64803573  0.91527592  1
  C  C67  1  0.81085157  0.64672400  0.91564872  1
  C  C68  1  0.01404805  0.37807211  0.91521872  1
  C  C69  1  0.51554709  0.38381989  0.91661786  1
  C  C70  1  0.17396974  0.97292388  0.91620121  1
  C  C71  1  0.67484938  0.97387777  0.91530495  1
  C  C72  1  0.31272524  0.94323983  0.41374164  1
  C  C73  1  0.81255249  0.97228097  0.42349574  1
  C  C74  1  0.16482660  0.38990029  0.41651506  1
  C  C75  1  0.66664806  0.35758146  0.42306376  1
  C  C76  1  0.02141365  0.65310591  0.41887880  1
  C  C77  1  0.52250749  0.68576041  0.41813686  1
  C  C78  1  0.11966769  0.03168008  0.29977476  1
  C  C79  1  0.60682392  0.02722274  0.30064564  1
  C  C80  1  0.40526971  0.78639044  0.30161963  1
  C  C81  1  0.90722042  0.77673315  0.30200688  1
  C  C82  1  0.48584390  0.18639581  0.30095434  1
  C  C83  1  0.98622969  0.20282434  0.29867195  1
  C  C84  1  0.11561330  0.20337490  0.80090860  1
  C  C85  1  0.62265790  0.20034774  0.79819351  1
  C  C86  1  0.49162397  0.78089472  0.80118123  1
  C  C87  1  0.98165769  0.76232537  0.79847887  1
  C  C88  1  0.40058869  0.01529721  0.80530071  1
  C  C89  1  0.90902324  0.05303630  0.80197616  1
  C  C90  1  0.38581712  0.95905850  0.69738622  1
  C  C91  1  0.88324299  0.94580806  0.69895076  1
  C  C92  1  0.10114990  0.23261788  0.70149098  1
  C  C93  1  0.60397600  0.23936043  0.70044778  1
  C  C94  1  0.01846738  0.79839822  0.70037142  1
  C  C95  1  0.52285011  0.80396377  0.70234732  1
  C  C96  1  0.38206659  0.79425614  0.20199160  1
  C  C97  1  0.89534063  0.82259796  0.19523516  1
  C  C98  1  0.02059761  0.24373080  0.20013920  1
  C  C99  1  0.50352123  0.21163784  0.20000805  1
  C  C100  1  0.10177627  0.96309195  0.20123136  1
  C  C101  1  0.60241944  0.98761095  0.20018007  1
  C  C102  1  0.45868372  0.37169073  0.63156877  1
  C  C103  1  0.94265126  0.36006867  0.63480393  1
  C  C104  1  0.22533637  0.08371594  0.63164558  1
  C  C105  1  0.73675581  0.11366288  0.63543688  1
  C  C106  1  0.31831693  0.54706137  0.63598603  1
  C  C107  1  0.82077491  0.52060652  0.63485415  1
  C  C108  1  0.42714751  0.51689375  0.13486049  1
  C  C109  1  0.93007099  0.52095479  0.13509188  1
  C  C110  1  0.33150479  0.14644156  0.13397901  1
  C  C111  1  0.83130984  0.14204355  0.13721606  1
  C  C112  1  0.24173252  0.33748638  0.13461476  1
  C  C113  1  0.73922375  0.33510687  0.13335769  1
  C  C114  1  0.24045166  0.32928341  0.03183346  1
  C  C115  1  0.73603574  0.32333011  0.03106221  1
  C  C116  1  0.42419048  0.52212911  0.03213288  1
  C  C117  1  0.92374063  0.52049993  0.03254749  1
  C  C118  1  0.33681426  0.15108748  0.03143974  1
  C  C119  1  0.83517511  0.15434808  0.03407922  1
  C  C120  1  0.22393570  0.12411286  0.53188833  1
  C  C121  1  0.73703235  0.14623349  0.53407572  1
  C  C122  1  0.33409793  0.53569512  0.53572384  1
  C  C123  1  0.83468412  0.51909059  0.53302208  1
  C  C124  1  0.43731949  0.32926588  0.53179554  1
  C  C125  1  0.92553542  0.32935715  0.53335100  1
  C  C126  1  0.27081521  0.67239155  0.96504228  1
  C  C127  1  0.76933463  0.66991728  0.96514866  1
  C  C128  1  0.06600003  0.46253875  0.96501857  1
  C  C129  1  0.56511170  0.46478132  0.96754332  1
  C  C130  1  0.16224769  0.87188186  0.96736595  1
  C  C131  1  0.66433196  0.86920645  0.96523847  1
  C  C132  1  0.27341419  0.85209367  0.46590924  1
  C  C133  1  0.76240591  0.85172394  0.46737587  1
  C  C134  1  0.16292486  0.47462497  0.46787788  1
  C  C135  1  0.65448963  0.45248677  0.46833092  1
  C  C136  1  0.07581849  0.67055640  0.46637164  1
  C  C137  1  0.57311317  0.69629229  0.46702901  1
  C  C138  1  0.05964986  0.64447751  0.36470924  1
  C  C139  1  0.55823730  0.65992140  0.36608634  1
  C  C140  1  0.26030276  0.86098349  0.36464086  1
  C  C141  1  0.77259087  0.90859591  0.36738899  1
  C  C142  1  0.16822035  0.48177811  0.36556971  1
  C  C143  1  0.68340015  0.45411194  0.36923419  1
  C  C144  1  0.05649497  0.47311776  0.86372021  1
  C  C145  1  0.56064968  0.48016454  0.86633078  1
  C  C146  1  0.17972181  0.88330849  0.86663791  1
  C  C147  1  0.67971531  0.88812232  0.86410536  1
  C  C148  1  0.26359948  0.63743805  0.86416336  1
  C  C149  1  0.76386892  0.63804659  0.86405742  1
  C  C150  1  0.01377615  0.81079015  0.41841106  1
  C  C151  1  0.51391216  0.83813734  0.41257113  1
  C  C152  1  0.39886215  0.96499449  0.40781669  1
  C  C153  1  0.89798729  0.98591112  0.42242820  1
  C  C154  1  0.08955398  0.21722054  0.41611875  1
  C  C155  1  0.58829584  0.19140568  0.41527753  1
  C  C156  1  0.00553025  0.20669896  0.91465064  1
  C  C157  1  0.50683039  0.21225989  0.91644023  1
  C  C158  1  0.09817475  0.99351669  0.91251542  1
  C  C159  1  0.59906745  0.99440731  0.91377494  1
  C  C160  1  0.39855368  0.79900876  0.91352292  1
  C  C161  1  0.89734037  0.79805982  0.91414862  1
  C  C162  1  0.50374915  0.20094419  0.58102675  1
  C  C163  1  0.98978776  0.19373882  0.58280532  1
  C  C164  1  0.09429709  0.99500896  0.58202306  1
  C  C165  1  0.60569929  0.01797192  0.58459848  1
  C  C166  1  0.40294634  0.80223633  0.58144784  1
  C  C167  1  0.90358020  0.78124031  0.58210829  1
  C  C168  1  0.47962837  0.78012370  0.08319875  1
  C  C169  1  0.98197299  0.78257094  0.08179433  1
  C  C170  1  0.41027947  0.03921564  0.08296383  1
  C  C171  1  0.91110665  0.04314532  0.08252444  1
  C  C172  1  0.11082016  0.18196327  0.08201160  1
  C  C173  1  0.60679397  0.17645549  0.08320780  1
  C  C174  1  0.32948738  0.15361321  0.74841854  1
  C  C175  1  0.83436047  0.16842636  0.73756078  1
  C  C176  1  0.24055218  0.35466340  0.74559665  1
  C  C177  1  0.74412485  0.33898501  0.73973920  1
  C  C178  1  0.42585232  0.53415529  0.74585278  1
  C  C179  1  0.92096858  0.52064764  0.73942465  1
  C  C180  1  0.34088211  0.52653210  0.24761576  1
  C  C181  1  0.84553862  0.51067181  0.23992212  1
  C  C182  1  0.41455899  0.30291771  0.24583918  1
  C  C183  1  0.92199110  0.31991698  0.24095385  1
  C  C184  1  0.24196746  0.14691723  0.24043985  1
  C  C185  1  0.73801942  0.15944617  0.24647271  1
  C  C186  1  0.31816033  0.49386741  0.92147681  1
  C  C187  1  0.81754555  0.49295257  0.92133208  1
  C  C188  1  0.43072334  0.36630804  0.92048994  1
  C  C189  1  0.92948119  0.36164641  0.92055373  1
  C  C190  1  0.25135576  0.13997041  0.92105267  1
  C  C191  1  0.75221063  0.14084803  0.92048555  1
  C  C192  1  0.32247480  0.11761638  0.41603507  1
  C  C193  1  0.82192094  0.14018833  0.43114401  1
  C  C194  1  0.24172117  0.36985675  0.41612215  1
  C  C195  1  0.74158887  0.33802594  0.43170185  1
  C  C196  1  0.43586810  0.53340707  0.42205856  1
  C  C197  1  0.93563836  0.50427945  0.42418842  1
  C  C198  1  0.18727066  0.48647409  0.08358684  1
  C  C199  1  0.68363954  0.48168747  0.08263263  1
  C  C200  1  0.05707163  0.62774035  0.08260748  1
  C  C201  1  0.55604612  0.62797040  0.08370235  1
  C  C202  1  0.25790588  0.88808842  0.08361412  1
  C  C203  1  0.75831657  0.88832878  0.08405457  1
  C  C204  1  0.17265448  0.84455036  0.57173058  1
  C  C205  1  0.68367342  0.86715196  0.57640470  1
  C  C206  1  0.24920669  0.64950464  0.57435395  1
  C  C207  1  0.75074919  0.62992227  0.57582193  1
  C  C208  1  0.06564493  0.49884742  0.57518049  1
  C  C209  1  0.57803299  0.50682881  0.57101529  1
  C  C210  1  0.16198905  0.84052384  0.25964259  1
  C  C211  1  0.66281326  0.85949973  0.25646369  1
  C  C212  1  0.26219342  0.67473811  0.26276613  1
  C  C213  1  0.75803900  0.68742740  0.25039171  1
  C  C214  1  0.07282364  0.48852624  0.25911948  1
  C  C215  1  0.56688905  0.46046290  0.25465641  1
  C  C216  1  0.15057455  0.47478569  0.76040852  1
  C  C217  1  0.66627322  0.48292246  0.76068510  1
  C  C218  1  0.07076953  0.65686503  0.75992992  1
  C  C219  1  0.57912089  0.67500055  0.76199098  1
  C  C220  1  0.24996123  0.80978954  0.75871345  1
  C  C221  1  0.75014316  0.83193485  0.76199464  1
