# generated using pymatgen
data_Cu6Ni4C13
_symmetry_space_group_name_H-M   'P 1'
_cell_length_a   4.11164400
_cell_length_b   7.64496192
_cell_length_c   10.30421583
_cell_angle_alpha   92.82334618
_cell_angle_beta   100.52206034
_cell_angle_gamma   99.65240007
_symmetry_Int_Tables_number   1
_chemical_formula_structural   Cu6Ni4C13
_chemical_formula_sum   'Cu6 Ni4 C13'
_cell_volume   312.87363536
_cell_formula_units_Z   1
loop_
 _symmetry_equiv_pos_site_id
 _symmetry_equiv_pos_as_xyz
  1  'x, y, z'
loop_
 _atom_site_type_symbol
 _atom_site_label
 _atom_site_symmetry_multiplicity
 _atom_site_fract_x
 _atom_site_fract_y
 _atom_site_fract_z
 _atom_site_occupancy
  C  C0  1  0.00000000  0.00000000  0.00000000  1
  C  C1  1  0.33049100  0.91654100  0.28341800  1
  C  C2  1  0.66950900  0.08345900  0.71658200  1
  C  C3  1  0.49629300  0.76769200  0.39124900  1
  C  C4  1  0.50370700  0.23230800  0.60875100  1
  C  C5  1  0.56685200  0.46646200  0.12611200  1
  C  C6  1  0.43314800  0.53353800  0.87388800  1
  C  C7  1  0.62049400  0.50125500  0.29732200  1
  C  C8  1  0.37950600  0.49874500  0.70267800  1
  Ni  Ni9  1  0.43914400  0.69917800  0.19138900  1
  Ni  Ni10  1  0.56085600  0.30082200  0.80861100  1
  Ni  Ni11  1  0.95054700  0.82350400  0.71151100  1
  Ni  Ni12  1  0.04945300  0.17649600  0.28848900  1
  C  C13  1  0.33630400  0.76279100  0.03237500  1
  C  C14  1  0.66369600  0.23720900  0.96762500  1
  C  C15  1  0.97708700  0.71433000  0.57709700  1
  C  C16  1  0.02291300  0.28567000  0.42290300  1
  Cu  Cu17  1  0.41169400  0.79878200  0.29720500  1
  Cu  Cu18  1  0.58830600  0.20121800  0.70279500  1
  Cu  Cu19  1  0.55309100  0.54642500  0.20656600  1
  Cu  Cu20  1  0.44690900  0.45357500  0.79343400  1
  Cu  Cu21  1  0.93290100  0.90442600  0.81131000  1
  Cu  Cu22  1  0.06709900  0.09557400  0.18869000  1
