# generated using pymatgen
data_Cu3Ni3C34
_symmetry_space_group_name_H-M   'P 1'
_cell_length_a   9.37317177
_cell_length_b   9.34446832
_cell_length_c   22.98995159
_cell_angle_alpha   90.78099334
_cell_angle_beta   90.12005905
_cell_angle_gamma   119.98345316
_symmetry_Int_Tables_number   1
_chemical_formula_structural   Cu3Ni3C34
_chemical_formula_sum   'Cu9 Ni9 C102'
_cell_volume   1743.88937914
_cell_formula_units_Z   3
loop_
 _symmetry_equiv_pos_site_id
 _symmetry_equiv_pos_as_xyz
  1  'x, y, z'
loop_
 _atom_site_type_symbol
 _atom_site_label
 _atom_site_symmetry_multiplicity
 _atom_site_fract_x
 _atom_site_fract_y
 _atom_site_fract_z
 _atom_site_occupancy
  C  C0  1  0.67232188  0.03660425  0.26244417  1
  C  C1  1  0.33236985  0.32370072  0.25981842  1
  C  C2  1  0.99457433  0.64354351  0.23986013  1
  C  C3  1  0.64791216  0.64507848  0.73114525  1
  C  C4  1  0.99018149  0.33190529  0.73691053  1
  C  C5  1  0.36534508  0.04040660  0.75392711  1
  C  C6  1  0.29626432  0.34446628  0.59030637  1
  C  C7  1  0.02310624  0.68426583  0.58444155  1
  C  C8  1  0.67357291  0.94952570  0.57890326  1
  C  C9  1  0.27603169  0.94149566  0.08120659  1
  C  C10  1  0.68173097  0.70634194  0.08194460  1
  C  C11  1  0.03079114  0.34672560  0.09575613  1
  C  C12  1  0.95900308  0.99369133  0.49796014  1
  C  C13  1  0.01910200  0.97608081  0.99275860  1
  C  C14  1  0.64528877  0.31500684  0.82501996  1
  C  C15  1  0.66284919  0.31165780  0.33404483  1
  C  C16  1  0.29095594  0.65793281  0.16885411  1
  C  C17  1  0.33893660  0.64278698  0.65221398  1
  C  C18  1  0.99867119  0.00922078  0.35195088  1
  C  C19  1  0.01198547  0.01192151  0.85092821  1
  C  C20  1  0.99006011  0.01045735  0.64980747  1
  C  C21  1  0.01640676  0.00566192  0.15793432  1
  C  C22  1  0.66661971  0.33400375  0.68236356  1
  C  C23  1  0.67126493  0.33227908  0.18541670  1
  C  C24  1  0.32597890  0.67068453  0.01202321  1
  C  C25  1  0.34211025  0.66813776  0.51264636  1
  C  C26  1  0.67056630  0.33777746  0.97582245  1
  C  C27  1  0.67792598  0.33160396  0.48304074  1
  C  C28  1  0.33224888  0.67710271  0.32104208  1
  C  C29  1  0.34327651  0.68216880  0.81778596  1
  Ni  Ni30  1  0.30392427  0.99482314  0.24851354  1
  Ni  Ni31  1  0.00775443  0.31089860  0.24822223  1
  Ni  Ni32  1  0.30643737  0.31132133  0.75130946  1
  Ni  Ni33  1  0.69664200  -0.00035529  0.75074122  1
  Ni  Ni34  1  0.97027159  0.33439882  0.58554942  1
  Ni  Ni35  1  0.67061659  0.63125463  0.58297559  1
  Ni  Ni36  1  0.96305863  0.63233941  0.08368225  1
  Ni  Ni37  1  0.33334056  0.97035878  0.92529140  1
  Ni  Ni38  1  0.63557499  0.97684959  0.42480565  1
  Cu  Cu39  1  0.68227006  0.69859185  0.25051504  1
  Cu  Cu40  1  0.01310589  0.69999855  0.75335041  1
  Cu  Cu41  1  0.37240566  0.04377424  0.58029997  1
  Cu  Cu42  1  0.67336368  0.04434141  0.07876017  1
  Cu  Cu43  1  0.37905038  0.33298062  0.07894551  1
  Cu  Cu44  1  0.62816392  0.65647918  0.91965294  1
  Cu  Cu45  1  0.02267692  0.36994559  0.91918335  1
  Cu  Cu46  1  0.35227000  0.37545356  0.41556000  1
  Cu  Cu47  1  0.02632086  0.65505712  0.41781788  1
  C  C48  1  0.19823609  0.02356883  0.29635576  1
  C  C49  1  0.79579209  0.77817429  0.29889498  1
  C  C50  1  0.95377565  0.15923932  0.29114196  1
  C  C51  1  0.21759873  0.16460470  0.79672023  1
  C  C52  1  0.98972152  0.78290984  0.80311664  1
  C  C53  1  0.81650309  0.02225907  0.80335480  1
  C  C54  1  0.73988905  0.93844144  0.69000118  1
  C  C55  1  0.20343576  0.27070438  0.68967982  1
  C  C56  1  0.04765773  0.79422694  0.69885602  1
  C  C57  1  0.74627243  0.79180751  0.19524302  1
  C  C58  1  0.06426741  0.26793581  0.18525242  1
  C  C59  1  0.20699710  0.93738601  0.18535878  1
  C  C60  1  0.88778821  0.34859033  0.64464493  1
  C  C61  1  0.46134012  0.11168900  0.63556128  1
  C  C62  1  0.65348005  0.53416105  0.64190523  1
  C  C63  1  0.87537700  0.53855730  0.14221771  1
  C  C64  1  0.64749654  0.11270531  0.13293669  1
  C  C65  1  0.46462341  0.34404324  0.13354820  1
  C  C66  1  0.47933101  0.32390801  0.02805034  1
  C  C67  1  0.83175796  0.50393054  0.02746788  1
  C  C68  1  0.67647222  0.14956837  0.02826620  1
  C  C69  1  0.47633979  0.14971833  0.53014779  1
  C  C70  1  0.66691255  0.50077613  0.52656801  1
  C  C71  1  0.83670359  0.32540065  0.52849867  1
  C  C72  1  0.55678514  0.66787960  0.97508115  1
  C  C73  1  0.10755269  0.44335761  0.97457468  1
  C  C74  1  0.33247065  0.89075485  0.98637303  1
  C  C75  1  0.55614192  0.89342118  0.48469645  1
  C  C76  1  0.33630356  0.44863968  0.47007894  1
  C  C77  1  0.11610787  0.67290911  0.47206076  1
  C  C78  1  0.12356252  0.63622143  0.36673163  1
  C  C79  1  0.49631434  0.85082851  0.36911576  1
  C  C80  1  0.36001124  0.48412326  0.36447015  1
  C  C81  1  0.10736489  0.47687565  0.86914865  1
  C  C82  1  0.35070892  0.85219934  0.87067607  1
  C  C83  1  0.51573964  0.63595289  0.86975137  1
  C  C84  1  0.00173986  0.79340850  0.40739779  1
  C  C85  1  0.81299605  0.00024748  0.41356450  1
  C  C86  1  0.21067021  0.20995455  0.40797515  1
  C  C87  1  0.99050570  0.20163631  0.91354847  1
  C  C88  1  0.18279049  0.00087367  0.91668628  1
  C  C89  1  0.79424670  0.79345165  0.91203018  1
  C  C90  1  0.97292815  0.16383299  0.57587881  1
  C  C91  1  0.21561316  0.04620758  0.57862006  1
  C  C92  1  0.84819279  0.79962413  0.57625070  1
  C  C93  1  0.96834245  0.80906480  0.07562850  1
  C  C94  1  0.83350151  0.04686623  0.07908332  1
  C  C95  1  0.21459916  0.18129999  0.07574167  1
  C  C96  1  0.64987350  0.14486885  0.74996208  1
  C  C97  1  0.49995280  0.36288016  0.75029751  1
  C  C98  1  0.87413668  0.52923370  0.74870469  1
  C  C99  1  0.64314853  0.52453279  0.24449412  1
  C  C100  1  0.86268056  0.35917945  0.24908954  1
  C  C101  1  0.49404313  0.14500337  0.24906334  1
  C  C102  1  0.63522572  0.49390219  0.92082933  1
  C  C103  1  0.85075464  0.35913225  0.92151304  1
  C  C104  1  0.51525331  0.15781001  0.92627212  1
  C  C105  1  0.63646522  0.15982107  0.42213664  1
  C  C106  1  0.50989300  0.37081803  0.41439094  1
  C  C107  1  0.86266142  0.49461488  0.41807248  1
  C  C108  1  0.36587940  0.48400276  0.07341836  1
  C  C109  1  0.14223499  0.64088737  0.08088641  1
  C  C110  1  0.53780215  0.87030355  0.07323252  1
  C  C111  1  0.33923102  0.87198407  0.57460599  1
  C  C112  1  0.50946665  0.65342519  0.57841112  1
  C  C113  1  0.14477617  0.50337327  0.57748125  1
  C  C114  1  0.31472518  0.81996591  0.26713058  1
  C  C115  1  0.51856501  0.69360865  0.26056472  1
  C  C116  1  0.18332275  0.48933078  0.26925997  1
  C  C117  1  0.30674984  0.48851082  0.77568408  1
  C  C118  1  0.16886353  0.68486608  0.76335006  1
  C  C119  1  0.50663767  0.82325825  0.76874086  1
