# generated using pymatgen
data_Cu3(NiC16)2
_symmetry_space_group_name_H-M   'P 1'
_cell_length_a   8.88392386
_cell_length_b   8.86740737
_cell_length_c   23.09165458
_cell_angle_alpha   88.72448940
_cell_angle_beta   91.29817383
_cell_angle_gamma   119.93990081
_symmetry_Int_Tables_number   1
_chemical_formula_structural   Cu3(NiC16)2
_chemical_formula_sum   'Cu9 Ni6 C96'
_cell_volume   1575.80932456
_cell_formula_units_Z   3
loop_
 _symmetry_equiv_pos_site_id
 _symmetry_equiv_pos_as_xyz
  1  'x, y, z'
loop_
 _atom_site_type_symbol
 _atom_site_label
 _atom_site_symmetry_multiplicity
 _atom_site_fract_x
 _atom_site_fract_y
 _atom_site_fract_z
 _atom_site_occupancy
  C  C0  1  0.36703655  0.36659196  0.25183693  1
  C  C1  1  0.68659952  0.01753330  0.91968203  1
  C  C2  1  0.97451320  0.30552824  0.41549514  1
  C  C3  1  0.00732176  0.99430099  0.49421758  1
  C  C4  1  0.00686304  0.98823322  0.00607800  1
  C  C5  1  0.65726791  0.33712410  0.83753853  1
  C  C6  1  0.66619007  0.33369391  0.33294925  1
  C  C7  1  0.33461210  0.69155196  0.17197822  1
  C  C8  1  0.33289879  0.66806054  0.66697426  1
  C  C9  1  0.00206245  0.99393269  0.85397764  1
  C  C10  1  0.99201101  0.00888561  0.64376137  1
  C  C11  1  0.67212637  0.32654227  0.68459611  1
  C  C12  1  0.33763040  0.67028904  0.02543665  1
  C  C13  1  0.32397082  0.66377127  0.51179182  1
  C  C14  1  0.34681378  0.67595306  0.82077057  1
  Ni  Ni15  1  0.01967238  0.00594104  0.34465688  1
  Ni  Ni16  1  0.99731332  0.00746551  0.15404738  1
  Ni  Ni17  1  0.66979211  0.31076552  0.18672011  1
  Ni  Ni18  1  0.66114023  0.32804969  0.98936784  1
  Ni  Ni19  1  0.66826575  0.34809568  0.47713570  1
  Ni  Ni20  1  0.30662939  0.65929504  0.31672897  1
  Cu  Cu21  1  0.28947770  0.99677175  0.24795687  1
  Cu  Cu22  1  0.99941893  0.28965176  0.25154103  1
  Cu  Cu23  1  0.69482726  0.99473925  0.75239958  1
  Cu  Cu24  1  0.95213470  0.33411563  0.57441356  1
  Cu  Cu25  1  0.68602738  0.05429467  0.08740065  1
  Cu  Cu26  1  0.63328570  0.65006744  0.92357793  1
  Cu  Cu27  1  0.34801108  0.98272571  0.92269061  1
  Cu  Cu28  1  0.33510274  0.36716710  0.41043121  1
  Cu  Cu29  1  0.02656795  0.67110499  0.41104248  1
  C  C30  1  0.71100880  0.71217160  0.24913580  1
  C  C31  1  0.30098039  0.30424016  0.74940906  1
  C  C32  1  0.00259608  0.70052429  0.74917808  1
  C  C33  1  0.37658202  0.04578395  0.57691801  1
  C  C34  1  0.66824327  0.62475261  0.57798784  1
  C  C35  1  0.93981198  0.61905729  0.08896077  1
  C  C36  1  0.37605481  0.31671021  0.08969676  1
  C  C37  1  0.02462359  0.36973176  0.92044531  1
  C  C38  1  0.63199670  0.96394825  0.41125413  1
  C  C39  1  0.21755299  0.04463403  0.30103993  1
  C  C40  1  0.82039583  0.79400001  0.30111611  1
  C  C41  1  0.96984486  0.17719911  0.30736446  1
  C  C42  1  0.21632762  0.20071547  0.80174046  1
  C  C43  1  0.99634358  0.78948250  0.80151962  1
  C  C44  1  0.78803217  0.00092608  0.81018401  1
  C  C45  1  0.79670171  0.99106529  0.69974850  1
  C  C46  1  0.20311013  0.21530962  0.69633237  1
  C  C47  1  0.01615158  0.80175150  0.69609113  1
  C  C48  1  0.78889045  0.81791286  0.19559240  1
  C  C49  1  0.04153734  0.20953476  0.19949503  1
  C  C50  1  0.17010128  0.96345276  0.19403218  1
  C  C51  1  0.86700185  0.34368980  0.62997733  1
  C  C52  1  0.46597312  0.12273628  0.63216693  1
  C  C53  1  0.65164016  0.53044598  0.63271926  1
  C  C54  1  0.85487253  0.51271131  0.14133632  1
  C  C55  1  0.65526836  0.14028113  0.13920243  1
  C  C56  1  0.48492072  0.34417157  0.14282275  1
  C  C57  1  0.45710699  0.29948558  0.03646533  1
  C  C58  1  0.83944252  0.53881068  0.03458263  1
  C  C59  1  0.70725161  0.15828029  0.02945370  1
  C  C60  1  0.46842152  0.15471215  0.52576592  1
  C  C61  1  0.67610889  0.53207814  0.52653796  1
  C  C62  1  0.84591714  0.32506299  0.51832195  1
  C  C63  1  0.53924008  0.68318713  0.97235994  1
  C  C64  1  0.13429004  0.45211059  0.97138887  1
  C  C65  1  0.31707279  0.86144001  0.97447607  1
  C  C66  1  0.56174999  0.86529350  0.46565819  1
  C  C67  1  0.29282158  0.44370861  0.46258365  1
  C  C68  1  0.13561829  0.71054680  0.46658273  1
  C  C69  1  0.11304013  0.62373516  0.36141239  1
  C  C70  1  0.51525168  0.87520542  0.36098392  1
  C  C71  1  0.36638397  0.48638844  0.35552573  1
  C  C72  1  0.10319944  0.46847764  0.86655760  1
  C  C73  1  0.37710026  0.90252027  0.86774140  1
  C  C74  1  0.53005680  0.62033768  0.86613330  1
  C  C75  1  0.00331668  0.82964745  0.39837143  1
  C  C76  1  0.80993101  0.98809243  0.40531773  1
  C  C77  1  0.16900289  0.18419163  0.40281650  1
  C  C78  1  0.99936665  0.19038705  0.91716891  1
  C  C79  1  0.19468682  0.01449686  0.91741650  1
  C  C80  1  0.81221874  0.81983974  0.91893983  1
  C  C81  1  0.96801061  0.16810849  0.57470479  1
  C  C82  1  0.20000013  0.02442672  0.57770539  1
  C  C83  1  0.83054178  0.79593576  0.57862267  1
  C  C84  1  0.95888183  0.79539704  0.09215774  1
  C  C85  1  0.85503173  0.04133225  0.09481856  1
  C  C86  1  0.20192918  0.15658785  0.09384069  1
  C  C87  1  0.67546772  0.15771410  0.75166632  1
  C  C88  1  0.47762400  0.32823302  0.74827687  1
  C  C89  1  0.84129005  0.52970440  0.74906770  1
  C  C90  1  0.68716297  0.53192939  0.24485192  1
  C  C91  1  0.83778711  0.31265287  0.24344102  1
  C  C92  1  0.47386270  0.16456323  0.23999563  1
  C  C93  1  0.65601175  0.49081967  0.93413906  1
  C  C94  1  0.85053665  0.35253662  0.92531081  1
  C  C95  1  0.52086020  0.15805980  0.93017097  1
  C  C96  1  0.65240023  0.14274426  0.41560580  1
  C  C97  1  0.49831692  0.34777804  0.42121752  1
  C  C98  1  0.84676082  0.50004033  0.41869319  1
  C  C99  1  0.35320155  0.47113317  0.08560479  1
  C  C100  1  0.11488140  0.63514379  0.08595904  1
  C  C101  1  0.52569421  0.87011285  0.08416682  1
  C  C102  1  0.36420181  0.87331895  0.57510717  1
  C  C103  1  0.51669158  0.65058894  0.57456612  1
  C  C104  1  0.13519192  0.49520726  0.57476497  1
  C  C105  1  0.30967415  0.83327648  0.25868556  1
  C  C106  1  0.53301941  0.69009902  0.25387207  1
  C  C107  1  0.16831840  0.47339566  0.25878962  1
  C  C108  1  0.30903009  0.47420780  0.75085427  1
  C  C109  1  0.15469823  0.67587798  0.75184556  1
  C  C110  1  0.51414209  0.83048890  0.74960726  1
