# generated using pymatgen
data_Cu(Ni4C5)3
_symmetry_space_group_name_H-M   'P 1'
_cell_length_a   7.13287682
_cell_length_b   7.13287682
_cell_length_c   7.13287673
_cell_angle_alpha   93.11222868
_cell_angle_beta   93.11222868
_cell_angle_gamma   93.11222260
_symmetry_Int_Tables_number   1
_chemical_formula_structural   Cu(Ni4C5)3
_chemical_formula_sum   'Cu1 Ni12 C15'
_cell_volume   361.23955507
_cell_formula_units_Z   1
loop_
 _symmetry_equiv_pos_site_id
 _symmetry_equiv_pos_as_xyz
  1  'x, y, z'
loop_
 _atom_site_type_symbol
 _atom_site_label
 _atom_site_symmetry_multiplicity
 _atom_site_fract_x
 _atom_site_fract_y
 _atom_site_fract_z
 _atom_site_occupancy
  C  C0  1  0.00000000  0.50000000  0.50000000  1
  C  C1  1  0.50000000  0.00000000  0.50000000  1
  C  C2  1  0.50000000  0.50000000  0.00000000  1
  C  C3  1  0.11997300  0.84199900  0.11997300  1
  C  C4  1  0.88002700  0.15800100  0.88002700  1
  C  C5  1  0.15800100  0.88002700  0.88002700  1
  C  C6  1  0.88002700  0.88002700  0.15800100  1
  C  C7  1  0.05811200  0.05811200  0.22951600  1
  C  C8  1  0.22951600  0.05811200  0.05811200  1
  C  C9  1  0.05811200  0.22951600  0.05811200  1
  C  C10  1  0.94188800  0.77048400  0.94188800  1
  C  C11  1  0.94188800  0.94188800  0.77048400  1
  C  C12  1  0.77048400  0.94188800  0.94188800  1
  C  C13  1  0.11997300  0.11997300  0.84199900  1
  C  C14  1  0.84199900  0.11997300  0.11997300  1
  Ni  Ni15  1  0.79369000  0.79369000  0.26939600  1
  Ni  Ni16  1  0.26939600  0.79369000  0.79369000  1
  Ni  Ni17  1  0.79369000  0.26939600  0.79369000  1
  Ni  Ni18  1  0.20631000  0.73060400  0.20631000  1
  Ni  Ni19  1  0.90051000  0.90051000  0.60735300  1
  Ni  Ni20  1  0.60735300  0.90051000  0.90051000  1
  Ni  Ni21  1  0.90051000  0.60735300  0.90051000  1
  Ni  Ni22  1  0.09949000  0.39264700  0.09949000  1
  Ni  Ni23  1  0.09949000  0.09949000  0.39264700  1
  Ni  Ni24  1  0.39264700  0.09949000  0.09949000  1
  Ni  Ni25  1  0.20631000  0.20631000  0.73060400  1
  Ni  Ni26  1  0.73060400  0.20631000  0.20631000  1
  Cu  Cu27  1  0.50000000  0.50000000  0.50000000  1
