# generated using pymatgen
data_Cu4Ni2C3
_symmetry_space_group_name_H-M   'P 1'
_cell_length_a   3.24141700
_cell_length_b   3.24141635
_cell_length_c   16.99444900
_cell_angle_alpha   90.00000000
_cell_angle_beta   90.00000000
_cell_angle_gamma   119.99999647
_symmetry_Int_Tables_number   1
_chemical_formula_structural   Cu4Ni2C3
_chemical_formula_sum   'Cu4 Ni2 C3'
_cell_volume   154.63487900
_cell_formula_units_Z   1
loop_
 _symmetry_equiv_pos_site_id
 _symmetry_equiv_pos_as_xyz
  1  'x, y, z'
loop_
 _atom_site_type_symbol
 _atom_site_label
 _atom_site_symmetry_multiplicity
 _atom_site_fract_x
 _atom_site_fract_y
 _atom_site_fract_z
 _atom_site_occupancy
  C  C0  1  0.33333300  0.66666700  0.57643400  1
  C  C1  1  0.33333300  0.66666700  0.23091700  1
  C  C2  1  0.66666700  0.33333300  0.78576700  1
  Ni  Ni3  1  0.00000000  0.00000000  0.00877600  1
  Ni  Ni4  1  0.00000000  0.00000000  0.46351900  1
  Cu  Cu5  1  0.00000000  0.00000000  0.31521800  1
  Cu  Cu6  1  0.00000000  0.00000000  0.86969100  1
  Cu  Cu7  1  0.00000000  0.00000000  0.14740300  1
  Cu  Cu8  1  0.00000000  0.00000000  0.69810800  1
