# generated using pymatgen
data_Cu4Ni2C9
_symmetry_space_group_name_H-M   'P 1'
_cell_length_a   7.26808975
_cell_length_b   7.25917237
_cell_length_c   7.26050397
_cell_angle_alpha   60.06388844
_cell_angle_beta   59.96628575
_cell_angle_gamma   59.96001031
_symmetry_Int_Tables_number   1
_chemical_formula_structural   Cu4Ni2C9
_chemical_formula_sum   'Cu4 Ni2 C9'
_cell_volume   270.84825579
_cell_formula_units_Z   1
loop_
 _symmetry_equiv_pos_site_id
 _symmetry_equiv_pos_as_xyz
  1  'x, y, z'
loop_
 _atom_site_type_symbol
 _atom_site_label
 _atom_site_symmetry_multiplicity
 _atom_site_fract_x
 _atom_site_fract_y
 _atom_site_fract_z
 _atom_site_occupancy
  C  C0  1  0.37356200  0.37638100  0.37646000  1
  Ni  Ni1  1  0.87496900  0.87497600  0.87498900  1
  Ni  Ni2  1  0.12366600  0.12636500  0.12629100  1
  Cu  Cu3  1  0.51386100  0.51319000  0.51322300  1
  Cu  Cu4  1  0.51276700  0.51327300  0.96120200  1
  Cu  Cu5  1  0.95968100  0.51321400  0.51323200  1
  Cu  Cu6  1  0.51275100  0.96124400  0.51328100  1
  C  C7  1  0.72909500  0.72996700  0.72991600  1
  C  C8  1  0.25217000  0.25025700  0.74556000  1
  C  C9  1  0.25215400  0.74557100  0.25028300  1
  C  C10  1  0.74318700  0.25216200  0.25219800  1
  C  C11  1  0.72949400  0.31081500  0.73011500  1
  C  C12  1  0.31100500  0.72995100  0.72988900  1
  C  C13  1  0.25255200  0.25211600  0.25213400  1
  C  C14  1  0.72945800  0.73014100  0.31085800  1
