# generated using pymatgen
data_CuNi2C17
_symmetry_space_group_name_H-M   'P 1'
_cell_length_a   15.90440851
_cell_length_b   9.16365736
_cell_length_c   9.15142695
_cell_angle_alpha   89.98448477
_cell_angle_beta   124.87576468
_cell_angle_gamma   90.00580608
_symmetry_Int_Tables_number   1
_chemical_formula_structural   CuNi2C17
_chemical_formula_sum   'Cu4 Ni8 C68'
_cell_volume   1094.20209282
_cell_formula_units_Z   4
loop_
 _symmetry_equiv_pos_site_id
 _symmetry_equiv_pos_as_xyz
  1  'x, y, z'
loop_
 _atom_site_type_symbol
 _atom_site_label
 _atom_site_symmetry_multiplicity
 _atom_site_fract_x
 _atom_site_fract_y
 _atom_site_fract_z
 _atom_site_occupancy
  C  C0  1  0.24176923  0.77816757  0.99520681  1
  C  C1  1  0.74123506  0.72322610  0.49418089  1
  C  C2  1  0.74089109  0.27730325  0.99398528  1
  C  C3  1  0.24191237  0.22266907  0.49516432  1
  C  C4  1  0.50273847  0.11124479  0.75098011  1
  C  C5  1  0.50319072  0.88671542  0.25315666  1
  C  C6  1  0.00279488  0.61172967  0.75104398  1
  C  C7  1  0.00376498  0.39051100  0.25345917  1
  C  C8  1  0.80661340  0.93749690  0.21176485  1
  C  C9  1  0.80708372  0.06218523  0.71220152  1
  C  C10  1  0.30850828  0.43736182  0.21521930  1
  C  C11  1  0.30707146  0.56339186  0.71070386  1
  C  C12  1  0.10552246  0.75067804  0.56023356  1
  C  C13  1  0.60585170  0.25017989  0.56065159  1
  C  C14  1  0.39582329  0.75524791  0.43704566  1
  C  C15  1  0.60535033  0.74975944  0.06022799  1
  C  C16  1  0.89520847  0.74423059  0.93633255  1
  C  C17  1  0.89473285  0.25592349  0.43587051  1
  C  C18  1  0.10586499  0.24951817  0.06041104  1
  C  C19  1  0.39486367  0.24339322  0.93590538  1
  Ni  Ni20  1  0.35514388  0.89357302  0.75824111  1
  Ni  Ni21  1  0.64755141  0.89726354  0.74381843  1
  Ni  Ni22  1  0.64793781  0.10251581  0.24397523  1
  Ni  Ni23  1  0.35600983  0.10374476  0.26120239  1
  Ni  Ni24  1  0.85424164  0.39439131  0.76031068  1
  Ni  Ni25  1  0.14862949  0.39801764  0.74262904  1
  Ni  Ni26  1  0.14909253  0.60461051  0.24432491  1
  Ni  Ni27  1  0.85476502  0.60605869  0.26046571  1
  Cu  Cu28  1  0.00103600  0.95780946  0.74377665  1
  Cu  Cu29  1  0.00106953  0.04047789  0.24602856  1
  Cu  Cu30  1  0.50204997  0.46081445  0.74551774  1
  Cu  Cu31  1  0.50161739  0.54044247  0.24664060  1
  C  C32  1  0.15335906  0.57844708  0.74360702  1
  C  C33  1  0.84957298  0.57322577  0.75205520  1
  C  C34  1  0.84946795  0.42706910  0.25235968  1
  C  C35  1  0.15435249  0.42392637  0.24654495  1
  C  C36  1  0.65226698  0.07798387  0.74343793  1
  C  C37  1  0.35076100  0.07286771  0.75210571  1
  C  C38  1  0.35138099  0.92471642  0.25683737  1
  C  C39  1  0.65186976  0.92185813  0.24343699  1
  C  C40  1  0.43869909  0.55281807  0.57343477  1
  C  C41  1  0.56049827  0.56258570  0.90820832  1
  C  C42  1  0.56020795  0.43730009  0.40803073  1
  C  C43  1  0.43602165  0.45004475  0.07379723  1
  C  C44  1  0.93885793  0.04932161  0.57225069  1
  C  C45  1  0.05891169  0.05951184  0.90743912  1
  C  C46  1  0.05737995  0.93702414  0.40754067  1
  C  C47  1  0.93961697  0.95088091  0.07265522  1
  C  C48  1  0.25638232  0.82034450  0.74140828  1
  C  C49  1  0.74829670  0.83915989  0.75380355  1
  C  C50  1  0.74822093  0.16093750  0.25307814  1
  C  C51  1  0.25845585  0.17949361  0.24627546  1
  C  C52  1  0.75641197  0.31922557  0.74402829  1
  C  C53  1  0.24844868  0.33849067  0.75106733  1
  C  C54  1  0.25042517  0.66301194  0.25621787  1
  C  C55  1  0.75648094  0.68090496  0.24341388  1
  C  C56  1  0.36085636  0.83948827  0.59282009  1
  C  C57  1  0.64840846  0.85535403  0.92018294  1
  C  C58  1  0.64865379  0.14543072  0.41977028  1
  C  C59  1  0.35957167  0.15577580  0.09273204  1
  C  C60  1  0.86008047  0.33876351  0.59555341  1
  C  C61  1  0.15052915  0.35505087  0.91977962  1
  C  C62  1  0.14800726  0.64739364  0.41833291  1
  C  C63  1  0.85996415  0.66028187  0.09436442  1
  C  C64  1  0.46102312  0.83522699  0.94051029  1
  C  C65  1  0.54186875  0.83504845  0.56518820  1
  C  C66  1  0.54283914  0.16471220  0.06428887  1
  C  C67  1  0.46213156  0.16345051  0.44095022  1
  C  C68  1  0.96055493  0.33795420  0.94353309  1
  C  C69  1  0.04264216  0.33693676  0.56447156  1
  C  C70  1  0.04365157  0.66427644  0.06337401  1
  C  C71  1  0.96153939  0.66285276  0.44203676  1
  C  C72  1  0.07903862  0.85617267  0.74468886  1
  C  C73  1  0.92280640  0.86202538  0.75111940  1
  C  C74  1  0.92268250  0.13639718  0.25245659  1
  C  C75  1  0.08011705  0.14291507  0.25012333  1
  C  C76  1  0.57869853  0.35866494  0.74303588  1
  C  C77  1  0.42449085  0.36472667  0.75462483  1
  C  C78  1  0.42545927  0.63760532  0.25925956  1
  C  C79  1  0.57810164  0.64169262  0.24309235  1
