# generated using pymatgen
data_CuNiC18
_symmetry_space_group_name_H-M   'P 1'
_cell_length_a   9.37712940
_cell_length_b   9.39366835
_cell_length_c   23.10846161
_cell_angle_alpha   89.99999948
_cell_angle_beta   90.25725629
_cell_angle_gamma   120.05836081
_symmetry_Int_Tables_number   1
_chemical_formula_structural   CuNiC18
_chemical_formula_sum   'Cu6 Ni6 C108'
_cell_volume   1761.75394641
_cell_formula_units_Z   6
loop_
 _symmetry_equiv_pos_site_id
 _symmetry_equiv_pos_as_xyz
  1  'x, y, z'
loop_
 _atom_site_type_symbol
 _atom_site_label
 _atom_site_symmetry_multiplicity
 _atom_site_fract_x
 _atom_site_fract_y
 _atom_site_fract_z
 _atom_site_occupancy
  C  C0  1  0.99034818  0.97895022  0.49798073  1
  C  C1  1  0.99034818  0.01139797  0.99798073  1
  C  C2  1  0.66637061  0.33491731  0.83132548  1
  C  C3  1  0.66637061  0.33145229  0.33132548  1
  C  C4  1  0.33095589  0.66480148  0.16469339  1
  C  C5  1  0.33095589  0.66615542  0.66469339  1
  C  C6  1  0.37119610  0.36713461  0.24922258  1
  C  C7  1  0.99283734  0.62986733  0.24867321  1
  C  C8  1  0.99283734  0.36297001  0.74867321  1
  C  C9  1  0.37119610  0.00406149  0.74922258  1
  C  C10  1  0.30196868  0.33991868  0.58222989  1
  C  C11  1  0.66328412  0.96368394  0.58189195  1
  C  C12  1  0.30196868  0.96204900  0.08222989  1
  C  C13  1  0.66328412  0.69959918  0.08189195  1
  C  C14  1  0.96958375  0.67473976  0.91524903  1
  C  C15  1  0.32937366  0.29540723  0.91575033  1
  C  C16  1  0.96958375  0.29484499  0.41524903  1
  C  C17  1  0.32937366  0.03396643  0.41575033  1
  Ni  Ni18  1  0.99702394  0.99792520  0.35424778  1
  Ni  Ni19  1  0.99702394  0.99909874  0.85424778  1
  Ni  Ni20  1  0.66659383  0.33694246  0.68763283  1
  Ni  Ni21  1  0.66659383  0.32964938  0.18763283  1
  Ni  Ni22  1  0.33037414  0.66221273  0.02103096  1
  Ni  Ni23  1  0.33037414  0.66816341  0.52103096  1
  Cu  Cu24  1  0.99934887  0.99845173  0.64517488  1
  Cu  Cu25  1  0.99934887  0.00089715  0.14517488  1
  Cu  Cu26  1  0.66681143  0.33009806  0.97844069  1
  Cu  Cu27  1  0.66681143  0.33671237  0.47844069  1
  Cu  Cu28  1  0.33536693  0.66847741  0.31177806  1
  Cu  Cu29  1  0.33536693  0.66688952  0.81177806  1
  C  C30  1  0.29129144  0.99813033  0.25079396  1
  C  C31  1  0.70662688  0.71274346  0.24879810  1
  C  C32  1  0.99870981  0.29021710  0.25152165  1
  C  C33  1  0.29129144  0.29316111  0.75079396  1
  C  C34  1  0.99870981  0.70849272  0.75152165  1
  C  C35  1  0.70662688  0.99388342  0.74879810  1
  C  C36  1  0.95781454  0.33485937  0.58418843  1
  C  C37  1  0.37319372  0.04182041  0.58398194  1
  C  C38  1  0.67264521  0.62685698  0.58309885  1
  C  C39  1  0.95781454  0.62295416  0.08418843  1
  C  C40  1  0.67264521  0.04578623  0.08309885  1
  C  C41  1  0.37319372  0.33137131  0.08398194  1
  C  C42  1  0.62480937  0.66876649  0.91876649  1
  C  C43  1  0.03866999  0.37476750  0.91531895  1
  C  C44  1  0.33962505  0.95941766  0.91693927  1
  C  C45  1  0.62480937  0.95604388  0.41876649  1
  C  C46  1  0.33962505  0.38020939  0.41693927  1
  C  C47  1  0.03866999  0.66390349  0.41531895  1
  C  C48  1  0.20273588  0.03257850  0.31172345  1
  C  C49  1  0.84025764  0.80615166  0.30673657  1
  C  C50  1  0.97700476  0.17995955  0.31439563  1
  C  C51  1  0.20273588  0.17015838  0.81172345  1
  C  C52  1  0.97700476  0.79704521  0.81439563  1
  C  C53  1  0.84025764  0.03410598  0.80673657  1
  C  C54  1  0.80336510  0.97030755  0.68607016  1
  C  C55  1  0.15859312  0.19576562  0.68943141  1
  C  C56  1  0.03107040  0.84630653  0.69263812  1
  C  C57  1  0.80336510  0.83305854  0.18607016  1
  C  C58  1  0.03107040  0.18476487  0.19263812  1
  C  C59  1  0.15859312  0.96282851  0.18943141  1
  C  C60  1  0.86637671  0.35621135  0.64628968  1
  C  C61  1  0.49569410  0.13092357  0.64527016  1
  C  C62  1  0.63136454  0.49518585  0.64137066  1
  C  C63  1  0.86637671  0.51016435  0.14628968  1
  C  C64  1  0.63136454  0.13617769  0.14137066  1
  C  C65  1  0.49569410  0.36476953  0.14527016  1
  C  C66  1  0.47261573  0.29906206  0.02298248  1
  C  C67  1  0.82633570  0.52679726  0.02285752  1
  C  C68  1  0.69673142  0.17354084  0.02227953  1
  C  C69  1  0.47261573  0.17355167  0.52298248  1
  C  C70  1  0.69673142  0.52318958  0.52227953  1
  C  C71  1  0.82633570  0.29953744  0.52285752  1
  C  C72  1  0.53757229  0.69296760  0.98140450  1
  C  C73  1  0.17073857  0.47227153  0.97364043  1
  C  C74  1  0.30327188  0.83703320  0.97790056  1
  C  C75  1  0.53757229  0.84460568  0.48140450  1
  C  C76  1  0.30327188  0.46624068  0.47790056  1
  C  C77  1  0.17073857  0.69846804  0.47364043  1
  C  C78  1  0.13379563  0.62915602  0.35358121  1
  C  C79  1  0.48633203  0.85237118  0.35942289  1
  C  C80  1  0.36089279  0.50234363  0.35494892  1
  C  C81  1  0.13379563  0.50464160  0.85358121  1
  C  C82  1  0.36089279  0.85855016  0.85494892  1
  C  C83  1  0.48633203  0.63396185  0.85942289  1
  C  C84  1  0.02876592  0.84400020  0.41218614  1
  C  C85  1  0.82644777  0.99484089  0.41342838  1
  C  C86  1  0.16604752  0.18165758  0.41299234  1
  C  C87  1  0.02876592  0.18476572  0.91218614  1
  C  C88  1  0.16604752  0.98438994  0.91299234  1
  C  C89  1  0.82644777  0.83160688  0.91342838  1
  C  C90  1  0.96885539  0.15011636  0.58755038  1
  C  C91  1  0.18354308  0.03913851  0.58878127  1
  C  C92  1  0.84777873  0.82463679  0.58788187  1
  C  C93  1  0.96885539  0.81874004  0.08755038  1
  C  C94  1  0.84777873  0.02314194  0.08788187  1
  C  C95  1  0.18354308  0.14440457  0.08878127  1
  C  C96  1  0.68174021  0.16712543  0.74590105  1
  C  C97  1  0.48140080  0.30306634  0.74595707  1
  C  C98  1  0.83627347  0.50644816  0.74688728  1
  C  C99  1  0.68174021  0.51461377  0.24590105  1
  C  C100  1  0.83627347  0.32982431  0.24688728  1
  C  C101  1  0.48140080  0.17833247  0.24595707  1
  C  C102  1  0.63347389  0.48319585  0.92158999  1
  C  C103  1  0.85039815  0.37393860  0.92147119  1
  C  C104  1  0.51287523  0.16002300  0.92086737  1
  C  C105  1  0.63347389  0.15027704  0.42158999  1
  C  C106  1  0.51287523  0.35285124  0.42086737  1
  C  C107  1  0.85039815  0.47645856  0.42147119  1
  C  C108  1  0.36126594  0.51034278  0.07988374  1
  C  C109  1  0.16057973  0.66324261  0.08004683  1
  C  C110  1  0.49828447  0.84899596  0.07886324  1
  C  C111  1  0.36126594  0.85092317  0.57988374  1
  C  C112  1  0.49828447  0.64928951  0.57886324  1
  C  C113  1  0.16057973  0.49733812  0.58004683  1
  C  C114  1  0.29474940  0.81183163  0.25531024  1
  C  C115  1  0.50805954  0.68885536  0.25516587  1
  C  C116  1  0.18458895  0.48474941  0.25356243  1
  C  C117  1  0.29474940  0.48291877  0.75531024  1
  C  C118  1  0.18458895  0.69984054  0.75356243  1
  C  C119  1  0.50805954  0.81920517  0.75516587  1
