# generated using pymatgen
data_Cu4NiC10
_symmetry_space_group_name_H-M   'P 1'
_cell_length_a   5.98122659
_cell_length_b   5.98197502
_cell_length_c   6.33562166
_cell_angle_alpha   61.97045063
_cell_angle_beta   62.09501753
_cell_angle_gamma   59.61812788
_symmetry_Int_Tables_number   1
_chemical_formula_structural   Cu4NiC10
_chemical_formula_sum   'Cu4 Ni1 C10'
_cell_volume   164.53185290
_cell_formula_units_Z   1
loop_
 _symmetry_equiv_pos_site_id
 _symmetry_equiv_pos_as_xyz
  1  'x, y, z'
loop_
 _atom_site_type_symbol
 _atom_site_label
 _atom_site_symmetry_multiplicity
 _atom_site_fract_x
 _atom_site_fract_y
 _atom_site_fract_z
 _atom_site_occupancy
  Ni  Ni0  1  0.12504500  0.12488000  0.62503600  1
  C  C1  1  0.12507200  0.62500800  0.62480100  1
  C  C2  1  0.62504600  0.12492700  0.62516600  1
  Cu  Cu3  1  0.97881500  0.97872300  0.08694200  1
  Cu  Cu4  1  0.27132800  0.27195200  0.16322000  1
  Cu  Cu5  1  0.62510800  0.62489700  0.12477500  1
  Cu  Cu6  1  0.62490500  0.62495500  0.62496700  1
  C  C7  1  0.36342800  0.36397800  0.41095100  1
  C  C8  1  0.35304700  0.85627200  0.40244400  1
  C  C9  1  0.39203100  0.39122000  0.81327800  1
  C  C10  1  0.85555600  0.35404800  0.40177300  1
  C  C11  1  0.39437700  0.89585000  0.84832300  1
  C  C12  1  0.89690500  0.39367900  0.84743000  1
  C  C13  1  0.85770100  0.85870200  0.43684700  1
  C  C14  1  0.88663500  0.88590800  0.83904900  1
