# generated using pymatgen
data_Cu9Ni3C58
_symmetry_space_group_name_H-M   'P 1'
_cell_length_a   17.03768005
_cell_length_b   8.51948217
_cell_length_c   22.09138745
_cell_angle_alpha   89.87098057
_cell_angle_beta   90.19022348
_cell_angle_gamma   120.04140810
_symmetry_Int_Tables_number   1
_chemical_formula_structural   Cu9Ni3C58
_chemical_formula_sum   'Cu27 Ni9 C174'
_cell_volume   2775.83357063
_cell_formula_units_Z   3
loop_
 _symmetry_equiv_pos_site_id
 _symmetry_equiv_pos_as_xyz
  1  'x, y, z'
loop_
 _atom_site_type_symbol
 _atom_site_label
 _atom_site_symmetry_multiplicity
 _atom_site_fract_x
 _atom_site_fract_y
 _atom_site_fract_z
 _atom_site_occupancy
  C  C0  1  0.99486956  0.00624055  0.50065662  1
  C  C1  1  0.49567621  0.98695728  0.00320297  1
  C  C2  1  0.32907614  0.32470394  0.83917282  1
  C  C3  1  0.82767955  0.32966441  0.83205703  1
  C  C4  1  0.33078448  0.32619721  0.33114870  1
  C  C5  1  0.82315697  0.32368476  0.33619742  1
  C  C6  1  0.51452740  0.01723011  0.35781407  1
  C  C7  1  0.00477999  0.99826676  0.86152536  1
  C  C8  1  0.50822065  0.02610552  0.64358547  1
  C  C9  1  0.00783514  0.98877820  0.14363956  1
  C  C10  1  0.34031719  0.33959455  0.68673297  1
  C  C11  1  0.83417746  0.33577769  0.68762311  1
  C  C12  1  0.33604129  0.33591757  0.18941981  1
  C  C13  1  0.83664600  0.33356481  0.19205415  1
  C  C14  1  0.16186387  0.67914384  0.02640489  1
  C  C15  1  0.66015332  0.66349504  0.02729577  1
  C  C16  1  0.16107975  0.65956511  0.52477004  1
  C  C17  1  0.66253441  0.64945149  0.52307108  1
  C  C18  1  0.00310364  0.00256597  0.35109725  1
  C  C19  1  0.50303939  0.00432539  0.85190172  1
  C  C20  1  0.99836296  0.00699601  0.64712877  1
  C  C21  1  0.49952960  0.98037334  0.14803109  1
  C  C22  1  0.33197588  0.33455993  0.97994663  1
  C  C23  1  0.83152194  0.33613495  0.98081078  1
  C  C24  1  0.33211557  0.32476765  0.47797798  1
  C  C25  1  0.83364534  0.32680767  0.47708245  1
  C  C26  1  0.16813292  0.67468247  0.30965931  1
  C  C27  1  0.66908640  0.66218211  0.31024360  1
  C  C28  1  0.17013795  0.67918174  0.81420637  1
  C  C29  1  0.66617460  0.66048427  0.81014780  1
  Ni  Ni30  1  0.14522001  0.99755110  0.25558610  1
  Ni  Ni31  1  0.64267983  0.98477668  0.24881794  1
  Ni  Ni32  1  0.64558209  0.29380147  0.75549413  1
  Ni  Ni33  1  0.47366973  0.33204019  0.57830307  1
  Ni  Ni34  1  0.96936916  0.31647608  0.58141187  1
  Ni  Ni35  1  0.46717755  0.62224356  0.08032000  1
  Ni  Ni36  1  0.96979036  0.60966166  0.08056839  1
  Ni  Ni37  1  0.17813004  0.96389988  0.91562498  1
  Ni  Ni38  1  0.67703856  0.39141794  0.41434047  1
  Cu  Cu39  1  0.35491507  0.71705240  0.25163401  1
  Cu  Cu40  1  0.85637491  0.71923044  0.25203384  1
  Cu  Cu41  1  0.00386632  0.28872012  0.25444595  1
  Cu  Cu42  1  0.50323378  0.28451959  0.24869215  1
  Cu  Cu43  1  0.14169329  0.29402312  0.75146964  1
  Cu  Cu44  1  0.00549726  0.72189418  0.74956792  1
  Cu  Cu45  1  0.50093404  0.71555741  0.75410705  1
  Cu  Cu46  1  0.35318902  0.98958950  0.75196573  1
  Cu  Cu47  1  0.85597486  0.99399245  0.75158070  1
  Cu  Cu48  1  0.18808598  0.05028769  0.58276068  1
  Cu  Cu49  1  0.69217151  0.04955272  0.58072046  1
  Cu  Cu50  1  0.33425784  0.61588871  0.58063750  1
  Cu  Cu51  1  0.83877331  0.62771075  0.58320629  1
  Cu  Cu52  1  0.33904346  0.05191036  0.08353687  1
  Cu  Cu53  1  0.83428005  0.05307305  0.08093463  1
  Cu  Cu54  1  0.19208878  0.33511831  0.08071296  1
  Cu  Cu55  1  0.68825508  0.32660850  0.08145260  1
  Cu  Cu56  1  0.31447521  0.67285154  0.91262584  1
  Cu  Cu57  1  0.80609732  0.65691406  0.91569084  1
  Cu  Cu58  1  0.02017763  0.38351872  0.91480638  1
  Cu  Cu59  1  0.52361270  0.37745077  0.91509478  1
  Cu  Cu60  1  0.66701693  0.95506570  0.91551019  1
  Cu  Cu61  1  0.30660624  0.95408109  0.41590086  1
  Cu  Cu62  1  0.81616878  0.95795305  0.41419270  1
  Cu  Cu63  1  0.16730905  0.37854352  0.41597705  1
  Cu  Cu64  1  0.02309543  0.66847807  0.41485091  1
  Cu  Cu65  1  0.51755236  0.65480194  0.41625625  1
  C  C66  1  0.09958358  0.04251008  0.31122219  1
  C  C67  1  0.60170930  0.03633488  0.31009881  1
  C  C68  1  0.41205190  0.79845504  0.30523644  1
  C  C69  1  0.91280912  0.80184099  0.30661387  1
  C  C70  1  0.48374846  0.16927704  0.30345180  1
  C  C71  1  0.98189974  0.16822793  0.30783005  1
  C  C72  1  0.10141368  0.17774967  0.80570748  1
  C  C73  1  0.59840551  0.15497037  0.81054961  1
  C  C74  1  0.47944854  0.79194333  0.80731593  1
  C  C75  1  0.98996015  0.80534363  0.80391621  1
  C  C76  1  0.41033866  0.02486521  0.80624273  1
  C  C77  1  0.91359601  0.02619006  0.80526766  1
  C  C78  1  0.39504539  0.96640752  0.69698877  1
  C  C79  1  0.89616814  0.96162182  0.69698221  1
  C  C80  1  0.08604889  0.20750527  0.69700816  1
  C  C81  1  0.58434723  0.19590225  0.69275579  1
  C  C82  1  0.01709552  0.83302013  0.69526729  1
  C  C83  1  0.51191491  0.81569829  0.69817381  1
  C  C84  1  0.39202770  0.82648931  0.19628103  1
  C  C85  1  0.89815525  0.82887102  0.19699654  1
  C  C86  1  0.01460062  0.21007626  0.19848384  1
  C  C87  1  0.51031441  0.19573104  0.19371967  1
  C  C88  1  0.08412272  0.97201128  0.19286408  1
  C  C89  1  0.58111977  0.96351944  0.19120044  1
  C  C90  1  0.42823230  0.36150448  0.64164766  1
  C  C91  1  0.92877768  0.36211411  0.64200045  1
  C  C92  1  0.24507918  0.13377691  0.63759570  1
  C  C93  1  0.74587198  0.13338178  0.63691187  1
  C  C94  1  0.31477282  0.49868400  0.63655995  1
  C  C95  1  0.81784522  0.51210080  0.63842861  1
  C  C96  1  0.42727841  0.49693580  0.14087627  1
  C  C97  1  0.92545720  0.49035614  0.14143775  1
  C  C98  1  0.31745864  0.12517099  0.13774351  1
  C  C99  1  0.81298349  0.12499526  0.13553405  1
  C  C100  1  0.24585559  0.36080282  0.13619712  1
  C  C101  1  0.74351500  0.35720194  0.13574148  1
  C  C102  1  0.22970461  0.29270487  0.02748589  1
  C  C103  1  0.72635865  0.28925272  0.02632340  1
  C  C104  1  0.41052506  0.52513158  0.02076695  1
  C  C105  1  0.91136361  0.52254966  0.02092278  1
  C  C106  1  0.35106271  0.15941808  0.02862952  1
  C  C107  1  0.84431091  0.16032190  0.02580168  1
  C  C108  1  0.22482563  0.16423510  0.52828099  1
  C  C109  1  0.73027177  0.16760632  0.52782178  1
  C  C110  1  0.34411943  0.52716626  0.52677344  1
  C  C111  1  0.85258558  0.54500796  0.52928037  1
  C  C112  1  0.40880497  0.29848067  0.52275545  1
  C  C113  1  0.90954775  0.29360118  0.52301524  1
  C  C114  1  0.27572989  0.70315739  0.96728998  1
  C  C115  1  0.76882232  0.68755134  0.97067260  1
  C  C116  1  0.07543393  0.45851124  0.96945354  1
  C  C117  1  0.58018116  0.45715618  0.97018521  1
  C  C118  1  0.15494408  0.83608891  0.97599683  1
  C  C119  1  0.65574200  0.84500791  0.97020834  1
  C  C120  1  0.26509615  0.84813365  0.47178018  1
  C  C121  1  0.77774365  0.85322495  0.47033100  1
  C  C122  1  0.15555616  0.46529705  0.47129560  1
  C  C123  1  0.65818644  0.48031272  0.47591058  1
  C  C124  1  0.07949610  0.70128625  0.47077575  1
  C  C125  1  0.57380168  0.68896111  0.47167832  1
  C  C126  1  0.06680142  0.63938761  0.36246218  1
  C  C127  1  0.55913763  0.62373703  0.36324833  1
  C  C128  1  0.24844049  0.86358369  0.36279240  1
  C  C129  1  0.75974450  0.87459094  0.36077276  1
  C  C130  1  0.18214874  0.49081823  0.36214697  1
  C  C131  1  0.68788578  0.51232627  0.35641678  1
  C  C132  1  0.06331139  0.49612030  0.86057481  1
  C  C133  1  0.56742362  0.49422084  0.86211348  1
  C  C134  1  0.18912371  0.86982686  0.85631604  1
  C  C135  1  0.68189840  0.87306998  0.86113042  1
  C  C136  1  0.25625096  0.64019348  0.85814768  1
  C  C137  1  0.75069155  0.63608284  0.86179843  1
  C  C138  1  0.01273618  0.83116286  0.40912136  1
  C  C139  1  0.50480711  0.81370309  0.40977700  1
  C  C140  1  0.39657866  0.97726915  0.40874724  1
  C  C141  1  0.90885349  0.97801040  0.40733856  1
  C  C142  1  0.08376566  0.19850505  0.41215361  1
  C  C143  1  0.58180398  0.19443472  0.40953000  1
  C  C144  1  0.00857039  0.19871251  0.90628141  1
  C  C145  1  0.51299623  0.19346933  0.90858054  1
  C  C146  1  0.08520438  0.98157548  0.90571614  1
  C  C147  1  0.58288592  0.96673591  0.91114646  1
  C  C148  1  0.40619806  0.83877891  0.90426340  1
  C  C149  1  0.89905452  0.81635461  0.90716033  1
  C  C150  1  0.48196758  0.15273590  0.59114663  1
  C  C151  1  0.98612472  0.14866288  0.59274250  1
  C  C152  1  0.09641393  0.02171082  0.59302089  1
  C  C153  1  0.59887833  0.01790373  0.58982168  1
  C  C154  1  0.41602647  0.78871082  0.59109617  1
  C  C155  1  0.92301574  0.80348567  0.59386624  1
  C  C156  1  0.48000883  0.82071864  0.08830362  1
  C  C157  1  0.98232014  0.81082016  0.09092844  1
  C  C158  1  0.42236781  0.04378643  0.09314434  1
  C  C159  1  0.91609275  0.04234474  0.08966287  1
  C  C160  1  0.09883484  0.18117932  0.08917202  1
  C  C161  1  0.59518622  0.17506476  0.08823389  1
  C  C162  1  0.34019518  0.15224025  0.74570110  1
  C  C163  1  0.84831946  0.15999640  0.74460982  1
  C  C164  1  0.23355430  0.31453081  0.74454457  1
  C  C165  1  0.74530814  0.31192313  0.74312522  1
  C  C166  1  0.41811650  0.52583244  0.74827493  1
  C  C167  1  0.92217266  0.54058096  0.74503551  1
  C  C168  1  0.34666913  0.53416635  0.24455381  1
  C  C169  1  0.84802947  0.53574652  0.24675843  1
  C  C170  1  0.42083706  0.30680733  0.24457151  1
  C  C171  1  0.92262067  0.31396772  0.24938518  1
  C  C172  1  0.24441272  0.17861925  0.24237958  1
  C  C173  1  0.74398439  0.17072166  0.24084219  1
  C  C174  1  0.32538030  0.51134439  0.91759781  1
  C  C175  1  0.81321158  0.48930387  0.91973403  1
  C  C176  1  0.43372969  0.36025173  0.92150082  1
  C  C177  1  0.92755937  0.35859351  0.92027270  1
  C  C178  1  0.26119098  0.16382520  0.92624629  1
  C  C179  1  0.74815459  0.13978928  0.92262540  1
  C  C180  1  0.31080227  0.13456323  0.42062897  1
  C  C181  1  0.82712787  0.14263303  0.41978513  1
  C  C182  1  0.24844293  0.35697769  0.42374615  1
  C  C183  1  0.76216133  0.36155885  0.42536811  1
  C  C184  1  0.42472946  0.49210253  0.42315596  1
  C  C185  1  0.93349433  0.50546116  0.42215672  1
  C  C186  1  0.18811423  0.50151933  0.07104920  1
  C  C187  1  0.68504364  0.49751397  0.07195293  1
  C  C188  1  0.07152247  0.63199385  0.07600956  1
  C  C189  1  0.56983672  0.64150131  0.07004931  1
  C  C190  1  0.26129175  0.86378801  0.07605708  1
  C  C191  1  0.75420175  0.86727587  0.07189749  1
  C  C192  1  0.18368514  0.87374057  0.57500156  1
  C  C193  1  0.68832457  0.87607613  0.57301571  1
  C  C194  1  0.25381842  0.63839617  0.57402185  1
  C  C195  1  0.76227084  0.66105285  0.57606985  1
  C  C196  1  0.07096654  0.50190799  0.56937859  1
  C  C197  1  0.57312867  0.51200110  0.57568168  1
  C  C198  1  0.15329434  0.82068484  0.26222484  1
  C  C199  1  0.65344466  0.81599789  0.26562764  1
  C  C200  1  0.26288605  0.68703810  0.26125143  1
  C  C201  1  0.76665427  0.69760845  0.25732945  1
  C  C202  1  0.08545664  0.46382319  0.26540352  1
  C  C203  1  0.58383923  0.46211530  0.25610823  1
  C  C204  1  0.14956859  0.47200207  0.76091402  1
  C  C205  1  0.65382392  0.48694772  0.76238083  1
  C  C206  1  0.08517326  0.70023305  0.75720168  1
  C  C207  1  0.58163610  0.70005587  0.76473167  1
  C  C208  1  0.26397023  0.82534136  0.75793860  1
  C  C209  1  0.76470944  0.83797727  0.76083817  1
