# generated using pymatgen
data_CuNi3C16
_symmetry_space_group_name_H-M   'P 1'
_cell_length_a   15.96893892
_cell_length_b   9.21965715
_cell_length_c   9.16819466
_cell_angle_alpha   90.00000000
_cell_angle_beta   125.09874864
_cell_angle_gamma   90.00000000
_symmetry_Int_Tables_number   1
_chemical_formula_structural   CuNi3C16
_chemical_formula_sum   'Cu4 Ni12 C64'
_cell_volume   1104.36874665
_cell_formula_units_Z   4
loop_
 _symmetry_equiv_pos_site_id
 _symmetry_equiv_pos_as_xyz
  1  'x, y, z'
loop_
 _atom_site_type_symbol
 _atom_site_label
 _atom_site_symmetry_multiplicity
 _atom_site_fract_x
 _atom_site_fract_y
 _atom_site_fract_z
 _atom_site_occupancy
  Ni  Ni0  1  0.25206251  0.73163818  0.98784552  1
  Ni  Ni1  1  0.75206251  0.76836182  0.48784552  1
  Ni  Ni2  1  0.75206251  0.23163818  0.98784552  1
  Ni  Ni3  1  0.25206251  0.26836182  0.48784552  1
  Ni  Ni4  1  0.50406340  0.09097271  0.74739538  1
  Ni  Ni5  1  0.50406340  0.90902729  0.24739538  1
  Ni  Ni6  1  0.00406340  0.59097271  0.74739538  1
  Ni  Ni7  1  0.00406340  0.40902729  0.24739538  1
  Ni  Ni8  1  0.17946856  0.93245436  0.30054719  1
  Ni  Ni9  1  0.17946856  0.06754564  0.80054719  1
  Ni  Ni10  1  0.67946856  0.43245436  0.30054719  1
  Ni  Ni11  1  0.67946856  0.56754564  0.80054719  1
  Cu  Cu12  1  0.10309280  0.74949904  0.56114841  1
  Cu  Cu13  1  0.10309280  0.25050096  0.06114841  1
  Cu  Cu14  1  0.60309280  0.24949904  0.56114841  1
  Cu  Cu15  1  0.60309280  0.75050096  0.06114841  1
  C  C16  1  0.89611393  0.75791069  0.94240375  1
  C  C17  1  0.89611393  0.24208931  0.44240375  1
  C  C18  1  0.39611393  0.25791069  0.94240375  1
  C  C19  1  0.39611393  0.74208931  0.44240375  1
  C  C20  1  0.99519694  0.95105285  0.75670503  1
  C  C21  1  0.99519694  0.04894715  0.25670503  1
  C  C22  1  0.49519694  0.45105285  0.75670503  1
  C  C23  1  0.49519694  0.54894715  0.25670503  1
  C  C24  1  0.35324191  0.91156835  0.75614545  1
  C  C25  1  0.64941518  0.88590370  0.74510741  1
  C  C26  1  0.64941518  0.11409630  0.24510741  1
  C  C27  1  0.35324191  0.08843165  0.25614545  1
  C  C28  1  0.85324191  0.41156835  0.75614545  1
  C  C29  1  0.14941518  0.38590370  0.74510741  1
  C  C30  1  0.14941518  0.61409630  0.24510741  1
  C  C31  1  0.85324191  0.58843165  0.25614545  1
  C  C32  1  0.15598908  0.55119021  0.74583963  1
  C  C33  1  0.85112389  0.58383058  0.75197232  1
  C  C34  1  0.85112389  0.41616942  0.25197232  1
  C  C35  1  0.15598908  0.44880979  0.24583963  1
  C  C36  1  0.65598908  0.05119021  0.74583963  1
  C  C37  1  0.35112389  0.08383058  0.75197232  1
  C  C38  1  0.35112389  0.91616942  0.25197232  1
  C  C39  1  0.65598908  0.94880979  0.24583963  1
  C  C40  1  0.43671063  0.55911973  0.59213643  1
  C  C41  1  0.56059925  0.53829199  0.92635792  1
  C  C42  1  0.56059925  0.46170801  0.42635792  1
  C  C43  1  0.43671063  0.44088027  0.09213643  1
  C  C44  1  0.93671063  0.05911973  0.59213643  1
  C  C45  1  0.06059925  0.03829199  0.92635792  1
  C  C46  1  0.06059925  0.96170801  0.42635792  1
  C  C47  1  0.93671063  0.94088027  0.09213643  1
  C  C48  1  0.26051550  0.85943093  0.75060475  1
  C  C49  1  0.73955740  0.81031861  0.74983717  1
  C  C50  1  0.73955740  0.18968139  0.24983717  1
  C  C51  1  0.26051550  0.14056907  0.25060475  1
  C  C52  1  0.76051550  0.35943093  0.75060475  1
  C  C53  1  0.23955740  0.31031861  0.74983717  1
  C  C54  1  0.23955740  0.68968139  0.24983717  1
  C  C55  1  0.76051550  0.64056907  0.25060475  1
  C  C56  1  0.35202126  0.86586072  0.58600748  1
  C  C57  1  0.65318524  0.83366052  0.90468052  1
  C  C58  1  0.65318524  0.16633948  0.40468052  1
  C  C59  1  0.35202126  0.13413928  0.08600748  1
  C  C60  1  0.85202126  0.36586072  0.58600748  1
  C  C61  1  0.15318524  0.33366052  0.90468052  1
  C  C62  1  0.15318524  0.66633948  0.40468052  1
  C  C63  1  0.85202126  0.63413928  0.08600748  1
  C  C64  1  0.45330924  0.86395490  0.92465277  1
  C  C65  1  0.54519340  0.82794244  0.57091870  1
  C  C66  1  0.54519340  0.17205756  0.07091870  1
  C  C67  1  0.45330924  0.13604510  0.42465277  1
  C  C68  1  0.95330924  0.36395490  0.92465277  1
  C  C69  1  0.04519340  0.32794244  0.57091870  1
  C  C70  1  0.04519340  0.67205756  0.07091870  1
  C  C71  1  0.95330924  0.63604510  0.42465277  1
  C  C72  1  0.06632114  0.84730000  0.74429456  1
  C  C73  1  0.91281875  0.85756546  0.75539963  1
  C  C74  1  0.91281875  0.14243454  0.25539963  1
  C  C75  1  0.06632114  0.15270000  0.24429456  1
  C  C76  1  0.56632114  0.34730000  0.74429456  1
  C  C77  1  0.41281875  0.35756546  0.75539963  1
  C  C78  1  0.41281875  0.64243454  0.25539963  1
  C  C79  1  0.56632114  0.65270000  0.24429456  1
