# generated using pymatgen
data_Cu8NiC16
_symmetry_space_group_name_H-M   'P 1'
_cell_length_a   4.77905233
_cell_length_b   4.93676156
_cell_length_c   12.50900282
_cell_angle_alpha   89.91460672
_cell_angle_beta   89.83339833
_cell_angle_gamma   90.48909299
_symmetry_Int_Tables_number   1
_chemical_formula_structural   Cu8NiC16
_chemical_formula_sum   'Cu8 Ni1 C16'
_cell_volume   295.11308784
_cell_formula_units_Z   1
loop_
 _symmetry_equiv_pos_site_id
 _symmetry_equiv_pos_as_xyz
  1  'x, y, z'
loop_
 _atom_site_type_symbol
 _atom_site_label
 _atom_site_symmetry_multiplicity
 _atom_site_fract_x
 _atom_site_fract_y
 _atom_site_fract_z
 _atom_site_occupancy
  Ni  Ni0  1  0.98471900  0.50374000  0.49943600  1
  Cu  Cu1  1  0.98619000  0.94277400  0.00132800  1
  Cu  Cu2  1  0.03954200  0.00410300  0.24373100  1
  Cu  Cu3  1  0.94619100  0.98440700  0.49930500  1
  Cu  Cu4  1  0.05802500  0.00731100  0.75616500  1
  Cu  Cu5  1  0.46975500  0.54751200  0.63530500  1
  Cu  Cu6  1  0.54090800  0.44168700  0.12237900  1
  Cu  Cu7  1  0.46637800  0.53666700  0.36256400  1
  Cu  Cu8  1  0.48470900  0.50911600  0.88017100  1
  C  C9  1  0.14838500  0.77777200  0.37589600  1
  C  C10  1  0.13937700  0.76462800  0.61438400  1
  C  C11  1  0.18758000  0.78651400  0.88452900  1
  C  C12  1  0.34372800  0.28738300  0.24932400  1
  C  C13  1  0.32529700  0.33698000  0.75217000  1
  C  C14  1  0.68841000  0.65406800  0.00416000  1
  C  C15  1  0.63145500  0.70072500  0.49586700  1
  C  C16  1  0.83389800  0.15590600  0.12416200  1
  C  C17  1  0.22852800  0.74357700  0.12838400  1
  C  C18  1  0.29392000  0.24424600  0.00241800  1
  C  C19  1  0.29756500  0.26651500  0.49742800  1
  C  C20  1  0.71915000  0.71946100  0.24572600  1
  C  C21  1  0.68551300  0.75890300  0.75216200  1
  C  C22  1  0.81535500  0.26546000  0.38324600  1
  C  C23  1  0.80873600  0.26560500  0.61397500  1
  C  C24  1  0.79335100  0.21161200  0.87578700  1
