# generated using pymatgen
data_Cu5(NiC)7
_symmetry_space_group_name_H-M   'P 1'
_cell_length_a   5.13756766
_cell_length_b   7.79516652
_cell_length_c   5.98412659
_cell_angle_alpha   99.22568644
_cell_angle_beta   100.75053188
_cell_angle_gamma   83.36044795
_symmetry_Int_Tables_number   1
_chemical_formula_structural   Cu5(NiC)7
_chemical_formula_sum   'Cu5 Ni7 C7'
_cell_volume   231.49193081
_cell_formula_units_Z   1
loop_
 _symmetry_equiv_pos_site_id
 _symmetry_equiv_pos_as_xyz
  1  'x, y, z'
loop_
 _atom_site_type_symbol
 _atom_site_label
 _atom_site_symmetry_multiplicity
 _atom_site_fract_x
 _atom_site_fract_y
 _atom_site_fract_z
 _atom_site_occupancy
  C  C0  1  0.50111500  0.99287800  0.97650100  1
  C  C1  1  0.53817300  0.01265700  0.47299400  1
  C  C2  1  0.47700600  0.64721100  0.19175900  1
  C  C3  1  0.50936700  0.34642300  0.81765900  1
  C  C4  1  0.98425600  0.65903300  0.67453000  1
  C  C5  1  0.98523800  0.32197300  0.33202500  1
  C  C6  1  0.00073100  0.00531700  0.00905300  1
  Ni  Ni7  1  0.81009600  0.09917700  0.25064400  1
  Ni  Ni8  1  0.69982600  0.10189100  0.79050400  1
  Ni  Ni9  1  0.68575800  0.77120100  0.46789600  1
  Ni  Ni10  1  0.70640700  0.43367700  0.12284900  1
  Ni  Ni11  1  0.29180300  0.56076400  0.88612400  1
  Ni  Ni12  1  0.30467700  0.22907500  0.52703200  1
  Ni  Ni13  1  0.31875600  0.89845900  0.19213100  1
  Cu  Cu14  1  0.79456700  0.43016900  0.61918100  1
  Cu  Cu15  1  0.77054400  0.78424100  0.94900800  1
  Cu  Cu16  1  0.16897100  0.54629200  0.38459100  1
  Cu  Cu17  1  0.24720700  0.20791900  0.02775900  1
  Cu  Cu18  1  0.19161200  0.90164100  0.74526000  1
