# generated using pymatgen
data_Cu3Ni2C31
_symmetry_space_group_name_H-M   'P 1'
_cell_length_a   8.78888246
_cell_length_b   8.78260474
_cell_length_c   23.11987069
_cell_angle_alpha   89.31884983
_cell_angle_beta   90.09622470
_cell_angle_gamma   119.72276040
_symmetry_Int_Tables_number   1
_chemical_formula_structural   Cu3Ni2C31
_chemical_formula_sum   'Cu9 Ni6 C93'
_cell_volume   1549.68604180
_cell_formula_units_Z   3
loop_
 _symmetry_equiv_pos_site_id
 _symmetry_equiv_pos_as_xyz
  1  'x, y, z'
loop_
 _atom_site_type_symbol
 _atom_site_label
 _atom_site_symmetry_multiplicity
 _atom_site_fract_x
 _atom_site_fract_y
 _atom_site_fract_z
 _atom_site_occupancy
  C  C0  1  0.97954592  0.98527270  0.50721878  1
  C  C1  1  0.02403664  0.02146185  0.99986677  1
  C  C2  1  0.66873922  0.31550511  0.83562316  1
  C  C3  1  0.66394156  0.32134434  0.33498527  1
  C  C4  1  0.33586727  0.65791653  0.16508290  1
  C  C5  1  0.35431478  0.67377517  0.67000889  1
  C  C6  1  0.96257333  0.97016805  0.64843932  1
  C  C7  1  0.01745175  0.01484127  0.14335172  1
  C  C8  1  0.34899122  0.68576196  0.31876361  1
  Ni  Ni9  1  0.70563709  0.99563015  0.74905165  1
  Ni  Ni10  1  0.67278312  0.62429068  0.58314077  1
  Ni  Ni11  1  0.37255222  0.33702432  0.08206048  1
  Ni  Ni12  1  0.04022592  0.37632868  0.91613960  1
  Ni  Ni13  1  0.32693090  0.95474531  0.91684365  1
  Ni  Ni14  1  0.62633755  0.96500854  0.41461938  1
  Cu  Cu15  1  0.99103896  0.99783784  0.35082692  1
  Cu  Cu16  1  0.00262652  0.01454905  0.85337543  1
  Cu  Cu17  1  0.66608546  0.33167059  0.68755837  1
  Cu  Cu18  1  0.65973090  0.33486316  0.18168855  1
  Cu  Cu19  1  0.65583395  0.31991978  0.97746324  1
  Cu  Cu20  1  0.66687306  0.33121284  0.48316591  1
  Cu  Cu21  1  0.32244073  0.65499279  0.01610120  1
  Cu  Cu22  1  0.35320368  0.67215778  0.51997359  1
  Cu  Cu23  1  0.33257149  0.67690402  0.81578828  1
  C  C24  1  0.28937738  0.99744867  0.24972775  1
  C  C25  1  0.70921815  0.70700551  0.24758691  1
  C  C26  1  0.00032740  0.29847317  0.24808167  1
  C  C27  1  0.29089489  0.29284447  0.74789581  1
  C  C28  1  0.00060228  0.71050926  0.74919013  1
  C  C29  1  0.96611063  0.33625114  0.58209269  1
  C  C30  1  0.36799970  0.03823680  0.58383051  1
  C  C31  1  0.95731442  0.62573582  0.08373818  1
  C  C32  1  0.66655783  0.03709168  0.08459843  1
  C  C33  1  0.62656955  0.66787715  0.91651859  1
  C  C34  1  0.33092566  0.37291619  0.41435961  1
  C  C35  1  0.04513065  0.66616315  0.41546797  1
  C  C36  1  0.21343757  0.03144774  0.30462371  1
  C  C37  1  0.81566279  0.78019786  0.30285208  1
  C  C38  1  0.96422803  0.18876108  0.30332541  1
  C  C39  1  0.22011535  0.18658825  0.80243668  1
  C  C40  1  0.97549135  0.78736102  0.80279632  1
  C  C41  1  0.82040356  0.03077776  0.80840495  1
  C  C42  1  0.78276903  0.96951057  0.69077843  1
  C  C43  1  0.19079568  0.21270666  0.69643432  1
  C  C44  1  0.03126188  0.81509413  0.69699500  1
  C  C45  1  0.79720755  0.81601118  0.19727903  1
  C  C46  1  0.02192284  0.21314235  0.19799711  1
  C  C47  1  0.18439531  0.98015304  0.19914681  1
  C  C48  1  0.88650931  0.36805077  0.63384491  1
  C  C49  1  0.48546806  0.11313853  0.63443590  1
  C  C50  1  0.63131288  0.49577676  0.64013322  1
  C  C51  1  0.88508965  0.51214293  0.13819807  1
  C  C52  1  0.63530234  0.11630970  0.13837151  1
  C  C53  1  0.49011165  0.37859471  0.14275892  1
  C  C54  1  0.47203700  0.30983599  0.02726065  1
  C  C55  1  0.85165442  0.53986463  0.03224053  1
  C  C56  1  0.70125228  0.15083038  0.03270138  1
  C  C57  1  0.44940148  0.14065243  0.52913733  1
  C  C58  1  0.69520136  0.53492821  0.52339768  1
  C  C59  1  0.85589387  0.30343778  0.52900273  1
  C  C60  1  0.55176070  0.69936789  0.96949205  1
  C  C61  1  0.15595227  0.44715267  0.97471583  1
  C  C62  1  0.30226029  0.84508824  0.97748654  1
  C  C63  1  0.54852144  0.84850030  0.47429259  1
  C  C64  1  0.29433047  0.44264234  0.46825819  1
  C  C65  1  0.14685702  0.69038323  0.46980319  1
  C  C66  1  0.12052222  0.63764934  0.36387560  1
  C  C67  1  0.51524568  0.88946459  0.35748125  1
  C  C68  1  0.35398430  0.47672733  0.36257797  1
  C  C69  1  0.12564403  0.48970099  0.85679400  1
  C  C70  1  0.37375049  0.88157868  0.85968295  1
  C  C71  1  0.51806768  0.63491380  0.86416450  1
  C  C72  1  0.03022540  0.83051932  0.41030435  1
  C  C73  1  0.82576633  0.98522696  0.41062763  1
  C  C74  1  0.17573541  0.19041673  0.40943386  1
  C  C75  1  0.01373239  0.17934704  0.91335371  1
  C  C76  1  0.14596647  0.96313956  0.90945937  1
  C  C77  1  0.80178478  0.82358497  0.91040462  1
  C  C78  1  0.99494851  0.18814342  0.58781204  1
  C  C79  1  0.19951656  0.02880091  0.59046035  1
  C  C80  1  0.84464120  0.81352080  0.58351255  1
  C  C81  1  0.96536052  0.79422040  0.09099433  1
  C  C82  1  0.81909051  0.01514286  0.09215103  1
  C  C83  1  0.18355301  0.16364037  0.08664567  1
  C  C84  1  0.68270342  0.17497937  0.74481234  1
  C  C85  1  0.47295879  0.31535413  0.74586016  1
  C  C86  1  0.83851392  0.53203951  0.74587136  1
  C  C87  1  0.69806160  0.52799877  0.24558154  1
  C  C88  1  0.83369907  0.31330085  0.24331607  1
  C  C89  1  0.47102691  0.15952434  0.24656717  1
  C  C90  1  0.64538268  0.51061645  0.92258852  1
  C  C91  1  0.85158092  0.37049380  0.92370575  1
  C  C92  1  0.49868577  0.15080396  0.91997349  1
  C  C93  1  0.65047276  0.16374827  0.42375951  1
  C  C94  1  0.49140615  0.35677381  0.42148609  1
  C  C95  1  0.86447065  0.51212771  0.42165038  1
  C  C96  1  0.36424715  0.52176313  0.07872513  1
  C  C97  1  0.13599858  0.64580894  0.08073167  1
  C  C98  1  0.50284307  0.86675232  0.07904630  1
  C  C99  1  0.34744421  0.85815681  0.57772767  1
  C  C100  1  0.48510021  0.62939796  0.58078799  1
  C  C101  1  0.13585108  0.50617631  0.57379696  1
  C  C102  1  0.30594740  0.83980756  0.25607433  1
  C  C103  1  0.53201170  0.68263673  0.25445966  1
  C  C104  1  0.15346114  0.47269464  0.25673945  1
  C  C105  1  0.30850229  0.46975596  0.75512063  1
  C  C106  1  0.15506465  0.68251198  0.75365394  1
  C  C107  1  0.50906119  0.81885400  0.75540136  1
