# generated using pymatgen
data_Cu3Ni8C31
_symmetry_space_group_name_H-M   'P 1'
_cell_length_a   9.62557072
_cell_length_b   9.63789087
_cell_length_c   23.08977788
_cell_angle_alpha   90.14274203
_cell_angle_beta   89.97350915
_cell_angle_gamma   119.94833761
_symmetry_Int_Tables_number   1
_chemical_formula_structural   Cu3Ni8C31
_chemical_formula_sum   'Cu9 Ni24 C93'
_cell_volume   1856.02237552
_cell_formula_units_Z   3
loop_
 _symmetry_equiv_pos_site_id
 _symmetry_equiv_pos_as_xyz
  1  'x, y, z'
loop_
 _atom_site_type_symbol
 _atom_site_label
 _atom_site_symmetry_multiplicity
 _atom_site_fract_x
 _atom_site_fract_y
 _atom_site_fract_z
 _atom_site_occupancy
  Ni  Ni0  1  0.62878050  0.99679151  0.25746662  1
  Ni  Ni1  1  0.36965919  0.37192573  0.25259013  1
  Ni  Ni2  1  0.00269595  0.62928668  0.25244440  1
  Ni  Ni3  1  0.63739119  0.64710488  0.73950844  1
  Ni  Ni4  1  0.00391989  0.35502240  0.74242246  1
  Ni  Ni5  1  0.35584217  0.00078085  0.75076528  1
  Ni  Ni6  1  0.29628926  0.34251040  0.57892176  1
  Ni  Ni7  1  0.03712488  0.69858800  0.57446713  1
  Ni  Ni8  1  0.66438666  0.95524283  0.57424916  1
  Ni  Ni9  1  0.29456800  0.95597518  0.07293119  1
  Ni  Ni10  1  0.65561126  0.69360739  0.07548557  1
  Ni  Ni11  1  0.04716236  0.34819099  0.07616525  1
  Ni  Ni12  1  0.98046790  0.68018025  0.91259622  1
  Ni  Ni13  1  0.70407277  0.03192968  0.90966801  1
  Ni  Ni14  1  0.31887439  0.29248794  0.90960378  1
  Ni  Ni15  1  0.97934041  0.31102871  0.42072330  1
  Ni  Ni16  1  0.33850341  0.02594417  0.42115767  1
  Ni  Ni17  1  0.68659743  0.66752083  0.42032024  1
  Ni  Ni18  1  0.99515420  0.99857262  0.49861530  1
  Ni  Ni19  1  0.00575027  0.99989153  0.99603183  1
  Ni  Ni20  1  0.65793934  0.32348672  0.82892780  1
  Ni  Ni21  1  0.66399244  0.33094304  0.33828921  1
  Ni  Ni22  1  0.32296876  0.65533144  0.16613848  1
  Ni  Ni23  1  0.33338270  0.65418117  0.66059743  1
  Cu  Cu24  1  0.00068395  0.99963971  0.34881490  1
  Cu  Cu25  1  0.99902822  0.00230443  0.84455823  1
  Cu  Cu26  1  0.99282758  0.00415358  0.65137516  1
  Cu  Cu27  1  0.00331576  0.99885415  0.14381353  1
  Cu  Cu28  1  0.66718365  0.33499544  0.68150098  1
  Cu  Cu29  1  0.66683275  0.33679939  0.17849103  1
  Cu  Cu30  1  0.33178356  0.66431242  0.00801072  1
  Cu  Cu31  1  0.33322490  0.66363259  0.51094126  1
  Cu  Cu32  1  0.33315142  0.66537256  0.32691642  1
  C  C33  1  0.66506949  0.33734512  0.97814429  1
  C  C34  1  0.67145062  0.33834568  0.48563545  1
  C  C35  1  0.33637064  0.66512992  0.82338696  1
  C  C36  1  0.31207172  0.32523822  0.75505360  1
  C  C37  1  0.67177285  0.98548290  0.75535822  1
  C  C38  1  0.96309363  0.32888103  0.58444651  1
  C  C39  1  0.67317167  0.63609864  0.58414122  1
  C  C40  1  0.95912621  0.63115433  0.07888350  1
  C  C41  1  0.36810027  0.32821420  0.07933707  1
  C  C42  1  0.63206378  0.65386187  0.91995055  1
  C  C43  1  0.02137339  0.36949392  0.91912970  1
  C  C44  1  0.34580187  0.97624291  0.91992327  1
  C  C45  1  0.64848779  0.99294133  0.41926575  1
  C  C46  1  0.34471945  0.35041551  0.41879263  1
  C  C47  1  0.00815238  0.65691779  0.41935654  1
  C  C48  1  0.30949476  0.99133131  0.24898970  1
  C  C49  1  0.68375185  0.69211078  0.24871686  1
  C  C50  1  0.00616007  0.31415853  0.24874469  1
  C  C51  1  0.02050831  0.69093925  0.75499802  1
  C  C52  1  0.36816223  0.04274835  0.58098609  1
  C  C53  1  0.67454308  0.04794425  0.07640658  1
  C  C54  1  0.22111213  -0.00268456  0.30412664  1
  C  C55  1  0.77617392  0.78256499  0.30394425  1
  C  C56  1  0.00536506  0.22242587  0.30377900  1
  C  C57  1  0.23505299  0.21083546  0.81105960  1
  C  C58  1  0.99073539  0.76606563  0.80904879  1
  C  C59  1  0.78371414  0.01891134  0.81180982  1
  C  C60  1  0.75281246  0.94779285  0.69850690  1
  C  C61  1  0.19569730  0.24357384  0.69771020  1
  C  C62  1  0.04697467  0.79781299  0.70081607  1
  C  C63  1  0.77643509  0.78753103  0.19399699  1
  C  C64  1  0.00869162  0.22147047  0.19373632  1
  C  C65  1  0.21285246  0.98800030  0.19434687  1
  C  C66  1  0.88949524  0.33381667  0.64706538  1
  C  C67  1  0.44610242  0.11114028  0.64003919  1
  C  C68  1  0.66171985  0.55354515  0.64636448  1
  C  C69  1  0.88628924  0.54451826  0.14064070  1
  C  C70  1  0.66416186  0.11810461  0.13512634  1
  C  C71  1  0.45123177  0.33511570  0.14129517  1
  C  C72  1  0.49205063  0.32533949  0.02586798  1
  C  C73  1  0.83404852  0.50566014  0.02515231  1
  C  C74  1  0.67350502  0.16006166  0.02573192  1
  C  C75  1  0.48397832  0.15370530  0.53123172  1
  C  C76  1  0.66575040  0.50650282  0.53214151  1
  C  C77  1  0.83864902  0.33154875  0.53252395  1
  C  C78  1  0.57577429  0.69168529  0.98044156  1
  C  C79  1  0.11464751  0.42858737  0.97989673  1
  C  C80  1  0.31217774  0.88292520  0.98041840  1
  C  C81  1  0.56834825  0.87035063  0.47337226  1
  C  C82  1  0.30209932  0.43075512  0.47296577  1
  C  C83  1  0.12771809  0.69684041  0.47420899  1
  C  C84  1  0.08226144  0.61667954  0.36155235  1
  C  C85  1  0.53541863  0.91740777  0.36104658  1
  C  C86  1  0.38426244  0.46442274  0.36094239  1
  C  C87  1  0.14169839  0.50607193  0.86847592  1
  C  C88  1  0.36018146  0.85565338  0.86870880  1
  C  C89  1  0.49350349  0.63704643  0.86953276  1
  C  C90  1  0.96407030  0.79882963  0.41434064  1
  C  C91  1  0.83422823  0.03448388  0.41424336  1
  C  C92  1  0.19983320  0.16538219  0.41401813  1
  C  C93  1  0.98840785  0.18911367  0.90869509  1
  C  C94  1  0.19865483  0.00969102  0.90939584  1
  C  C95  1  0.81344721  0.79261964  0.90693757  1
  C  C96  1  0.96565303  0.16048938  0.57596326  1
  C  C97  1  0.20731596  0.04158094  0.57516343  1
  C  C98  1  0.84554411  0.80271009  0.57649708  1
  C  C99  1  0.95266490  0.79797933  0.07200820  1
  C  C100  1  0.83567084  0.04800011  0.07118250  1
  C  C101  1  0.19713101  0.15948056  0.07169119  1
  C  C102  1  0.63357983  0.13247129  0.75041677  1
  C  C103  1  0.49867179  0.36725785  0.75108092  1
  C  C104  1  0.88098666  0.51692699  0.74978011  1
  C  C105  1  0.66526553  0.52204591  0.25160005  1
  C  C106  1  0.85403472  0.33195647  0.25180631  1
  C  C107  1  0.48119475  0.14065478  0.25098242  1
  C  C108  1  0.62521015  0.47519411  0.92201389  1
  C  C109  1  0.84666324  0.36980049  0.92073704  1
  C  C110  1  0.52216883  0.14974077  0.92187504  1
  C  C111  1  0.65369256  0.16659896  0.43135315  1
  C  C112  1  0.51178626  0.34250370  0.43072121  1
  C  C113  1  0.83269358  0.48797230  0.43088969  1
  C  C114  1  0.34958327  0.48756417  0.07754871  1
  C  C115  1  0.14075340  0.65920107  0.07663346  1
  C  C116  1  0.52897632  0.87763047  0.07326949  1
  C  C117  1  0.34514603  0.87244392  0.57640328  1
  C  C118  1  0.51735207  0.66171531  0.58009059  1
  C  C119  1  0.14131772  0.48889079  0.58063589  1
  C  C120  1  0.32062310  0.83544734  0.24806761  1
  C  C121  1  0.51503848  0.67769554  0.24759177  1
  C  C122  1  0.16046568  0.48265804  0.24753165  1
  C  C123  1  0.31058929  0.49768939  0.76660828  1
  C  C124  1  0.18164334  0.68770898  0.76369140  1
  C  C125  1  0.49729810  0.81450102  0.76675424  1
