# generated using pymatgen
data_Cu6NiC12
_symmetry_space_group_name_H-M   'P 1'
_cell_length_a   5.08125459
_cell_length_b   7.79857754
_cell_length_c   5.71651070
_cell_angle_alpha   96.83678643
_cell_angle_beta   93.60800405
_cell_angle_gamma   88.05108880
_symmetry_Int_Tables_number   1
_chemical_formula_structural   Cu6NiC12
_chemical_formula_sum   'Cu6 Ni1 C12'
_cell_volume   224.38870402
_cell_formula_units_Z   1
loop_
 _symmetry_equiv_pos_site_id
 _symmetry_equiv_pos_as_xyz
  1  'x, y, z'
loop_
 _atom_site_type_symbol
 _atom_site_label
 _atom_site_symmetry_multiplicity
 _atom_site_fract_x
 _atom_site_fract_y
 _atom_site_fract_z
 _atom_site_occupancy
  Ni  Ni0  1  0.50737900  0.49435300  0.49657700  1
  Cu  Cu1  1  0.50863600  0.00106200  0.49017100  1
  Cu  Cu2  1  0.43663000  0.32626300  0.88273700  1
  Cu  Cu3  1  0.55476800  0.66774600  0.10969000  1
  Cu  Cu4  1  0.02183800  0.70539000  0.62595800  1
  Cu  Cu5  1  0.97516800  0.28111600  0.37207300  1
  Cu  Cu6  1  0.99419500  0.99529300  0.99807100  1
  C  C7  1  0.78658300  0.06524900  0.30612300  1
  C  C8  1  0.66687200  0.74090100  0.45251000  1
  C  C9  1  0.63852500  0.42993300  0.16357200  1
  C  C10  1  0.35087000  0.57159400  0.82213000  1
  C  C11  1  0.35539600  0.25386300  0.54700700  1
  C  C12  1  0.19410900  0.91316300  0.67515000  1
  C  C13  1  0.85082200  0.44939600  0.65890900  1
  C  C14  1  0.84781900  0.74476700  0.94743200  1
  C  C15  1  0.66557300  0.09807900  0.82263600  1
  C  C16  1  0.32393900  0.88747200  0.17329600  1
  C  C17  1  0.15462100  0.24083700  0.03915000  1
  C  C18  1  0.16625700  0.56685700  0.34537800  1
