# generated using pymatgen
data_Cu5NiC33
_symmetry_space_group_name_H-M   'P 1'
_cell_length_a   8.86307928
_cell_length_b   8.86240701
_cell_length_c   22.26065865
_cell_angle_alpha   89.94924591
_cell_angle_beta   89.92217224
_cell_angle_gamma   120.04801975
_symmetry_Int_Tables_number   1
_chemical_formula_structural   Cu5NiC33
_chemical_formula_sum   'Cu15 Ni3 C99'
_cell_volume   1513.53861845
_cell_formula_units_Z   3
loop_
 _symmetry_equiv_pos_site_id
 _symmetry_equiv_pos_as_xyz
  1  'x, y, z'
loop_
 _atom_site_type_symbol
 _atom_site_label
 _atom_site_symmetry_multiplicity
 _atom_site_fract_x
 _atom_site_fract_y
 _atom_site_fract_z
 _atom_site_occupancy
  C  C0  1  0.35911474  0.35304904  0.25123722  1
  C  C1  1  0.00476763  0.64414526  0.24810510  1
  C  C2  1  0.63901795  0.64406262  0.74531055  1
  C  C3  1  0.99383307  0.35512627  0.75264848  1
  C  C4  1  0.31377998  0.34164608  0.58397368  1
  C  C5  1  0.66884694  0.96388352  0.58666827  1
  C  C6  1  0.30294820  0.97070210  0.08709980  1
  C  C7  1  0.69672050  0.02931606  0.91357026  1
  C  C8  1  0.69651990  0.66537808  0.42131411  1
  C  C9  1  0.00605553  0.98993643  0.49994963  1
  C  C10  1  0.00007274  0.99996818  0.00017915  1
  C  C11  1  0.65346625  0.32421468  0.83347391  1
  C  C12  1  0.65430048  0.29563583  0.33343611  1
  C  C13  1  0.34601853  0.67646098  0.16662671  1
  C  C14  1  0.33769310  0.68845181  0.66739287  1
  C  C15  1  0.00964319  0.00715574  0.34985499  1
  C  C16  1  0.00106768  0.00041218  0.85011650  1
  C  C17  1  0.99157265  0.98630933  0.64997126  1
  C  C18  1  0.99752528  -0.00096789  0.15016375  1
  C  C19  1  0.66252188  0.32988856  0.68298474  1
  C  C20  1  0.66448056  0.32526156  0.18308842  1
  C  C21  1  0.66945662  0.34033410  0.98327266  1
  C  C22  1  0.66962389  0.33578854  0.48350579  1
  C  C23  1  0.33040768  0.65962977  0.01690829  1
  C  C24  1  0.33095098  0.66770225  0.51624914  1
  C  C25  1  0.33734369  0.67986475  0.31648451  1
  C  C26  1  0.33700399  0.67504720  0.81714532  1
  Ni  Ni27  1  0.29753469  0.00051519  0.24775223  1
  Ni  Ni28  1  0.70129928  0.00149852  0.75061310  1
  Ni  Ni29  1  0.66709948  0.63035318  0.58213933  1
  Cu  Cu30  1  0.70407798  0.70591766  0.25115516  1
  Cu  Cu31  1  0.99826616  0.29319595  0.25032759  1
  Cu  Cu32  1  0.29435498  0.29253914  0.74941492  1
  Cu  Cu33  1  0.00285403  0.70608630  0.75073042  1
  Cu  Cu34  1  0.96366116  0.33621800  0.58425877  1
  Cu  Cu35  1  0.37154626  0.03883731  0.58266171  1
  Cu  Cu36  1  0.96160505  0.62852754  0.08418511  1
  Cu  Cu37  1  0.66868568  0.03675087  0.08105244  1
  Cu  Cu38  1  0.37163987  0.33575299  0.08411711  1
  Cu  Cu39  1  0.62818261  0.66431233  0.91580014  1
  Cu  Cu40  1  0.03817528  0.37139468  0.91577545  1
  Cu  Cu41  1  0.33140015  0.96320954  0.91892299  1
  Cu  Cu42  1  0.63209445  0.96584445  0.41774285  1
  Cu  Cu43  1  0.33103001  0.36993195  0.41655252  1
  Cu  Cu44  1  0.03639432  0.66475650  0.41555990  1
  C  C45  1  0.20591804  0.03123839  0.30138379  1
  C  C46  1  0.80627553  0.78489575  0.30659904  1
  C  C47  1  0.97057443  0.18803445  0.30465345  1
  C  C48  1  0.20850828  0.18480066  0.80214410  1
  C  C49  1  0.97774055  0.78876549  0.80398566  1
  C  C50  1  0.81568425  0.02915483  0.80697511  1
  C  C51  1  0.78876677  0.97383110  0.69423942  1
  C  C52  1  0.19282530  0.21307640  0.69373446  1
  C  C53  1  0.03008295  0.80999582  0.69604751  1
  C  C54  1  0.78763368  0.81487691  0.19832373  1
  C  C55  1  0.02410259  0.21158010  0.19673886  1
  C  C56  1  0.18759549  0.97122821  0.18987540  1
  C  C57  1  0.88630900  0.35613912  0.64034571  1
  C  C58  1  0.48245597  0.11672231  0.63611205  1
  C  C59  1  0.63909120  0.51713076  0.63867964  1
  C  C60  1  0.88237656  0.53040580  0.14039998  1
  C  C61  1  0.64055193  0.12358661  0.13295088  1
  C  C62  1  0.47142077  0.35723827  0.14021900  1
  C  C63  1  0.46012702  0.30835072  0.03236524  1
  C  C64  1  0.85589030  0.53940888  0.03151994  1
  C  C65  1  0.69019352  0.13740216  0.02499466  1
  C  C66  1  0.45364191  0.14795327  0.52902985  1
  C  C67  1  0.68266963  0.54199662  0.52483751  1
  C  C68  1  0.84893453  0.30505591  0.53248588  1
  C  C69  1  0.53999789  0.69188222  0.96755503  1
  C  C70  1  0.14407416  0.46019620  0.96838477  1
  C  C71  1  0.31009912  0.86239056  0.97487533  1
  C  C72  1  0.55182778  0.85921493  0.47304958  1
  C  C73  1  0.31484821  0.45575359  0.47147401  1
  C  C74  1  0.14359568  0.68495258  0.46841321  1
  C  C75  1  0.11553596  0.64642951  0.35958134  1
  C  C76  1  0.52397348  0.87930052  0.36492233  1
  C  C77  1  0.35450749  0.47982381  0.36277696  1
  C  C78  1  0.11753787  0.46946144  0.85955015  1
  C  C79  1  0.35981998  0.87656697  0.86694484  1
  C  C80  1  0.52845669  0.64277254  0.85968689  1
  C  C81  1  0.01146961  0.82050083  0.41219103  1
  C  C82  1  0.80648460  0.97747871  0.41217105  1
  C  C83  1  0.17466883  0.19510903  0.41218726  1
  C  C84  1  0.01592913  0.19205788  0.91293332  1
  C  C85  1  0.17722333  0.98402386  0.91183747  1
  C  C86  1  0.80430558  0.82597833  0.91168785  1
  C  C87  1  0.98841150  0.17994655  0.58848454  1
  C  C88  1  0.19845053  0.02668819  0.58973659  1
  C  C89  1  0.82787814  0.81677534  0.58662045  1
  C  C90  1  0.98300733  0.80740300  0.08688567  1
  C  C91  1  0.82291993  0.01591448  0.08816065  1
  C  C92  1  0.19535528  0.17456970  0.08803839  1
  C  C93  1  0.68661084  0.16812173  0.74428448  1
  C  C94  1  0.47498657  0.32308094  0.74530866  1
  C  C95  1  0.84027212  0.52955247  0.74541713  1
  C  C96  1  0.69134331  0.53045016  0.24523525  1
  C  C97  1  0.84911933  0.32512196  0.24394138  1
  C  C98  1  0.48072112  0.16624607  0.24258655  1
  C  C99  1  0.64841943  0.50954500  0.92282904  1
  C  C100  1  0.85803807  0.34734389  0.92037367  1
  C  C101  1  0.49391291  0.13916499  0.92302447  1
  C  C102  1  0.65389798  0.14188080  0.42325412  1
  C  C103  1  0.49184356  0.35488357  0.42012302  1
  C  C104  1  0.85793395  0.50751636  0.42057505  1
  C  C105  1  0.35186978  0.49083839  0.07708396  1
  C  C106  1  0.14175718  0.65264271  0.07956973  1
  C  C107  1  0.50625296  0.86083509  0.07692214  1
  C  C108  1  0.34995376  0.86185094  0.57606512  1
  C  C109  1  0.49971689  0.65076480  0.57833415  1
  C  C110  1  0.13996560  0.49212456  0.57695313  1
  C  C111  1  0.31167856  0.83349627  0.25518337  1
  C  C112  1  0.52246243  0.67345370  0.25625413  1
  C  C113  1  0.16136454  0.46971326  0.25590645  1
  C  C114  1  0.30786760  0.46881474  0.75452932  1
  C  C115  1  0.15239633  0.67471775  0.75694879  1
  C  C116  1  0.51987882  0.83376840  0.75634737  1
