# generated using pymatgen
data_CuNiC11
_symmetry_space_group_name_H-M   'P 1'
_cell_length_a   5.60277389
_cell_length_b   7.08575311
_cell_length_c   5.40545832
_cell_angle_alpha   91.28369069
_cell_angle_beta   90.14357034
_cell_angle_gamma   87.42087584
_symmetry_Int_Tables_number   1
_chemical_formula_structural   CuNiC11
_chemical_formula_sum   'Cu1 Ni1 C11'
_cell_volume   214.32458294
_cell_formula_units_Z   1
loop_
 _symmetry_equiv_pos_site_id
 _symmetry_equiv_pos_as_xyz
  1  'x, y, z'
loop_
 _atom_site_type_symbol
 _atom_site_label
 _atom_site_symmetry_multiplicity
 _atom_site_fract_x
 _atom_site_fract_y
 _atom_site_fract_z
 _atom_site_occupancy
  Ni  Ni0  1  0.91768600  0.37345000  0.50556900  1
  Cu  Cu1  1  0.90160000  0.87187800  0.49018800  1
  C  C2  1  0.08010900  0.10740200  0.00946300  1
  C  C3  1  0.41455000  0.64131100  0.49848600  1
  C  C4  1  0.58205900  0.37688500  0.99914600  1
  C  C5  1  0.99760800  0.12586200  0.33623900  1
  C  C6  1  0.09856500  0.60626500  0.45091900  1
  C  C7  1  0.39311900  0.18285800  0.97544700  1
  C  C8  1  0.51554500  0.57879500  0.81827700  1
  C  C9  1  0.60797200  0.44499000  0.33633700  1
  C  C10  1  0.54551100  0.84723500  0.42777600  1
  C  C11  1  0.88333400  0.30311400  0.86164500  1
  C  C12  1  0.01025800  0.90661900  0.84932400  1
