# generated using pymatgen
data_Cu4Ni9C61
_symmetry_space_group_name_H-M   'P 1'
_cell_length_a   17.91090048
_cell_length_b   8.94659501
_cell_length_c   22.82937337
_cell_angle_alpha   89.92535305
_cell_angle_beta   89.74340213
_cell_angle_gamma   119.90227390
_symmetry_Int_Tables_number   1
_chemical_formula_structural   Cu4Ni9C61
_chemical_formula_sum   'Cu12 Ni27 C183'
_cell_volume   3171.16387715
_cell_formula_units_Z   3
loop_
 _symmetry_equiv_pos_site_id
 _symmetry_equiv_pos_as_xyz
  1  'x, y, z'
loop_
 _atom_site_type_symbol
 _atom_site_label
 _atom_site_symmetry_multiplicity
 _atom_site_fract_x
 _atom_site_fract_y
 _atom_site_fract_z
 _atom_site_occupancy
  C  C0  1  0.00364819  0.64845845  0.24293651  1
  C  C1  1  0.50049164  0.62527544  0.24720463  1
  C  C2  1  0.99978607  0.37614969  0.74770622  1
  C  C3  1  0.50339973  0.36337744  0.74528813  1
  C  C4  1  0.33295052  0.96945263  0.58936790  1
  C  C5  1  0.83098323  0.69326625  0.08153242  1
  C  C6  1  0.99719109  0.01206395  0.50381143  1
  C  C7  1  0.50524234  0.99978345  0.50464870  1
  C  C8  1  0.00462232  0.01025703  0.99963502  1
  C  C9  1  0.49835137  0.98487145  0.99588751  1
  C  C10  1  0.32736920  0.33883194  0.82805022  1
  C  C11  1  0.82474806  0.33663290  0.83081292  1
  C  C12  1  0.32783960  0.31594413  0.33318517  1
  C  C13  1  0.81952644  0.31066360  0.33270756  1
  C  C14  1  0.17400416  0.68513936  0.16043937  1
  C  C15  1  0.66273455  0.65476584  0.16861880  1
  C  C16  1  0.16577162  0.67423032  0.67112060  1
  C  C17  1  0.66628465  0.66080919  0.66797565  1
  C  C18  1  0.00132740  0.00155601  0.35533509  1
  C  C19  1  0.50435712  0.00971204  0.35622940  1
  C  C20  1  0.00279356  0.99777817  0.85552579  1
  C  C21  1  0.50019701  0.98460164  0.85080031  1
  C  C22  1  0.00591401  0.99601096  0.63999891  1
  C  C23  1  0.50598644  0.01608449  0.13874992  1
  C  C24  1  0.33352241  0.34616145  0.98583574  1
  C  C25  1  0.83194314  0.34246021  0.97280130  1
  C  C26  1  0.33313827  0.32547449  0.47511129  1
  C  C27  1  0.83248411  0.31946954  0.48668058  1
  C  C28  1  0.16830042  0.65045618  0.02327428  1
  C  C29  1  0.66821123  0.68571911  0.52451213  1
  Ni  Ni30  1  0.14887088  0.99838053  0.25259843  1
  Ni  Ni31  1  0.64596683  0.00564005  0.24701018  1
  Ni  Ni32  1  0.85455273  0.71431903  0.24905539  1
  Ni  Ni33  1  0.49918088  0.28918044  0.25004373  1
  Ni  Ni34  1  0.14432800  0.28511625  0.74728769  1
  Ni  Ni35  1  0.64870606  0.29614525  0.75237373  1
  Ni  Ni36  1  0.99894017  0.70799712  0.75036058  1
  Ni  Ni37  1  0.50153773  0.70770321  0.74609527  1
  Ni  Ni38  1  0.35416509  0.99221203  0.74922210  1
  Ni  Ni39  1  0.47827215  0.33369150  0.58385313  1
  Ni  Ni40  1  0.98047729  0.33729809  0.58922752  1
  Ni  Ni41  1  0.19297040  0.04489532  0.58198652  1
  Ni  Ni42  1  0.68528273  0.04695099  0.58919735  1
  Ni  Ni43  1  0.83266708  0.62291605  0.58113911  1
  Ni  Ni44  1  0.48055313  0.62337734  0.08908940  1
  Ni  Ni45  1  0.97723862  0.61497252  0.08379454  1
  Ni  Ni46  1  0.33155720  0.04112353  0.08150414  1
  Ni  Ni47  1  0.18667260  0.32512874  0.08917226  1
  Ni  Ni48  1  0.69041211  0.34212185  0.08012927  1
  Ni  Ni49  1  0.31181098  0.66680024  0.91508894  1
  Ni  Ni50  1  0.81055765  0.67524005  0.91742836  1
  Ni  Ni51  1  0.02431847  0.37981356  0.91431883  1
  Ni  Ni52  1  0.66564825  0.95632479  0.91676256  1
  Ni  Ni53  1  0.31354214  0.95379855  0.41884310  1
  Ni  Ni54  1  0.80972172  0.95776159  0.41455388  1
  Ni  Ni55  1  0.16710619  0.38036118  0.41584244  1
  Ni  Ni56  1  0.52457038  0.66790374  0.41423342  1
  Cu  Cu57  1  0.50670090  0.01586486  0.65007025  1
  Cu  Cu58  1  0.00482560  0.98472429  0.14653175  1
  Cu  Cu59  1  0.33449660  0.32391572  0.69035450  1
  Cu  Cu60  1  0.82936327  0.34553658  0.68676010  1
  Cu  Cu61  1  0.33040938  0.31262437  0.18651937  1
  Cu  Cu62  1  0.82908855  0.34585287  0.18647081  1
  Cu  Cu63  1  0.66314946  0.67078768  0.01856122  1
  Cu  Cu64  1  0.16570956  0.65815767  0.52091277  1
  Cu  Cu65  1  0.17569866  0.67820714  0.31702874  1
  Cu  Cu66  1  0.66725533  0.67541746  0.30975823  1
  Cu  Cu67  1  0.16779477  0.65846441  0.80997945  1
  Cu  Cu68  1  0.66881982  0.67457576  0.81434915  1
  C  C69  1  0.35611151  0.71449072  0.24980634  1
  C  C70  1  0.00127703  0.29125581  0.25010299  1
  C  C71  1  0.85744034  0.99863947  0.74953178  1
  C  C72  1  0.33366224  0.62026900  0.58347730  1
  C  C73  1  0.83475519  0.04741963  0.08490605  1
  C  C74  1  0.51651413  0.36855399  0.91675061  1
  C  C75  1  0.16927867  0.95828167  0.91705558  1
  C  C76  1  0.66968305  0.38075799  0.41658932  1
  C  C77  1  0.01819207  0.66351528  0.41553699  1
  C  C78  1  0.09670575  0.01641264  0.30953198  1
  C  C79  1  0.59637883  0.02651562  0.30552190  1
  C  C80  1  0.40609494  0.79977642  0.30390258  1
  C  C81  1  0.92057663  0.82224451  0.30325698  1
  C  C82  1  0.48800446  0.16800241  0.30805555  1
  C  C83  1  0.99252697  0.18686049  0.30332447  1
  C  C84  1  0.09284119  0.16555291  0.80564271  1
  C  C85  1  0.59651971  0.17062332  0.80870146  1
  C  C86  1  0.48958018  0.80050986  0.80575492  1
  C  C87  1  0.98760623  0.80697929  0.80822656  1
  C  C88  1  0.41869060  0.01675869  0.80415028  1
  C  C89  1  0.90877611  0.01628661  0.80339920  1
  C  C90  1  0.39305252  0.96548263  0.68715438  1
  C  C91  1  0.89889828  0.98029108  0.69616664  1
  C  C92  1  0.08094275  0.18455610  0.69141725  1
  C  C93  1  0.58805773  0.22882939  0.69380302  1
  C  C94  1  0.00494935  0.82490966  0.69262849  1
  C  C95  1  0.51951447  0.82812355  0.68903446  1
  C  C96  1  0.39622522  0.81572851  0.19668173  1
  C  C97  1  0.89435262  0.82479750  0.18809614  1
  C  C98  1  0.01438761  0.21314732  0.19672908  1
  C  C99  1  0.50513951  0.18474385  0.19259403  1
  C  C100  1  0.08616735  0.94593699  0.19512142  1
  C  C101  1  0.58366899  0.98248499  0.19123445  1
  C  C102  1  0.44416226  0.37299354  0.64506473  1
  C  C103  1  0.93795609  0.36469065  0.64825701  1
  C  C104  1  0.25373172  0.12514937  0.63889710  1
  C  C105  1  0.74662315  0.12799252  0.64477055  1
  C  C106  1  0.32242762  0.51974357  0.63717752  1
  C  C107  1  0.81015814  0.51001771  0.64022915  1
  C  C108  1  0.43842727  0.51157440  0.14870839  1
  C  C109  1  0.94282269  0.51039208  0.14695103  1
  C  C110  1  0.30810627  0.10599121  0.14139394  1
  C  C111  1  0.82334344  0.12725639  0.13952974  1
  C  C112  1  0.24574093  0.36329548  0.14627772  1
  C  C113  1  0.74963244  0.38990999  0.13907952  1
  C  C114  1  0.23444753  0.30233976  0.03007418  1
  C  C115  1  0.73584965  0.30798980  0.02425141  1
  C  C116  1  0.41767609  0.52685310  0.03118737  1
  C  C117  1  0.91042755  0.51013733  0.03100547  1
  C  C118  1  0.34746887  0.16753503  0.02497509  1
  C  C119  1  0.84283760  0.14683720  0.03193912  1
  C  C120  1  0.23571902  0.16517963  0.52397508  1
  C  C121  1  0.73544428  0.16463859  0.52919375  1
  C  C122  1  0.33993829  0.53524189  0.52981308  1
  C  C123  1  0.84789419  0.52773233  0.52360652  1
  C  C124  1  0.41226601  0.30894069  0.52937109  1
  C  C125  1  0.91781215  0.30870439  0.53063831  1
  C  C126  1  0.26325901  0.68711317  0.97358150  1
  C  C127  1  0.77328055  0.70611070  0.97880448  1
  C  C128  1  0.08609392  0.47716287  0.97067882  1
  C  C129  1  0.57065406  0.45046474  0.96937359  1
  C  C130  1  0.15567576  0.85219139  0.96947899  1
  C  C131  1  0.64318998  0.83678792  0.97519254  1
  C  C132  1  0.27301259  0.83924982  0.47764517  1
  C  C133  1  0.76560761  0.84037067  0.47275312  1
  C  C134  1  0.14209877  0.45570641  0.47226949  1
  C  C135  1  0.65622566  0.45910391  0.46862368  1
  C  C136  1  0.07188996  0.68965048  0.46699643  1
  C  C137  1  0.58755203  0.69753857  0.46975997  1
  C  C138  1  0.05644768  0.64013840  0.36039689  1
  C  C139  1  0.55795586  0.62432235  0.35362396  1
  C  C140  1  0.25489943  0.88416514  0.36042436  1
  C  C141  1  0.75194682  0.87955204  0.35648022  1
  C  C142  1  0.18209912  0.49063708  0.35535344  1
  C  C143  1  0.68126722  0.47846160  0.36200575  1
  C  C144  1  0.05828576  0.49198833  0.85437775  1
  C  C145  1  0.55457682  0.47215916  0.86259367  1
  C  C146  1  0.18080747  0.88347985  0.86289835  1
  C  C147  1  0.68545128  0.87810229  0.85870155  1
  C  C148  1  0.25165330  0.62461097  0.85818720  1
  C  C149  1  0.75065115  0.63501528  0.86101870  1
  C  C150  1  0.00894535  0.82120564  0.41119132  1
  C  C151  1  0.51551792  0.84231419  0.40685584  1
  C  C152  1  0.40982730  0.97600508  0.40916451  1
  C  C153  1  0.90743987  0.98065352  0.40648014  1
  C  C154  1  0.08217983  0.18570492  0.40596815  1
  C  C155  1  0.59030859  0.20175657  0.41213790  1
  C  C156  1  0.01529636  0.18782078  0.90841731  1
  C  C157  1  0.50659603  0.19494625  0.91213137  1
  C  C158  1  0.08949323  0.97756008  0.91280640  1
  C  C159  1  0.58245573  0.98465106  0.90970868  1
  C  C160  1  0.40716809  0.83939361  0.91110262  1
  C  C161  1  0.90787363  0.84332074  0.90877457  1
  C  C162  1  0.47822046  0.14956855  0.58515938  1
  C  C163  1  0.98587996  0.15981736  0.59113348  1
  C  C164  1  0.09641486  0.02370513  0.58780660  1
  C  C165  1  0.59095328  0.02820838  0.58697093  1
  C  C166  1  0.41093951  0.79576290  0.58501069  1
  C  C167  1  0.91845847  0.81398649  0.58736854  1
  C  C168  1  0.48595449  0.81185722  0.09224112  1
  C  C169  1  0.97683500  0.79994626  0.08454386  1
  C  C170  1  0.41745759  0.02153115  0.08893712  1
  C  C171  1  0.91341209  0.02941877  0.08863652  1
  C  C172  1  0.08905645  0.15891663  0.09015055  1
  C  C173  1  0.59491588  0.16953386  0.08637023  1
  C  C174  1  0.35480906  0.17635842  0.75001394  1
  C  C175  1  0.85253179  0.15992627  0.74830921  1
  C  C176  1  0.23815120  0.30224175  0.74464497  1
  C  C177  1  0.74058129  0.30080089  0.75021402  1
  C  C178  1  0.41533869  0.51714142  0.74608468  1
  C  C179  1  0.91551011  0.51250413  0.74849104  1
  C  C180  1  0.35017077  0.54309998  0.24885391  1
  C  C181  1  0.85778146  0.53223331  0.24902974  1
  C  C182  1  0.41575314  0.31873564  0.24851010  1
  C  C183  1  0.92217517  0.30533598  0.24791361  1
  C  C184  1  0.24097266  0.17296490  0.25034431  1
  C  C185  1  0.74295101  0.17404174  0.24400076  1
  C  C186  1  0.32454814  0.49601286  0.92606135  1
  C  C187  1  0.82437249  0.50449995  0.92230675  1
  C  C188  1  0.42989990  0.35273593  0.92338827  1
  C  C189  1  0.92826093  0.35244189  0.92845507  1
  C  C190  1  0.24494031  0.13558168  0.92293840  1
  C  C191  1  0.75295576  0.14649264  0.92540161  1
  C  C192  1  0.32692564  0.14965295  0.42389667  1
  C  C193  1  0.82482608  0.15546487  0.42405581  1
  C  C194  1  0.25231445  0.36094228  0.42380741  1
  C  C195  1  0.74550701  0.35459616  0.42180894  1
  C  C196  1  0.42801568  0.50674705  0.42807134  1
  C  C197  1  0.93078605  0.51016475  0.42070128  1
  C  C198  1  0.17784048  0.49817685  0.07875362  1
  C  C199  1  0.68176806  0.51385158  0.07377940  1
  C  C200  1  0.07386646  0.64694606  0.07346089  1
  C  C201  1  0.57520349  0.64330100  0.08047429  1
  C  C202  1  0.24819028  0.85120425  0.07004178  1
  C  C203  1  0.75815486  0.86920107  0.08265292  1
  C  C204  1  0.18458277  0.85467396  0.57551365  1
  C  C205  1  0.67700216  0.85623896  0.57845155  1
  C  C206  1  0.25550828  0.64319770  0.58115037  1
  C  C207  1  0.74908050  0.64531427  0.56884878  1
  C  C208  1  0.07468681  0.50833166  0.58027138  1
  C  C209  1  0.57458722  0.49752953  0.57037354  1
  C  C210  1  0.15110889  0.81438531  0.25840181  1
  C  C211  1  0.64631725  0.82397785  0.24975588  1
  C  C212  1  0.26706109  0.69287106  0.25257967  1
  C  C213  1  0.75858298  0.68352248  0.25558367  1
  C  C214  1  0.07710369  0.46915913  0.25587478  1
  C  C215  1  0.58581340  0.47745489  0.25356567  1
  C  C216  1  0.14403586  0.46659167  0.74995791  1
  C  C217  1  0.65652001  0.48631244  0.75929633  1
  C  C218  1  0.08583948  0.69471175  0.75383412  1
  C  C219  1  0.58485726  0.67942864  0.75501047  1
  C  C220  1  0.25866027  0.82694902  0.75521321  1
  C  C221  1  0.77048911  0.84431496  0.75268442  1
