# generated using pymatgen
data_Cu5(Ni7C12)2
_symmetry_space_group_name_H-M   'P 1'
_cell_length_a   6.01783900
_cell_length_b   10.35443200
_cell_length_c   14.68811500
_cell_angle_alpha   90.00000000
_cell_angle_beta   90.00000000
_cell_angle_gamma   90.00000000
_symmetry_Int_Tables_number   1
_chemical_formula_structural   Cu5(Ni7C12)2
_chemical_formula_sum   'Cu10 Ni28 C48'
_cell_volume   915.23560942
_cell_formula_units_Z   2
loop_
 _symmetry_equiv_pos_site_id
 _symmetry_equiv_pos_as_xyz
  1  'x, y, z'
loop_
 _atom_site_type_symbol
 _atom_site_label
 _atom_site_symmetry_multiplicity
 _atom_site_fract_x
 _atom_site_fract_y
 _atom_site_fract_z
 _atom_site_occupancy
  Ni  Ni0  1  0.50000000  0.50000000  0.00000000  1
  Ni  Ni1  1  0.50000000  0.00000000  0.50000000  1
  Ni  Ni2  1  0.50000000  0.00000000  0.00000000  1
  Ni  Ni3  1  0.50000000  0.50000000  0.50000000  1
  Ni  Ni4  1  0.00000000  0.82146600  0.82422100  1
  Ni  Ni5  1  0.00000000  0.17853400  0.17577900  1
  Ni  Ni6  1  0.00000000  0.32146600  0.67577900  1
  Ni  Ni7  1  0.00000000  0.67853400  0.32422100  1
  Ni  Ni8  1  0.50000000  0.85343000  0.67441300  1
  Ni  Ni9  1  0.50000000  0.14657000  0.32558700  1
  Ni  Ni10  1  0.50000000  0.35343000  0.82558700  1
  Ni  Ni11  1  0.50000000  0.64657000  0.17441300  1
  Ni  Ni12  1  0.75790100  0.74868800  0.00466000  1
  Ni  Ni13  1  0.75790100  0.25131200  0.99534000  1
  Ni  Ni14  1  0.24209900  0.24868800  0.49534000  1
  Ni  Ni15  1  0.24209900  0.75131200  0.50466000  1
  Ni  Ni16  1  0.24209900  0.25131200  0.99534000  1
  Ni  Ni17  1  0.24209900  0.74868800  0.00466000  1
  Ni  Ni18  1  0.75790100  0.75131200  0.50466000  1
  Ni  Ni19  1  0.75790100  0.24868800  0.49534000  1
  Ni  Ni20  1  0.75380900  0.58104900  0.66851200  1
  Ni  Ni21  1  0.75380900  0.41895100  0.33148800  1
  Ni  Ni22  1  0.24619100  0.08104900  0.83148800  1
  Ni  Ni23  1  0.24619100  0.91895100  0.16851200  1
  Ni  Ni24  1  0.24619100  0.41895100  0.33148800  1
  Ni  Ni25  1  0.24619100  0.58104900  0.66851200  1
  Ni  Ni26  1  0.75380900  0.91895100  0.16851200  1
  Ni  Ni27  1  0.75380900  0.08104900  0.83148800  1
  Cu  Cu28  1  0.00000000  0.00000000  0.00000000  1
  Cu  Cu29  1  0.00000000  0.50000000  0.50000000  1
  Cu  Cu30  1  0.00000000  0.49870400  0.87439600  1
  Cu  Cu31  1  0.00000000  0.50129600  0.12560400  1
  Cu  Cu32  1  0.00000000  0.99870400  0.62560400  1
  Cu  Cu33  1  0.00000000  0.00129600  0.37439600  1
  Cu  Cu34  1  0.50000000  0.67450100  0.81389800  1
  Cu  Cu35  1  0.50000000  0.32549900  0.18610200  1
  Cu  Cu36  1  0.50000000  0.17450100  0.68610200  1
  Cu  Cu37  1  0.50000000  0.82549900  0.31389800  1
  C  C38  1  0.00000000  0.66283900  0.91619400  1
  C  C39  1  0.00000000  0.33716100  0.08380600  1
  C  C40  1  0.00000000  0.16283900  0.58380600  1
  C  C41  1  0.00000000  0.83716100  0.41619400  1
  C  C42  1  0.00000000  0.65187700  0.57867900  1
  C  C43  1  0.00000000  0.34812300  0.42132100  1
  C  C44  1  0.00000000  0.15187700  0.92132100  1
  C  C45  1  0.00000000  0.84812300  0.07867900  1
  C  C46  1  0.00000000  0.99644900  0.74825900  1
  C  C47  1  0.00000000  0.00355100  0.25174100  1
  C  C48  1  0.00000000  0.49644900  0.75174100  1
  C  C49  1  0.00000000  0.50355100  0.24825900  1
  C  C50  1  0.50000000  0.67029400  0.93255300  1
  C  C51  1  0.50000000  0.32970600  0.06744700  1
  C  C52  1  0.50000000  0.17029400  0.56744700  1
  C  C53  1  0.50000000  0.82970600  0.43255300  1
  C  C54  1  0.50000000  0.66853200  0.58592300  1
  C  C55  1  0.50000000  0.33146800  0.41407700  1
  C  C56  1  0.50000000  0.16853200  0.91407700  1
  C  C57  1  0.50000000  0.83146800  0.08592300  1
  C  C58  1  0.50000000  0.02210000  0.74405200  1
  C  C59  1  0.50000000  0.97790000  0.25594800  1
  C  C60  1  0.50000000  0.52210000  0.75594800  1
  C  C61  1  0.50000000  0.47790000  0.24405200  1
  C  C62  1  0.77554700  0.92224200  0.92416800  1
  C  C63  1  0.77554700  0.07775800  0.07583200  1
  C  C64  1  0.22445300  0.42224200  0.57583200  1
  C  C65  1  0.22445300  0.57775800  0.42416800  1
  C  C66  1  0.22445300  0.07775800  0.07583200  1
  C  C67  1  0.22445300  0.92224200  0.92416800  1
  C  C68  1  0.77554700  0.57775800  0.42416800  1
  C  C69  1  0.77554700  0.42224200  0.57583200  1
  C  C70  1  0.75171900  0.91867700  0.58588500  1
  C  C71  1  0.75171900  0.08132300  0.41411500  1
  C  C72  1  0.24828100  0.41867700  0.91411500  1
  C  C73  1  0.24828100  0.58132300  0.08588500  1
  C  C74  1  0.24828100  0.08132300  0.41411500  1
  C  C75  1  0.24828100  0.91867700  0.58588500  1
  C  C76  1  0.75171900  0.58132300  0.08588500  1
  C  C77  1  0.75171900  0.41867700  0.91411500  1
  C  C78  1  0.72750300  0.74874100  0.75677100  1
  C  C79  1  0.72750300  0.25125900  0.24322900  1
  C  C80  1  0.27249700  0.24874100  0.74322900  1
  C  C81  1  0.27249700  0.75125900  0.25677100  1
  C  C82  1  0.27249700  0.25125900  0.24322900  1
  C  C83  1  0.27249700  0.74874100  0.75677100  1
  C  C84  1  0.72750300  0.75125900  0.25677100  1
  C  C85  1  0.72750300  0.24874100  0.74322900  1
