# generated using pymatgen
data_Cu3(NiC2)2
_symmetry_space_group_name_H-M   'P 1'
_cell_length_a   13.91073100
_cell_length_b   13.91073100
_cell_length_c   13.91073100
_cell_angle_alpha   90.00000000
_cell_angle_beta   90.00000000
_cell_angle_gamma   90.00000000
_symmetry_Int_Tables_number   1
_chemical_formula_structural   Cu3(NiC2)2
_chemical_formula_sum   'Cu24 Ni16 C32'
_cell_volume   2691.84381270
_cell_formula_units_Z   8
loop_
 _symmetry_equiv_pos_site_id
 _symmetry_equiv_pos_as_xyz
  1  'x, y, z'
loop_
 _atom_site_type_symbol
 _atom_site_label
 _atom_site_symmetry_multiplicity
 _atom_site_fract_x
 _atom_site_fract_y
 _atom_site_fract_z
 _atom_site_occupancy
  C  C0  1  0.02901600  0.00569400  0.24902900  1
  C  C1  1  0.24902900  0.02901600  0.00569400  1
  C  C2  1  0.00569400  0.24902900  0.02901600  1
  C  C3  1  0.49430600  0.75097200  0.52901600  1
  C  C4  1  0.74902800  0.47098400  0.99430600  1
  C  C5  1  0.99430600  0.74902800  0.47098400  1
  C  C6  1  0.25097200  0.97098400  0.50569400  1
  C  C7  1  0.75097200  0.52901600  0.49430600  1
  C  C8  1  0.50569400  0.25097200  0.97098400  1
  C  C9  1  0.52901600  0.49430600  0.75097200  1
  C  C10  1  0.97098400  0.50569400  0.25097200  1
  C  C11  1  0.47098400  0.99430600  0.74902800  1
  C  C12  1  0.97098400  0.99430600  0.75097200  1
  C  C13  1  0.75097200  0.97098400  0.99430600  1
  C  C14  1  0.99430600  0.75097200  0.97098400  1
  C  C15  1  0.50569400  0.24902900  0.47098400  1
  C  C16  1  0.25097200  0.52901600  0.00569400  1
  C  C17  1  0.00569400  0.25097200  0.52901600  1
  C  C18  1  0.74902800  0.02901600  0.49430600  1
  C  C19  1  0.24902900  0.47098400  0.50569400  1
  C  C20  1  0.49430600  0.74902800  0.02901600  1
  C  C21  1  0.47098400  0.50569400  0.24902900  1
  C  C22  1  0.02901600  0.49430600  0.74902800  1
  C  C23  1  0.52901600  0.00569400  0.25097200  1
  C  C24  1  0.77845200  0.22154800  0.72154800  1
  C  C25  1  0.72154800  0.77845200  0.22154800  1
  C  C26  1  0.22154800  0.72154800  0.77845200  1
  C  C27  1  0.27845200  0.27845200  0.27845200  1
  C  C28  1  0.22154800  0.77845200  0.27845200  1
  C  C29  1  0.27845200  0.22154800  0.77845200  1
  C  C30  1  0.77845200  0.27845200  0.22154800  1
  C  C31  1  0.72154800  0.72154800  0.72154800  1
  Ni  Ni32  1  0.89247900  0.10752100  0.60752100  1
  Ni  Ni33  1  0.60752100  0.89247900  0.10752100  1
  Ni  Ni34  1  0.10752100  0.60752100  0.89247900  1
  Ni  Ni35  1  0.39247900  0.39247900  0.39247900  1
  Ni  Ni36  1  0.10752100  0.89247900  0.39247900  1
  Ni  Ni37  1  0.39247900  0.10752100  0.89247900  1
  Ni  Ni38  1  0.89247900  0.39247900  0.10752100  1
  Ni  Ni39  1  0.60752100  0.60752100  0.60752100  1
  Ni  Ni40  1  0.55885300  0.05885300  0.44114700  1
  Ni  Ni41  1  0.44114700  0.55885300  0.05885300  1
  Ni  Ni42  1  0.05885300  0.44114700  0.55885300  1
  Ni  Ni43  1  0.94114700  0.94114700  0.94114700  1
  Ni  Ni44  1  0.44114700  0.94114700  0.55885300  1
  Ni  Ni45  1  0.55885300  0.44114700  0.94114700  1
  Ni  Ni46  1  0.94114700  0.55885300  0.44114700  1
  Ni  Ni47  1  0.05885300  0.05885300  0.05885300  1
  Cu  Cu48  1  0.23740400  0.18432400  0.56793700  1
  Cu  Cu49  1  0.56793700  0.23740400  0.18432400  1
  Cu  Cu50  1  0.18432400  0.56793700  0.23740400  1
  Cu  Cu51  1  0.31567600  0.43206300  0.73740400  1
  Cu  Cu52  1  0.06793700  0.26259600  0.81567600  1
  Cu  Cu53  1  0.81567600  0.06793700  0.26259600  1
  Cu  Cu54  1  0.93206300  0.76259600  0.68432400  1
  Cu  Cu55  1  0.43206300  0.73740400  0.31567600  1
  Cu  Cu56  1  0.68432400  0.93206300  0.76259600  1
  Cu  Cu57  1  0.73740400  0.31567600  0.43206300  1
  Cu  Cu58  1  0.76259600  0.68432400  0.93206300  1
  Cu  Cu59  1  0.26259600  0.81567600  0.06793700  1
  Cu  Cu60  1  0.76259600  0.81567600  0.43206300  1
  Cu  Cu61  1  0.43206300  0.76259600  0.81567600  1
  Cu  Cu62  1  0.81567600  0.43206300  0.76259600  1
  Cu  Cu63  1  0.68432400  0.56793700  0.26259600  1
  Cu  Cu64  1  0.93206300  0.73740400  0.18432400  1
  Cu  Cu65  1  0.18432400  0.93206300  0.73740400  1
  Cu  Cu66  1  0.06793700  0.23740400  0.31567600  1
  Cu  Cu67  1  0.56793700  0.26259600  0.68432400  1
  Cu  Cu68  1  0.31567600  0.06793700  0.23740400  1
  Cu  Cu69  1  0.26259600  0.68432400  0.56793700  1
  Cu  Cu70  1  0.23740400  0.31567600  0.06793700  1
  Cu  Cu71  1  0.73740400  0.18432400  0.93206300  1
