# generated using pymatgen
data_Cu3(Ni2C)2
_symmetry_space_group_name_H-M   'P 1'
_cell_length_a   4.88507700
_cell_length_b   7.67382100
_cell_length_c   12.48051900
_cell_angle_alpha   90.00000000
_cell_angle_beta   90.00000000
_cell_angle_gamma   90.00000000
_symmetry_Int_Tables_number   1
_chemical_formula_structural   Cu3(Ni2C)2
_chemical_formula_sum   'Cu6 Ni8 C4'
_cell_volume   467.85979260
_cell_formula_units_Z   2
loop_
 _symmetry_equiv_pos_site_id
 _symmetry_equiv_pos_as_xyz
  1  'x, y, z'
loop_
 _atom_site_type_symbol
 _atom_site_label
 _atom_site_symmetry_multiplicity
 _atom_site_fract_x
 _atom_site_fract_y
 _atom_site_fract_z
 _atom_site_occupancy
  C  C0  1  0.74666400  0.77274800  0.50000000  1
  C  C1  1  0.74666400  0.22725200  0.50000000  1
  C  C2  1  0.25333600  0.72725200  0.00000000  1
  C  C3  1  0.25333600  0.27274800  0.00000000  1
  Ni  Ni4  1  0.00000000  0.25000000  0.75000000  1
  Ni  Ni5  1  0.00000000  0.75000000  0.75000000  1
  Ni  Ni6  1  0.00000000  0.75000000  0.25000000  1
  Ni  Ni7  1  0.55157800  0.00000000  0.15607300  1
  Ni  Ni8  1  0.44842200  0.50000000  0.34392700  1
  Ni  Ni9  1  0.55157800  0.00000000  0.84392700  1
  Ni  Ni10  1  0.00000000  0.25000000  0.25000000  1
  Ni  Ni11  1  0.44842200  0.50000000  0.65607300  1
  Cu  Cu12  1  0.18151600  0.50000000  0.50000000  1
  Cu  Cu13  1  0.75164500  0.50000000  0.19745200  1
  Cu  Cu14  1  0.75164500  0.50000000  0.80254800  1
  Cu  Cu15  1  0.24835500  0.00000000  0.69745200  1
  Cu  Cu16  1  0.81848400  0.00000000  0.00000000  1
  Cu  Cu17  1  0.24835500  0.00000000  0.30254800  1
