# generated using pymatgen
data_CuNi2
_symmetry_space_group_name_H-M   'P 1'
_cell_length_a   11.12513300
_cell_length_b   11.12513300
_cell_length_c   11.12513300
_cell_angle_alpha   90.00000000
_cell_angle_beta   90.00000000
_cell_angle_gamma   90.00000000
_symmetry_Int_Tables_number   1
_chemical_formula_structural   CuNi2
_chemical_formula_sum   'Cu24 Ni48'
_cell_volume   1376.94196120
_cell_formula_units_Z   24
loop_
 _symmetry_equiv_pos_site_id
 _symmetry_equiv_pos_as_xyz
  1  'x, y, z'
loop_
 _atom_site_type_symbol
 _atom_site_label
 _atom_site_symmetry_multiplicity
 _atom_site_fract_x
 _atom_site_fract_y
 _atom_site_fract_z
 _atom_site_occupancy
  Ni  Ni0  1  0.09196800  0.91278900  0.99519400  1
  Ni  Ni1  1  0.99519400  0.09196800  0.91278900  1
  Ni  Ni2  1  0.91278900  0.99519400  0.09196800  1
  Ni  Ni3  1  0.58721100  0.00480600  0.59196800  1
  Ni  Ni4  1  0.49519400  0.40803200  0.08721100  1
  Ni  Ni5  1  0.08721100  0.49519400  0.40803200  1
  Ni  Ni6  1  0.50480600  0.90803200  0.41278900  1
  Ni  Ni7  1  0.00480600  0.59196800  0.58721100  1
  Ni  Ni8  1  0.41278900  0.50480600  0.90803200  1
  Ni  Ni9  1  0.59196800  0.58721100  0.00480600  1
  Ni  Ni10  1  0.90803200  0.41278900  0.50480600  1
  Ni  Ni11  1  0.40803200  0.08721100  0.49519400  1
  Ni  Ni12  1  0.90803200  0.08721100  0.00480600  1
  Ni  Ni13  1  0.00480600  0.90803200  0.08721100  1
  Ni  Ni14  1  0.08721100  0.00480600  0.90803200  1
  Ni  Ni15  1  0.41278900  0.99519400  0.40803200  1
  Ni  Ni16  1  0.50480600  0.59196800  0.91278900  1
  Ni  Ni17  1  0.91278900  0.50480600  0.59196800  1
  Ni  Ni18  1  0.49519400  0.09196800  0.58721100  1
  Ni  Ni19  1  0.99519400  0.40803200  0.41278900  1
  Ni  Ni20  1  0.58721100  0.49519400  0.09196800  1
  Ni  Ni21  1  0.40803200  0.41278900  0.99519400  1
  Ni  Ni22  1  0.09196800  0.58721100  0.49519400  1
  Ni  Ni23  1  0.59196800  0.91278900  0.50480600  1
  Ni  Ni24  1  0.18471700  0.82474300  0.98993300  1
  Ni  Ni25  1  0.98993300  0.18471700  0.82474300  1
  Ni  Ni26  1  0.82474300  0.98993300  0.18471700  1
  Ni  Ni27  1  0.67525700  0.01006700  0.68471700  1
  Ni  Ni28  1  0.48993300  0.31528300  0.17525700  1
  Ni  Ni29  1  0.17525700  0.48993300  0.31528300  1
  Ni  Ni30  1  0.51006700  0.81528300  0.32474300  1
  Ni  Ni31  1  0.01006700  0.68471700  0.67525700  1
  Ni  Ni32  1  0.32474300  0.51006700  0.81528300  1
  Ni  Ni33  1  0.68471700  0.67525700  0.01006700  1
  Ni  Ni34  1  0.81528300  0.32474300  0.51006700  1
  Ni  Ni35  1  0.31528300  0.17525700  0.48993300  1
  Ni  Ni36  1  0.81528300  0.17525700  0.01006700  1
  Ni  Ni37  1  0.01006700  0.81528300  0.17525700  1
  Ni  Ni38  1  0.17525700  0.01006700  0.81528300  1
  Ni  Ni39  1  0.32474300  0.98993300  0.31528300  1
  Ni  Ni40  1  0.51006700  0.68471700  0.82474300  1
  Ni  Ni41  1  0.82474300  0.51006700  0.68471700  1
  Ni  Ni42  1  0.48993300  0.18471700  0.67525700  1
  Ni  Ni43  1  0.98993300  0.31528300  0.32474300  1
  Ni  Ni44  1  0.67525700  0.48993300  0.18471700  1
  Ni  Ni45  1  0.31528300  0.32474300  0.98993300  1
  Ni  Ni46  1  0.18471700  0.67525700  0.48993300  1
  Ni  Ni47  1  0.68471700  0.82474300  0.51006700  1
  Cu  Cu48  1  0.26063200  0.75262200  0.98467700  1
  Cu  Cu49  1  0.98467700  0.26063200  0.75262200  1
  Cu  Cu50  1  0.75262200  0.98467700  0.26063200  1
  Cu  Cu51  1  0.74737800  0.01532300  0.76063200  1
  Cu  Cu52  1  0.48467700  0.23936800  0.24737800  1
  Cu  Cu53  1  0.24737800  0.48467700  0.23936800  1
  Cu  Cu54  1  0.51532300  0.73936800  0.25262200  1
  Cu  Cu55  1  0.01532300  0.76063200  0.74737800  1
  Cu  Cu56  1  0.25262200  0.51532300  0.73936800  1
  Cu  Cu57  1  0.76063200  0.74737800  0.01532300  1
  Cu  Cu58  1  0.73936800  0.25262200  0.51532300  1
  Cu  Cu59  1  0.23936800  0.24737800  0.48467700  1
  Cu  Cu60  1  0.73936800  0.24737800  0.01532300  1
  Cu  Cu61  1  0.01532300  0.73936800  0.24737800  1
  Cu  Cu62  1  0.24737800  0.01532300  0.73936800  1
  Cu  Cu63  1  0.25262200  0.98467700  0.23936800  1
  Cu  Cu64  1  0.51532300  0.76063200  0.75262200  1
  Cu  Cu65  1  0.75262200  0.51532300  0.76063200  1
  Cu  Cu66  1  0.48467700  0.26063200  0.74737800  1
  Cu  Cu67  1  0.98467700  0.23936800  0.25262200  1
  Cu  Cu68  1  0.74737800  0.48467700  0.26063200  1
  Cu  Cu69  1  0.23936800  0.25262200  0.98467700  1
  Cu  Cu70  1  0.26063200  0.74737800  0.48467700  1
  Cu  Cu71  1  0.76063200  0.75262200  0.51532300  1
