# generated using pymatgen
data_Cu8NiC16
_symmetry_space_group_name_H-M   'P 1'
_cell_length_a   9.78551761
_cell_length_b   9.70836061
_cell_length_c   3.10844700
_cell_angle_alpha   90.00000000
_cell_angle_beta   90.00000000
_cell_angle_gamma   92.66868036
_symmetry_Int_Tables_number   1
_chemical_formula_structural   Cu8NiC16
_chemical_formula_sum   'Cu8 Ni1 C16'
_cell_volume   294.98634333
_cell_formula_units_Z   1
loop_
 _symmetry_equiv_pos_site_id
 _symmetry_equiv_pos_as_xyz
  1  'x, y, z'
loop_
 _atom_site_type_symbol
 _atom_site_label
 _atom_site_symmetry_multiplicity
 _atom_site_fract_x
 _atom_site_fract_y
 _atom_site_fract_z
 _atom_site_occupancy
  Ni  Ni0  1  0.98567700  0.24212000  0.00000000  1
  Cu  Cu1  1  0.04533000  0.95681900  0.00000000  1
  Cu  Cu2  1  0.99068400  0.52367300  0.00000000  1
  Cu  Cu3  1  0.23780700  0.24860100  0.50000000  1
  Cu  Cu4  1  0.23393400  0.72658900  0.50000000  1
  Cu  Cu5  1  0.51510200  0.50946300  0.00000000  1
  Cu  Cu6  1  0.49935100  0.99335700  0.00000000  1
  Cu  Cu7  1  0.72541400  0.28952800  0.50000000  1
  Cu  Cu8  1  0.75206800  0.73139300  0.50000000  1
  C  C9  1  0.07259700  0.36677900  0.50000000  1
  C  C10  1  0.12054400  0.87453300  0.50000000  1
  C  C11  1  0.15914600  0.14477300  0.00000000  1
  C  C12  1  0.16140600  0.62529500  0.00000000  1
  C  C13  1  0.57591600  0.40632600  0.50000000  1
  C  C14  1  0.65189300  0.65559500  0.00000000  1
  C  C15  1  0.82826500  0.36297500  0.00000000  1
  C  C16  1  0.90407700  0.60976300  0.50000000  1
  C  C17  1  0.33969300  0.35523600  0.00000000  1
  C  C18  1  0.35782100  0.82513500  0.00000000  1
  C  C19  1  0.40385500  0.10588600  0.50000000  1
  C  C20  1  0.40564800  0.59710200  0.50000000  1
  C  C21  1  0.60930700  0.90088800  0.50000000  1
  C  C22  1  0.64810300  0.16174400  0.00000000  1
  C  C23  1  0.84561400  0.85391100  0.00000000  1
  C  C24  1  0.89602900  0.13390500  0.50000000  1
