# generated using pymatgen
data_Cu14Ni2C15
_symmetry_space_group_name_H-M   'P 1'
_cell_length_a   12.30793800
_cell_length_b   6.25947100
_cell_length_c   9.05810486
_cell_angle_alpha   76.01178540
_cell_angle_beta   90.00000000
_cell_angle_gamma   90.00000000
_symmetry_Int_Tables_number   1
_chemical_formula_structural   Cu14Ni2C15
_chemical_formula_sum   'Cu28 Ni4 C30'
_cell_volume   677.15276686
_cell_formula_units_Z   2
loop_
 _symmetry_equiv_pos_site_id
 _symmetry_equiv_pos_as_xyz
  1  'x, y, z'
loop_
 _atom_site_type_symbol
 _atom_site_label
 _atom_site_symmetry_multiplicity
 _atom_site_fract_x
 _atom_site_fract_y
 _atom_site_fract_z
 _atom_site_occupancy
  C  C0  1  0.16058600  0.65400700  0.63725200  1
  C  C1  1  0.66058600  0.34599300  0.86274800  1
  C  C2  1  0.83941400  0.34599300  0.36274800  1
  C  C3  1  0.33941400  0.65400700  0.13725200  1
  C  C4  1  0.50000000  0.00000000  0.50000000  1
  C  C5  1  0.00000000  0.00000000  0.00000000  1
  C  C6  1  0.64617000  0.67583900  0.52352500  1
  C  C7  1  0.14617000  0.32416100  0.97647500  1
  C  C8  1  0.35383000  0.32416100  0.47647500  1
  C  C9  1  0.85383000  0.67583900  0.02352500  1
  C  C10  1  0.56230200  0.66931500  0.38955400  1
  C  C11  1  0.06230200  0.33068500  0.11044600  1
  C  C12  1  0.39501100  0.07376500  0.22888800  1
  C  C13  1  0.89501100  0.92623500  0.27111200  1
  C  C14  1  0.60498900  0.92623500  0.77111200  1
  C  C15  1  0.10498900  0.07376500  0.72888800  1
  C  C16  1  0.38020800  0.90391600  0.75776500  1
  C  C17  1  0.88020800  0.09608400  0.74223500  1
  C  C18  1  0.61979200  0.09608400  0.24223500  1
  C  C19  1  0.11979200  0.90391600  0.25776500  1
  C  C20  1  0.41718800  0.67431600  0.72495100  1
  C  C21  1  0.91718800  0.32568400  0.77504900  1
  C  C22  1  0.58281200  0.32568400  0.27504900  1
  C  C23  1  0.08281200  0.67431600  0.22495100  1
  C  C24  1  0.80532200  0.99804300  0.14302600  1
  C  C25  1  0.30532200  0.00195700  0.35697400  1
  C  C26  1  0.93769800  0.66931500  0.88955400  1
  C  C27  1  0.43769800  0.33068500  0.61044600  1
  C  C28  1  0.69467800  0.99804300  0.64302600  1
  C  C29  1  0.19467800  0.00195700  0.85697400  1
  Ni  Ni30  1  0.86490700  0.72809300  0.58654200  1
  Ni  Ni31  1  0.13509300  0.27190700  0.41345800  1
  Ni  Ni32  1  0.63509300  0.72809300  0.08654200  1
  Ni  Ni33  1  0.36490700  0.27190700  0.91345800  1
  Cu  Cu34  1  0.60917300  0.17518800  0.32376800  1
  Cu  Cu35  1  0.89082700  0.17518800  0.82376800  1
  Cu  Cu36  1  0.12015300  0.96570500  0.82777800  1
  Cu  Cu37  1  0.62015300  0.03429500  0.67222200  1
  Cu  Cu38  1  0.87984700  0.03429500  0.17222200  1
  Cu  Cu39  1  0.37984700  0.96570500  0.32777800  1
  Cu  Cu40  1  0.93083800  0.70602400  0.99014900  1
  Cu  Cu41  1  0.10917300  0.82481200  0.17623200  1
  Cu  Cu42  1  0.06916200  0.29397600  0.00985100  1
  Cu  Cu43  1  0.56916200  0.70602400  0.49014900  1
  Cu  Cu44  1  0.33111600  0.04943800  0.89457700  1
  Cu  Cu45  1  0.83111600  0.95056200  0.60542300  1
  Cu  Cu46  1  0.66888400  0.95056200  0.10542300  1
  Cu  Cu47  1  0.16888400  0.04943800  0.39457700  1
  Cu  Cu48  1  0.44079500  0.37871600  0.78767700  1
  Cu  Cu49  1  0.94079500  0.62128400  0.71232300  1
  Cu  Cu50  1  0.55920500  0.62128400  0.21232300  1
  Cu  Cu51  1  0.05920500  0.37871600  0.28767700  1
  Cu  Cu52  1  0.42104600  0.25083400  0.06137600  1
  Cu  Cu53  1  0.92104600  0.74916600  0.43862400  1
  Cu  Cu54  1  0.57895400  0.74916600  0.93862400  1
  Cu  Cu55  1  0.07895400  0.25083400  0.56137600  1
  Cu  Cu56  1  0.43083800  0.29397600  0.50985100  1
  Cu  Cu57  1  0.76680500  0.58425800  0.59445600  1
  Cu  Cu58  1  0.73319500  0.58425800  0.09445600  1
  Cu  Cu59  1  0.23319500  0.41574200  0.40554400  1
  Cu  Cu60  1  0.39082700  0.82481200  0.67623200  1
  Cu  Cu61  1  0.26680500  0.41574200  0.90554400  1
