# generated using pymatgen
data_Cu6NiC12
_symmetry_space_group_name_H-M   'P 1'
_cell_length_a   4.97132123
_cell_length_b   5.04641082
_cell_length_c   8.76490664
_cell_angle_alpha   89.62510125
_cell_angle_beta   90.10516664
_cell_angle_gamma   102.20438507
_symmetry_Int_Tables_number   1
_chemical_formula_structural   Cu6NiC12
_chemical_formula_sum   'Cu6 Ni1 C12'
_cell_volume   214.91394183
_cell_formula_units_Z   1
loop_
 _symmetry_equiv_pos_site_id
 _symmetry_equiv_pos_as_xyz
  1  'x, y, z'
loop_
 _atom_site_type_symbol
 _atom_site_label
 _atom_site_symmetry_multiplicity
 _atom_site_fract_x
 _atom_site_fract_y
 _atom_site_fract_z
 _atom_site_occupancy
  Ni  Ni0  1  0.53588022  0.04956700  0.66613848  1
  Cu  Cu1  1  0.01452398  0.97093573  0.99773758  1
  Cu  Cu2  1  0.00629634  0.96682396  0.33528787  1
  Cu  Cu3  1  0.04153376  0.00400706  0.67053568  1
  Cu  Cu4  1  0.52221820  0.46782658  0.16843538  1
  Cu  Cu5  1  0.41718648  0.54116963  0.85367615  1
  Cu  Cu6  1  0.38992910  0.54808003  0.47891950  1
  C  C7  1  0.22368302  0.84885119  0.82167019  1
  C  C8  1  0.22463313  0.86767749  0.51495929  1
  C  C9  1  0.28536912  0.29552006  0.31507783  1
  C  C10  1  0.29937789  0.28968410  0.00532358  1
  C  C11  1  0.31012262  0.32745633  0.67490499  1
  C  C12  1  0.69393683  0.67813635  0.99822498  1
  C  C13  1  0.70706653  0.67883198  0.33142365  1
  C  C14  1  0.18605514  0.80490255  0.16431760  1
  C  C15  1  0.70221175  0.71963014  0.66959322  1
  C  C16  1  0.81420182  0.14720745  0.15977795  1
  C  C17  1  0.83088704  0.15735032  0.82167928  1
  C  C18  1  0.83655503  0.16411804  0.51660380  1
