# generated using pymatgen
data_Cu11NiC58
_symmetry_space_group_name_H-M   'P 1'
_cell_length_a   17.28020382
_cell_length_b   8.64247808
_cell_length_c   22.45720886
_cell_angle_alpha   89.94479148
_cell_angle_beta   90.06310219
_cell_angle_gamma   120.05260355
_symmetry_Int_Tables_number   1
_chemical_formula_structural   Cu11NiC58
_chemical_formula_sum   'Cu33 Ni3 C174'
_cell_volume   2902.97165068
_cell_formula_units_Z   3
loop_
 _symmetry_equiv_pos_site_id
 _symmetry_equiv_pos_as_xyz
  1  'x, y, z'
loop_
 _atom_site_type_symbol
 _atom_site_label
 _atom_site_symmetry_multiplicity
 _atom_site_fract_x
 _atom_site_fract_y
 _atom_site_fract_z
 _atom_site_occupancy
  C  C0  1  0.99703447  0.98986362  0.49420633  1
  C  C1  1  0.49854742  0.99631495  0.00047848  1
  C  C2  1  0.33244923  0.32925424  0.83620967  1
  C  C3  1  0.83819656  0.33891222  0.83241347  1
  C  C4  1  0.33580924  0.33348185  0.33070216  1
  C  C5  1  0.83816134  0.33837489  0.33880041  1
  C  C6  1  0.99975735  0.99656892  0.35607456  1
  C  C7  1  0.00173484  0.00168648  0.85657814  1
  C  C8  1  0.33227461  0.33345115  0.68532166  1
  C  C9  1  0.83534998  0.33609427  0.68375690  1
  C  C10  1  0.33507593  0.33318084  0.18624402  1
  C  C11  1  0.83360373  0.33277163  0.18520347  1
  C  C12  1  0.33435081  0.33158836  0.98010674  1
  C  C13  1  0.83487663  0.33452802  0.98144554  1
  C  C14  1  0.33538468  0.33678700  0.48134552  1
  C  C15  1  0.83442302  0.33460743  0.47954432  1
  C  C16  1  0.66741250  0.66851562  0.52171134  1
  C  C17  1  0.16377169  0.66321420  0.80895270  1
  C  C18  1  0.49781041  0.00953683  0.35650235  1
  C  C19  1  0.49643332  0.00699268  0.85508015  1
  C  C20  1  0.99880606  0.99369414  0.64991640  1
  C  C21  1  0.50059743  0.00139425  0.63874548  1
  C  C22  1  0.00013757  0.00143329  0.14524915  1
  C  C23  1  0.49939876  0.00928671  0.15141156  1
  C  C24  1  0.16237140  0.66601372  0.01861402  1
  C  C25  1  0.66238644  0.65097421  0.02120908  1
  C  C26  1  0.15933248  0.66668806  0.52069528  1
  C  C27  1  0.15688119  0.65987842  0.31266321  1
  C  C28  1  0.66593642  0.66460697  0.31037658  1
  C  C29  1  0.66314029  0.65826081  0.81135781  1
  Ni  Ni30  1  0.49755243  0.29376790  0.25212467  1
  Ni  Ni31  1  0.51928073  0.37912191  0.91557788  1
  Ni  Ni32  1  0.01542797  0.66646657  0.41718729  1
  Cu  Cu33  1  0.14357899  0.00129730  0.25048347  1
  Cu  Cu34  1  0.64428027  0.00186614  0.25139196  1
  Cu  Cu35  1  0.35531298  0.71292509  0.25175322  1
  Cu  Cu36  1  0.85653046  0.71115395  0.25041606  1
  Cu  Cu37  1  0.99902145  0.28585575  0.25066451  1
  Cu  Cu38  1  0.14536027  0.28759569  0.75092541  1
  Cu  Cu39  1  0.64375624  0.28537329  0.75006778  1
  Cu  Cu40  1  0.99825825  0.70806804  0.75179514  1
  Cu  Cu41  1  0.50031573  0.71529359  0.75050219  1
  Cu  Cu42  1  0.35642848  0.00003095  0.74850336  1
  Cu  Cu43  1  0.85539170  0.00171928  0.75193736  1
  Cu  Cu44  1  0.47877363  0.33721574  0.58416974  1
  Cu  Cu45  1  0.97926414  0.32888814  0.58371950  1
  Cu  Cu46  1  0.18764076  0.04298969  0.58339869  1
  Cu  Cu47  1  0.68993238  0.04352737  0.58409496  1
  Cu  Cu48  1  0.33170302  0.62238439  0.58327583  1
  Cu  Cu49  1  0.83331552  0.62565420  0.58449128  1
  Cu  Cu50  1  0.47956814  0.62823527  0.08269890  1
  Cu  Cu51  1  0.97886644  0.62611778  0.08367387  1
  Cu  Cu52  1  0.33248660  0.03772459  0.08262891  1
  Cu  Cu53  1  0.83265028  0.04046488  0.08366836  1
  Cu  Cu54  1  0.18815018  0.33549903  0.08342850  1
  Cu  Cu55  1  0.68776293  0.32994535  0.08307878  1
  Cu  Cu56  1  0.30903965  0.66419557  0.91558609  1
  Cu  Cu57  1  0.80994031  0.66709252  0.91646858  1
  Cu  Cu58  1  0.02117581  0.37784960  0.91549251  1
  Cu  Cu59  1  0.16636239  0.95441252  0.91526709  1
  Cu  Cu60  1  0.66718577  0.95381737  0.91564260  1
  Cu  Cu61  1  0.30902492  0.95285329  0.41599342  1
  Cu  Cu62  1  0.80928967  0.95307648  0.41678126  1
  Cu  Cu63  1  0.16871875  0.38380218  0.41663046  1
  Cu  Cu64  1  0.66625782  0.37829708  0.41620686  1
  Cu  Cu65  1  0.52232632  0.66718758  0.41537840  1
  C  C66  1  0.10282716  0.02797587  0.30307453  1
  C  C67  1  0.60069881  0.02601173  0.30412807  1
  C  C68  1  0.41351339  0.79759865  0.30445063  1
  C  C69  1  0.91160664  0.79142431  0.30284784  1
  C  C70  1  0.48878818  0.16021861  0.30761978  1
  C  C71  1  0.98632215  0.17918521  0.30349832  1
  C  C72  1  0.10449132  0.17620219  0.80357560  1
  C  C73  1  0.59966252  0.17334682  0.80420333  1
  C  C74  1  0.48818330  0.80172144  0.80450807  1
  C  C75  1  0.98341166  0.79124399  0.80372526  1
  C  C76  1  0.41512823  0.02624951  0.80400656  1
  C  C77  1  0.91091889  0.03070244  0.80430820  1
  C  C78  1  0.40200461  0.97702863  0.69651151  1
  C  C79  1  0.89717464  0.97261067  0.69700028  1
  C  C80  1  0.08707192  0.19283622  0.69624187  1
  C  C81  1  0.58804681  0.20498612  0.69692950  1
  C  C82  1  0.00868913  0.82322765  0.69666393  1
  C  C83  1  0.51409100  0.82536534  0.69691981  1
  C  C84  1  0.40009816  0.82628612  0.19704839  1
  C  C85  1  0.89905738  0.82471720  0.19560095  1
  C  C86  1  0.01264931  0.20073045  0.19611252  1
  C  C87  1  0.51520678  0.19380284  0.19384034  1
  C  C88  1  0.08575412  0.96986997  0.19600357  1
  C  C89  1  0.58832932  0.96986811  0.19629315  1
  C  C90  1  0.43782080  0.36138752  0.63763803  1
  C  C91  1  0.94327578  0.36418289  0.63723124  1
  C  C92  1  0.24070512  0.11934925  0.63700844  1
  C  C93  1  0.74261088  0.12480263  0.63780499  1
  C  C94  1  0.31701757  0.51593715  0.63683995  1
  C  C95  1  0.82130712  0.52024720  0.63827307  1
  C  C96  1  0.44314236  0.52006138  0.13606964  1
  C  C97  1  0.94205941  0.51616064  0.13660444  1
  C  C98  1  0.31677505  0.11239388  0.13602370  1
  C  C99  1  0.81593720  0.11640452  0.13678042  1
  C  C100  1  0.24277213  0.37001304  0.13662875  1
  C  C101  1  0.74024319  0.35834660  0.13661288  1
  C  C102  1  0.22402358  0.29607089  0.03059241  1
  C  C103  1  0.72625017  0.30150202  0.02916970  1
  C  C104  1  0.42486064  0.55103933  0.02940557  1
  C  C105  1  0.92424659  0.55353724  0.03034743  1
  C  C106  1  0.35197658  0.14918769  0.02956662  1
  C  C107  1  0.85248398  0.15292004  0.03083796  1
  C  C108  1  0.22494865  0.15124083  0.52977072  1
  C  C109  1  0.72432459  0.15644783  0.53133730  1
  C  C110  1  0.35256920  0.55145470  0.53064357  1
  C  C111  1  0.85453379  0.55486471  0.53147783  1
  C  C112  1  0.42205395  0.29245181  0.53123197  1
  C  C113  1  0.92462801  0.29485637  0.53060453  1
  C  C114  1  0.27034337  0.69845695  0.97023327  1
  C  C115  1  0.76674971  0.69240288  0.97087297  1
  C  C116  1  0.07906209  0.47209463  0.97082997  1
  C  C117  1  0.58533874  0.47339766  0.97384040  1
  C  C118  1  0.15644106  0.83789600  0.97063103  1
  C  C119  1  0.65313583  0.84440886  0.96973744  1
  C  C120  1  0.27071713  0.84468036  0.47030461  1
  C  C121  1  0.76911985  0.84338405  0.46970844  1
  C  C122  1  0.15928406  0.47274986  0.47085401  1
  C  C123  1  0.64811213  0.45100710  0.46900433  1
  C  C124  1  0.08439090  0.68472083  0.47364081  1
  C  C125  1  0.57518945  0.69734901  0.46881500  1
  C  C126  1  0.07391602  0.64487936  0.35934046  1
  C  C127  1  0.56672285  0.64042066  0.36139378  1
  C  C128  1  0.25522002  0.86777270  0.36170387  1
  C  C129  1  0.75351116  0.85964571  0.36188289  1
  C  C130  1  0.18252939  0.49604334  0.36166413  1
  C  C131  1  0.67885078  0.49023597  0.36209479  1
  C  C132  1  0.06266808  0.49061627  0.86347584  1
  C  C133  1  0.57545360  0.50461425  0.85805742  1
  C  C134  1  0.18205627  0.87213346  0.86342236  1
  C  C135  1  0.68073927  0.87130674  0.86141475  1
  C  C136  1  0.25762072  0.64382597  0.86204358  1
  C  C137  1  0.75254333  0.64226170  0.86250048  1
  C  C138  1  0.01933264  0.85299404  0.41575277  1
  C  C139  1  0.51341539  0.82745621  0.40365326  1
  C  C140  1  0.39867709  0.96578928  0.40843959  1
  C  C141  1  0.89913607  0.97721693  0.40902217  1
  C  C142  1  0.08653875  0.21196815  0.41097440  1
  C  C143  1  0.58481885  0.19490445  0.40614555  1
  C  C144  1  0.01590596  0.20483781  0.91253801  1
  C  C145  1  0.51661667  0.18501253  0.90667297  1
  C  C146  1  0.08390223  0.96070036  0.91264631  1
  C  C147  1  0.58410502  0.96618657  0.90867757  1
  C  C148  1  0.40184699  0.83103087  0.91008240  1
  C  C149  1  0.89670653  0.82598805  0.90945847  1
  C  C150  1  0.48813000  0.16950263  0.59509500  1
  C  C151  1  0.99214439  0.16996438  0.59244978  1
  C  C152  1  0.09462998  0.01551976  0.59126482  1
  C  C153  1  0.59645828  0.02503693  0.59548240  1
  C  C154  1  0.41380729  0.80759826  0.59396893  1
  C  C155  1  0.91683269  0.81343998  0.59444934  1
  C  C156  1  0.49325459  0.81276551  0.09054663  1
  C  C157  1  0.99205693  0.80997333  0.09415487  1
  C  C158  1  0.41300794  0.01132964  0.09120202  1
  C  C159  1  0.91336178  0.01821944  0.09521097  1
  C  C160  1  0.09570982  0.17545413  0.09521463  1
  C  C161  1  0.59498602  0.16938173  0.08923739  1
  C  C162  1  0.35130082  0.16382534  0.74520832  1
  C  C163  1  0.84351517  0.15688334  0.74287859  1
  C  C164  1  0.23413474  0.30562981  0.74208426  1
  C  C165  1  0.73260515  0.30553504  0.74588519  1
  C  C166  1  0.42227571  0.53596422  0.74540073  1
  C  C167  1  0.91864873  0.53074765  0.74280389  1
  C  C168  1  0.34588378  0.53720961  0.24376256  1
  C  C169  1  0.84376918  0.53163190  0.24124264  1
  C  C170  1  0.41138485  0.30996316  0.24731580  1
  C  C171  1  0.92228123  0.31228127  0.24222528  1
  C  C172  1  0.23182169  0.15740973  0.24104126  1
  C  C173  1  0.73262243  0.16002640  0.24414590  1
  C  C174  1  0.32026586  0.50945519  0.92400692  1
  C  C175  1  0.81488960  0.50261670  0.92186511  1
  C  C176  1  0.42359472  0.35662245  0.91880806  1
  C  C177  1  0.93283219  0.36156853  0.92466398  1
  C  C178  1  0.24462944  0.13084165  0.92543123  1
  C  C179  1  0.74566370  0.13274527  0.92160918  1
  C  C180  1  0.32106853  0.13240051  0.42139708  1
  C  C181  1  0.81202212  0.12550773  0.41992540  1
  C  C182  1  0.24875949  0.36607793  0.42175694  1
  C  C183  1  0.74385503  0.35467041  0.42022778  1
  C  C184  1  0.43265686  0.50682506  0.41930993  1
  C  C185  1  0.92476574  0.48216683  0.41858891  1
  C  C186  1  0.17445972  0.49131709  0.07220157  1
  C  C187  1  0.67761219  0.49274029  0.07584588  1
  C  C188  1  0.07070948  0.65109784  0.07338245  1
  C  C189  1  0.57191744  0.65211411  0.07264819  1
  C  C190  1  0.25374322  0.85505575  0.07227095  1
  C  C191  1  0.75522802  0.85866817  0.07292113  1
  C  C192  1  0.17816071  0.86138245  0.57506300  1
  C  C193  1  0.67311860  0.86280753  0.57639115  1
  C  C194  1  0.25561037  0.65157454  0.57367578  1
  C  C195  1  0.75754424  0.65294200  0.57630766  1
  C  C196  1  0.07179978  0.48781526  0.57440857  1
  C  C197  1  0.56860195  0.48608960  0.57595354  1
  C  C198  1  0.15214593  0.83710355  0.25645158  1
  C  C199  1  0.65195535  0.83956580  0.25873110  1
  C  C200  1  0.26895564  0.70450715  0.25847748  1
  C  C201  1  0.76776320  0.69995524  0.25668217  1
  C  C202  1  0.08356655  0.46486803  0.25566521  1
  C  C203  1  0.59051178  0.48199067  0.26357602  1
  C  C204  1  0.15103362  0.46131720  0.75439147  1
  C  C205  1  0.65233492  0.46523136  0.75818230  1
  C  C206  1  0.08008917  0.69950796  0.75422823  1
  C  C207  1  0.58339599  0.70361959  0.75870264  1
  C  C208  1  0.27082130  0.84075144  0.75746868  1
  C  C209  1  0.76623946  0.83633631  0.75867886  1
