# generated using pymatgen
data_Cu8Ni4C5
_symmetry_space_group_name_H-M   'P 1'
_cell_length_a   5.20305890
_cell_length_b   9.49679731
_cell_length_c   5.19515789
_cell_angle_alpha   104.16342336
_cell_angle_beta   117.94047935
_cell_angle_gamma   76.91852165
_symmetry_Int_Tables_number   1
_chemical_formula_structural   Cu8Ni4C5
_chemical_formula_sum   'Cu8 Ni4 C5'
_cell_volume   218.01138264
_cell_formula_units_Z   1
loop_
 _symmetry_equiv_pos_site_id
 _symmetry_equiv_pos_as_xyz
  1  'x, y, z'
loop_
 _atom_site_type_symbol
 _atom_site_label
 _atom_site_symmetry_multiplicity
 _atom_site_fract_x
 _atom_site_fract_y
 _atom_site_fract_z
 _atom_site_occupancy
  C  C0  1  0.91499700  0.30557600  0.11960300  1
  C  C1  1  0.02037100  0.99311800  0.99340400  1
  C  C2  1  0.74909100  0.75988700  0.22452800  1
  C  C3  1  0.47347900  0.51816900  0.54154000  1
  C  C4  1  0.25282500  0.25286100  0.75369500  1
  Ni  Ni5  1  0.80254900  0.86535300  0.03770000  1
  Ni  Ni6  1  0.24902400  0.37698000  0.49886900  1
  Ni  Ni7  1  0.18386500  0.14276700  0.96566900  1
  Ni  Ni8  1  0.51882000  0.62872000  0.86439900  1
  Cu  Cu9  1  0.11230300  0.61644100  0.26145600  1
  Cu  Cu10  1  0.99536700  0.13965800  0.35596700  1
  Cu  Cu11  1  0.39659300  0.88180200  0.24076700  1
  Cu  Cu12  1  0.52848000  0.37745500  0.14106600  1
  Cu  Cu13  1  0.70083100  0.62721700  0.44698500  1
  Cu  Cu14  1  0.63496000  0.13800600  0.79681900  1
  Cu  Cu15  1  0.99257800  0.86239700  0.61792800  1
  Cu  Cu16  1  0.86136300  0.38502000  0.76460700  1
