# generated using pymatgen
data_Cu(Ni2C3)2
_symmetry_space_group_name_H-M   'P 1'
_cell_length_a   9.37497834
_cell_length_b   9.37497834
_cell_length_c   9.95221400
_cell_angle_alpha   90.00000000
_cell_angle_beta   90.00000000
_cell_angle_gamma   92.33929339
_symmetry_Int_Tables_number   1
_chemical_formula_structural   Cu(Ni2C3)2
_chemical_formula_sum   'Cu2 Ni8 C12'
_cell_volume   873.97332263
_cell_formula_units_Z   2
loop_
 _symmetry_equiv_pos_site_id
 _symmetry_equiv_pos_as_xyz
  1  'x, y, z'
loop_
 _atom_site_type_symbol
 _atom_site_label
 _atom_site_symmetry_multiplicity
 _atom_site_fract_x
 _atom_site_fract_y
 _atom_site_fract_z
 _atom_site_occupancy
  Ni  Ni0  1  0.34236600  0.34236600  0.25000000  1
  Ni  Ni1  1  0.65763400  0.65763400  0.25000000  1
  Ni  Ni2  1  0.65763400  0.65763400  0.75000000  1
  Ni  Ni3  1  0.34236600  0.34236600  0.75000000  1
  Ni  Ni4  1  0.14323000  0.85677000  0.25000000  1
  Ni  Ni5  1  0.85677000  0.14323000  0.25000000  1
  Ni  Ni6  1  0.85677000  0.14323000  0.75000000  1
  Ni  Ni7  1  0.14323000  0.85677000  0.75000000  1
  Cu  Cu8  1  0.50000000  0.00000000  0.50000000  1
  Cu  Cu9  1  0.00000000  0.50000000  0.00000000  1
  C  C10  1  0.81848600  0.85367000  0.50000000  1
  C  C11  1  0.18151400  0.14633000  0.50000000  1
  C  C12  1  0.27448300  0.63011400  0.00000000  1
  C  C13  1  0.72551700  0.36988600  0.00000000  1
  C  C14  1  0.63011400  0.27448300  0.50000000  1
  C  C15  1  0.36988600  0.72551700  0.50000000  1
  C  C16  1  0.85367000  0.81848600  0.00000000  1
  C  C17  1  0.14633000  0.18151400  0.00000000  1
  C  C18  1  0.50000000  0.00000000  0.77610900  1
  C  C19  1  0.00000000  0.50000000  0.72389100  1
  C  C20  1  0.50000000  0.00000000  0.22389100  1
  C  C21  1  0.00000000  0.50000000  0.27610900  1
