# generated using pymatgen
data_Cu2NiC10
_symmetry_space_group_name_H-M   'P 1'
_cell_length_a   3.83999346
_cell_length_b   5.88583653
_cell_length_c   10.07995969
_cell_angle_alpha   69.61021756
_cell_angle_beta   79.01939738
_cell_angle_gamma   70.96133041
_symmetry_Int_Tables_number   1
_chemical_formula_structural   Cu2NiC10
_chemical_formula_sum   'Cu2 Ni1 C10'
_cell_volume   201.10692483
_cell_formula_units_Z   1
loop_
 _symmetry_equiv_pos_site_id
 _symmetry_equiv_pos_as_xyz
  1  'x, y, z'
loop_
 _atom_site_type_symbol
 _atom_site_label
 _atom_site_symmetry_multiplicity
 _atom_site_fract_x
 _atom_site_fract_y
 _atom_site_fract_z
 _atom_site_occupancy
  C  C0  1  0.23267500  0.76417400  0.77047400  1
  C  C1  1  0.76732500  0.23582600  0.22952600  1
  Ni  Ni2  1  0.50000000  0.00000000  0.00000000  1
  Cu  Cu3  1  0.60415900  0.22652100  0.56516100  1
  Cu  Cu4  1  0.39584100  0.77347900  0.43483900  1
  C  C5  1  0.87943000  0.32294900  0.91819200  1
  C  C6  1  0.12057000  0.67705100  0.08180800  1
  C  C7  1  0.16124500  0.10628700  0.57122300  1
  C  C8  1  0.62250400  0.94722800  0.80776500  1
  C  C9  1  0.83875500  0.89371300  0.42877700  1
  C  C10  1  0.42464400  0.52229700  0.62841500  1
  C  C11  1  0.37749600  0.05277200  0.19223500  1
  C  C12  1  0.57535600  0.47770300  0.37158500  1
