# generated using pymatgen
data_Cu(NiC2)2
_symmetry_space_group_name_H-M   'P 1'
_cell_length_a   5.98829558
_cell_length_b   5.98830300
_cell_length_c   5.98829097
_cell_angle_alpha   89.99998491
_cell_angle_beta   119.99997543
_cell_angle_gamma   59.99995031
_symmetry_Int_Tables_number   1
_chemical_formula_structural   Cu(NiC2)2
_chemical_formula_sum   'Cu2 Ni4 C8'
_cell_volume   151.84296336
_cell_formula_units_Z   2
loop_
 _symmetry_equiv_pos_site_id
 _symmetry_equiv_pos_as_xyz
  1  'x, y, z'
loop_
 _atom_site_type_symbol
 _atom_site_label
 _atom_site_symmetry_multiplicity
 _atom_site_fract_x
 _atom_site_fract_y
 _atom_site_fract_z
 _atom_site_occupancy
  Ni  Ni0  1  0.50000000  0.49999800  0.50000000  1
  Ni  Ni1  1  0.50000300  0.49999700  0.00000100  1
  Ni  Ni2  1  0.99999700  0.00000300  0.49999500  1
  Ni  Ni3  1  0.99999900  0.50000100  0.49999900  1
  Cu  Cu4  1  0.25000000  0.12500000  0.12500100  1
  Cu  Cu5  1  0.75000000  0.87500000  0.87500000  1
  C  C6  1  0.47711500  0.73855700  0.73855900  1
  C  C7  1  0.52288400  0.71567200  0.26144300  1
  C  C8  1  0.97711500  0.26144300  0.26144300  1
  C  C9  1  0.97711600  0.26144200  0.71567300  1
  C  C10  1  0.02288500  0.73855700  0.73855800  1
  C  C11  1  0.02288500  0.73855800  0.28432800  1
  C  C12  1  0.52288400  0.26144300  0.26144300  1
  C  C13  1  0.47711600  0.28432800  0.73855800  1
