# generated using pymatgen
data_Cu6NiC12
_symmetry_space_group_name_H-M   'P 1'
_cell_length_a   5.00880297
_cell_length_b   7.59997053
_cell_length_c   5.66352165
_cell_angle_alpha   98.66422066
_cell_angle_beta   100.05283463
_cell_angle_gamma   83.14101650
_symmetry_Int_Tables_number   1
_chemical_formula_structural   Cu6NiC12
_chemical_formula_sum   'Cu6 Ni1 C12'
_cell_volume   208.89673461
_cell_formula_units_Z   1
loop_
 _symmetry_equiv_pos_site_id
 _symmetry_equiv_pos_as_xyz
  1  'x, y, z'
loop_
 _atom_site_type_symbol
 _atom_site_label
 _atom_site_symmetry_multiplicity
 _atom_site_fract_x
 _atom_site_fract_y
 _atom_site_fract_z
 _atom_site_occupancy
  Ni  Ni0  1  0.01260800  0.82779200  0.34453900  1
  Cu  Cu1  1  0.53498700  0.01779800  0.46755000  1
  Cu  Cu2  1  0.54969400  0.34937800  0.79370300  1
  Cu  Cu3  1  0.49525800  0.65181700  0.16514800  1
  Cu  Cu4  1  0.96805100  0.63903000  0.69754800  1
  Cu  Cu5  1  0.96936700  0.31355700  0.34547400  1
  Cu  Cu6  1  0.00424000  0.01382800  0.98532100  1
  C  C7  1  0.80320700  0.42500100  0.62230000  1
  C  C8  1  0.83902000  0.08167700  0.29319800  1
  C  C9  1  0.69120800  0.76254600  0.46634500  1
  C  C10  1  0.69931400  0.11261700  0.77817400  1
  C  C11  1  0.69330200  0.42527400  0.11969700  1
  C  C12  1  0.31049300  0.55293000  0.86429700  1
  C  C13  1  0.32058600  0.24115500  0.53123500  1
  C  C14  1  0.31113300  0.89240900  0.19646600  1
  C  C15  1  0.81978300  0.76536700  0.99686800  1
  C  C16  1  0.16890000  0.23930000  0.05791300  1
  C  C17  1  0.15353400  0.87861500  0.69747100  1
  C  C18  1  0.16920100  0.57776800  0.36247100  1
