# generated using pymatgen
data_Cu4Ni4C5
_symmetry_space_group_name_H-M   'P 1'
_cell_length_a   5.66264640
_cell_length_b   5.99050780
_cell_length_c   5.82566061
_cell_angle_alpha   120.12713137
_cell_angle_beta   86.46636159
_cell_angle_gamma   89.38875960
_symmetry_Int_Tables_number   1
_chemical_formula_structural   Cu4Ni4C5
_chemical_formula_sum   'Cu4 Ni4 C5'
_cell_volume   170.40004662
_cell_formula_units_Z   1
loop_
 _symmetry_equiv_pos_site_id
 _symmetry_equiv_pos_as_xyz
  1  'x, y, z'
loop_
 _atom_site_type_symbol
 _atom_site_label
 _atom_site_symmetry_multiplicity
 _atom_site_fract_x
 _atom_site_fract_y
 _atom_site_fract_z
 _atom_site_occupancy
  C  C0  1  0.99990400  0.49649300  0.24497600  1
  C  C1  1  0.90345400  0.91948800  0.93495500  1
  C  C2  1  0.10781800  0.08263500  0.54512500  1
  C  C3  1  0.42918800  0.58011600  0.56738900  1
  C  C4  1  0.58523300  0.42119400  0.92221200  1
  Ni  Ni5  1  0.12578200  0.75930400  0.61278000  1
  Ni  Ni6  1  0.37719100  0.29841300  0.61469000  1
  Ni  Ni7  1  0.62524900  0.73830100  0.86644300  1
  Ni  Ni8  1  0.87818800  0.21905500  0.88941400  1
  Cu  Cu9  1  0.07466100  0.76150500  0.12980600  1
  Cu  Cu10  1  0.33196000  0.35664700  0.16293400  1
  Cu  Cu11  1  0.67091600  0.65962600  0.35138200  1
  Cu  Cu12  1  0.90434500  0.21912800  0.33497400  1
