# generated using pymatgen
data_Cu2Ni
_symmetry_space_group_name_H-M   'P 1'
_cell_length_a   4.12153900
_cell_length_b   5.48030200
_cell_length_c   7.85104800
_cell_angle_alpha   90.00000000
_cell_angle_beta   90.00000000
_cell_angle_gamma   90.00000000
_symmetry_Int_Tables_number   1
_chemical_formula_structural   Cu2Ni
_chemical_formula_sum   'Cu8 Ni4'
_cell_volume   177.33380710
_cell_formula_units_Z   4
loop_
 _symmetry_equiv_pos_site_id
 _symmetry_equiv_pos_as_xyz
  1  'x, y, z'
loop_
 _atom_site_type_symbol
 _atom_site_label
 _atom_site_symmetry_multiplicity
 _atom_site_fract_x
 _atom_site_fract_y
 _atom_site_fract_z
 _atom_site_occupancy
  Ni  Ni0  1  0.75000000  0.80323600  0.89529000  1
  Ni  Ni1  1  0.25000000  0.19676400  0.10471000  1
  Ni  Ni2  1  0.75000000  0.30323600  0.60471000  1
  Ni  Ni3  1  0.25000000  0.69676400  0.39529000  1
  Cu  Cu4  1  0.75000000  0.45924200  0.28865400  1
  Cu  Cu5  1  0.25000000  0.54075800  0.71134600  1
  Cu  Cu6  1  0.75000000  0.95924200  0.21134600  1
  Cu  Cu7  1  0.25000000  0.04075800  0.78865400  1
  Cu  Cu8  1  0.75000000  0.33425000  0.93304100  1
  Cu  Cu9  1  0.25000000  0.66575000  0.06695900  1
  Cu  Cu10  1  0.75000000  0.83425000  0.56695900  1
  Cu  Cu11  1  0.25000000  0.16575000  0.43304100  1
