# generated using pymatgen
data_Cu4Ni2C9
_symmetry_space_group_name_H-M   'P 1'
_cell_length_a   6.25645680
_cell_length_b   6.00718912
_cell_length_c   5.83715507
_cell_angle_alpha   90.05463740
_cell_angle_beta   117.39499574
_cell_angle_gamma   119.02362905
_symmetry_Int_Tables_number   1
_chemical_formula_structural   Cu4Ni2C9
_chemical_formula_sum   'Cu4 Ni2 C9'
_cell_volume   163.06306220
_cell_formula_units_Z   1
loop_
 _symmetry_equiv_pos_site_id
 _symmetry_equiv_pos_as_xyz
  1  'x, y, z'
loop_
 _atom_site_type_symbol
 _atom_site_label
 _atom_site_symmetry_multiplicity
 _atom_site_fract_x
 _atom_site_fract_y
 _atom_site_fract_z
 _atom_site_occupancy
  C  C0  1  0.29536000  0.63807700  0.90090400  1
  Ni  Ni1  1  0.18050100  0.09403700  0.83963300  1
  Ni  Ni2  1  0.84945200  0.92097900  0.18556500  1
  Cu  Cu3  1  0.47627600  0.98126700  0.48783500  1
  Cu  Cu4  1  0.47633600  0.49436300  0.48753000  1
  Cu  Cu5  1  0.87726300  0.44112300  0.95848900  1
  Cu  Cu6  1  0.89585700  0.44996000  0.42858900  1
  C  C7  1  0.02033000  0.72256100  0.26105700  1
  C  C8  1  0.52960900  0.75500300  0.74679200  1
  C  C9  1  0.53097500  0.75605000  0.28469200  1
  C  C10  1  0.97117400  0.69920700  0.73071300  1
  C  C11  1  0.45658700  0.24139100  0.70277300  1
  C  C12  1  0.46371000  0.24461300  0.25206000  1
  C  C13  1  0.00524500  0.28971300  0.25295100  1
  C  C14  1  0.95049700  0.26123700  0.71999900  1
