# generated using pymatgen
data_Cu3NiC15
_symmetry_space_group_name_H-M   'P 1'
_cell_length_a   8.92229955
_cell_length_b   8.92229924
_cell_length_c   22.90983402
_cell_angle_alpha   89.97234897
_cell_angle_beta   90.02765103
_cell_angle_gamma   120.36792940
_symmetry_Int_Tables_number   1
_chemical_formula_structural   Cu3NiC15
_chemical_formula_sum   'Cu18 Ni6 C90'
_cell_volume   1573.56242309
_cell_formula_units_Z   6
loop_
 _symmetry_equiv_pos_site_id
 _symmetry_equiv_pos_as_xyz
  1  'x, y, z'
loop_
 _atom_site_type_symbol
 _atom_site_label
 _atom_site_symmetry_multiplicity
 _atom_site_fract_x
 _atom_site_fract_y
 _atom_site_fract_z
 _atom_site_occupancy
  C  C0  1  0.36569715  0.36170466  0.24941452  1
  C  C1  1  0.63829534  0.63430285  0.74941452  1
  C  C2  1  0.03236415  0.69503766  0.58274752  1
  C  C3  1  0.30496234  0.96763585  0.08274752  1
  C  C4  1  0.69903015  0.02837166  0.91608152  1
  C  C5  1  0.97162834  0.30096985  0.41608152  1
  C  C6  1  0.99983144  0.99941947  0.49843550  1
  C  C7  1  0.00058053  0.00016856  0.99843550  1
  C  C8  1  0.66649844  0.33275247  0.83176850  1
  C  C9  1  0.66724753  0.33350156  0.33176850  1
  C  C10  1  0.33316444  0.66608647  0.16510250  1
  C  C11  1  0.33391353  0.66683556  0.66510250  1
  C  C12  1  0.99846408  0.99220998  0.35119003  1
  C  C13  1  0.00779002  0.00153592  0.85119003  1
  C  C14  1  0.66513108  0.32554298  0.68452303  1
  C  C15  1  0.67445702  0.33486892  0.18452303  1
  C  C16  1  0.33179708  0.65887698  0.01785703  1
  C  C17  1  0.34112302  0.66820292  0.51785703  1
  Ni  Ni18  1  0.00169896  0.00715716  0.64910314  1
  Ni  Ni19  1  0.99284284  0.99830104  0.14910314  1
  Ni  Ni20  1  0.66836596  0.34049016  0.98243614  1
  Ni  Ni21  1  0.65950984  0.33163404  0.48243614  1
  Ni  Ni22  1  0.33503196  0.67382416  0.31577014  1
  Ni  Ni23  1  0.32617584  0.66496804  0.81577014  1
  Cu  Cu24  1  0.29211069  0.99693482  0.24930701  1
  Cu  Cu25  1  0.70371382  0.70617137  0.25047128  1
  Cu  Cu26  1  0.00057871  0.29433420  0.25187214  1
  Cu  Cu27  1  0.29382863  0.29628618  0.75047128  1
  Cu  Cu28  1  0.00306518  0.70788931  0.74930701  1
  Cu  Cu29  1  0.70566580  -0.00057871  0.75187214  1
  Cu  Cu30  1  0.95877769  0.33026782  0.58264001  1
  Cu  Cu31  1  0.37038082  0.03950437  0.58380428  1
  Cu  Cu32  1  0.66724571  0.62766720  0.58520514  1
  Cu  Cu33  1  0.96049563  0.62961918  0.08380428  1
  Cu  Cu34  1  0.66973218  0.04122231  0.08264001  1
  Cu  Cu35  1  0.37233280  0.33275429  0.08520514  1
  Cu  Cu36  1  0.62544369  0.66360182  0.91597401  1
  Cu  Cu37  1  0.03704682  0.37283837  0.91713828  1
  Cu  Cu38  1  0.33391171  0.96100120  0.91853914  1
  Cu  Cu39  1  0.62716163  0.96295318  0.41713828  1
  Cu  Cu40  1  0.33639818  0.37455631  0.41597401  1
  Cu  Cu41  1  0.03899880  0.66608829  0.41853914  1
  C  C42  1  0.21343888  0.03437864  0.30256956  1
  C  C43  1  0.81247134  0.78349206  0.30485587  1
  C  C44  1  0.97487246  0.19042164  0.30783944  1
  C  C45  1  0.21650794  0.18752866  0.80485587  1
  C  C46  1  0.96562136  0.78656112  0.80256956  1
  C  C47  1  0.80957836  0.02512754  0.80783944  1
  C  C48  1  0.78611070  0.95882225  0.69732739  1
  C  C49  1  0.18070040  0.21720853  0.69481757  1
  C  C50  1  0.03410539  0.81785270  0.69233321  1
  C  C51  1  0.78279147  0.81929960  0.19481757  1
  C  C52  1  0.04117775  0.21388930  0.19732739  1
  C  C53  1  0.18214730  0.96589461  0.19233321  1
  C  C54  1  0.88010588  0.36771164  0.63590256  1
  C  C55  1  0.47913834  0.11682506  0.63818887  1
  C  C56  1  0.64153946  0.52375464  0.64117244  1
  C  C57  1  0.88317494  0.52086166  0.13818887  1
  C  C58  1  0.63228836  0.11989412  0.13590256  1
  C  C59  1  0.47624536  0.35846054  0.14117244  1
  C  C60  1  0.45277770  0.29215525  0.03066039  1
  C  C61  1  0.84736740  0.55054153  0.02815057  1
  C  C62  1  0.70077239  0.15118570  0.02566621  1
  C  C63  1  0.44945847  0.15263260  0.52815057  1
  C  C64  1  0.70784475  0.54722230  0.53066039  1
  C  C65  1  0.84881430  0.29922761  0.52566621  1
  C  C66  1  0.54677188  0.70104564  0.96923656  1
  C  C67  1  0.14580434  0.45015906  0.97152287  1
  C  C68  1  0.30820546  0.85708864  0.97450644  1
  C  C69  1  0.54984094  0.85419566  0.47152287  1
  C  C70  1  0.29895436  0.45322812  0.46923656  1
  C  C71  1  0.14291136  0.69179454  0.47450644  1
  C  C72  1  0.11944370  0.62548925  0.36399439  1
  C  C73  1  0.51403340  0.88387553  0.36148457  1
  C  C74  1  0.36743839  0.48451970  0.35900021  1
  C  C75  1  0.11612447  0.48596660  0.86148457  1
  C  C76  1  0.37451075  0.88055630  0.86399439  1
  C  C77  1  0.51548030  0.63256161  0.85900021  1
  C  C78  1  0.01811254  0.82437024  0.41212544  1
  C  C79  1  0.81226218  0.99277368  0.41132528  1
  C  C80  1  0.17050675  0.19510645  0.41046095  1
  C  C81  1  0.00722632  0.18773782  0.91132528  1
  C  C82  1  0.17562976  0.98188746  0.91212544  1
  C  C83  1  0.80489355  0.82949325  0.91046095  1
  C  C84  1  0.97356255  0.16436138  0.58852446  1
  C  C85  1  0.18434406  0.01814505  0.58871249  1
  C  C86  1  0.84115164  0.80886946  0.58931473  1
  C  C87  1  0.98185495  0.81565594  0.08871249  1
  C  C88  1  0.83563862  0.02643745  0.08852446  1
  C  C89  1  0.19113054  0.15884836  0.08931473  1
  C  C90  1  0.68477954  0.15770324  0.74545844  1
  C  C91  1  0.47892918  0.32610668  0.74465828  1
  C  C92  1  0.83717375  0.52843945  0.74379395  1
  C  C93  1  0.67389332  0.52107082  0.24465828  1
  C  C94  1  0.84229676  0.31522046  0.24545844  1
  C  C95  1  0.47156055  0.16282625  0.24379395  1
  C  C96  1  0.64022955  0.49769438  0.92185746  1
  C  C97  1  0.85101106  0.35147805  0.92204549  1
  C  C98  1  0.50781864  0.14220246  0.92264773  1
  C  C99  1  0.64852195  0.14898894  0.42204549  1
  C  C100  1  0.50230562  0.35977045  0.42185746  1
  C  C101  1  0.85779754  0.49218136  0.42264773  1
  C  C102  1  0.35144554  0.49103724  0.07879244  1
  C  C103  1  0.14559518  0.65944068  0.07799228  1
  C  C104  1  0.50383975  0.86177345  0.07712795  1
  C  C105  1  0.34055932  0.85440482  0.57799228  1
  C  C106  1  0.50896276  0.64855446  0.57879244  1
  C  C107  1  0.13822655  0.49616025  0.57712795  1
  C  C108  1  0.30689555  0.83102838  0.25519146  1
  C  C109  1  0.51767706  0.68481205  0.25537949  1
  C  C110  1  0.17448464  0.47553646  0.25598173  1
  C  C111  1  0.31518795  0.48232294  0.75537949  1
  C  C112  1  0.16897162  0.69310445  0.75519146  1
  C  C113  1  0.52446354  0.82551536  0.75598173  1
