# generated using pymatgen
data_Cu8Ni8C25
_symmetry_space_group_name_H-M   'P 1'
_cell_length_a   5.62612189
_cell_length_b   11.18865682
_cell_length_c   11.20567144
_cell_angle_alpha   54.19779793
_cell_angle_beta   53.86242077
_cell_angle_gamma   53.89989135
_symmetry_Int_Tables_number   1
_chemical_formula_structural   Cu8Ni8C25
_chemical_formula_sum   'Cu8 Ni8 C25'
_cell_volume   428.71023400
_cell_formula_units_Z   1
loop_
 _symmetry_equiv_pos_site_id
 _symmetry_equiv_pos_as_xyz
  1  'x, y, z'
loop_
 _atom_site_type_symbol
 _atom_site_label
 _atom_site_symmetry_multiplicity
 _atom_site_fract_x
 _atom_site_fract_y
 _atom_site_fract_z
 _atom_site_occupancy
  C  C0  1  0.70921900  0.83148200  0.84174600  1
  Ni  Ni1  1  0.35536000  0.18110600  0.18074900  1
  Ni  Ni2  1  0.13752700  0.07074200  0.58464400  1
  Ni  Ni3  1  0.12590400  0.58443900  0.07415100  1
  Ni  Ni4  1  0.14263300  0.56788600  0.57045900  1
  Ni  Ni5  1  0.86302300  0.42469300  0.42760400  1
  Ni  Ni6  1  0.85719400  0.42223300  0.93458100  1
  Ni  Ni7  1  0.87258700  0.93284100  0.41119400  1
  Ni  Ni8  1  0.99497600  0.98807000  0.97791800  1
  Cu  Cu9  1  0.19229800  0.07679700  0.07492400  1
  Cu  Cu10  1  0.34655800  0.66553800  0.18606900  1
  Cu  Cu11  1  0.35113900  0.18044300  0.66902800  1
  Cu  Cu12  1  0.65058700  0.32318300  0.32952500  1
  Cu  Cu13  1  0.34746400  0.66835000  0.66129400  1
  Cu  Cu14  1  0.64469400  0.33625300  0.81973500  1
  Cu  Cu15  1  0.65023900  0.82295500  0.32834400  1
  Cu  Cu16  1  0.49762000  0.75905900  0.75576800  1
  C  C17  1  0.06289200  0.37683400  0.22520400  1
  C  C18  1  0.43599300  0.04206900  0.37597300  1
  C  C19  1  0.75637700  0.21301700  0.02798800  1
  C  C20  1  0.22969500  0.28504300  0.47376200  1
  C  C21  1  0.56712000  0.46315800  0.12006000  1
  C  C22  1  0.04975400  0.38476400  0.72132000  1
  C  C23  1  0.04806700  0.88527000  0.21260500  1
  C  C24  1  0.96555300  0.11726200  0.28511600  1
  C  C25  1  0.37147000  0.02862500  0.88626900  1
  C  C26  1  0.44102500  0.51887100  0.38864300  1
  C  C27  1  0.77559800  0.21592900  0.53284400  1
  C  C28  1  0.76250900  0.69454800  0.04724400  1
  C  C29  1  0.23277100  0.29179100  0.97677100  1
  C  C30  1  0.23074500  0.78033600  0.46530900  1
  C  C31  1  0.55331200  0.47292200  0.61511300  1
  C  C32  1  0.57487300  0.98709400  0.12343100  1
  C  C33  1  0.10239800  0.87605700  0.69841800  1
  C  C34  1  0.94129000  0.12004500  0.78199300  1
  C  C35  1  0.94406100  0.61421100  0.28410400  1
  C  C36  1  0.43650900  0.53226300  0.88453900  1
  C  C37  1  0.77571800  0.71438000  0.52078800  1
  C  C38  1  0.23088500  0.78095100  0.98388500  1
  C  C39  1  0.57597100  0.97695100  0.60318000  1
  C  C40  1  0.93451300  0.61892400  0.78296200  1
