# generated using pymatgen
data_Cu8Ni2C39
_symmetry_space_group_name_H-M   'P 1'
_cell_length_a   10.57100478
_cell_length_b   10.49411821
_cell_length_c   8.34755539
_cell_angle_alpha   89.16007859
_cell_angle_beta   88.99815158
_cell_angle_gamma   120.01305840
_symmetry_Int_Tables_number   1
_chemical_formula_structural   Cu8Ni2C39
_chemical_formula_sum   'Cu8 Ni2 C39'
_cell_volume   801.43786912
_cell_formula_units_Z   1
loop_
 _symmetry_equiv_pos_site_id
 _symmetry_equiv_pos_as_xyz
  1  'x, y, z'
loop_
 _atom_site_type_symbol
 _atom_site_label
 _atom_site_symmetry_multiplicity
 _atom_site_fract_x
 _atom_site_fract_y
 _atom_site_fract_z
 _atom_site_occupancy
  C  C0  1  0.10467400  0.68885700  0.16274300  1
  C  C1  1  0.60755100  0.94057600  0.13556400  1
  C  C2  1  0.32232900  0.04196600  0.86370500  1
  C  C3  1  0.99445800  0.99696300  0.02575400  1
  C  C4  1  0.95735300  0.29021200  0.86279300  1
  C  C5  1  0.71354000  0.64947900  0.87602200  1
  C  C6  1  0.33669100  0.39863300  0.14669900  1
  C  C7  1  0.99576400  0.99048100  0.50302400  1
  C  C8  1  0.64702500  0.30936100  0.80785600  1
  Ni  Ni9  1  0.32566100  0.66177000  0.48237100  1
  Ni  Ni10  1  0.65245700  0.32391700  0.48097300  1
  Cu  Cu11  1  0.99007400  0.32332700  0.36259300  1
  Cu  Cu12  1  0.00571300  0.65652800  0.65727800  1
  Cu  Cu13  1  0.33899200  0.01258100  0.35243400  1
  Cu  Cu14  1  0.69004200  0.36007600  0.13897600  1
  Cu  Cu15  1  0.64766500  0.98572100  0.63620900  1
  Cu  Cu16  1  0.33927000  0.66547400  0.86252900  1
  Cu  Cu17  1  0.66296100  0.66509500  0.36296200  1
  Cu  Cu18  1  0.33161500  0.33872800  0.64103700  1
  C  C19  1  0.46776900  0.81258800  0.65688000  1
  C  C20  1  0.63826100  0.48088900  0.32767300  1
  C  C21  1  0.71821200  0.98945000  0.44329900  1
  C  C22  1  0.48554000  0.65177600  0.34815900  1
  C  C23  1  0.19099600  0.51368900  0.96526900  1
  C  C24  1  0.15218400  0.50669100  0.35633200  1
  C  C25  1  0.27505300  0.02247700  0.54627200  1
  C  C26  1  0.35445800  0.84807100  0.34650700  1
  C  C27  1  0.54864100  0.35583400  0.99392100  1
  C  C28  1  0.83784000  0.47912700  0.69998700  1
  C  C29  1  0.34551700  0.52072200  0.66927200  1
  C  C30  1  0.82458100  0.33694500  0.33419000  1
  C  C31  1  0.97601000  0.24336500  0.55436600  1
  C  C32  1  0.73208200  0.72242400  0.55619900  1
  C  C33  1  0.33861800  0.81831300  0.95149900  1
  C  C34  1  0.84260000  0.52917500  0.07463400  1
  C  C35  1  0.21066400  0.99644400  0.20454700  1
  C  C36  1  0.00397000  0.71752400  0.46116800  1
  C  C37  1  0.70304200  0.22385100  0.99955700  1
  C  C38  1  0.76464800  0.98627600  0.78756000  1
  C  C39  1  0.00763600  0.21548100  0.20863300  1
  C  C40  1  0.51814600  0.17457600  0.30035600  1
  C  C41  1  0.50720800  0.34290600  0.65396400  1
  C  C42  1  0.17475700  0.64556200  0.67345800  1
  C  C43  1  0.26363700  0.28150100  0.44915200  1
  C  C44  1  0.62370500  0.14722700  0.65450300  1
  C  C45  1  0.78216300  0.79368700  0.21129800  1
  C  C46  1  0.01297000  0.78999200  0.79259700  1
  C  C47  1  0.49127900  0.67081500  0.95378400  1
  C  C48  1  0.20647700  0.21412600  0.79156500  1
