# generated using pymatgen
data_Cu3NiC17
_symmetry_space_group_name_H-M   'P 1'
_cell_length_a   9.22221426
_cell_length_b   9.22221392
_cell_length_c   21.92073613
_cell_angle_alpha   90.00000000
_cell_angle_beta   90.00000000
_cell_angle_gamma   120.00000121
_symmetry_Int_Tables_number   1
_chemical_formula_structural   Cu3NiC17
_chemical_formula_sum   'Cu18 Ni6 C102'
_cell_volume   1614.56733125
_cell_formula_units_Z   6
loop_
 _symmetry_equiv_pos_site_id
 _symmetry_equiv_pos_as_xyz
  1  'x, y, z'
loop_
 _atom_site_type_symbol
 _atom_site_label
 _atom_site_symmetry_multiplicity
 _atom_site_fract_x
 _atom_site_fract_y
 _atom_site_fract_z
 _atom_site_occupancy
  C  C0  1  0.63723218  0.00452654  0.24853338  1
  C  C1  1  0.36729437  0.36276782  0.24853338  1
  C  C2  1  0.99547346  0.63270563  0.24853338  1
  C  C3  1  0.63723218  0.63270563  0.74853338  1
  C  C4  1  0.99547346  0.36276782  0.74853338  1
  C  C5  1  0.36729437  0.00452654  0.74853338  1
  C  C6  1  0.30389918  0.33785954  0.58186638  1
  C  C7  1  0.03396137  0.69610082  0.58186638  1
  C  C8  1  0.66214046  0.96603863  0.58186638  1
  C  C9  1  0.30389918  0.96603863  0.08186638  1
  C  C10  1  0.66214046  0.69610082  0.08186638  1
  C  C11  1  0.03396137  0.33785954  0.08186638  1
  C  C12  1  0.97056518  0.67119354  0.91520038  1
  C  C13  1  0.70062737  0.02943482  0.91520038  1
  C  C14  1  0.32880646  0.29937263  0.91520038  1
  C  C15  1  0.97056518  0.29937263  0.41520038  1
  C  C16  1  0.32880646  0.02943482  0.41520038  1
  C  C17  1  0.70062737  0.67119354  0.41520038  1
  C  C18  1  -0.00000000  -0.00000000  0.50137369  1
  C  C19  1  -0.00000000  -0.00000000  0.00137369  1
  C  C20  1  0.66666700  0.33333300  0.83470669  1
  C  C21  1  0.66666700  0.33333300  0.33470669  1
  C  C22  1  0.33333300  0.66666700  0.16804069  1
  C  C23  1  0.33333300  0.66666700  0.66804069  1
  C  C24  1  -0.00000000  -0.00000000  0.34897605  1
  C  C25  1  -0.00000000  -0.00000000  0.84897605  1
  C  C26  1  0.66666700  0.33333300  0.68230905  1
  C  C27  1  0.66666700  0.33333300  0.18230905  1
  C  C28  1  0.33333300  0.66666700  0.01564305  1
  C  C29  1  0.33333300  0.66666700  0.51564305  1
  Ni  Ni30  1  -0.00000000  -0.00000000  0.64972091  1
  Ni  Ni31  1  -0.00000000  -0.00000000  0.14972091  1
  Ni  Ni32  1  0.66666700  0.33333300  0.98305391  1
  Ni  Ni33  1  0.66666700  0.33333300  0.48305391  1
  Ni  Ni34  1  0.33333300  0.66666700  0.31638791  1
  Ni  Ni35  1  0.33333300  0.66666700  0.81638791  1
  Cu  Cu36  1  0.29268687  0.98510282  0.25047626  1
  Cu  Cu37  1  0.69241594  0.70731313  0.25047626  1
  Cu  Cu38  1  0.01489718  0.30758406  0.25047626  1
  Cu  Cu39  1  0.29268687  0.30758406  0.75047626  1
  Cu  Cu40  1  0.01489718  0.70731313  0.75047626  1
  Cu  Cu41  1  0.69241594  0.98510282  0.75047626  1
  Cu  Cu42  1  0.95935387  0.31843582  0.58380926  1
  Cu  Cu43  1  0.35908294  0.04064613  0.58380926  1
  Cu  Cu44  1  0.68156418  0.64091706  0.58380926  1
  Cu  Cu45  1  0.95935387  0.64091706  0.08380926  1
  Cu  Cu46  1  0.68156418  0.04064613  0.08380926  1
  Cu  Cu47  1  0.35908294  0.31843582  0.08380926  1
  Cu  Cu48  1  0.62601987  0.65176982  0.91714326  1
  Cu  Cu49  1  0.02574894  0.37398013  0.91714326  1
  Cu  Cu50  1  0.34823018  0.97425106  0.91714326  1
  Cu  Cu51  1  0.62601987  0.97425106  0.41714326  1
  Cu  Cu52  1  0.34823018  0.37398013  0.41714326  1
  Cu  Cu53  1  0.02574894  0.65176982  0.41714326  1
  C  C54  1  0.22126191  0.01173794  0.30912459  1
  C  C55  1  0.79047603  0.77873809  0.30912459  1
  C  C56  1  0.98826206  0.20952397  0.30912459  1
  C  C57  1  0.22126191  0.20952397  0.80912459  1
  C  C58  1  0.98826206  0.77873809  0.80912459  1
  C  C59  1  0.79047603  0.01173794  0.80912459  1
  C  C60  1  0.78653234  0.96402048  0.69375952  1
  C  C61  1  0.17748814  0.21346766  0.69375952  1
  C  C62  1  0.03597952  0.82251186  0.69375952  1
  C  C63  1  0.78653234  0.82251186  0.19375952  1
  C  C64  1  0.03597952  0.21346766  0.19375952  1
  C  C65  1  0.17748814  0.96402048  0.19375952  1
  C  C66  1  0.88792891  0.34507094  0.64245759  1
  C  C67  1  0.45714303  0.11207109  0.64245759  1
  C  C68  1  0.65492906  0.54285697  0.64245759  1
  C  C69  1  0.88792891  0.54285697  0.14245759  1
  C  C70  1  0.65492906  0.11207109  0.14245759  1
  C  C71  1  0.45714303  0.34507094  0.14245759  1
  C  C72  1  0.45319934  0.29735348  0.02709252  1
  C  C73  1  0.84415514  0.54680066  0.02709252  1
  C  C74  1  0.70264652  0.15584486  0.02709252  1
  C  C75  1  0.45319934  0.15584486  0.52709252  1
  C  C76  1  0.70264652  0.54680066  0.52709252  1
  C  C77  1  0.84415514  0.29735348  0.52709252  1
  C  C78  1  0.55459491  0.67840494  0.97579159  1
  C  C79  1  0.12380903  0.44540509  0.97579159  1
  C  C80  1  0.32159506  0.87619097  0.97579159  1
  C  C81  1  0.55459491  0.87619097  0.47579159  1
  C  C82  1  0.32159506  0.44540509  0.47579159  1
  C  C83  1  0.12380903  0.67840494  0.47579159  1
  C  C84  1  0.11986534  0.63068748  0.36042652  1
  C  C85  1  0.51082114  0.88013466  0.36042652  1
  C  C86  1  0.36931252  0.48917886  0.36042652  1
  C  C87  1  0.11986534  0.48917886  0.86042652  1
  C  C88  1  0.36931252  0.88013466  0.86042652  1
  C  C89  1  0.51082114  0.63068748  0.86042652  1
  C  C90  1  0.99595343  0.80119030  0.41146125  1
  C  C91  1  0.80523687  0.00404657  0.41146125  1
  C  C92  1  0.19880970  0.19476313  0.41146125  1
  C  C93  1  0.99595343  0.19476313  0.91146125  1
  C  C94  1  0.19880970  0.00404657  0.91146125  1
  C  C95  1  0.80523687  0.80119030  0.91146125  1
  C  C96  1  0.96657148  0.15058008  0.58662145  1
  C  C97  1  0.18400860  0.03342852  0.58662145  1
  C  C98  1  0.84941992  0.81599140  0.58662145  1
  C  C99  1  0.96657148  0.81599140  0.08662145  1
  C  C100  1  0.84941992  0.03342852  0.08662145  1
  C  C101  1  0.18400860  0.15058008  0.08662145  1
  C  C102  1  0.66262043  0.13452330  0.74479425  1
  C  C103  1  0.47190387  0.33737957  0.74479425  1
  C  C104  1  0.86547670  0.52809613  0.74479425  1
  C  C105  1  0.66262043  0.52809613  0.24479425  1
  C  C106  1  0.86547670  0.33737957  0.24479425  1
  C  C107  1  0.47190387  0.13452330  0.24479425  1
  C  C108  1  0.63323848  0.48391308  0.91995445  1
  C  C109  1  0.85067560  0.36676152  0.91995445  1
  C  C110  1  0.51608692  0.14932440  0.91995445  1
  C  C111  1  0.63323848  0.14932440  0.41995445  1
  C  C112  1  0.51608692  0.36676152  0.41995445  1
  C  C113  1  0.85067560  0.48391308  0.41995445  1
  C  C114  1  0.32928643  0.46785730  0.07812825  1
  C  C115  1  0.13856987  0.67071357  0.07812825  1
  C  C116  1  0.53214270  0.86143013  0.07812825  1
  C  C117  1  0.32928643  0.86143013  0.57812825  1
  C  C118  1  0.53214270  0.67071357  0.57812825  1
  C  C119  1  0.13856987  0.46785730  0.57812825  1
  C  C120  1  0.29990448  0.81724708  0.25328845  1
  C  C121  1  0.51734160  0.70009552  0.25328845  1
  C  C122  1  0.18275292  0.48265840  0.25328845  1
  C  C123  1  0.29990448  0.48265840  0.75328845  1
  C  C124  1  0.18275292  0.70009552  0.75328845  1
  C  C125  1  0.51734160  0.81724708  0.75328845  1
