# generated using pymatgen
data_CuNiC16
_symmetry_space_group_name_H-M   'P 1'
_cell_length_a   9.22208628
_cell_length_b   9.23987452
_cell_length_c   24.08914667
_cell_angle_alpha   89.41392998
_cell_angle_beta   90.00000000
_cell_angle_gamma   119.93633660
_symmetry_Int_Tables_number   1
_chemical_formula_structural   CuNiC16
_chemical_formula_sum   'Cu6 Ni6 C96'
_cell_volume   1778.66965402
_cell_formula_units_Z   6
loop_
 _symmetry_equiv_pos_site_id
 _symmetry_equiv_pos_as_xyz
  1  'x, y, z'
loop_
 _atom_site_type_symbol
 _atom_site_label
 _atom_site_symmetry_multiplicity
 _atom_site_fract_x
 _atom_site_fract_y
 _atom_site_fract_z
 _atom_site_occupancy
  C  C0  1  0.97986333  0.98865277  0.49830525  1
  C  C1  1  0.00878944  0.98865277  0.99830525  1
  C  C2  1  0.64653033  0.32198577  0.83163825  1
  C  C3  1  0.67545644  0.32198577  0.33163825  1
  C  C4  1  0.31319633  0.65531977  0.16497225  1
  C  C5  1  0.34212244  0.65531977  0.66497225  1
  Ni  Ni6  1  0.99389756  0.00461671  0.64648751  1
  Ni  Ni7  1  0.01071916  0.00461671  0.14648751  1
  Ni  Ni8  1  0.66056456  0.33794971  0.97982051  1
  Ni  Ni9  1  0.67738616  0.33794971  0.47982051  1
  Ni  Ni10  1  0.32723056  0.67128371  0.31315451  1
  Ni  Ni11  1  0.34405216  0.67128371  0.81315451  1
  Cu  Cu12  1  0.00275424  0.00431079  0.35095037  1
  Cu  Cu13  1  0.00155655  0.00431079  0.85095037  1
  Cu  Cu14  1  0.66942124  0.33764379  0.68428337  1
  Cu  Cu15  1  0.66822355  0.33764379  0.18428337  1
  Cu  Cu16  1  0.33608724  0.67097779  0.01761737  1
  Cu  Cu17  1  0.33488955  0.67097779  0.51761737  1
  C  C18  1  0.30675823  0.02090525  0.25060218  1
  C  C19  1  0.98323301  0.28629319  0.24945545  1
  C  C20  1  0.30306019  0.28629319  0.74945545  1
  C  C21  1  0.71414702  0.02090525  0.75060218  1
  C  C22  1  0.97342523  0.35423825  0.58393518  1
  C  C23  1  0.64990001  0.61962619  0.58278845  1
  C  C24  1  0.96972719  0.61962619  0.08278845  1
  C  C25  1  0.38081402  0.35423825  0.08393518  1
  C  C26  1  0.64009123  0.68757225  0.91726918  1
  C  C27  1  0.31656601  0.95296019  0.91612245  1
  C  C28  1  0.63639319  0.95296019  0.41612245  1
  C  C29  1  0.04748002  0.68757225  0.41726918  1
  C  C30  1  0.71358728  0.69605638  0.25099398  1
  C  C31  1  0.98246909  0.69605638  0.75099398  1
  C  C32  1  0.38025428  0.02938938  0.58432698  1
  C  C33  1  0.64913609  0.02938938  0.08432698  1
  C  C34  1  0.04692028  0.36272338  0.91766098  1
  C  C35  1  0.31580209  0.36272338  0.41766098  1
  C  C36  1  0.20530581  0.03124658  0.30228241  1
  C  C37  1  0.81803162  0.78565953  0.30041629  1
  C  C38  1  0.96820005  0.17331989  0.30214537  1
  C  C39  1  0.20511984  0.17331989  0.80214537  1
  C  C40  1  0.96762790  0.78565953  0.80041629  1
  C  C41  1  0.82594077  0.03124658  0.80228241  1
  C  C42  1  0.78915063  0.99316169  0.69855620  1
  C  C43  1  0.20377714  0.20492228  0.69772961  1
  C  C44  1  0.00714187  0.79233896  0.69988351  1
  C  C45  1  0.78519709  0.79233896  0.19988351  1
  C  C46  1  0.00114514  0.20492228  0.19772961  1
  C  C47  1  0.20401106  0.99316169  0.19855620  1
  C  C48  1  0.87197281  0.36457958  0.63561541  1
  C  C49  1  0.48469862  0.11899253  0.63374929  1
  C  C50  1  0.63486705  0.50665289  0.63547837  1
  C  C51  1  0.87178684  0.50665289  0.13547837  1
  C  C52  1  0.63429490  0.11899253  0.13374929  1
  C  C53  1  0.49260777  0.36457958  0.13561541  1
  C  C54  1  0.45581763  0.32649469  0.03188920  1
  C  C55  1  0.87044414  0.53825528  0.03106261  1
  C  C56  1  0.67380887  0.12567196  0.03321651  1
  C  C57  1  0.45186409  0.12567196  0.53321651  1
  C  C58  1  0.66781214  0.53825528  0.53106261  1
  C  C59  1  0.87067806  0.32649469  0.53188920  1
  C  C60  1  0.53863881  0.69791358  0.96894941  1
  C  C61  1  0.15136462  0.45232653  0.96708329  1
  C  C62  1  0.30153305  0.83998689  0.96881237  1
  C  C63  1  0.53845284  0.83998689  0.46881237  1
  C  C64  1  0.30096090  0.45232653  0.46708329  1
  C  C65  1  0.15927377  0.69791358  0.46894941  1
  C  C66  1  0.12248363  0.65982869  0.36522320  1
  C  C67  1  0.53711014  0.87158928  0.36439661  1
  C  C68  1  0.34047487  0.45900596  0.36655051  1
  C  C69  1  0.11853009  0.45900596  0.86655051  1
  C  C70  1  0.33447814  0.87158928  0.86439661  1
  C  C71  1  0.53734406  0.65982869  0.86522320  1
  C  C72  1  0.04263294  0.85439261  0.41103673  1
  C  C73  1  0.81255159  0.96456660  0.41091045  1
  C  C74  1  0.15617831  0.19722428  0.41355302  1
  C  C75  1  0.04104597  0.19722428  0.91355302  1
  C  C76  1  0.15201501  0.96456660  0.91091045  1
  C  C77  1  0.81175967  0.85439261  0.91103673  1
  C  C78  1  0.00776525  0.20920013  0.58876675  1
  C  C79  1  0.20828030  0.99798937  0.58997802  1
  C  C80  1  0.80079886  0.79514300  0.58794689  1
  C  C81  1  0.99434414  0.79514300  0.08794689  1
  C  C82  1  0.78970907  0.99798937  0.08997802  1
  C  C83  1  0.20143487  0.20920013  0.08876675  1
  C  C84  1  0.70929994  0.18772561  0.74436973  1
  C  C85  1  0.47921859  0.29789960  0.74424345  1
  C  C86  1  0.82284531  0.53055728  0.74688602  1
  C  C87  1  0.70771297  0.53055728  0.24688602  1
  C  C88  1  0.81868201  0.29789960  0.24424345  1
  C  C89  1  0.47842667  0.18772561  0.24436973  1
  C  C90  1  0.67443225  0.54253313  0.92209975  1
  C  C91  1  0.87494730  0.33132237  0.92331102  1
  C  C92  1  0.46746586  0.12847600  0.92127989  1
  C  C93  1  0.66101114  0.12847600  0.42127989  1
  C  C94  1  0.45637607  0.33132237  0.42331102  1
  C  C95  1  0.86810187  0.54253313  0.42209975  1
  C  C96  1  0.37596594  0.52105961  0.07770373  1
  C  C97  1  0.14588459  0.63123360  0.07757745  1
  C  C98  1  0.48951131  0.86389128  0.08022002  1
  C  C99  1  0.37437897  0.86389128  0.58022002  1
  C  C100  1  0.48534801  0.63123360  0.57757745  1
  C  C101  1  0.14509267  0.52105961  0.57770373  1
  C  C102  1  0.34109825  0.87586713  0.25543375  1
  C  C103  1  0.54161330  0.66465637  0.25664502  1
  C  C104  1  0.13413186  0.46181000  0.25461389  1
  C  C105  1  0.32767714  0.46181000  0.75461389  1
  C  C106  1  0.12304207  0.66465637  0.75664502  1
  C  C107  1  0.53476787  0.87586713  0.75543375  1
