# generated using pymatgen
data_Cu2NiC12
_symmetry_space_group_name_H-M   'P 1'
_cell_length_a   3.94121287
_cell_length_b   3.94143475
_cell_length_c   16.89719577
_cell_angle_alpha   97.06552295
_cell_angle_beta   82.89897678
_cell_angle_gamma   90.03436120
_symmetry_Int_Tables_number   1
_chemical_formula_structural   Cu2NiC12
_chemical_formula_sum   'Cu2 Ni1 C12'
_cell_volume   258.46190492
_cell_formula_units_Z   1
loop_
 _symmetry_equiv_pos_site_id
 _symmetry_equiv_pos_as_xyz
  1  'x, y, z'
loop_
 _atom_site_type_symbol
 _atom_site_label
 _atom_site_symmetry_multiplicity
 _atom_site_fract_x
 _atom_site_fract_y
 _atom_site_fract_z
 _atom_site_occupancy
  C  C0  1  0.66557700  0.83678800  0.06144700  1
  C  C1  1  0.25170900  0.24687900  0.83093500  1
  C  C2  1  0.94157600  0.55516400  0.45299400  1
  C  C3  1  0.36599500  0.13293300  0.61217900  1
  Ni  Ni4  1  0.51812500  0.98278800  0.33124300  1
  Cu  Cu5  1  0.05938200  0.44204200  0.25571100  1
  Cu  Cu6  1  0.81429000  0.68447500  0.71135000  1
  C  C7  1  0.13679800  0.36539500  0.11516500  1
  C  C8  1  0.71568800  0.78259100  0.89649100  1
  C  C9  1  0.53880100  0.46307000  0.29470300  1
  C  C10  1  0.03817500  0.96253500  0.29464600  1
  C  C11  1  0.30825600  0.69049600  0.72299600  1
  C  C12  1  0.80822200  0.19049400  0.72298100  1
  C  C13  1  0.45975900  0.04279700  0.45233600  1
  C  C14  1  0.87764800  0.62155800  0.59204700  1
