# generated using pymatgen
data_Cu12NiC8
_symmetry_space_group_name_H-M   'P 1'
_cell_length_a   9.92485427
_cell_length_b   9.92485427
_cell_length_c   6.57008800
_cell_angle_alpha   90.00000000
_cell_angle_beta   90.00000000
_cell_angle_gamma   120.00000177
_symmetry_Int_Tables_number   1
_chemical_formula_structural   Cu12NiC8
_chemical_formula_sum   'Cu24 Ni2 C16'
_cell_volume   560.46705248
_cell_formula_units_Z   2
loop_
 _symmetry_equiv_pos_site_id
 _symmetry_equiv_pos_as_xyz
  1  'x, y, z'
loop_
 _atom_site_type_symbol
 _atom_site_label
 _atom_site_symmetry_multiplicity
 _atom_site_fract_x
 _atom_site_fract_y
 _atom_site_fract_z
 _atom_site_occupancy
  C  C0  1  0.66666700  0.33333300  0.00429500  1
  C  C1  1  0.33333300  0.66666700  0.50429500  1
  C  C2  1  0.66666700  0.33333300  0.49570500  1
  C  C3  1  0.33333300  0.66666700  0.99570500  1
  C  C4  1  0.75245500  0.02854000  0.75000000  1
  C  C5  1  0.72391600  0.75245500  0.25000000  1
  C  C6  1  0.02854000  0.27608400  0.25000000  1
  C  C7  1  0.97146000  0.72391600  0.75000000  1
  C  C8  1  0.27608400  0.24754500  0.75000000  1
  C  C9  1  0.24754500  0.97146000  0.25000000  1
  C  C10  1  0.02483700  0.62065000  0.25000000  1
  C  C11  1  0.59581300  0.97516300  0.25000000  1
  C  C12  1  0.40418700  0.02483700  0.75000000  1
  C  C13  1  0.62065000  0.59581300  0.75000000  1
  C  C14  1  0.97516300  0.37935000  0.75000000  1
  C  C15  1  0.37935000  0.40418700  0.25000000  1
  Ni  Ni16  1  0.00000000  0.00000000  0.25000000  1
  Ni  Ni17  1  0.00000000  0.00000000  0.75000000  1
  Cu  Cu18  1  0.49400200  0.64311100  0.75000000  1
  Cu  Cu19  1  0.92708300  0.27114800  0.56035900  1
  Cu  Cu20  1  0.27114800  0.34406600  0.43964100  1
  Cu  Cu21  1  0.92708300  0.27114800  0.93964100  1
  Cu  Cu22  1  0.34406600  0.07291700  0.93964100  1
  Cu  Cu23  1  0.65593400  0.92708300  0.43964100  1
  Cu  Cu24  1  0.07291700  0.72885200  0.43964100  1
  Cu  Cu25  1  0.72885200  0.65593400  0.93964100  1
  Cu  Cu26  1  0.72885200  0.65593400  0.56035900  1
  Cu  Cu27  1  0.07291700  0.72885200  0.06035900  1
  Cu  Cu28  1  0.27114800  0.34406600  0.06035900  1
  Cu  Cu29  1  0.54444100  0.41189700  0.75000000  1
  Cu  Cu30  1  0.13254400  0.54444100  0.25000000  1
  Cu  Cu31  1  0.41189700  0.86745600  0.25000000  1
  Cu  Cu32  1  0.58810300  0.13254400  0.75000000  1
  Cu  Cu33  1  0.86745600  0.45555900  0.75000000  1
  Cu  Cu34  1  0.50599800  0.35688900  0.25000000  1
  Cu  Cu35  1  0.14910900  0.50599800  0.75000000  1
  Cu  Cu36  1  0.35688900  0.85089100  0.75000000  1
  Cu  Cu37  1  0.64311100  0.14910900  0.25000000  1
  Cu  Cu38  1  0.85089100  0.49400200  0.25000000  1
  Cu  Cu39  1  0.34406600  0.07291700  0.56035900  1
  Cu  Cu40  1  0.45555900  0.58810300  0.25000000  1
  Cu  Cu41  1  0.65593400  0.92708300  0.06035900  1
