# generated using pymatgen
data_Cu2Ni3C32
_symmetry_space_group_name_H-M   'P 1'
_cell_length_a   9.10588207
_cell_length_b   9.09142648
_cell_length_c   23.32435410
_cell_angle_alpha   90.12675108
_cell_angle_beta   89.97814363
_cell_angle_gamma   119.74858083
_symmetry_Int_Tables_number   1
_chemical_formula_structural   Cu2Ni3C32
_chemical_formula_sum   'Cu6 Ni9 C96'
_cell_volume   1676.43918924
_cell_formula_units_Z   3
loop_
 _symmetry_equiv_pos_site_id
 _symmetry_equiv_pos_as_xyz
  1  'x, y, z'
loop_
 _atom_site_type_symbol
 _atom_site_label
 _atom_site_symmetry_multiplicity
 _atom_site_fract_x
 _atom_site_fract_y
 _atom_site_fract_z
 _atom_site_occupancy
  Ni  Ni0  1  0.00488233  0.36045891  0.75254560  1
  Ni  Ni1  1  0.67046174  0.95864317  0.58292290  1
  Ni  Ni2  1  0.04421767  0.33110815  0.08431960  1
  Ni  Ni3  1  0.01418692  0.98555628  0.50013635  1
  Ni  Ni4  1  0.01676207  0.99042923  0.99881766  1
  Ni  Ni5  1  0.64871912  0.31850132  0.83443368  1
  Ni  Ni6  1  0.69162017  0.34122406  0.33326558  1
  Ni  Ni7  1  0.35964972  0.67168442  0.16788165  1
  Ni  Ni8  1  0.33526961  0.66710077  0.66713242  1
  Cu  Cu9  1  0.00937936  0.99554206  0.64585530  1
  Cu  Cu10  1  0.99410789  0.99080739  0.14581486  1
  Cu  Cu11  1  0.33401080  0.67403119  0.01813894  1
  Cu  Cu12  1  0.32261055  0.66470554  0.51815729  1
  Cu  Cu13  1  0.32844035  0.66459857  0.31645120  1
  Cu  Cu14  1  0.33736743  0.67959199  0.81765433  1
  C  C15  1  0.98020082  0.99237328  0.34997402  1
  C  C16  1  0.00617631  0.00463414  0.84930392  1
  C  C17  1  0.66141671  0.33932685  0.68690827  1
  C  C18  1  0.66927205  0.33892379  0.18703650  1
  C  C19  1  0.66320661  0.32622176  0.98151074  1
  C  C20  1  0.67551342  0.33954908  0.48137536  1
  C  C21  1  0.70009291  0.69733992  0.24929754  1
  C  C22  1  0.99564773  0.29414763  0.24615868  1
  C  C23  1  0.29639614  0.29591100  0.75028384  1
  C  C24  1  0.99346051  0.69739884  0.75083494  1
  C  C25  1  0.70760446  0.00422704  0.74554401  1
  C  C26  1  0.95769599  0.33656278  0.58658565  1
  C  C27  1  0.38310400  0.04800137  0.58173465  1
  C  C28  1  0.66213543  0.62482987  0.58259894  1
  C  C29  1  0.95402088  0.61866817  0.08224007  1
  C  C30  1  0.66343219  0.04281708  0.08492104  1
  C  C31  1  0.37774428  0.33612250  0.08420333  1
  C  C32  1  0.02805805  0.35998465  0.91675561  1
  C  C33  1  0.33022414  0.97521449  0.91735265  1
  C  C34  1  0.63376766  0.96955026  0.41980635  1
  C  C35  1  0.02811037  0.67132969  0.41564328  1
  C  C36  1  0.29901852  0.00874596  0.25130840  1
  C  C37  1  0.64286484  0.66942172  0.91646203  1
  C  C38  1  0.32975232  0.35603990  0.41603145  1
  C  C39  1  0.20688465  0.01831100  0.30236989  1
  C  C40  1  0.81192489  0.79325435  0.30276189  1
  C  C41  1  0.98199510  0.17505254  0.29709587  1
  C  C42  1  0.20626791  0.18239017  0.80357723  1
  C  C43  1  0.98235807  0.79440974  0.80416092  1
  C  C44  1  0.83130956  0.02481169  0.79592934  1
  C  C45  1  0.78114447  0.98646414  0.68832893  1
  C  C46  1  0.18764959  0.21441350  0.69713570  1
  C  C47  1  0.01465631  0.79735176  0.69613376  1
  C  C48  1  0.78744698  0.79728207  0.19543930  1
  C  C49  1  0.01397266  0.22003339  0.18902105  1
  C  C50  1  0.20468120  0.99365246  0.19814931  1
  C  C51  1  0.86656396  0.34538744  0.64226613  1
  C  C52  1  0.48488126  0.14604035  0.63633070  1
  C  C53  1  0.66028464  0.52435781  0.63711775  1
  C  C54  1  0.85693743  0.51650138  0.13682786  1
  C  C55  1  0.65542091  0.13970666  0.13879776  1
  C  C56  1  0.47908390  0.34092305  0.13875230  1
  C  C57  1  0.47656534  0.33333673  0.03049349  1
  C  C58  1  0.84945062  0.52092533  0.02905371  1
  C  C59  1  0.66803545  0.14610240  0.03092369  1
  C  C60  1  0.48146700  0.15024420  0.52847119  1
  C  C61  1  0.66416128  0.52577155  0.52889529  1
  C  C62  1  0.85051924  0.33445817  0.53386089  1
  C  C63  1  0.56309896  0.69273902  0.96821051  1
  C  C64  1  0.13500398  0.43873188  0.97150169  1
  C  C65  1  0.30681323  0.86830911  0.97107500  1
  C  C66  1  0.56651928  0.87122052  0.47645594  1
  C  C67  1  0.30349478  0.43403865  0.46792628  1
  C  C68  1  0.13334826  0.69774997  0.47027101  1
  C  C69  1  0.10615752  0.63663152  0.36298430  1
  C  C70  1  0.51888117  0.87774468  0.36884186  1
  C  C71  1  0.35542614  0.46033358  0.36469847  1
  C  C72  1  0.11153788  0.46694553  0.86288653  1
  C  C73  1  0.36505519  0.89980467  0.86387497  1
  C  C74  1  0.54028740  0.64533871  0.86461738  1
  C  C75  1  0.01132280  0.83255559  0.40732957  1
  C  C76  1  0.81529296  0.99421379  0.40899028  1
  C  C77  1  0.17782519  0.18466468  0.40847617  1
  C  C78  1  0.00171403  0.17772229  0.90841667  1
  C  C79  1  0.16779910  0.98960422  0.91026814  1
  C  C80  1  0.81319172  0.82200502  0.91012962  1
  C  C81  1  0.95887789  0.16765877  0.58392604  1
  C  C82  1  0.20557380  0.02649978  0.58046785  1
  C  C83  1  0.82087786  0.80267479  0.58156529  1
  C  C84  1  0.97767007  0.79715142  0.08177926  1
  C  C85  1  0.83239740  0.04132068  0.08335319  1
  C  C86  1  0.19954096  0.17727005  0.08377237  1
  C  C87  1  0.70280950  0.17498914  0.74603503  1
  C  C88  1  0.47313652  0.31000893  0.74637049  1
  C  C89  1  0.82851065  0.51979618  0.74895341  1
  C  C90  1  0.68855870  0.52012376  0.24831991  1
  C  C91  1  0.82777524  0.30247114  0.24638128  1
  C  C92  1  0.46786807  0.16636374  0.24958360  1
  C  C93  1  0.66494659  0.51869404  0.92219242  1
  C  C94  1  0.84764007  0.33859086  0.92334607  1
  C  C95  1  0.48192912  0.15894911  0.92365661  1
  C  C96  1  0.66147002  0.15281422  0.42384427  1
  C  C97  1  0.48034670  0.33467271  0.42248146  1
  C  C98  1  0.84522504  0.51787641  0.42283211  1
  C  C99  1  0.35595041  0.49443329  0.08372290  1
  C  C100  1  0.12392438  0.61885163  0.08202625  1
  C  C101  1  0.50857633  0.86531927  0.08380421  1
  C  C102  1  0.38017705  0.87617621  0.58264522  1
  C  C103  1  0.50361557  0.64486490  0.58350031  1
  C  C104  1  0.13470909  0.49240933  0.58449761  1
  C  C105  1  0.32441320  0.86023269  0.25483635  1
  C  C106  1  0.52352629  0.67676846  0.25469439  1
  C  C107  1  0.14741801  0.47208614  0.25436613  1
  C  C108  1  0.31169513  0.47052139  0.75781885  1
  C  C109  1  0.14191888  0.66097077  0.75536444  1
  C  C110  1  0.53052140  0.85324607  0.75428169  1
