# generated using pymatgen
data_Cu4Ni4C5
_symmetry_space_group_name_H-M   'P 1'
_cell_length_a   3.38276985
_cell_length_b   3.38246828
_cell_length_c   41.23613913
_cell_angle_alpha   90.00239739
_cell_angle_beta   90.07804327
_cell_angle_gamma   119.99683879
_symmetry_Int_Tables_number   1
_chemical_formula_structural   Cu4Ni4C5
_chemical_formula_sum   'Cu4 Ni4 C5'
_cell_volume   408.62797080
_cell_formula_units_Z   1
loop_
 _symmetry_equiv_pos_site_id
 _symmetry_equiv_pos_as_xyz
  1  'x, y, z'
loop_
 _atom_site_type_symbol
 _atom_site_label
 _atom_site_symmetry_multiplicity
 _atom_site_fract_x
 _atom_site_fract_y
 _atom_site_fract_z
 _atom_site_occupancy
  C  C0  1  0.32986500  0.66493300  0.38092500  1
  Ni  Ni1  1  0.33435800  0.66733400  0.70346800  1
  Ni  Ni2  1  0.66586400  0.33276600  0.04799400  1
  Ni  Ni3  1  0.66808800  0.33392800  0.13970500  1
  Ni  Ni4  1  0.33224300  0.66621400  0.61167000  1
  C  C5  1  0.33073900  0.66532700  0.47431400  1
  C  C6  1  0.66618300  0.33314700  0.27893700  1
  C  C7  1  0.33362300  0.66668600  0.09384400  1
  C  C8  1  0.66667600  0.33345500  0.65758000  1
  Cu  Cu9  1  0.33362800  0.66689500  0.31533600  1
  Cu  Cu10  1  0.66327600  0.33157700  0.43723200  1
  Cu  Cu11  1  0.66485600  0.33240700  0.51044100  1
  Cu  Cu12  1  0.33203000  0.66604500  0.24271900  1
