# generated using pymatgen
data_Cu2NiC4
_symmetry_space_group_name_H-M   'P 1'
_cell_length_a   3.34000536
_cell_length_b   6.85613858
_cell_length_c   6.93271282
_cell_angle_alpha   119.63529821
_cell_angle_beta   103.93891907
_cell_angle_gamma   89.99999894
_symmetry_Int_Tables_number   1
_chemical_formula_structural   Cu2NiC4
_chemical_formula_sum   'Cu2 Ni1 C4'
_cell_volume   132.58404865
_cell_formula_units_Z   1
loop_
 _symmetry_equiv_pos_site_id
 _symmetry_equiv_pos_as_xyz
  1  'x, y, z'
loop_
 _atom_site_type_symbol
 _atom_site_label
 _atom_site_symmetry_multiplicity
 _atom_site_fract_x
 _atom_site_fract_y
 _atom_site_fract_z
 _atom_site_occupancy
  Ni  Ni0  1  0.00000000  0.00000000  -0.00000000  1
  Cu  Cu1  1  0.87476181  0.37476181  0.74952562  1
  Cu  Cu2  1  0.12523819  0.62523819  0.25047438  1
  C  C3  1  0.50000000  0.70071454  0.00000000  1
  C  C4  1  0.50000000  0.29928546  1.00000000  1
  C  C5  1  0.21689833  0.21689833  0.43379466  1
  C  C6  1  0.78310167  0.78310167  0.56620534  1
