# generated using pymatgen
data_CuNi2C
_symmetry_space_group_name_H-M   'P 1'
_cell_length_a   5.60885000
_cell_length_b   5.60885000
_cell_length_c   16.84195900
_cell_angle_alpha   90.00000000
_cell_angle_beta   90.00000000
_cell_angle_gamma   90.00000000
_symmetry_Int_Tables_number   1
_chemical_formula_structural   CuNi2C
_chemical_formula_sum   'Cu12 Ni24 C12'
_cell_volume   529.83452832
_cell_formula_units_Z   12
loop_
 _symmetry_equiv_pos_site_id
 _symmetry_equiv_pos_as_xyz
  1  'x, y, z'
loop_
 _atom_site_type_symbol
 _atom_site_label
 _atom_site_symmetry_multiplicity
 _atom_site_fract_x
 _atom_site_fract_y
 _atom_site_fract_z
 _atom_site_occupancy
  C  C0  1  0.34751400  0.55355700  0.05689200  1
  C  C1  1  0.67534100  0.32465900  0.25000000  1
  C  C2  1  0.32465900  0.67534100  0.75000000  1
  C  C3  1  0.17534100  0.17534100  0.00000000  1
  C  C4  1  0.44644300  0.65248600  0.44310800  1
  C  C5  1  0.55355700  0.34751400  0.94310800  1
  C  C6  1  0.65248600  0.44644300  0.55689200  1
  C  C7  1  0.15248600  0.05355700  0.69310800  1
  C  C8  1  0.84751400  0.94644300  0.19310800  1
  C  C9  1  0.05355700  0.15248600  0.30689200  1
  C  C10  1  0.94644300  0.84751400  0.80689200  1
  C  C11  1  0.82465900  0.82465900  0.50000000  1
  Ni  Ni12  1  0.97604100  0.97604100  0.50000000  1
  Ni  Ni13  1  0.52395900  0.47604100  0.25000000  1
  Ni  Ni14  1  0.47604100  0.52395900  0.75000000  1
  Ni  Ni15  1  0.02395900  0.02395900  0.00000000  1
  Ni  Ni16  1  0.62372600  0.96560800  0.40472000  1
  Ni  Ni17  1  0.37627400  0.03439200  0.90472000  1
  Ni  Ni18  1  0.96560800  0.62372600  0.59528000  1
  Ni  Ni19  1  0.46560800  0.87627400  0.65472000  1
  Ni  Ni20  1  0.53439200  0.12372600  0.15472000  1
  Ni  Ni21  1  0.87627400  0.46560800  0.34528000  1
  Ni  Ni22  1  0.12372600  0.53439200  0.84528000  1
  Ni  Ni23  1  0.03439200  0.37627400  0.09528000  1
  Ni  Ni24  1  0.28503200  0.66288600  0.39641000  1
  Ni  Ni25  1  0.71496800  0.33711400  0.89641000  1
  Ni  Ni26  1  0.66288600  0.28503200  0.60359000  1
  Ni  Ni27  1  0.16288600  0.21496800  0.64641000  1
  Ni  Ni28  1  0.83711400  0.78503200  0.14641000  1
  Ni  Ni29  1  0.66471600  0.66471600  0.00000000  1
  Ni  Ni30  1  0.78503200  0.83711400  0.85359000  1
  Ni  Ni31  1  0.33711400  0.71496800  0.10359000  1
  Ni  Ni32  1  0.33528400  0.33528400  0.50000000  1
  Ni  Ni33  1  0.16471600  0.83528400  0.25000000  1
  Ni  Ni34  1  0.83528400  0.16471600  0.75000000  1
  Ni  Ni35  1  0.21496800  0.16288600  0.35359000  1
  Cu  Cu36  1  0.63172600  0.82871500  0.44414000  1
  Cu  Cu37  1  0.36827400  0.17128500  0.94414000  1
  Cu  Cu38  1  0.82871500  0.63172600  0.55586000  1
  Cu  Cu39  1  0.32871500  0.86827400  0.69414000  1
  Cu  Cu40  1  0.67128500  0.13172600  0.19414000  1
  Cu  Cu41  1  0.86827400  0.32871500  0.30586000  1
  Cu  Cu42  1  0.13172600  0.67128500  0.80586000  1
  Cu  Cu43  1  0.17128500  0.36827400  0.05586000  1
  Cu  Cu44  1  0.46333800  0.46333800  0.50000000  1
  Cu  Cu45  1  0.03666200  0.96333800  0.25000000  1
  Cu  Cu46  1  0.96333800  0.03666200  0.75000000  1
  Cu  Cu47  1  0.53666200  0.53666200  0.00000000  1
