# generated using pymatgen
data_Cu2NiC
_symmetry_space_group_name_H-M   'P 1'
_cell_length_a   7.57920300
_cell_length_b   8.57549800
_cell_length_c   9.53044800
_cell_angle_alpha   90.00000000
_cell_angle_beta   90.00000000
_cell_angle_gamma   90.00000000
_symmetry_Int_Tables_number   1
_chemical_formula_structural   Cu2NiC
_chemical_formula_sum   'Cu24 Ni12 C12'
_cell_volume   619.43566276
_cell_formula_units_Z   12
loop_
 _symmetry_equiv_pos_site_id
 _symmetry_equiv_pos_as_xyz
  1  'x, y, z'
loop_
 _atom_site_type_symbol
 _atom_site_label
 _atom_site_symmetry_multiplicity
 _atom_site_fract_x
 _atom_site_fract_y
 _atom_site_fract_z
 _atom_site_occupancy
  C  C0  1  0.00000000  0.16747400  0.82028600  1
  C  C1  1  0.23843500  0.17394500  0.54853700  1
  C  C2  1  0.76156500  0.32605500  0.04853700  1
  C  C3  1  0.76156500  0.67394500  0.95146300  1
  C  C4  1  0.76156500  0.17394500  0.54853700  1
  C  C5  1  0.76156500  0.82605500  0.45146300  1
  C  C6  1  0.23843500  0.67394500  0.95146300  1
  C  C7  1  0.23843500  0.32605500  0.04853700  1
  C  C8  1  0.00000000  0.33252600  0.32028600  1
  C  C9  1  0.00000000  0.66747400  0.67971400  1
  C  C10  1  0.00000000  0.83252600  0.17971400  1
  C  C11  1  0.23843500  0.82605500  0.45146300  1
  Ni  Ni12  1  0.24874600  0.08983800  0.25734700  1
  Ni  Ni13  1  0.24874600  0.58983800  0.24265300  1
  Ni  Ni14  1  0.24874600  0.41016200  0.75734700  1
  Ni  Ni15  1  0.75125400  0.08983800  0.25734700  1
  Ni  Ni16  1  0.75125400  0.91016200  0.74265300  1
  Ni  Ni17  1  0.75125400  0.41016200  0.75734700  1
  Ni  Ni18  1  0.75125400  0.58983800  0.24265300  1
  Ni  Ni19  1  0.24874600  0.91016200  0.74265300  1
  Ni  Ni20  1  0.24406500  0.00000000  0.00000000  1
  Ni  Ni21  1  0.75593500  0.50000000  0.50000000  1
  Ni  Ni22  1  0.75593500  0.00000000  0.00000000  1
  Ni  Ni23  1  0.24406500  0.50000000  0.50000000  1
  Cu  Cu24  1  0.50000000  0.03954400  0.37795900  1
  Cu  Cu25  1  0.00000000  0.46137100  0.88021000  1
  Cu  Cu26  1  0.00000000  0.53862900  0.11979000  1
  Cu  Cu27  1  0.00000000  0.96137100  0.61979000  1
  Cu  Cu28  1  0.00000000  0.03862900  0.38021000  1
  Cu  Cu29  1  0.00000000  0.37420600  0.60409800  1
  Cu  Cu30  1  0.00000000  0.62579400  0.39590200  1
  Cu  Cu31  1  0.00000000  0.87420600  0.89590200  1
  Cu  Cu32  1  0.50000000  0.37807000  0.59839600  1
  Cu  Cu33  1  0.50000000  0.62193000  0.40160400  1
  Cu  Cu34  1  0.50000000  0.87807000  0.90160400  1
  Cu  Cu35  1  0.50000000  0.12193000  0.09839600  1
  Cu  Cu36  1  0.50000000  0.46045600  0.87795900  1
  Cu  Cu37  1  0.50000000  0.53954400  0.12204100  1
  Cu  Cu38  1  0.50000000  0.96045600  0.62204100  1
  Cu  Cu39  1  0.00000000  0.12579400  0.10409800  1
  Cu  Cu40  1  0.34460200  0.33852000  0.31867500  1
  Cu  Cu41  1  0.65539800  0.83852000  0.18132500  1
  Cu  Cu42  1  0.34460200  0.83852000  0.18132500  1
  Cu  Cu43  1  0.65539800  0.16148000  0.81867500  1
  Cu  Cu44  1  0.65539800  0.66148000  0.68132500  1
  Cu  Cu45  1  0.65539800  0.33852000  0.31867500  1
  Cu  Cu46  1  0.34460200  0.16148000  0.81867500  1
  Cu  Cu47  1  0.34460200  0.66148000  0.68132500  1
