# generated using pymatgen
data_Cu2NiC7
_symmetry_space_group_name_H-M   'P 1'
_cell_length_a   10.81807734
_cell_length_b   10.81807734
_cell_length_c   6.54308300
_cell_angle_alpha   90.00000000
_cell_angle_beta   90.00000000
_cell_angle_gamma   159.67399374
_symmetry_Int_Tables_number   1
_chemical_formula_structural   Cu2NiC7
_chemical_formula_sum   'Cu4 Ni2 C14'
_cell_volume   265.98922776
_cell_formula_units_Z   2
loop_
 _symmetry_equiv_pos_site_id
 _symmetry_equiv_pos_as_xyz
  1  'x, y, z'
loop_
 _atom_site_type_symbol
 _atom_site_label
 _atom_site_symmetry_multiplicity
 _atom_site_fract_x
 _atom_site_fract_y
 _atom_site_fract_z
 _atom_site_occupancy
  Ni  Ni0  1  0.14363100  0.85636900  0.25000000  1
  Ni  Ni1  1  0.85636900  0.14363100  0.75000000  1
  Cu  Cu2  1  0.66440400  0.33559600  0.75000000  1
  Cu  Cu3  1  0.33559600  0.66440400  0.25000000  1
  Cu  Cu4  1  0.02394100  0.97605900  0.75000000  1
  Cu  Cu5  1  0.97605900  0.02394100  0.25000000  1
  C  C6  1  0.65287000  0.34713000  0.05577400  1
  C  C7  1  0.34713000  0.65287000  0.94422600  1
  C  C8  1  0.34713000  0.65287000  0.55577400  1
  C  C9  1  0.65287000  0.34713000  0.44422600  1
  C  C10  1  0.75100500  0.24899500  0.75000000  1
  C  C11  1  0.24899500  0.75100500  0.25000000  1
  C  C12  1  0.45060500  0.54939500  0.25000000  1
  C  C13  1  0.54939500  0.45060500  0.75000000  1
  C  C14  1  0.86335900  0.13664100  0.25000000  1
  C  C15  1  0.13664100  0.86335900  0.75000000  1
  C  C16  1  0.05190700  0.94809300  0.43444100  1
  C  C17  1  0.94809300  0.05190700  0.56555900  1
  C  C18  1  0.94809300  0.05190700  0.93444100  1
  C  C19  1  0.05190700  0.94809300  0.06555900  1
