# generated using pymatgen
data_Cu2NiC8
_symmetry_space_group_name_H-M   'P 1'
_cell_length_a   7.74689148
_cell_length_b   7.71295789
_cell_length_c   7.80803799
_cell_angle_alpha   38.39591161
_cell_angle_beta   38.10200498
_cell_angle_gamma   38.05220704
_symmetry_Int_Tables_number   1
_chemical_formula_structural   Cu2NiC8
_chemical_formula_sum   'Cu2 Ni1 C8'
_cell_volume   160.08500478
_cell_formula_units_Z   1
loop_
 _symmetry_equiv_pos_site_id
 _symmetry_equiv_pos_as_xyz
  1  'x, y, z'
loop_
 _atom_site_type_symbol
 _atom_site_label
 _atom_site_symmetry_multiplicity
 _atom_site_fract_x
 _atom_site_fract_y
 _atom_site_fract_z
 _atom_site_occupancy
  Ni  Ni0  1  0.27852100  0.28586900  0.28340600  1
  Cu  Cu1  1  0.17194000  0.15178400  0.14247800  1
  Cu  Cu2  1  0.82472600  0.83223800  0.84491100  1
  C  C3  1  0.40385600  0.40980600  0.40495000  1
  C  C4  1  0.59542500  0.59522600  0.59580700  1
  C  C5  1  0.11773600  0.77311600  0.45335700  1
  C  C6  1  0.45095500  0.11978800  0.76264500  1
  C  C7  1  0.76808800  0.45404900  0.11713100  1
  C  C8  1  0.22319400  0.53448000  0.91185500  1
  C  C9  1  0.53938600  0.90766900  0.22362300  1
  C  C10  1  0.90395200  0.22301100  0.53761400  1
