# generated using pymatgen
data_Cu7Ni17C13
_symmetry_space_group_name_H-M   'P 1'
_cell_length_a   4.76893968
_cell_length_b   5.65177608
_cell_length_c   15.14659844
_cell_angle_alpha   88.80862443
_cell_angle_beta   90.70143338
_cell_angle_gamma   90.28550595
_symmetry_Int_Tables_number   1
_chemical_formula_structural   Cu7Ni17C13
_chemical_formula_sum   'Cu7 Ni17 C13'
_cell_volume   408.12254941
_cell_formula_units_Z   1
loop_
 _symmetry_equiv_pos_site_id
 _symmetry_equiv_pos_as_xyz
  1  'x, y, z'
loop_
 _atom_site_type_symbol
 _atom_site_label
 _atom_site_symmetry_multiplicity
 _atom_site_fract_x
 _atom_site_fract_y
 _atom_site_fract_z
 _atom_site_occupancy
  C  C0  1  0.99104700  0.57208300  0.42622600  1
  C  C1  1  0.03988800  0.10570200  0.40751100  1
  C  C2  1  0.04802300  0.80953100  0.23602100  1
  C  C3  1  0.02162800  0.16266100  0.07729800  1
  C  C4  1  0.00408400  0.19128700  0.74911900  1
  C  C5  1  0.01443700  0.85202600  0.59326300  1
  C  C6  1  0.99069400  0.84739700  0.91011900  1
  C  C7  1  0.48673000  0.35688100  0.92029900  1
  C  C8  1  0.48280000  0.36629500  0.59526500  1
  C  C9  1  0.50649800  0.33479900  0.25423200  1
  C  C10  1  0.50971200  0.62943800  0.09160600  1
  C  C11  1  0.49042400  0.60806600  0.42269500  1
  C  C12  1  0.47008200  0.66216200  0.75854700  1
  Ni  Ni13  1  0.23786700  0.07334600  0.30024300  1
  Ni  Ni14  1  0.20147700  0.14243700  0.64278700  1
  Ni  Ni15  1  0.20134600  0.12023900  0.96685300  1
  Ni  Ni16  1  0.24916000  0.88625100  0.13076600  1
  Ni  Ni17  1  0.22973200  0.83990100  0.46933700  1
  Ni  Ni18  1  0.21028600  0.90537000  0.80469800  1
  Ni  Ni19  1  0.28215100  0.36173900  0.47862300  1
  Ni  Ni20  1  0.28882100  0.39410300  0.14850300  1
  Ni  Ni21  1  0.26105000  0.57841400  0.32075000  1
  Ni  Ni22  1  0.25824000  0.63446400  0.64932600  1
  Ni  Ni23  1  0.25803200  0.42018600  0.81537000  1
  Ni  Ni24  1  0.71530900  0.38275700  0.02897800  1
  Ni  Ni25  1  0.73448100  0.60641900  0.19482200  1
  Ni  Ni26  1  0.73810500  0.34910500  0.36463400  1
  Ni  Ni27  1  0.72878100  0.59968300  0.52677500  1
  Ni  Ni28  1  0.69818400  0.63475700  0.86400700  1
  Ni  Ni29  1  0.70461500  0.41335400  0.69912900  1
  Cu  Cu30  1  0.25139300  0.61833300  0.98832100  1
  Cu  Cu31  1  0.78877100  0.10981300  0.18798400  1
  Cu  Cu32  1  0.79627500  0.09031100  0.51846600  1
  Cu  Cu33  1  0.76441600  0.82597100  0.36035900  1
  Cu  Cu34  1  0.75152500  0.86780400  0.02416300  1
  Cu  Cu35  1  0.75721200  0.13829100  0.85175300  1
  Cu  Cu36  1  0.72561600  0.90148200  0.69615300  1
