# generated using pymatgen
data_Cu3(Ni9C8)2
_symmetry_space_group_name_H-M   'P 1'
_cell_length_a   14.07811746
_cell_length_b   14.07811746
_cell_length_c   14.07811746
_cell_angle_alpha   90.00000000
_cell_angle_beta   90.00000000
_cell_angle_gamma   90.00000000
_symmetry_Int_Tables_number   1
_chemical_formula_structural   Cu3(Ni9C8)2
_chemical_formula_sum   'Cu24 Ni144 C128'
_cell_volume   2790.18984136
_cell_formula_units_Z   8
loop_
 _symmetry_equiv_pos_site_id
 _symmetry_equiv_pos_as_xyz
  1  'x, y, z'
loop_
 _atom_site_type_symbol
 _atom_site_label
 _atom_site_symmetry_multiplicity
 _atom_site_fract_x
 _atom_site_fract_y
 _atom_site_fract_z
 _atom_site_occupancy
  Ni  Ni0  1  0.90054115  0.81402239  0.53124853  1
  Ni  Ni1  1  0.53124853  0.90054115  0.81402239  1
  Ni  Ni2  1  0.81402239  0.53124853  0.90054115  1
  Ni  Ni3  1  0.68597761  0.46875147  0.40054115  1
  Ni  Ni4  1  0.03124853  0.59945885  0.18597761  1
  Ni  Ni5  1  0.18597761  0.03124853  0.59945885  1
  Ni  Ni6  1  0.96875147  0.09945885  0.31402239  1
  Ni  Ni7  1  0.46875147  0.40054115  0.68597761  1
  Ni  Ni8  1  0.31402239  0.96875147  0.09945885  1
  Ni  Ni9  1  0.40054115  0.68597761  0.46875147  1
  Ni  Ni10  1  0.09945885  0.31402239  0.96875147  1
  Ni  Ni11  1  0.59945885  0.18597761  0.03124853  1
  Ni  Ni12  1  0.09945885  0.18597761  0.46875147  1
  Ni  Ni13  1  0.46875147  0.09945885  0.18597761  1
  Ni  Ni14  1  0.18597761  0.46875147  0.09945885  1
  Ni  Ni15  1  0.31402239  0.53124853  0.59945885  1
  Ni  Ni16  1  0.96875147  0.40054115  0.81402239  1
  Ni  Ni17  1  0.81402239  0.96875147  0.40054115  1
  Ni  Ni18  1  0.03124853  0.90054115  0.68597761  1
  Ni  Ni19  1  0.53124853  0.59945885  0.31402239  1
  Ni  Ni20  1  0.68597761  0.03124853  0.90054115  1
  Ni  Ni21  1  0.59945885  0.31402239  0.53124853  1
  Ni  Ni22  1  0.90054115  0.68597761  0.03124853  1
  Ni  Ni23  1  0.40054115  0.81402239  0.96875147  1
  Ni  Ni24  1  0.90113988  0.69093939  0.51509886  1
  Ni  Ni25  1  0.51509886  0.90113988  0.69093939  1
  Ni  Ni26  1  0.69093939  0.51509886  0.90113988  1
  Ni  Ni27  1  0.80906061  0.48490114  0.40113988  1
  Ni  Ni28  1  0.01509886  0.59886012  0.30906061  1
  Ni  Ni29  1  0.30906061  0.01509886  0.59886012  1
  Ni  Ni30  1  0.98490114  0.09886012  0.19093939  1
  Ni  Ni31  1  0.48490114  0.40113988  0.80906061  1
  Ni  Ni32  1  0.19093939  0.98490114  0.09886012  1
  Ni  Ni33  1  0.40113988  0.80906061  0.48490114  1
  Ni  Ni34  1  0.09886012  0.19093939  0.98490114  1
  Ni  Ni35  1  0.59886012  0.30906061  0.01509886  1
  Ni  Ni36  1  0.09886012  0.30906061  0.48490114  1
  Ni  Ni37  1  0.48490114  0.09886012  0.30906061  1
  Ni  Ni38  1  0.30906061  0.48490114  0.09886012  1
  Ni  Ni39  1  0.19093939  0.51509886  0.59886012  1
  Ni  Ni40  1  0.98490114  0.40113988  0.69093939  1
  Ni  Ni41  1  0.69093939  0.98490114  0.40113988  1
  Ni  Ni42  1  0.01509886  0.90113988  0.80906061  1
  Ni  Ni43  1  0.51509886  0.59886012  0.19093939  1
  Ni  Ni44  1  0.80906061  0.01509886  0.90113988  1
  Ni  Ni45  1  0.59886012  0.19093939  0.51509886  1
  Ni  Ni46  1  0.90113988  0.80906061  0.01509886  1
  Ni  Ni47  1  0.40113988  0.69093939  0.98490114  1
  Ni  Ni48  1  0.64932745  0.83738561  0.53919302  1
  Ni  Ni49  1  0.53919302  0.64932745  0.83738561  1
  Ni  Ni50  1  0.83738561  0.53919302  0.64932745  1
  Ni  Ni51  1  0.66261439  0.46080698  0.14932745  1
  Ni  Ni52  1  0.03919302  0.85067255  0.16261439  1
  Ni  Ni53  1  0.16261439  0.03919302  0.85067255  1
  Ni  Ni54  1  0.96080698  0.35067255  0.33738561  1
  Ni  Ni55  1  0.46080698  0.14932745  0.66261439  1
  Ni  Ni56  1  0.33738561  0.96080698  0.35067255  1
  Ni  Ni57  1  0.14932745  0.66261439  0.46080698  1
  Ni  Ni58  1  0.35067255  0.33738561  0.96080698  1
  Ni  Ni59  1  0.85067255  0.16261439  0.03919302  1
  Ni  Ni60  1  0.35067255  0.16261439  0.46080698  1
  Ni  Ni61  1  0.46080698  0.35067255  0.16261439  1
  Ni  Ni62  1  0.16261439  0.46080698  0.35067255  1
  Ni  Ni63  1  0.33738561  0.53919302  0.85067255  1
  Ni  Ni64  1  0.96080698  0.14932745  0.83738561  1
  Ni  Ni65  1  0.83738561  0.96080698  0.14932745  1
  Ni  Ni66  1  0.03919302  0.64932745  0.66261439  1
  Ni  Ni67  1  0.53919302  0.85067255  0.33738561  1
  Ni  Ni68  1  0.66261439  0.03919302  0.64932745  1
  Ni  Ni69  1  0.85067255  0.33738561  0.53919302  1
  Ni  Ni70  1  0.64932745  0.66261439  0.03919302  1
  Ni  Ni71  1  0.14932745  0.83738561  0.96080698  1
  Ni  Ni72  1  0.76030413  0.89236675  0.54626473  1
  Ni  Ni73  1  0.54626473  0.76030413  0.89236675  1
  Ni  Ni74  1  0.89236675  0.54626473  0.76030413  1
  Ni  Ni75  1  0.60763325  0.45373527  0.26030413  1
  Ni  Ni76  1  0.04626473  0.73969587  0.10763325  1
  Ni  Ni77  1  0.10763325  0.04626473  0.73969587  1
  Ni  Ni78  1  0.95373527  0.23969587  0.39236675  1
  Ni  Ni79  1  0.45373527  0.26030413  0.60763325  1
  Ni  Ni80  1  0.39236675  0.95373527  0.23969587  1
  Ni  Ni81  1  0.26030413  0.60763325  0.45373527  1
  Ni  Ni82  1  0.23969587  0.39236675  0.95373527  1
  Ni  Ni83  1  0.73969587  0.10763325  0.04626473  1
  Ni  Ni84  1  0.23969587  0.10763325  0.45373527  1
  Ni  Ni85  1  0.45373527  0.23969587  0.10763325  1
  Ni  Ni86  1  0.10763325  0.45373527  0.23969587  1
  Ni  Ni87  1  0.39236675  0.54626473  0.73969587  1
  Ni  Ni88  1  0.95373527  0.26030413  0.89236675  1
  Ni  Ni89  1  0.89236675  0.95373527  0.26030413  1
  Ni  Ni90  1  0.04626473  0.76030413  0.60763325  1
  Ni  Ni91  1  0.54626473  0.73969587  0.39236675  1
  Ni  Ni92  1  0.60763325  0.04626473  0.76030413  1
  Ni  Ni93  1  0.73969587  0.39236675  0.54626473  1
  Ni  Ni94  1  0.76030413  0.60763325  0.04626473  1
  Ni  Ni95  1  0.26030413  0.89236675  0.95373527  1
  Ni  Ni96  1  0.65128257  0.66114695  0.51234072  1
  Ni  Ni97  1  0.51234072  0.65128257  0.66114695  1
  Ni  Ni98  1  0.66114695  0.51234072  0.65128257  1
  Ni  Ni99  1  0.83885305  0.48765928  0.15128257  1
  Ni  Ni100  1  0.01234072  0.84871743  0.33885305  1
  Ni  Ni101  1  0.33885305  0.01234072  0.84871743  1
  Ni  Ni102  1  0.98765928  0.34871743  0.16114695  1
  Ni  Ni103  1  0.48765928  0.15128257  0.83885305  1
  Ni  Ni104  1  0.16114695  0.98765928  0.34871743  1
  Ni  Ni105  1  0.15128257  0.83885305  0.48765928  1
  Ni  Ni106  1  0.34871743  0.16114695  0.98765928  1
  Ni  Ni107  1  0.84871743  0.33885305  0.01234072  1
  Ni  Ni108  1  0.34871743  0.33885305  0.48765928  1
  Ni  Ni109  1  0.48765928  0.34871743  0.33885305  1
  Ni  Ni110  1  0.33885305  0.48765928  0.34871743  1
  Ni  Ni111  1  0.16114695  0.51234072  0.84871743  1
  Ni  Ni112  1  0.98765928  0.15128257  0.66114695  1
  Ni  Ni113  1  0.66114695  0.98765928  0.15128257  1
  Ni  Ni114  1  0.01234072  0.65128257  0.83885305  1
  Ni  Ni115  1  0.51234072  0.84871743  0.16114695  1
  Ni  Ni116  1  0.83885305  0.01234072  0.65128257  1
  Ni  Ni117  1  0.84871743  0.16114695  0.51234072  1
  Ni  Ni118  1  0.65128257  0.83885305  0.01234072  1
  Ni  Ni119  1  0.15128257  0.66114695  0.98765928  1
  Ni  Ni120  1  0.76407268  0.60889404  0.50620258  1
  Ni  Ni121  1  0.50620258  0.76407268  0.60889404  1
  Ni  Ni122  1  0.60889404  0.50620258  0.76407268  1
  Ni  Ni123  1  0.89110596  0.49379742  0.26407268  1
  Ni  Ni124  1  0.00620258  0.73592732  0.39110596  1
  Ni  Ni125  1  0.39110596  0.00620258  0.73592732  1
  Ni  Ni126  1  0.99379742  0.23592732  0.10889404  1
  Ni  Ni127  1  0.49379742  0.26407268  0.89110596  1
  Ni  Ni128  1  0.10889404  0.99379742  0.23592732  1
  Ni  Ni129  1  0.26407268  0.89110596  0.49379742  1
  Ni  Ni130  1  0.23592732  0.10889404  0.99379742  1
  Ni  Ni131  1  0.73592732  0.39110596  0.00620258  1
  Ni  Ni132  1  0.23592732  0.39110596  0.49379742  1
  Ni  Ni133  1  0.49379742  0.23592732  0.39110596  1
  Ni  Ni134  1  0.39110596  0.49379742  0.23592732  1
  Ni  Ni135  1  0.10889404  0.50620258  0.73592732  1
  Ni  Ni136  1  0.99379742  0.26407268  0.60889404  1
  Ni  Ni137  1  0.60889404  0.99379742  0.26407268  1
  Ni  Ni138  1  0.00620258  0.76407268  0.89110596  1
  Ni  Ni139  1  0.50620258  0.73592732  0.10889404  1
  Ni  Ni140  1  0.89110596  0.00620258  0.76407268  1
  Ni  Ni141  1  0.73592732  0.10889404  0.50620258  1
  Ni  Ni142  1  0.76407268  0.89110596  0.00620258  1
  Ni  Ni143  1  0.26407268  0.60889404  0.99379742  1
  Cu  Cu144  1  0.76856872  0.75043396  0.52934406  1
  Cu  Cu145  1  0.52934406  0.76856872  0.75043396  1
  Cu  Cu146  1  0.75043396  0.52934406  0.76856872  1
  Cu  Cu147  1  0.74956604  0.47065594  0.26856872  1
  Cu  Cu148  1  0.02934406  0.73143128  0.24956604  1
  Cu  Cu149  1  0.24956604  0.02934406  0.73143128  1
  Cu  Cu150  1  0.97065594  0.23143128  0.25043396  1
  Cu  Cu151  1  0.47065594  0.26856872  0.74956604  1
  Cu  Cu152  1  0.25043396  0.97065594  0.23143128  1
  Cu  Cu153  1  0.26856872  0.74956604  0.47065594  1
  Cu  Cu154  1  0.23143128  0.25043396  0.97065594  1
  Cu  Cu155  1  0.73143128  0.24956604  0.02934406  1
  Cu  Cu156  1  0.23143128  0.24956604  0.47065594  1
  Cu  Cu157  1  0.47065594  0.23143128  0.24956604  1
  Cu  Cu158  1  0.24956604  0.47065594  0.23143128  1
  Cu  Cu159  1  0.25043396  0.52934406  0.73143128  1
  Cu  Cu160  1  0.97065594  0.26856872  0.75043396  1
  Cu  Cu161  1  0.75043396  0.97065594  0.26856872  1
  Cu  Cu162  1  0.02934406  0.76856872  0.74956604  1
  Cu  Cu163  1  0.52934406  0.73143128  0.25043396  1
  Cu  Cu164  1  0.74956604  0.02934406  0.76856872  1
  Cu  Cu165  1  0.73143128  0.25043396  0.52934406  1
  Cu  Cu166  1  0.76856872  0.74956604  0.02934406  1
  Cu  Cu167  1  0.26856872  0.75043396  0.97065594  1
  C  C168  1  0.86359847  0.75187604  0.52630195  1
  C  C169  1  0.52630195  0.86359847  0.75187604  1
  C  C170  1  0.75187604  0.52630195  0.86359847  1
  C  C171  1  0.74812396  0.47369805  0.36359847  1
  C  C172  1  0.02630195  0.63640153  0.24812396  1
  C  C173  1  0.24812396  0.02630195  0.63640153  1
  C  C174  1  0.97369805  0.13640153  0.25187604  1
  C  C175  1  0.47369805  0.36359847  0.74812396  1
  C  C176  1  0.25187604  0.97369805  0.13640153  1
  C  C177  1  0.36359847  0.74812396  0.47369805  1
  C  C178  1  0.13640153  0.25187604  0.97369805  1
  C  C179  1  0.63640153  0.24812396  0.02630195  1
  C  C180  1  0.13640153  0.24812396  0.47369805  1
  C  C181  1  0.47369805  0.13640153  0.24812396  1
  C  C182  1  0.24812396  0.47369805  0.13640153  1
  C  C183  1  0.25187604  0.52630195  0.63640153  1
  C  C184  1  0.97369805  0.36359847  0.75187604  1
  C  C185  1  0.75187604  0.97369805  0.36359847  1
  C  C186  1  0.02630195  0.86359847  0.74812396  1
  C  C187  1  0.52630195  0.63640153  0.25187604  1
  C  C188  1  0.74812396  0.02630195  0.86359847  1
  C  C189  1  0.63640153  0.25187604  0.52630195  1
  C  C190  1  0.86359847  0.74812396  0.02630195  1
  C  C191  1  0.36359847  0.75187604  0.97369805  1
  C  C192  1  0.72148904  0.83136266  0.54597369  1
  C  C193  1  0.54597369  0.72148904  0.83136266  1
  C  C194  1  0.83136266  0.54597369  0.72148904  1
  C  C195  1  0.66863734  0.45402631  0.22148904  1
  C  C196  1  0.04597369  0.77851096  0.16863734  1
  C  C197  1  0.16863734  0.04597369  0.77851096  1
  C  C198  1  0.95402631  0.27851096  0.33136266  1
  C  C199  1  0.45402631  0.22148904  0.66863734  1
  C  C200  1  0.33136266  0.95402631  0.27851096  1
  C  C201  1  0.22148904  0.66863734  0.45402631  1
  C  C202  1  0.27851096  0.33136266  0.95402631  1
  C  C203  1  0.77851096  0.16863734  0.04597369  1
  C  C204  1  0.27851096  0.16863734  0.45402631  1
  C  C205  1  0.45402631  0.27851096  0.16863734  1
  C  C206  1  0.16863734  0.45402631  0.27851096  1
  C  C207  1  0.33136266  0.54597369  0.77851096  1
  C  C208  1  0.95402631  0.22148904  0.83136266  1
  C  C209  1  0.83136266  0.95402631  0.22148904  1
  C  C210  1  0.04597369  0.72148904  0.66863734  1
  C  C211  1  0.54597369  0.77851096  0.33136266  1
  C  C212  1  0.66863734  0.04597369  0.72148904  1
  C  C213  1  0.77851096  0.33136266  0.54597369  1
  C  C214  1  0.72148904  0.66863734  0.04597369  1
  C  C215  1  0.22148904  0.83136266  0.95402631  1
  C  C216  1  0.72348894  0.66772207  0.51755964  1
  C  C217  1  0.51755964  0.72348894  0.66772207  1
  C  C218  1  0.66772207  0.51755964  0.72348894  1
  C  C219  1  0.83227793  0.48244036  0.22348894  1
  C  C220  1  0.01755964  0.77651106  0.33227793  1
  C  C221  1  0.33227793  0.01755964  0.77651106  1
  C  C222  1  0.98244036  0.27651106  0.16772207  1
  C  C223  1  0.48244036  0.22348894  0.83227793  1
  C  C224  1  0.16772207  0.98244036  0.27651106  1
  C  C225  1  0.22348894  0.83227793  0.48244036  1
  C  C226  1  0.27651106  0.16772207  0.98244036  1
  C  C227  1  0.77651106  0.33227793  0.01755964  1
  C  C228  1  0.27651106  0.33227793  0.48244036  1
  C  C229  1  0.48244036  0.27651106  0.33227793  1
  C  C230  1  0.33227793  0.48244036  0.27651106  1
  C  C231  1  0.16772207  0.51755964  0.77651106  1
  C  C232  1  0.98244036  0.22348894  0.66772207  1
  C  C233  1  0.66772207  0.98244036  0.22348894  1
  C  C234  1  0.01755964  0.72348894  0.83227793  1
  C  C235  1  0.51755964  0.77651106  0.16772207  1
  C  C236  1  0.83227793  0.01755964  0.72348894  1
  C  C237  1  0.77651106  0.16772207  0.51755964  1
  C  C238  1  0.72348894  0.83227793  0.01755964  1
  C  C239  1  0.22348894  0.66772207  0.98244036  1
  C  C240  1  0.02966718  0.62555643  0.02480065  1
  C  C241  1  0.02480065  0.02966718  0.62555643  1
  C  C242  1  0.62555643  0.02480065  0.02966718  1
  C  C243  1  0.87444357  0.97519935  0.52966718  1
  C  C244  1  0.52480065  0.47033282  0.37444357  1
  C  C245  1  0.37444357  0.52480065  0.47033282  1
  C  C246  1  0.47519935  0.97033282  0.12555643  1
  C  C247  1  0.97519935  0.52966718  0.87444357  1
  C  C248  1  0.12555643  0.47519935  0.97033282  1
  C  C249  1  0.52966718  0.87444357  0.97519935  1
  C  C250  1  0.97033282  0.12555643  0.47519935  1
  C  C251  1  0.47033282  0.37444357  0.52480065  1
  C  C252  1  0.97033282  0.37444357  0.97519935  1
  C  C253  1  0.97519935  0.97033282  0.37444357  1
  C  C254  1  0.37444357  0.97519935  0.97033282  1
  C  C255  1  0.12555643  0.02480065  0.47033282  1
  C  C256  1  0.47519935  0.52966718  0.62555643  1
  C  C257  1  0.62555643  0.47519935  0.52966718  1
  C  C258  1  0.52480065  0.02966718  0.87444357  1
  C  C259  1  0.02480065  0.47033282  0.12555643  1
  C  C260  1  0.87444357  0.52480065  0.02966718  1
  C  C261  1  0.47033282  0.12555643  0.02480065  1
  C  C262  1  0.02966718  0.87444357  0.52480065  1
  C  C263  1  0.52966718  0.62555643  0.47519935  1
  C  C264  1  0.02197935  0.62649586  0.47235802  1
  C  C265  1  0.47235802  0.02197935  0.62649586  1
  C  C266  1  0.62649586  0.47235802  0.02197935  1
  C  C267  1  0.87350414  0.52764198  0.52197935  1
  C  C268  1  0.97235802  0.47802065  0.37350414  1
  C  C269  1  0.37350414  0.97235802  0.47802065  1
  C  C270  1  0.02764198  0.97802065  0.12649586  1
  C  C271  1  0.52764198  0.52197935  0.87350414  1
  C  C272  1  0.12649586  0.02764198  0.97802065  1
  C  C273  1  0.52197935  0.87350414  0.52764198  1
  C  C274  1  0.97802065  0.12649586  0.02764198  1
  C  C275  1  0.47802065  0.37350414  0.97235802  1
  C  C276  1  0.97802065  0.37350414  0.52764198  1
  C  C277  1  0.52764198  0.97802065  0.37350414  1
  C  C278  1  0.37350414  0.52764198  0.97802065  1
  C  C279  1  0.12649586  0.47235802  0.47802065  1
  C  C280  1  0.02764198  0.52197935  0.62649586  1
  C  C281  1  0.62649586  0.02764198  0.52197935  1
  C  C282  1  0.97235802  0.02197935  0.87350414  1
  C  C283  1  0.47235802  0.47802065  0.12649586  1
  C  C284  1  0.87350414  0.97235802  0.02197935  1
  C  C285  1  0.47802065  0.12649586  0.47235802  1
  C  C286  1  0.02197935  0.87350414  0.97235802  1
  C  C287  1  0.52197935  0.62649586  0.02764198  1
  C  C288  1  0.00000000  0.50000000  0.00000000  1
  C  C289  1  0.00000000  0.00000000  0.50000000  1
  C  C290  1  0.50000000  0.00000000  0.00000000  1
  C  C291  1  0.50000000  0.50000000  0.50000000  1
  C  C292  1  0.00000000  0.50000000  0.50000000  1
  C  C293  1  0.50000000  0.00000000  0.50000000  1
  C  C294  1  0.50000000  0.50000000  0.00000000  1
  C  C295  1  0.00000000  0.00000000  0.00000000  1
