# generated using pymatgen
data_CuNi5C34
_symmetry_space_group_name_H-M   'P 1'
_cell_length_a   9.14527293
_cell_length_b   9.14836422
_cell_length_c   22.74541761
_cell_angle_alpha   89.89693456
_cell_angle_beta   89.72795523
_cell_angle_gamma   119.98743079
_symmetry_Int_Tables_number   1
_chemical_formula_structural   CuNi5C34
_chemical_formula_sum   'Cu3 Ni15 C102'
_cell_volume   1648.19928963
_cell_formula_units_Z   3
loop_
 _symmetry_equiv_pos_site_id
 _symmetry_equiv_pos_as_xyz
  1  'x, y, z'
loop_
 _atom_site_type_symbol
 _atom_site_label
 _atom_site_symmetry_multiplicity
 _atom_site_fract_x
 _atom_site_fract_y
 _atom_site_fract_z
 _atom_site_occupancy
  C  C0  1  0.64097138  0.00386486  0.25306298  1
  C  C1  1  0.36139991  0.36457854  0.24685474  1
  C  C2  1  0.99806038  0.63357300  0.25123615  1
  C  C3  1  0.63676061  0.63535241  0.74650329  1
  C  C4  1  0.99728131  0.36535379  0.74983511  1
  C  C5  1  0.36723322  0.00286835  0.75039648  1
  C  C6  1  0.30008650  0.33226734  0.58614479  1
  C  C7  1  0.03234882  0.70256306  0.58336263  1
  C  C8  1  0.67114327  0.96856536  0.58284671  1
  C  C9  1  0.03888039  0.33681200  0.08759948  1
  C  C10  1  0.97803498  0.66536447  0.91667821  1
  C  C11  1  0.33191696  0.02509623  0.41732341  1
  C  C12  1  0.97861065  0.98770567  0.49804770  1
  C  C13  1  0.02689613  0.01045954  0.99986291  1
  C  C14  1  0.65950117  0.31075752  0.83328699  1
  C  C15  1  0.68935879  0.34127934  0.33759960  1
  C  C16  1  0.33641615  0.66390195  0.16549456  1
  C  C17  1  0.33391852  0.66812212  0.66651568  1
  C  C18  1  0.01094159  0.01325674  0.85136990  1
  C  C19  1  0.00786252  0.99275943  0.14743374  1
  C  C20  1  0.66480903  0.34050200  0.18635157  1
  C  C21  1  0.65589685  0.32769284  0.97905986  1
  C  C22  1  0.31880028  0.65934447  0.01927325  1
  C  C23  1  0.32878937  0.67108646  0.31617856  1
  Ni  Ni24  1  0.29192559  0.00204141  0.25469802  1
  Ni  Ni25  1  0.70754173  0.70951124  0.25027838  1
  Ni  Ni26  1  0.99928579  0.28683189  0.24996287  1
  Ni  Ni27  1  0.29848023  0.29825400  0.74716969  1
  Ni  Ni28  1  0.99729114  0.70634104  0.74952813  1
  Ni  Ni29  1  0.70672948  0.99900648  0.74857383  1
  Ni  Ni30  1  0.96318064  0.33268619  0.58424974  1
  Ni  Ni31  1  0.37632061  0.04575507  0.58295747  1
  Ni  Ni32  1  0.66573747  0.62380285  0.58279206  1
  Ni  Ni33  1  0.95671171  0.62902630  0.08105312  1
  Ni  Ni34  1  0.36912577  0.33519862  0.08421509  1
  Ni  Ni35  1  0.03552523  0.36880804  0.91578291  1
  Ni  Ni36  1  0.33430537  0.96057454  0.91362032  1
  Ni  Ni37  1  0.63367589  0.96678525  0.41843701  1
  Ni  Ni38  1  0.03159827  0.66706967  0.41849215  1
  C  C39  1  0.98518107  0.98666580  0.35241663  1
  C  C40  1  0.00013348  0.00083440  0.64832929  1
  C  C41  1  0.67033772  0.33613786  0.68400317  1
  C  C42  1  0.68052934  0.33392531  0.48309559  1
  C  C43  1  0.33662581  0.67748820  0.51903541  1
  C  C44  1  0.32668390  0.66974584  0.81304932  1
  Cu  Cu45  1  0.66565990  0.03943008  0.08345908  1
  Cu  Cu46  1  0.62448686  0.66723224  0.91544903  1
  Cu  Cu47  1  0.33329567  0.37187057  0.41801976  1
  C  C48  1  0.21458867  0.04486419  0.31311067  1
  C  C49  1  0.83255741  0.77869512  0.30711115  1
  C  C50  1  0.95892639  0.16029413  0.30615587  1
  C  C51  1  0.20922540  0.17026457  0.80255936  1
  C  C52  1  0.96336069  0.78964521  0.80734729  1
  C  C53  1  0.83472513  0.03502535  0.80271030  1
  C  C54  1  0.78010628  0.95760125  0.68830968  1
  C  C55  1  0.17853128  0.22405418  0.68872281  1
  C  C56  1  0.03739730  0.82618489  0.69066739  1
  C  C57  1  0.79072686  0.83622756  0.19436466  1
  C  C58  1  0.03310499  0.20902118  0.19019219  1
  C  C59  1  0.16624708  0.96267848  0.19881081  1
  C  C60  1  0.89166410  0.38103109  0.64342454  1
  C  C61  1  0.49644188  0.12482143  0.64092633  1
  C  C62  1  0.62307266  0.50940905  0.64318280  1
  C  C63  1  0.87107332  0.50912894  0.13985518  1
  C  C64  1  0.64144561  0.11393896  0.13840894  1
  C  C65  1  0.47387676  0.34793032  0.14437576  1
  C  C66  1  0.46812070  0.31064611  0.02871183  1
  C  C67  1  0.84829401  0.53039694  0.02310431  1
  C  C68  1  0.68790257  0.14902433  0.03240863  1
  C  C69  1  0.45651293  0.16572300  0.52441273  1
  C  C70  1  0.70812127  0.53615285  0.52814557  1
  C  C71  1  0.83390172  0.28083924  0.52920470  1
  C  C72  1  0.53742751  0.68277937  0.96697205  1
  C  C73  1  0.15145482  0.46042530  0.97405638  1
  C  C74  1  0.31368360  0.83724107  0.96898919  1
  C  C75  1  0.54892480  0.85252282  0.47827449  1
  C  C76  1  0.31315684  0.45235264  0.47189270  1
  C  C77  1  0.15215948  0.69920921  0.47682629  1
  C  C78  1  0.12249542  0.64292303  0.35979296  1
  C  C79  1  0.51379834  0.87289215  0.36106844  1
  C  C80  1  0.34980009  0.47275176  0.36509241  1
  C  C81  1  0.12328496  0.48932874  0.85675181  1
  C  C82  1  0.36627529  0.88352329  0.85225385  1
  C  C83  1  0.52746450  0.64442143  0.86010080  1
  C  C84  1  0.03629432  0.85064636  0.41419591  1
  C  C85  1  0.82309998  0.99103870  0.41430091  1
  C  C86  1  0.18164523  0.20036921  0.41498723  1
  C  C87  1  0.01423784  0.18176034  0.91303532  1
  C  C88  1  0.15275329  0.95706856  0.91217625  1
  C  C89  1  0.79462022  0.81640415  0.91228781  1
  C  C90  1  0.98267608  0.16443361  0.58976170  1
  C  C91  1  0.18758696  0.02558370  0.58843284  1
  C  C92  1  0.83475432  0.81298584  0.58757504  1
  C  C93  1  0.97331529  0.81410838  0.08456571  1
  C  C94  1  0.82435220  0.03337391  0.08659680  1
  C  C95  1  0.17457591  0.17525245  0.08521723  1
  C  C96  1  0.68644197  0.16784266  0.74430495  1
  C  C97  1  0.48397284  0.31241144  0.74347555  1
  C  C98  1  0.82753652  0.51853552  0.74469699  1
  C  C99  1  0.68617738  0.52053318  0.24375076  1
  C  C100  1  0.83139193  0.30805787  0.24496826  1
  C  C101  1  0.48097392  0.16390659  0.24643755  1
  C  C102  1  0.64477153  0.51506439  0.91956250  1
  C  C103  1  0.85556770  0.36709445  0.92015337  1
  C  C104  1  0.49772449  0.14914486  0.91942905  1
  C  C105  1  0.62720767  0.14520718  0.42157921  1
  C  C106  1  0.48639726  0.35471727  0.42022973  1
  C  C107  1  0.84419744  0.49908493  0.42137421  1
  C  C108  1  0.35580369  0.50733054  0.08050330  1
  C  C109  1  0.14424742  0.64222726  0.07939508  1
  C  C110  1  0.51861887  0.87038409  0.07745990  1
  C  C111  1  0.35626822  0.85581617  0.57921245  1
  C  C112  1  0.49359722  0.63901460  0.57558987  1
  C  C113  1  0.15199271  0.50066983  0.57514669  1
  C  C114  1  0.31033531  0.83237164  0.25745033  1
  C  C115  1  0.51769115  0.68285310  0.25771950  1
  C  C116  1  0.16816188  0.47422907  0.25744386  1
  C  C117  1  0.32083520  0.48711361  0.75643184  1
  C  C118  1  0.16728352  0.68626192  0.75219481  1
  C  C119  1  0.52008841  0.82694907  0.75574218  1
