# generated using pymatgen
data_Cu3Ni3C5
_symmetry_space_group_name_H-M   'P 1'
_cell_length_a   6.22591598
_cell_length_b   6.22591606
_cell_length_c   6.22591635
_cell_angle_alpha   53.95148037
_cell_angle_beta   53.95148156
_cell_angle_gamma   53.95147768
_symmetry_Int_Tables_number   1
_chemical_formula_structural   Cu3Ni3C5
_chemical_formula_sum   'Cu3 Ni3 C5'
_cell_volume   146.53264984
_cell_formula_units_Z   1
loop_
 _symmetry_equiv_pos_site_id
 _symmetry_equiv_pos_as_xyz
  1  'x, y, z'
loop_
 _atom_site_type_symbol
 _atom_site_label
 _atom_site_symmetry_multiplicity
 _atom_site_fract_x
 _atom_site_fract_y
 _atom_site_fract_z
 _atom_site_occupancy
  C  C0  1  0.76158219  0.76158219  0.76158019  1
  C  C1  1  0.49178861  0.49178861  0.49178861  1
  C  C2  1  0.32191632  0.32191632  0.32191732  1
  C  C3  1  0.14698534  0.14698534  0.14698534  1
  C  C4  1  0.98290114  0.98290114  0.98290114  1
  Ni  Ni5  1  0.31695221  0.76764813  0.08741373  1
  Ni  Ni6  1  0.08741373  0.31695221  0.76764713  1
  Ni  Ni7  1  0.76764713  0.08741373  0.31695321  1
  Cu  Cu8  1  0.55085023  0.16600013  0.94683098  1
  Cu  Cu9  1  0.16600013  0.94683098  0.55084923  1
  Cu  Cu10  1  0.94682998  0.55084923  0.16600113  1
