# generated using pymatgen
data_CuNi5C33
_symmetry_space_group_name_H-M   'P 1'
_cell_length_a   9.08969778
_cell_length_b   8.94120851
_cell_length_c   22.83417945
_cell_angle_alpha   91.16307841
_cell_angle_beta   89.43930064
_cell_angle_gamma   120.36861780
_symmetry_Int_Tables_number   1
_chemical_formula_structural   CuNi5C33
_chemical_formula_sum   'Cu3 Ni15 C99'
_cell_volume   1600.83651653
_cell_formula_units_Z   3
loop_
 _symmetry_equiv_pos_site_id
 _symmetry_equiv_pos_as_xyz
  1  'x, y, z'
loop_
 _atom_site_type_symbol
 _atom_site_label
 _atom_site_symmetry_multiplicity
 _atom_site_fract_x
 _atom_site_fract_y
 _atom_site_fract_z
 _atom_site_occupancy
  C  C0  1  0.63483828  0.00216097  0.25123113  1
  C  C1  1  0.99914017  0.35084579  0.74842868  1
  C  C2  1  0.34986653  0.99766150  0.74686424  1
  C  C3  1  0.03334240  0.69377999  0.56737140  1
  C  C4  1  0.65977346  0.96722826  0.56871997  1
  C  C5  1  0.31390980  0.98288719  0.09878268  1
  C  C6  1  0.02351823  0.33593294  0.09524976  1
  C  C7  1  0.97591435  0.66781134  0.92701071  1
  C  C8  1  0.69188939  0.66591983  0.40993984  1
  C  C9  1  0.03603445  0.02957257  0.48340875  1
  C  C10  1  0.00046732  0.00552811  0.01868153  1
  C  C11  1  0.65195417  0.32010447  0.84146931  1
  C  C12  1  0.68567827  0.34023771  0.32869378  1
  C  C13  1  0.34018288  0.63853272  0.17481838  1
  C  C14  1  0.35144118  0.64760308  0.65491261  1
  C  C15  1  0.99107583  0.01723010  0.86333607  1
  C  C16  1  -0.00085342  0.99337529  0.63842052  1
  C  C17  1  0.67124978  0.35971454  0.68008828  1
  C  C18  1  0.66225262  0.32593468  0.00350756  1
  C  C19  1  0.32003914  0.65423151  0.48789931  1
  C  C20  1  0.35299568  0.66727950  0.82103685  1
  C  C21  1  0.97562798  0.98319945  0.34126422  1
  C  C22  1  0.98961207  0.00279713  0.15859977  1
  C  C23  1  0.68127448  0.36616250  0.17723010  1
  C  C24  1  0.68578532  0.32575530  0.47735672  1
  C  C25  1  0.33480027  0.67898940  0.02774287  1
  C  C26  1  0.30985345  0.66034104  0.31777258  1
  Ni  Ni27  1  0.70517418  0.70244673  0.24948280  1
  Ni  Ni28  1  0.00020133  0.29295330  0.25158838  1
  Ni  Ni29  1  0.30570158  0.30266620  0.75004551  1
  Ni  Ni30  1  -0.00103964  0.69146801  0.75526049  1
  Ni  Ni31  1  0.68785059  0.99645795  0.74219029  1
  Ni  Ni32  1  0.96652253  0.33929650  0.57345913  1
  Ni  Ni33  1  0.38171980  0.04341121  0.56963722  1
  Ni  Ni34  1  0.66509047  0.62504064  0.55805009  1
  Ni  Ni35  1  0.97861270  0.65483549  0.08809061  1
  Ni  Ni36  1  0.67132922  0.02632546  0.09472487  1
  Ni  Ni37  1  0.35126299  0.32586302  0.09306124  1
  Ni  Ni38  1  0.04745991  0.38086328  0.93446139  1
  Ni  Ni39  1  0.33209730  0.96284826  0.93139364  1
  Ni  Ni40  1  0.64608311  0.97940653  0.40742745  1
  Ni  Ni41  1  0.02091369  0.67625756  0.41058075  1
  Cu  Cu42  1  0.28202398  0.98529065  0.25299261  1
  Cu  Cu43  1  0.63199570  0.67309464  0.93618844  1
  Cu  Cu44  1  0.32017325  0.34578146  0.40241823  1
  C  C45  1  0.17322383  0.98800680  0.30078530  1
  C  C46  1  0.80163607  0.77089815  0.30857890  1
  C  C47  1  0.96087479  0.15345915  0.29781699  1
  C  C48  1  0.19588323  0.21801694  0.80444081  1
  C  C49  1  0.01133365  0.80334898  0.80929838  1
  C  C50  1  0.79076809  0.98413005  0.79326831  1
  C  C51  1  0.77302602  0.00461362  0.68234250  1
  C  C52  1  0.22026213  0.18911391  0.69522024  1
  C  C53  1  0.98093168  0.76721896  0.69679312  1
  C  C54  1  0.81493653  0.84156399  0.20429309  1
  C  C55  1  0.03338383  0.21987846  0.19359019  1
  C  C56  1  0.19746568  0.97303094  0.19647267  1
  C  C57  1  0.90421695  0.34842687  0.63604882  1
  C  C58  1  0.45522592  0.11285402  0.63172109  1
  C  C59  1  0.66959666  0.55163701  0.61780845  1
  C  C60  1  0.86244987  0.49603955  0.12856532  1
  C  C61  1  0.63208354  0.13546488  0.14216991  1
  C  C62  1  0.49225193  0.35498912  0.13852648  1
  C  C63  1  0.39369405  0.26789108  0.03470723  1
  C  C64  1  0.89732749  0.61372468  0.02725790  1
  C  C65  1  0.73529400  0.13121959  0.03830643  1
  C  C66  1  0.50485523  0.15792304  0.52099580  1
  C  C67  1  0.65264500  0.50587692  0.50530766  1
  C  C68  1  0.85418880  0.35931478  0.52666357  1
  C  C69  1  0.50695910  0.64937565  0.98208434  1
  C  C70  1  0.15873301  0.50580003  0.98476757  1
  C  C71  1  0.35366929  0.86352218  0.98351059  1
  C  C72  1  0.59558130  0.87848225  0.46527081  1
  C  C73  1  0.28294202  0.36968678  0.46423401  1
  C  C74  1  0.10224102  0.71751208  0.47190443  1
  C  C75  1  0.14328082  0.65216429  0.36801112  1
  C  C76  1  0.50831110  0.86966905  0.35907913  1
  C  C77  1  0.34713582  0.50482095  0.36952138  1
  C  C78  1  0.12838004  0.44494400  0.87343276  1
  C  C79  1  0.32408029  0.87467481  0.87146902  1
  C  C80  1  0.58077788  0.69441773  0.87712538  1
  C  C81  1  0.99879489  0.83268237  0.39579822  1
  C  C82  1  0.82088970  0.99582727  0.39324104  1
  C  C83  1  0.17083900  0.18287312  0.38231581  1
  C  C84  1  0.02121429  0.20051727  0.94578061  1
  C  C85  1  0.16045700  0.95820781  0.93988814  1
  C  C86  1  0.79937525  0.82762657  0.94934974  1
  C  C87  1  0.95744944  0.16423196  0.56292705  1
  C  C88  1  0.20343900  0.02317582  0.56319706  1
  C  C89  1  0.83663646  0.79969300  0.55254773  1
  C  C90  1  -0.00182353  0.82824787  0.10903385  1
  C  C91  1  0.82112756  0.00139824  0.11130077  1
  C  C92  1  0.17372009  0.16552553  0.10849737  1
  C  C93  1  0.67883819  0.16257965  0.75345942  1
  C  C94  1  0.48000498  0.31918779  0.76073363  1
  C  C95  1  0.84900618  0.50585688  0.76414598  1
  C  C96  1  0.68873870  0.52278043  0.23387433  1
  C  C97  1  0.83833569  0.31141244  0.24399663  1
  C  C98  1  0.45599055  0.13906775  0.25471213  1
  C  C99  1  0.65410305  0.51981515  0.93084415  1
  C  C100  1  0.87418785  0.37529080  0.93132770  1
  C  C101  1  0.48588570  0.14831169  0.92803440  1
  C  C102  1  0.66386909  0.16087993  0.41711469  1
  C  C103  1  0.47982036  0.34283199  0.39717738  1
  C  C104  1  0.84263667  0.50628725  0.41292975  1
  C  C105  1  0.33203150  0.48848713  0.08728825  1
  C  C106  1  0.15872670  0.66947170  0.08655354  1
  C  C107  1  0.50132997  0.85074627  0.08562202  1
  C  C108  1  0.35958129  0.85925303  0.56619769  1
  C  C109  1  0.51471964  0.65786612  0.55984392  1
  C  C110  1  0.14802738  0.49688059  0.56964611  1
  C  C111  1  0.30248301  0.82581392  0.25838484  1
  C  C112  1  0.52736407  0.68978873  0.25458704  1
  C  C113  1  0.16143337  0.47348311  0.26621791  1
  C  C114  1  0.31809163  0.47793695  0.73949979  1
  C  C115  1  0.16325683  0.68077788  0.74913350  1
  C  C116  1  0.50356897  0.84301688  0.73918339  1
