# generated using pymatgen
data_Cu9NiC41
_symmetry_space_group_name_H-M   'P 1'
_cell_length_a   8.79503730
_cell_length_b   8.79503702
_cell_length_c   22.68220003
_cell_angle_alpha   90.00000000
_cell_angle_beta   90.00000000
_cell_angle_gamma   120.00000107
_symmetry_Int_Tables_number   1
_chemical_formula_structural   Cu9NiC41
_chemical_formula_sum   'Cu18 Ni2 C82'
_cell_volume   1519.46660770
_cell_formula_units_Z   2
loop_
 _symmetry_equiv_pos_site_id
 _symmetry_equiv_pos_as_xyz
  1  'x, y, z'
loop_
 _atom_site_type_symbol
 _atom_site_label
 _atom_site_symmetry_multiplicity
 _atom_site_fract_x
 _atom_site_fract_y
 _atom_site_fract_z
 _atom_site_occupancy
  C  C0  1  0.00000000  0.00000000  0.35517749  1
  C  C1  1  0.00000000  0.00000000  0.85517749  1
  C  C2  1  0.00000000  0.00000000  0.64285475  1
  C  C3  1  0.00000000  0.00000000  0.14285475  1
  C  C4  1  0.66666700  0.33333300  0.97767629  1
  C  C5  1  0.66666700  0.33333300  0.47767629  1
  C  C6  1  0.33333300  0.66666700  0.02466128  1
  C  C7  1  0.33333300  0.66666700  0.52466128  1
  C  C8  1  0.33333300  0.66666700  0.30646933  1
  C  C9  1  0.33333300  0.66666700  0.80646933  1
  Ni  Ni10  1  0.66666700  0.33333300  0.68950468  1
  Ni  Ni11  1  0.66666700  0.33333300  0.18950468  1
  Cu  Cu12  1  0.29037657  0.00631746  0.24938809  1
  Cu  Cu13  1  0.71594090  0.70962343  0.24938809  1
  Cu  Cu14  1  0.99368254  0.28405910  0.24938809  1
  Cu  Cu15  1  0.29037657  0.28405910  0.74938809  1
  Cu  Cu16  1  0.99368254  0.70962343  0.74938809  1
  Cu  Cu17  1  0.71594090  0.00631746  0.74938809  1
  Cu  Cu18  1  0.94987282  0.33332567  0.58509307  1
  Cu  Cu19  1  0.38345385  0.05012718  0.58509307  1
  Cu  Cu20  1  0.66667433  0.61654615  0.58509307  1
  Cu  Cu21  1  0.94987282  0.61654615  0.08509307  1
  Cu  Cu22  1  0.66667433  0.05012718  0.08509307  1
  Cu  Cu23  1  0.38345385  0.33332567  0.08509307  1
  Cu  Cu24  1  0.61718001  0.66649129  0.91620790  1
  Cu  Cu25  1  0.04931028  0.38281999  0.91620790  1
  Cu  Cu26  1  0.33350871  0.95068972  0.91620790  1
  Cu  Cu27  1  0.61718001  0.95068972  0.41620790  1
  Cu  Cu28  1  0.33350871  0.38281999  0.41620790  1
  Cu  Cu29  1  0.04931028  0.66649129  0.41620790  1
  C  C30  1  0.19138606  0.02060739  0.30490384  1
  C  C31  1  0.82922134  0.80861395  0.30490384  1
  C  C32  1  0.97939261  0.17077866  0.30490384  1
  C  C33  1  0.19138606  0.17077866  0.80490384  1
  C  C34  1  0.97939261  0.80861395  0.80490384  1
  C  C35  1  0.82922134  0.02060739  0.80490384  1
  C  C36  1  0.80102485  0.96651772  0.69543125  1
  C  C37  1  0.16549287  0.19897515  0.69543125  1
  C  C38  1  0.03348228  0.83450713  0.69543125  1
  C  C39  1  0.80102485  0.83450713  0.19543125  1
  C  C40  1  0.03348228  0.19897515  0.19543125  1
  C  C41  1  0.16549287  0.96651772  0.19543125  1
  C  C42  1  0.88009073  0.37317804  0.63894758  1
  C  C43  1  0.49308830  0.11990927  0.63894758  1
  C  C44  1  0.62682196  0.50691170  0.63894758  1
  C  C45  1  0.88009073  0.50691170  0.13894758  1
  C  C46  1  0.62682196  0.11990927  0.13894758  1
  C  C47  1  0.49308830  0.37317804  0.13894758  1
  C  C48  1  0.46692522  0.30375141  0.02814462  1
  C  C49  1  0.83682719  0.53307478  0.02814462  1
  C  C50  1  0.69624859  0.16317281  0.02814462  1
  C  C51  1  0.46692522  0.16317281  0.52814462  1
  C  C52  1  0.69624859  0.53307478  0.52814462  1
  C  C53  1  0.83682719  0.30375141  0.52814462  1
  C  C54  1  0.53275772  0.69612046  0.97118796  1
  C  C55  1  0.16336175  0.46724228  0.97118796  1
  C  C56  1  0.30387954  0.83663825  0.97118796  1
  C  C57  1  0.53275772  0.83663825  0.47118796  1
  C  C58  1  0.30387954  0.46724228  0.47118796  1
  C  C59  1  0.16336175  0.69612046  0.47118796  1
  C  C60  1  0.13390014  0.63552997  0.36165604  1
  C  C61  1  0.50162883  0.86609986  0.36165604  1
  C  C62  1  0.36447003  0.49837117  0.36165604  1
  C  C63  1  0.13390014  0.49837117  0.86165604  1
  C  C64  1  0.36447003  0.86609986  0.86165604  1
  C  C65  1  0.50162883  0.63552997  0.86165604  1
  C  C66  1  0.02593017  0.82755559  0.40686459  1
  C  C67  1  0.80162542  0.97406983  0.40686459  1
  C  C68  1  0.17244441  0.19837458  0.40686459  1
  C  C69  1  0.02593017  0.19837458  0.90686459  1
  C  C70  1  0.17244441  0.97406983  0.90686459  1
  C  C71  1  0.80162542  0.82755559  0.90686459  1
  C  C72  1  0.97495880  0.17038309  0.59170629  1
  C  C73  1  0.19542430  0.02504120  0.59170629  1
  C  C74  1  0.82961691  0.80457570  0.59170629  1
  C  C75  1  0.97495880  0.80457570  0.09170629  1
  C  C76  1  0.82961691  0.02504120  0.09170629  1
  C  C77  1  0.19542430  0.17038309  0.09170629  1
  C  C78  1  0.69402590  0.16154338  0.74383522  1
  C  C79  1  0.46751848  0.30597410  0.74383522  1
  C  C80  1  0.83845662  0.53248152  0.74383522  1
  C  C81  1  0.69402590  0.53248152  0.24383522  1
  C  C82  1  0.83845662  0.30597410  0.24383522  1
  C  C83  1  0.46751848  0.16154338  0.24383522  1
  C  C84  1  0.63930891  0.50448913  0.92692092  1
  C  C85  1  0.86518122  0.36069109  0.92692092  1
  C  C86  1  0.49551087  0.13481878  0.92692092  1
  C  C87  1  0.63930891  0.13481878  0.42692092  1
  C  C88  1  0.49551087  0.36069109  0.42692092  1
  C  C89  1  0.86518122  0.50448913  0.42692092  1
  C  C90  1  0.35338740  0.49091206  0.07031605  1
  C  C91  1  0.13752366  0.64661260  0.07031605  1
  C  C92  1  0.50908794  0.86247634  0.07031605  1
  C  C93  1  0.35338740  0.86247634  0.57031605  1
  C  C94  1  0.50908794  0.64661260  0.57031605  1
  C  C95  1  0.13752366  0.49091206  0.57031605  1
  C  C96  1  0.29784564  0.83292560  0.26061531  1
  C  C97  1  0.53507896  0.70215436  0.26061531  1
  C  C98  1  0.16707440  0.46492104  0.26061531  1
  C  C99  1  0.29784564  0.46492104  0.76061531  1
  C  C100  1  0.16707440  0.70215436  0.76061531  1
  C  C101  1  0.53507896  0.83292560  0.76061531  1
