# generated using pymatgen
data_Cu2NiC12
_symmetry_space_group_name_H-M   'P 1'
_cell_length_a   6.16366429
_cell_length_b   6.06742740
_cell_length_c   6.16366431
_cell_angle_alpha   60.51516240
_cell_angle_beta   64.48594167
_cell_angle_gamma   60.51515577
_symmetry_Int_Tables_number   1
_chemical_formula_structural   Cu2NiC12
_chemical_formula_sum   'Cu2 Ni1 C12'
_cell_volume   169.17560097
_cell_formula_units_Z   1
loop_
 _symmetry_equiv_pos_site_id
 _symmetry_equiv_pos_as_xyz
  1  'x, y, z'
loop_
 _atom_site_type_symbol
 _atom_site_label
 _atom_site_symmetry_multiplicity
 _atom_site_fract_x
 _atom_site_fract_y
 _atom_site_fract_z
 _atom_site_occupancy
  Ni  Ni0  1  0.45755235  0.04244765  0.45755235  1
  C  C1  1  0.06471802  0.93528198  0.06471802  1
  C  C2  1  0.13290463  0.36709537  0.13290463  1
  C  C3  1  0.13119705  0.63049633  0.60781029  1
  C  C4  1  0.60781029  0.63049633  0.13119705  1
  Cu  Cu5  1  0.68155630  0.09859607  0.68155630  1
  Cu  Cu6  1  0.68155630  0.53829133  0.68155630  1
  C  C7  1  0.31867709  0.44199001  0.31867709  1
  C  C8  1  0.40218305  0.39856522  0.80068550  1
  C  C9  1  0.31867709  0.92065582  0.31867709  1
  C  C10  1  0.44268658  0.85836977  0.84057488  1
  C  C11  1  0.80068550  0.39856522  0.40218305  1
  C  C12  1  0.84057488  0.85836977  0.44268658  1
  C  C13  1  0.92419394  0.35755346  0.92419394  1
  C  C14  1  0.92419394  0.79405866  0.92419394  1
