# generated using pymatgen
data_Cu4NiC10
_symmetry_space_group_name_H-M   'P 1'
_cell_length_a   6.35614000
_cell_length_b   6.35614025
_cell_length_c   9.94358300
_cell_angle_alpha   90.00000000
_cell_angle_beta   90.00000000
_cell_angle_gamma   119.99999869
_symmetry_Int_Tables_number   1
_chemical_formula_structural   Cu4NiC10
_chemical_formula_sum   'Cu4 Ni1 C10'
_cell_volume   347.90483672
_cell_formula_units_Z   1
loop_
 _symmetry_equiv_pos_site_id
 _symmetry_equiv_pos_as_xyz
  1  'x, y, z'
loop_
 _atom_site_type_symbol
 _atom_site_label
 _atom_site_symmetry_multiplicity
 _atom_site_fract_x
 _atom_site_fract_y
 _atom_site_fract_z
 _atom_site_occupancy
  Ni  Ni0  1  0.00000000  0.00000000  0.75736900  1
  Cu  Cu1  1  0.33333300  0.66666700  0.76616300  1
  Cu  Cu2  1  0.66666700  0.33333300  0.24082500  1
  Cu  Cu3  1  0.00000000  0.00000000  0.45368400  1
  Cu  Cu4  1  0.00000000  0.00000000  0.08011200  1
  C  C5  1  0.33333300  0.66666700  0.31806200  1
  C  C6  1  0.66666700  0.33333300  0.66485100  1
  C  C7  1  0.83023900  0.16976100  0.74472900  1
  C  C8  1  0.83023900  0.66047800  0.74472900  1
  C  C9  1  0.33952200  0.16976100  0.74472900  1
  C  C10  1  0.64708100  0.82354100  0.25604600  1
  C  C11  1  0.17645900  0.35291900  0.25604600  1
  C  C12  1  0.17645900  0.82354100  0.25604600  1
  C  C13  1  0.66666700  0.33333300  0.46874400  1
  C  C14  1  0.33333300  0.66666700  0.49786400  1
