# generated using pymatgen
data_Cu5NiC4
_symmetry_space_group_name_H-M   'P 1'
_cell_length_a   9.24687700
_cell_length_b   9.24687700
_cell_length_c   3.13392900
_cell_angle_alpha   90.00000000
_cell_angle_beta   90.00000000
_cell_angle_gamma   90.00000000
_symmetry_Int_Tables_number   1
_chemical_formula_structural   Cu5NiC4
_chemical_formula_sum   'Cu10 Ni2 C8'
_cell_volume   267.96576631
_cell_formula_units_Z   2
loop_
 _symmetry_equiv_pos_site_id
 _symmetry_equiv_pos_as_xyz
  1  'x, y, z'
loop_
 _atom_site_type_symbol
 _atom_site_label
 _atom_site_symmetry_multiplicity
 _atom_site_fract_x
 _atom_site_fract_y
 _atom_site_fract_z
 _atom_site_occupancy
  C  C0  1  0.17536000  0.67536000  0.00000000  1
  C  C1  1  0.67536000  0.82464000  0.00000000  1
  C  C2  1  0.32464000  0.17536000  0.00000000  1
  C  C3  1  0.82464000  0.32464000  0.00000000  1
  Ni  Ni4  1  0.00000000  0.00000000  0.00000000  1
  Ni  Ni5  1  0.50000000  0.50000000  0.00000000  1
  C  C6  1  0.37648700  0.87648700  0.00000000  1
  C  C7  1  0.87648700  0.62351300  0.00000000  1
  C  C8  1  0.12351300  0.37648700  0.00000000  1
  C  C9  1  0.62351300  0.12351300  0.00000000  1
  Cu  Cu10  1  0.00000000  0.50000000  0.50000000  1
  Cu  Cu11  1  0.50000000  0.00000000  0.50000000  1
  Cu  Cu12  1  0.28772200  0.42984600  0.50000000  1
  Cu  Cu13  1  0.71227900  0.57015400  0.50000000  1
  Cu  Cu14  1  0.57015400  0.28772200  0.50000000  1
  Cu  Cu15  1  0.42984600  0.71227900  0.50000000  1
  Cu  Cu16  1  0.92984600  0.78772100  0.50000000  1
  Cu  Cu17  1  0.78772100  0.07015400  0.50000000  1
  Cu  Cu18  1  0.21227800  0.92984600  0.50000000  1
  Cu  Cu19  1  0.07015400  0.21227800  0.50000000  1
