# generated using pymatgen
data_Cu5Ni3C2
_symmetry_space_group_name_H-M   'P 1'
_cell_length_a   11.03602700
_cell_length_b   11.03602700
_cell_length_c   5.74000300
_cell_angle_alpha   90.00000000
_cell_angle_beta   90.00000000
_cell_angle_gamma   90.00000000
_symmetry_Int_Tables_number   1
_chemical_formula_structural   Cu5Ni3C2
_chemical_formula_sum   'Cu20 Ni12 C8'
_cell_volume   699.09730514
_cell_formula_units_Z   4
loop_
 _symmetry_equiv_pos_site_id
 _symmetry_equiv_pos_as_xyz
  1  'x, y, z'
loop_
 _atom_site_type_symbol
 _atom_site_label
 _atom_site_symmetry_multiplicity
 _atom_site_fract_x
 _atom_site_fract_y
 _atom_site_fract_z
 _atom_site_occupancy
  C  C0  1  0.42288200  0.26352400  0.50000000  1
  C  C1  1  0.07711800  0.76352400  0.00000000  1
  C  C2  1  0.92288200  0.23647600  0.00000000  1
  C  C3  1  0.76352400  0.92288200  0.00000000  1
  C  C4  1  0.26352400  0.57711800  0.50000000  1
  C  C5  1  0.73647600  0.42288200  0.50000000  1
  C  C6  1  0.57711800  0.73647600  0.50000000  1
  C  C7  1  0.23647600  0.07711800  0.00000000  1
  Ni  Ni8  1  0.00000000  0.50000000  0.25000000  1
  Ni  Ni9  1  0.50000000  0.00000000  0.75000000  1
  Ni  Ni10  1  0.00000000  0.50000000  0.75000000  1
  Ni  Ni11  1  0.50000000  0.00000000  0.25000000  1
  Ni  Ni12  1  0.35159000  0.37518900  0.00000000  1
  Ni  Ni13  1  0.37518900  0.64841000  0.00000000  1
  Ni  Ni14  1  0.62481100  0.35159000  0.00000000  1
  Ni  Ni15  1  0.64841000  0.62481100  0.00000000  1
  Ni  Ni16  1  0.14841000  0.87518900  0.50000000  1
  Ni  Ni17  1  0.85159000  0.12481100  0.50000000  1
  Ni  Ni18  1  0.87518900  0.85159000  0.50000000  1
  Ni  Ni19  1  0.12481100  0.14841000  0.50000000  1
  Cu  Cu20  1  0.31684100  0.02420600  0.50000000  1
  Cu  Cu21  1  0.68315900  0.97579400  0.50000000  1
  Cu  Cu22  1  0.97579400  0.31684100  0.50000000  1
  Cu  Cu23  1  0.02420600  0.68315900  0.50000000  1
  Cu  Cu24  1  0.52420600  0.81684100  0.00000000  1
  Cu  Cu25  1  0.81684100  0.47579400  0.00000000  1
  Cu  Cu26  1  0.18315900  0.52420600  0.00000000  1
  Cu  Cu27  1  0.47579400  0.18315900  0.00000000  1
  Cu  Cu28  1  0.67133900  0.17133900  0.75000000  1
  Cu  Cu29  1  0.17133900  0.32866100  0.75000000  1
  Cu  Cu30  1  0.82866100  0.67133900  0.75000000  1
  Cu  Cu31  1  0.32866100  0.82866100  0.75000000  1
  Cu  Cu32  1  0.32866100  0.82866100  0.25000000  1
  Cu  Cu33  1  0.00000000  0.00000000  0.26250500  1
  Cu  Cu34  1  0.17133900  0.32866100  0.25000000  1
  Cu  Cu35  1  0.67133900  0.17133900  0.25000000  1
  Cu  Cu36  1  0.50000000  0.50000000  0.76250500  1
  Cu  Cu37  1  0.00000000  0.00000000  0.73749500  1
  Cu  Cu38  1  0.50000000  0.50000000  0.23749500  1
  Cu  Cu39  1  0.82866100  0.67133900  0.25000000  1
