# generated using pymatgen
data_Cu2NiC16
_symmetry_space_group_name_H-M   'P 1'
_cell_length_a   6.88914076
_cell_length_b   6.89598749
_cell_length_c   11.50733057
_cell_angle_alpha   102.27195807
_cell_angle_beta   101.00960471
_cell_angle_gamma   112.14977521
_symmetry_Int_Tables_number   1
_chemical_formula_structural   Cu2NiC16
_chemical_formula_sum   'Cu2 Ni1 C16'
_cell_volume   472.04836068
_cell_formula_units_Z   1
loop_
 _symmetry_equiv_pos_site_id
 _symmetry_equiv_pos_as_xyz
  1  'x, y, z'
loop_
 _atom_site_type_symbol
 _atom_site_label
 _atom_site_symmetry_multiplicity
 _atom_site_fract_x
 _atom_site_fract_y
 _atom_site_fract_z
 _atom_site_occupancy
  Ni  Ni0  1  0.15831600  0.43556500  0.54705900  1
  Cu  Cu1  1  0.85236900  0.86967500  0.71177600  1
  Cu  Cu2  1  0.59359000  0.08120900  0.18933000  1
  C  C3  1  0.74073400  0.87191500  0.37682100  1
  C  C4  1  0.61883100  0.98405400  0.87734600  1
  C  C5  1  0.26963400  0.88363600  0.87848700  1
  C  C6  1  0.63832700  0.51952200  0.37713300  1
  C  C7  1  0.65743500  0.70053800  0.84634600  1
  C  C8  1  0.19461400  0.13954200  0.86505000  1
  C  C9  1  0.99715100  0.03287000  0.54326000  1
  C  C10  1  0.55632800  0.51795400  0.54241600  1
  C  C11  1  0.25843700  0.80078900  0.03831900  1
  C  C12  1  0.78744400  0.21933900  0.04706000  1
  C  C13  1  0.38935400  0.31219000  0.22396400  1
  C  C14  1  0.85103500  0.91256800  0.22967200  1
  C  C15  1  0.65697300  0.09512400  0.72959800  1
  C  C16  1  0.05497600  0.61939000  0.72262200  1
  C  C17  1  0.47231300  0.92461200  0.36296400  1
  C  C18  1  0.90158200  0.45117400  0.36188900  1
