# generated using pymatgen
data_Cu5NiC7
_symmetry_space_group_name_H-M   'P 1'
_cell_length_a   8.22536191
_cell_length_b   8.22536191
_cell_length_c   5.89979607
_cell_angle_alpha   78.92750294
_cell_angle_beta   78.92750294
_cell_angle_gamma   133.92526913
_symmetry_Int_Tables_number   1
_chemical_formula_structural   Cu5NiC7
_chemical_formula_sum   'Cu10 Ni2 C14'
_cell_volume   250.49077167
_cell_formula_units_Z   2
loop_
 _symmetry_equiv_pos_site_id
 _symmetry_equiv_pos_as_xyz
  1  'x, y, z'
loop_
 _atom_site_type_symbol
 _atom_site_label
 _atom_site_symmetry_multiplicity
 _atom_site_fract_x
 _atom_site_fract_y
 _atom_site_fract_z
 _atom_site_occupancy
  C  C0  1  0.83451500  0.17760500  0.75055600  1
  C  C1  1  0.17760500  0.83451500  0.25055600  1
  Ni  Ni2  1  0.30885200  0.66378000  0.76594500  1
  Ni  Ni3  1  0.66378000  0.30885200  0.26594500  1
  Cu  Cu4  1  0.53981500  0.67342800  0.14640600  1
  Cu  Cu5  1  0.67342800  0.53981500  0.64640600  1
  Cu  Cu6  1  0.78558500  0.76005200  0.99691500  1
  Cu  Cu7  1  0.76005200  0.78558500  0.49691500  1
  Cu  Cu8  1  0.24698000  0.26345800  0.38821500  1
  Cu  Cu9  1  0.26345800  0.24698000  0.88821500  1
  Cu  Cu10  1  0.61713100  0.96206400  0.36529600  1
  Cu  Cu11  1  0.96206400  0.61713100  0.86529600  1
  Cu  Cu12  1  0.16151200  0.33568400  0.21275900  1
  Cu  Cu13  1  0.33568400  0.16151100  0.71275900  1
  C  C14  1  0.18971500  0.40170000  0.90176600  1
  C  C15  1  0.13867100  0.63480600  0.65255700  1
  C  C16  1  0.32309200  0.17560700  0.87845200  1
  C  C17  1  0.17560700  0.32309200  0.37845200  1
  C  C18  1  0.82231800  0.71812200  0.51170200  1
  C  C19  1  0.71812200  0.82231800  0.01170200  1
  C  C20  1  0.36382900  0.80067300  0.93349700  1
  C  C21  1  0.80067300  0.36382900  0.43349700  1
  C  C22  1  0.58341800  0.84678800  0.52303500  1
  C  C23  1  0.84678800  0.58341800  0.02303500  1
  C  C24  1  0.63480600  0.13867100  0.15255700  1
  C  C25  1  0.40170000  0.18971500  0.40176600  1
