# generated using pymatgen
data_Cu3(NiC6)2
_symmetry_space_group_name_H-M   'P 1'
_cell_length_a   5.47216800
_cell_length_b   9.59521900
_cell_length_c   19.85222898
_cell_angle_alpha   87.68967245
_cell_angle_beta   90.00000000
_cell_angle_gamma   90.00000000
_symmetry_Int_Tables_number   1
_chemical_formula_structural   Cu3(NiC6)2
_chemical_formula_sum   'Cu12 Ni8 C48'
_cell_volume   1041.52674725
_cell_formula_units_Z   4
loop_
 _symmetry_equiv_pos_site_id
 _symmetry_equiv_pos_as_xyz
  1  'x, y, z'
loop_
 _atom_site_type_symbol
 _atom_site_label
 _atom_site_symmetry_multiplicity
 _atom_site_fract_x
 _atom_site_fract_y
 _atom_site_fract_z
 _atom_site_occupancy
  Ni  Ni0  1  0.72973600  0.12653600  0.12953600  1
  Ni  Ni1  1  0.22973600  0.87346400  0.37046400  1
  Ni  Ni2  1  0.27026400  0.87346400  0.87046400  1
  Ni  Ni3  1  0.77026400  0.12653600  0.62953600  1
  Ni  Ni4  1  0.69231900  0.37767700  0.37188700  1
  Ni  Ni5  1  0.19231900  0.62232300  0.12811300  1
  Ni  Ni6  1  0.30768100  0.62232300  0.62811300  1
  Ni  Ni7  1  0.80768100  0.37767700  0.87188700  1
  Cu  Cu8  1  0.85421400  0.08581800  0.34745700  1
  Cu  Cu9  1  0.35421400  0.91418200  0.15254300  1
  Cu  Cu10  1  0.14578600  0.91418200  0.65254300  1
  Cu  Cu11  1  0.64578600  0.08581800  0.84745700  1
  Cu  Cu12  1  0.91019500  0.64610600  0.31598400  1
  Cu  Cu13  1  0.41019500  0.35389400  0.18401600  1
  Cu  Cu14  1  0.08980500  0.35389400  0.68401600  1
  Cu  Cu15  1  0.58980500  0.64610600  0.81598400  1
  Cu  Cu16  1  0.56924200  0.30119600  0.51425800  1
  Cu  Cu17  1  0.06924200  0.69880400  0.98574200  1
  Cu  Cu18  1  0.43075800  0.69880400  0.48574200  1
  Cu  Cu19  1  0.93075800  0.30119600  0.01425800  1
  C  C20  1  0.91502500  0.03008400  0.28329100  1
  C  C21  1  0.41502500  0.96991600  0.21670900  1
  C  C22  1  0.08497500  0.96991600  0.71670900  1
  C  C23  1  0.58497500  0.03008400  0.78329100  1
  C  C24  1  0.60731900  0.07254400  0.37316100  1
  C  C25  1  0.10731900  0.92745600  0.12683900  1
  C  C26  1  0.39268100  0.92745600  0.62683900  1
  C  C27  1  0.89268100  0.07254400  0.87316100  1
  C  C28  1  0.03735600  0.01892400  0.40148400  1
  C  C29  1  0.53735600  0.98107600  0.09851600  1
  C  C30  1  0.96264400  0.98107600  0.59851600  1
  C  C31  1  0.46264400  0.01892400  0.90148400  1
  C  C32  1  0.92845800  0.24269000  0.34864800  1
  C  C33  1  0.42845800  0.75731000  0.15135200  1
  C  C34  1  0.07154200  0.75731000  0.65135200  1
  C  C35  1  0.57154200  0.24269000  0.84864800  1
  C  C36  1  0.11016700  0.65846100  0.26873500  1
  C  C37  1  0.66291900  0.65674700  0.29266800  1
  C  C38  1  0.33708100  0.34325300  0.70733200  1
  C  C39  1  0.83708100  0.65674700  0.79266800  1
  C  C40  1  0.72700100  0.35929800  0.96419500  1
  C  C41  1  0.22700100  0.64070200  0.53580500  1
  C  C42  1  0.27299900  0.64070200  0.03580500  1
  C  C43  1  0.77299900  0.35929800  0.46419500  1
  C  C44  1  0.81109900  0.15765700  0.03862800  1
  C  C45  1  0.31109900  0.84234300  0.46137200  1
  C  C46  1  0.18890100  0.84234300  0.96137200  1
  C  C47  1  0.68890100  0.15765700  0.53862800  1
  C  C48  1  0.14932900  0.27443400  0.97725900  1
  C  C49  1  0.64932900  0.72556600  0.52274100  1
  C  C50  1  0.85067100  0.72556600  0.02274100  1
  C  C51  1  0.35067100  0.27443400  0.47725900  1
  C  C52  1  0.93674200  0.38936100  0.07164000  1
  C  C53  1  0.43674200  0.61063900  0.42836000  1
  C  C54  1  0.06325800  0.61063900  0.92836000  1
  C  C55  1  0.56325800  0.38936100  0.57164000  1
  C  C56  1  0.55357300  0.50348100  0.85826900  1
  C  C57  1  0.05357300  0.49651900  0.64173100  1
  C  C58  1  0.44642700  0.49651900  0.14173100  1
  C  C59  1  0.94642700  0.50348100  0.35826900  1
  C  C60  1  0.54907700  0.75357900  0.87281100  1
  C  C61  1  0.04907700  0.24642100  0.62718900  1
  C  C62  1  0.45092300  0.24642100  0.12718900  1
  C  C63  1  0.95092300  0.75357900  0.37281100  1
  C  C64  1  0.38983300  0.65846100  0.76873500  1
  C  C65  1  0.88983300  0.34153900  0.73126500  1
  C  C66  1  0.61016700  0.34153900  0.23126500  1
  C  C67  1  0.16291900  0.34325300  0.20733200  1
