# generated using pymatgen
data_Cu2Ni10C7
_symmetry_space_group_name_H-M   'P 1'
_cell_length_a   5.13708570
_cell_length_b   7.49491756
_cell_length_c   5.78683424
_cell_angle_alpha   98.77263578
_cell_angle_beta   99.74182563
_cell_angle_gamma   84.22792678
_symmetry_Int_Tables_number   1
_chemical_formula_structural   Cu2Ni10C7
_chemical_formula_sum   'Cu2 Ni10 C7'
_cell_volume   216.38290667
_cell_formula_units_Z   1
loop_
 _symmetry_equiv_pos_site_id
 _symmetry_equiv_pos_as_xyz
  1  'x, y, z'
loop_
 _atom_site_type_symbol
 _atom_site_label
 _atom_site_symmetry_multiplicity
 _atom_site_fract_x
 _atom_site_fract_y
 _atom_site_fract_z
 _atom_site_occupancy
  C  C0  1  0.50809194  0.16989139  0.17693876  1
  C  C1  1  0.54985470  0.67099362  0.14031503  1
  C  C2  1  0.38837758  0.95561766  0.54049300  1
  C  C3  1  0.56396363  0.36770565  0.76528385  1
  C  C4  1  0.98045221  0.66115644  0.67269990  1
  C  C5  1  0.00854458  0.32446808  0.32201719  1
  C  C6  1  0.01461105  0.98318538  0.00927142  1
  Ni  Ni7  1  0.86611721  0.41791796  0.61029821  1
  Ni  Ni8  1  0.85272837  0.75459223  0.95964068  1
  Ni  Ni9  1  0.88437302  0.09406949  0.29781524  1
  Ni  Ni10  1  0.65996375  0.74457496  0.47566305  1
  Ni  Ni11  1  0.67371844  0.40963052  0.12253113  1
  Ni  Ni12  1  0.33728682  0.57969115  0.83847812  1
  Ni  Ni13  1  0.35701250  0.24008288  0.48995772  1
  Ni  Ni14  1  0.35335673  0.91208950  0.17670423  1
  Ni  Ni15  1  0.13537812  0.22187455  0.03365639  1
  Ni  Ni16  1  0.11148917  0.89568962  0.71155703  1
  Cu  Cu17  1  0.63701884  0.08899519  0.84966566  1
  Cu  Cu18  1  0.13155033  0.57027374  0.36653840  1
