# generated using pymatgen
data_Cu2(NiC4)3
_symmetry_space_group_name_H-M   'P 1'
_cell_length_a   8.78142100
_cell_length_b   6.11801200
_cell_length_c   11.56345330
_cell_angle_alpha   87.65673350
_cell_angle_beta   90.00000000
_cell_angle_gamma   90.00000000
_symmetry_Int_Tables_number   1
_chemical_formula_structural   Cu2(NiC4)3
_chemical_formula_sum   'Cu4 Ni6 C24'
_cell_volume   620.72518588
_cell_formula_units_Z   2
loop_
 _symmetry_equiv_pos_site_id
 _symmetry_equiv_pos_as_xyz
  1  'x, y, z'
loop_
 _atom_site_type_symbol
 _atom_site_label
 _atom_site_symmetry_multiplicity
 _atom_site_fract_x
 _atom_site_fract_y
 _atom_site_fract_z
 _atom_site_occupancy
  Ni  Ni0  1  0.73529100  0.76112100  0.57025600  1
  Ni  Ni1  1  0.23529100  0.23887900  0.92974400  1
  Ni  Ni2  1  0.26470900  0.23887900  0.42974400  1
  Ni  Ni3  1  0.76470900  0.76112100  0.07025600  1
  Ni  Ni4  1  0.50000000  0.00000000  0.50000000  1
  Ni  Ni5  1  0.00000000  0.00000000  0.00000000  1
  Cu  Cu6  1  0.14149800  0.70051200  0.67224700  1
  Cu  Cu7  1  0.64149800  0.29948800  0.82775300  1
  Cu  Cu8  1  0.85850200  0.29948800  0.32775300  1
  Cu  Cu9  1  0.35850200  0.70051200  0.17224700  1
  C  C10  1  0.96755200  0.57534500  0.62116200  1
  C  C11  1  0.46755200  0.42465500  0.87883800  1
  C  C12  1  0.03244800  0.42465500  0.37883800  1
  C  C13  1  0.53244800  0.57534500  0.12116200  1
  C  C14  1  0.21368200  0.43315800  0.70170400  1
  C  C15  1  0.71368200  0.56684200  0.79829600  1
  C  C16  1  0.78631800  0.56684200  0.29829600  1
  C  C17  1  0.28631800  0.43315800  0.20170400  1
  C  C18  1  0.06347600  0.69869600  0.81384700  1
  C  C19  1  0.56347600  0.30130400  0.68615300  1
  C  C20  1  0.19009400  0.82412800  0.22032900  1
  C  C21  1  0.69009400  0.17587200  0.27967100  1
  C  C22  1  0.80990600  0.17587200  0.77967100  1
  C  C23  1  0.30990600  0.82412800  0.72032900  1
  C  C24  1  0.28211200  0.69115100  0.02999500  1
  C  C25  1  0.78211200  0.30884900  0.47000500  1
  C  C26  1  0.71788800  0.30884900  0.97000500  1
  C  C27  1  0.21788800  0.69115100  0.52999500  1
  C  C28  1  0.44103900  0.95843200  0.13840800  1
  C  C29  1  0.94103900  0.04156800  0.36159200  1
  C  C30  1  0.55896100  0.04156800  0.86159200  1
  C  C31  1  0.05896100  0.95843200  0.63840800  1
  C  C32  1  0.43652400  0.69869600  0.31384700  1
  C  C33  1  0.93652400  0.30130400  0.18615300  1
