# generated using pymatgen
data_Cu2Ni3C14
_symmetry_space_group_name_H-M   'P 1'
_cell_length_a   10.20190921
_cell_length_b   10.20190921
_cell_length_c   10.20190916
_cell_angle_alpha   42.86091096
_cell_angle_beta   42.86091096
_cell_angle_gamma   42.86090808
_symmetry_Int_Tables_number   1
_chemical_formula_structural   Cu2Ni3C14
_chemical_formula_sum   'Cu4 Ni6 C28'
_cell_volume   445.18629679
_cell_formula_units_Z   2
loop_
 _symmetry_equiv_pos_site_id
 _symmetry_equiv_pos_as_xyz
  1  'x, y, z'
loop_
 _atom_site_type_symbol
 _atom_site_label
 _atom_site_symmetry_multiplicity
 _atom_site_fract_x
 _atom_site_fract_y
 _atom_site_fract_z
 _atom_site_occupancy
  C  C0  1  0.50000000  0.50000000  0.50000000  1
  C  C1  1  0.66612800  0.90731400  0.28044100  1
  C  C2  1  0.71955900  0.33387200  0.09268600  1
  C  C3  1  0.09268600  0.71955900  0.33387200  1
  C  C4  1  0.33387200  0.09268600  0.71955900  1
  C  C5  1  0.28044100  0.66612800  0.90731400  1
  C  C6  1  0.90731400  0.28044100  0.66612800  1
  C  C7  1  0.94278100  0.95489500  0.33506300  1
  C  C8  1  0.57280700  0.16529900  0.17866700  1
  C  C9  1  0.16529900  0.17866700  0.57280700  1
  C  C10  1  0.17866700  0.57280700  0.16529900  1
  C  C11  1  0.42719300  0.83470100  0.82133300  1
  C  C12  1  0.95489500  0.33506300  0.94278100  1
  C  C13  1  0.82133300  0.42719300  0.83470100  1
  C  C14  1  0.66493700  0.05721900  0.04510500  1
  C  C15  1  0.05721900  0.04510500  0.66493700  1
  C  C16  1  0.04510500  0.66493700  0.05721900  1
  C  C17  1  0.33506300  0.94278100  0.95489500  1
  C  C18  1  0.83470100  0.82133300  0.42719300  1
  C  C19  1  0.00000000  0.00000000  0.00000000  1
  Ni  Ni20  1  0.86150300  0.30814400  0.96185200  1
  Ni  Ni21  1  0.69185600  0.03814800  0.13849700  1
  Ni  Ni22  1  0.96185200  0.86150300  0.30814400  1
  Ni  Ni23  1  0.30814400  0.96185200  0.86150300  1
  Ni  Ni24  1  0.13849700  0.69185600  0.03814800  1
  Ni  Ni25  1  0.03814800  0.13849700  0.69185600  1
  Cu  Cu26  1  0.81171200  0.81171200  0.81171200  1
  Cu  Cu27  1  0.18828800  0.18828800  0.18828800  1
  Cu  Cu28  1  0.63313400  0.63313400  0.63313400  1
  Cu  Cu29  1  0.36686600  0.36686600  0.36686600  1
  C  C30  1  0.72553800  0.00333500  0.65324400  1
  C  C31  1  0.65324400  0.72553800  0.00333500  1
  C  C32  1  0.00333500  0.65324400  0.72553800  1
  C  C33  1  0.27446200  0.99666500  0.34675600  1
  C  C34  1  0.86451900  0.86451900  0.86451900  1
  C  C35  1  0.99666500  0.34675600  0.27446200  1
  C  C36  1  0.34675600  0.27446200  0.99666500  1
  C  C37  1  0.13548100  0.13548100  0.13548100  1
