# generated using pymatgen
data_Cu3NiC2
_symmetry_space_group_name_H-M   'P 1'
_cell_length_a   6.96103600
_cell_length_b   7.30294200
_cell_length_c   8.80097400
_cell_angle_alpha   90.00000000
_cell_angle_beta   90.00000000
_cell_angle_gamma   90.00000000
_symmetry_Int_Tables_number   1
_chemical_formula_structural   Cu3NiC2
_chemical_formula_sum   'Cu12 Ni4 C8'
_cell_volume   447.40668538
_cell_formula_units_Z   4
loop_
 _symmetry_equiv_pos_site_id
 _symmetry_equiv_pos_as_xyz
  1  'x, y, z'
loop_
 _atom_site_type_symbol
 _atom_site_label
 _atom_site_symmetry_multiplicity
 _atom_site_fract_x
 _atom_site_fract_y
 _atom_site_fract_z
 _atom_site_occupancy
  C  C0  1  0.25000000  0.60188300  0.96044100  1
  C  C1  1  0.75000000  0.39811700  0.03955900  1
  C  C2  1  0.25000000  0.10188300  0.53955900  1
  C  C3  1  0.75000000  0.89811700  0.46044100  1
  C  C4  1  0.25000000  0.20986100  0.13310300  1
  C  C5  1  0.75000000  0.79013900  0.86689700  1
  C  C6  1  0.75000000  0.29013900  0.63310300  1
  C  C7  1  0.25000000  0.70986100  0.36689700  1
  Ni  Ni8  1  0.75000000  0.56298700  0.31675400  1
  Ni  Ni9  1  0.75000000  0.06298700  0.18324600  1
  Ni  Ni10  1  0.25000000  0.43701300  0.68324600  1
  Ni  Ni11  1  0.25000000  0.93701300  0.81675400  1
  Cu  Cu12  1  0.92812200  0.63972700  0.93247900  1
  Cu  Cu13  1  0.42812200  0.36027300  0.06752100  1
  Cu  Cu14  1  0.57187800  0.13972700  0.56752100  1
  Cu  Cu15  1  0.07187800  0.86027300  0.43247900  1
  Cu  Cu16  1  0.07187800  0.36027300  0.06752100  1
  Cu  Cu17  1  0.57187800  0.63972700  0.93247900  1
  Cu  Cu18  1  0.42812200  0.86027300  0.43247900  1
  Cu  Cu19  1  0.75000000  0.74907300  0.67678500  1
  Cu  Cu20  1  0.25000000  0.75092700  0.17678500  1
  Cu  Cu21  1  0.75000000  0.24907300  0.82321500  1
  Cu  Cu22  1  0.25000000  0.25092700  0.32321500  1
  Cu  Cu23  1  0.92812200  0.13972700  0.56752100  1
