# generated using pymatgen
data_Cu3Ni5C31
_symmetry_space_group_name_H-M   'P 1'
_cell_length_a   9.17321539
_cell_length_b   9.16942414
_cell_length_c   23.23671595
_cell_angle_alpha   89.92914466
_cell_angle_beta   89.95830499
_cell_angle_gamma   120.03628414
_symmetry_Int_Tables_number   1
_chemical_formula_structural   Cu3Ni5C31
_chemical_formula_sum   'Cu9 Ni15 C93'
_cell_volume   1692.03472524
_cell_formula_units_Z   3
loop_
 _symmetry_equiv_pos_site_id
 _symmetry_equiv_pos_as_xyz
  1  'x, y, z'
loop_
 _atom_site_type_symbol
 _atom_site_label
 _atom_site_symmetry_multiplicity
 _atom_site_fract_x
 _atom_site_fract_y
 _atom_site_fract_z
 _atom_site_occupancy
  Ni  Ni0  1  0.63852159  0.00013777  0.25392442  1
  Ni  Ni1  1  0.36228711  0.36252910  0.25496834  1
  Ni  Ni2  1  0.99913669  0.63761382  0.25416002  1
  Ni  Ni3  1  0.64068694  0.64183366  0.75107697  1
  Ni  Ni4  1  0.00104656  0.36112013  0.75128118  1
  Ni  Ni5  1  0.03268684  0.69845230  0.57990355  1
  Ni  Ni6  1  0.66289962  0.96576969  0.57982142  1
  Ni  Ni7  1  0.66266482  0.69808318  0.07951178  1
  Ni  Ni8  1  0.03380071  0.33389378  0.07936120  1
  Ni  Ni9  1  0.01068871  0.01126194  0.49627118  1
  Ni  Ni10  1  0.01018323  0.99958353  0.99497649  1
  Ni  Ni11  1  0.65649350  0.32288546  0.83647181  1
  Ni  Ni12  1  0.66704603  0.33366433  0.34350135  1
  Ni  Ni13  1  0.33335215  0.67834396  0.16659328  1
  Ni  Ni14  1  0.33385116  0.66589372  0.66715131  1
  Cu  Cu15  1  0.99808136  0.99835905  0.35581361  1
  Cu  Cu16  1  0.00122306  0.00003880  0.85330719  1
  Cu  Cu17  1  0.01209727  0.00908962  0.64972965  1
  Cu  Cu18  1  0.00847513  0.99948689  0.14544402  1
  Cu  Cu19  1  0.65502060  0.32567188  0.68433442  1
  Cu  Cu20  1  0.66245821  0.32893607  0.18095625  1
  Cu  Cu21  1  0.33321067  0.67353807  0.01388494  1
  Cu  Cu22  1  0.33237155  0.65696500  0.51453356  1
  Cu  Cu23  1  0.33333951  0.66565701  0.32759966  1
  C  C24  1  0.66629105  0.33408608  0.97696656  1
  C  C25  1  0.66368161  0.33267092  0.48145985  1
  C  C26  1  0.33297434  0.67483063  0.82194848  1
  C  C27  1  0.29769621  0.99602434  0.25093773  1
  C  C28  1  0.69928200  0.70245685  0.24812696  1
  C  C29  1  0.00325681  0.30062374  0.24828111  1
  C  C30  1  0.29937464  0.31396587  0.75450323  1
  C  C31  1  0.01126465  0.70134586  0.75155319  1
  C  C32  1  0.69177955  0.98921094  0.75200688  1
  C  C33  1  0.95057802  0.33172905  0.58189433  1
  C  C34  1  0.37595392  0.04257287  0.57854036  1
  C  C35  1  0.66938724  0.62502567  0.58197615  1
  C  C36  1  0.95133971  0.61830455  0.07909761  1
  C  C37  1  0.66826220  0.04442896  0.07939963  1
  C  C38  1  0.37797658  0.33357715  0.07816418  1
  C  C39  1  0.62208802  0.65411240  0.91747422  1
  C  C40  1  0.03150099  0.37765994  0.91792482  1
  C  C41  1  0.34664100  0.97069783  0.91672464  1
  C  C42  1  0.63666522  0.98327346  0.42037709  1
  C  C43  1  0.34628565  0.36126990  0.41782253  1
  C  C44  1  0.01674385  0.65355962  0.42054762  1
  C  C45  1  0.21254365  0.02491184  0.30260324  1
  C  C46  1  0.81607256  0.79139390  0.29894921  1
  C  C47  1  0.97595424  0.18376750  0.29914961  1
  C  C48  1  0.21382078  0.19836654  0.80542003  1
  C  C49  1  0.97435848  0.78837878  0.80058057  1
  C  C50  1  0.81391336  0.02057047  0.80132212  1
  C  C51  1  0.76175762  0.95255800  0.69572584  1
  C  C52  1  0.18943388  0.23752770  0.69974257  1
  C  C53  1  0.04034656  0.80084115  0.69453126  1
  C  C54  1  0.77751472  0.80430672  0.19180749  1
  C  C55  1  0.02772140  0.22301547  0.19203994  1
  C  C56  1  0.19077512  0.96982636  0.19635069  1
  C  C57  1  0.87865628  0.35373720  0.63914755  1
  C  C58  1  0.47624207  0.11720776  0.63392596  1
  C  C59  1  0.65033932  0.53385780  0.63943499  1
  C  C60  1  0.88083450  0.52710436  0.13698744  1
  C  C61  1  0.65010326  0.11427982  0.13753216  1
  C  C62  1  0.46972714  0.35520098  0.13590965  1
  C  C63  1  0.48411526  0.32226403  0.02776985  1
  C  C64  1  0.83219585  0.51314721  0.02856338  1
  C  C65  1  0.68006998  0.16290839  0.02905572  1
  C  C66  1  0.47759952  0.15761443  0.52727069  1
  C  C67  1  0.68126962  0.51988888  0.53141493  1
  C  C68  1  0.83246452  0.31630442  0.53118047  1
  C  C69  1  0.54906998  0.67875292  0.97322023  1
  C  C70  1  0.12975895  0.45019324  0.97357887  1
  C  C71  1  0.31866364  0.86826338  0.97076875  1
  C  C72  1  0.54784389  0.87040045  0.47225107  1
  C  C73  1  0.32055918  0.45442051  0.46717972  1
  C  C74  1  0.12950412  0.67774260  0.47234571  1
  C  C75  1  0.09215040  0.62598004  0.36401196  1
  C  C76  1  0.53429140  0.90717687  0.36386817  1
  C  C77  1  0.37526189  0.46090116  0.36037491  1
  C  C78  1  0.13205914  0.49780907  0.86543900  1
  C  C79  1  0.36334832  0.86483145  0.86470899  1
  C  C80  1  0.50411270  0.63694046  0.86490038  1
  C  C81  1  0.99468308  0.80786197  0.41538888  1
  C  C82  1  0.81321905  0.00550769  0.41538315  1
  C  C83  1  0.19199198  0.18466598  0.41426515  1
  C  C84  1  0.00572301  0.20147701  0.90936425  1
  C  C85  1  0.19565618  0.99414546  0.90798744  1
  C  C86  1  0.79904849  0.80436645  0.90942788  1
  C  C87  1  0.95749712  0.16586004  0.58357584  1
  C  C88  1  0.19762167  0.02128140  0.58131139  1
  C  C89  1  0.83674954  0.79942954  0.58287439  1
  C  C90  1  0.95668996  0.78982623  0.07940894  1
  C  C91  1  0.83559962  0.03797040  0.07954134  1
  C  C92  1  0.19911575  0.17751619  0.07866541  1
  C  C93  1  0.67673221  0.14844100  0.74691892  1
  C  C94  1  0.48111895  0.34721466  0.74836605  1
  C  C95  1  0.85621329  0.52017790  0.74677724  1
  C  C96  1  0.67760393  0.52342414  0.24500843  1
  C  C97  1  0.84559212  0.32172586  0.24519205  1
  C  C98  1  0.47584064  0.15382849  0.24615199  1
  C  C99  1  0.63318800  0.48791071  0.92361939  1
  C  C100  1  0.85450455  0.36648873  0.92412369  1
  C  C101  1  0.51272714  0.14474690  0.92204124  1
  C  C102  1  0.65084999  0.15891918  0.42876177  1
  C  C103  1  0.50832735  0.35011612  0.42851697  1
  C  C104  1  0.84130517  0.49198658  0.42951201  1
  C  C105  1  0.36038474  0.49308602  0.07472347  1
  C  C106  1  0.12518115  0.63269148  0.07510305  1
  C  C107  1  0.52060357  0.86208246  0.07624541  1
  C  C108  1  0.35663839  0.86479039  0.57445834  1
  C  C109  1  0.52131939  0.65909952  0.57730401  1
  C  C110  1  0.12498094  0.49137995  0.57649643  1
  C  C111  1  0.31620502  0.83713939  0.25628060  1
  C  C112  1  0.52317223  0.68634949  0.25486903  1
  C  C113  1  0.16251305  0.47768706  0.25484771  1
  C  C114  1  0.31247367  0.49098675  0.76320323  1
  C  C115  1  0.16846007  0.67970554  0.76402924  1
  C  C116  1  0.51733744  0.82611809  0.76421979  1
