# generated using pymatgen
data_Cu5NiC31
_symmetry_space_group_name_H-M   'P 1'
_cell_length_a   8.68134572
_cell_length_b   8.64333764
_cell_length_c   22.30584154
_cell_angle_alpha   90.01714623
_cell_angle_beta   90.03799411
_cell_angle_gamma   119.87254365
_symmetry_Int_Tables_number   1
_chemical_formula_structural   Cu5NiC31
_chemical_formula_sum   'Cu15 Ni3 C93'
_cell_volume   1451.35586495
_cell_formula_units_Z   3
loop_
 _symmetry_equiv_pos_site_id
 _symmetry_equiv_pos_as_xyz
  1  'x, y, z'
loop_
 _atom_site_type_symbol
 _atom_site_label
 _atom_site_symmetry_multiplicity
 _atom_site_fract_x
 _atom_site_fract_y
 _atom_site_fract_z
 _atom_site_occupancy
  C  C0  1  0.36511351  0.00045638  0.75028501  1
  C  C1  1  0.66671369  0.96803847  0.58367921  1
  C  C2  1  0.66675516  0.69850665  0.08298913  1
  C  C3  1  0.00681336  0.00036724  0.49915393  1
  C  C4  1  0.00686547  0.00579248  0.99892764  1
  C  C5  1  0.67278570  0.33951106  0.83434924  1
  C  C6  1  0.66667811  0.33330191  0.33332468  1
  C  C7  1  0.32724360  0.66615265  0.16775206  1
  C  C8  1  0.32729225  0.65524175  0.66661096  1
  C  C9  1  0.99964423  0.00008122  0.35336697  1
  C  C10  1  0.99344939  0.00024144  0.85385585  1
  C  C11  1  0.00401842  0.99928279  0.64740809  1
  C  C12  1  0.00749992  0.00206703  0.14714449  1
  C  C13  1  0.67029398  0.33040338  0.68605987  1
  C  C14  1  0.67428585  0.33703614  0.18701907  1
  C  C15  1  0.66929192  0.33728449  0.98020459  1
  C  C16  1  0.65834381  0.32998955  0.47944867  1
  C  C17  1  0.32242848  0.66593451  0.01929979  1
  C  C18  1  0.32680968  0.66604878  0.51935647  1
  C  C19  1  0.33365040  0.66655378  0.31334350  1
  C  C20  1  0.33909592  0.66547717  0.81384259  1
  Ni  Ni21  1  0.71304985  0.99943173  0.74933126  1
  Ni  Ni22  1  0.37196710  0.04422952  0.58318001  1
  Ni  Ni23  1  0.95941510  0.62210672  0.08345811  1
  Cu  Cu24  1  0.28972374  0.00076219  0.25081387  1
  Cu  Cu25  1  0.71116066  0.71226955  0.25005861  1
  Cu  Cu26  1  0.00054394  0.28794531  0.25039142  1
  Cu  Cu27  1  0.28673044  0.29006754  0.75063496  1
  Cu  Cu28  1  0.99659334  0.70903164  0.75103183  1
  Cu  Cu29  1  0.95676682  0.33644070  0.58242687  1
  Cu  Cu30  1  0.66602705  0.61885087  0.58308063  1
  Cu  Cu31  1  0.66684468  0.04709474  0.08337546  1
  Cu  Cu32  1  0.37807889  0.33092259  0.08328383  1
  Cu  Cu33  1  0.62190904  0.66634573  0.91792674  1
  Cu  Cu34  1  0.04474466  0.37839278  0.91610134  1
  Cu  Cu35  1  0.33326020  0.95734643  0.91596980  1
  Cu  Cu36  1  0.62231658  0.95466136  0.41654396  1
  Cu  Cu37  1  0.33258521  0.37877228  0.41631035  1
  Cu  Cu38  1  0.04364744  0.66593331  0.41584519  1
  C  C39  1  0.19868940  0.02913588  0.30589698  1
  C  C40  1  0.83042749  0.80104529  0.30546403  1
  C  C41  1  0.97089462  0.17001195  0.30615753  1
  C  C42  1  0.20478388  0.16742536  0.80576147  1
  C  C43  1  0.97021886  0.79945242  0.80647094  1
  C  C44  1  0.83823970  0.03179812  0.80801860  1
  C  C45  1  0.79902254  0.96675419  0.68928507  1
  C  C46  1  0.17116277  0.20297654  0.69425245  1
  C  C47  1  0.03713305  0.83145607  0.69495989  1
  C  C48  1  0.79425559  0.82570333  0.19286546  1
  C  C49  1  0.03017134  0.20100253  0.19429993  1
  C  C50  1  0.17045607  0.96921005  0.19456840  1
  C  C51  1  0.87196069  0.36764488  0.63925963  1
  C  C52  1  0.50139722  0.13019945  0.64226208  1
  C  C53  1  0.63648649  0.50371121  0.63930888  1
  C  C54  1  0.86163298  0.49624955  0.14171667  1
  C  C55  1  0.63344490  0.13091323  0.13955986  1
  C  C56  1  0.49831822  0.36755272  0.13890520  1
  C  C57  1  0.46254978  0.29912249  0.02688464  1
  C  C58  1  0.82638793  0.53100783  0.02591036  1
  C  C59  1  0.69682118  0.16357891  0.02729243  1
  C  C60  1  0.47306642  0.17040949  0.52525544  1
  C  C61  1  0.69873646  0.53451474  0.52689648  1
  C  C62  1  0.83506445  0.29948936  0.52755415  1
  C  C63  1  0.53985296  0.69723314  0.97449184  1
  C  C64  1  0.16243980  0.46586202  0.97223902  1
  C  C65  1  0.30423614  0.83692368  0.97158036  1
  C  C66  1  0.53921796  0.84107285  0.47373381  1
  C  C67  1  0.30309031  0.46559687  0.47238801  1
  C  C68  1  0.16289387  0.69746540  0.47208271  1
  C  C69  1  0.13472760  0.63757364  0.36076392  1
  C  C70  1  0.50285840  0.86556694  0.36120791  1
  C  C71  1  0.36246613  0.49666983  0.36050219  1
  C  C72  1  0.13242455  0.49600870  0.86069611  1
  C  C73  1  0.36291863  0.87077035  0.85935171  1
  C  C74  1  0.50405938  0.63756607  0.86171366  1
  C  C75  1  0.02770273  0.83542788  0.40904604  1
  C  C76  1  0.80796137  0.97317005  0.40885275  1
  C  C77  1  0.16645169  0.19231629  0.40899975  1
  C  C78  1  0.02938602  0.19277951  0.91038484  1
  C  C79  1  0.16540191  0.97328808  0.90999288  1
  C  C80  1  0.80818353  0.83222209  0.90983167  1
  C  C81  1  0.96976988  0.16550201  0.58964950  1
  C  C82  1  0.17802275  0.02342234  0.59030467  1
  C  C83  1  0.83006909  0.80855365  0.58908789  1
  C  C84  1  0.97053533  0.81545111  0.09144851  1
  C  C85  1  0.83183120  0.02369924  0.09050260  1
  C  C86  1  0.19135880  0.16692806  0.09066609  1
  C  C87  1  0.68579093  0.17366567  0.74390248  1
  C  C88  1  0.47178942  0.30681251  0.74319696  1
  C  C89  1  0.83038671  0.52558990  0.74323406  1
  C  C90  1  0.69080841  0.52457671  0.24356510  1
  C  C91  1  0.83182844  0.30473294  0.24392801  1
  C  C92  1  0.47348442  0.16711934  0.24293605  1
  C  C93  1  0.63823684  0.49640974  0.92245308  1
  C  C94  1  0.85873437  0.35842969  0.92373280  1
  C  C95  1  0.50157902  0.14094614  0.92373992  1
  C  C96  1  0.64263184  0.14213278  0.42304241  1
  C  C97  1  0.50132237  0.36187336  0.42263402  1
  C  C98  1  0.86001252  0.49961639  0.42369641  1
  C  C99  1  0.36525500  0.50226349  0.07596806  1
  C  C100  1  0.15392027  0.64269437  0.07601046  1
  C  C101  1  0.50477668  0.85686941  0.07620112  1
  C  C102  1  0.36322742  0.85136879  0.57504747  1
  C  C103  1  0.50151226  0.64319790  0.57605365  1
  C  C104  1  0.14279034  0.50105872  0.57615100  1
  C  C105  1  0.30566260  0.83124932  0.25758728  1
  C  C106  1  0.52536526  0.69341972  0.25779868  1
  C  C107  1  0.16686076  0.47429170  0.25762707  1
  C  C108  1  0.30451261  0.47523198  0.75725182  1
  C  C109  1  0.16669284  0.69485884  0.75732183  1
  C  C110  1  0.51183301  0.82844735  0.75807519  1
