# generated using pymatgen
data_Cu(NiC4)2
_symmetry_space_group_name_H-M   'P 1'
_cell_length_a   6.57221862
_cell_length_b   6.59341316
_cell_length_c   6.59341246
_cell_angle_alpha   53.88129194
_cell_angle_beta   53.90670276
_cell_angle_gamma   53.90670406
_symmetry_Int_Tables_number   1
_chemical_formula_structural   Cu(NiC4)2
_chemical_formula_sum   'Cu1 Ni2 C8'
_cell_volume   173.22615423
_cell_formula_units_Z   1
loop_
 _symmetry_equiv_pos_site_id
 _symmetry_equiv_pos_as_xyz
  1  'x, y, z'
loop_
 _atom_site_type_symbol
 _atom_site_label
 _atom_site_symmetry_multiplicity
 _atom_site_fract_x
 _atom_site_fract_y
 _atom_site_fract_z
 _atom_site_occupancy
  Ni  Ni0  1  0.79919494  0.80032557  0.80032557  1
  Ni  Ni1  1  0.25977272  0.25833114  0.25833114  1
  Cu  Cu2  1  0.00833720  0.00762809  0.00762809  1
  C  C3  1  0.63206669  0.62554481  0.62554481  1
  C  C4  1  0.48018792  0.47953734  0.47953734  1
  C  C5  1  0.25128599  0.73794470  0.73794470  1
  C  C6  1  0.25326634  0.72008995  0.25598179  1
  C  C7  1  0.73957121  0.24757300  0.73751084  1
  C  C8  1  0.25326634  0.25598179  0.72008995  1
  C  C9  1  0.71889643  0.25453276  0.25453276  1
  C  C10  1  0.73957121  0.73751084  0.24757300  1
