# generated using pymatgen
data_Cu10Ni2C3
_symmetry_space_group_name_H-M   'P 1'
_cell_length_a   5.23702500
_cell_length_b   6.48110700
_cell_length_c   6.48110700
_cell_angle_alpha   90.00000000
_cell_angle_beta   90.00000000
_cell_angle_gamma   90.00000000
_symmetry_Int_Tables_number   1
_chemical_formula_structural   Cu10Ni2C3
_chemical_formula_sum   'Cu10 Ni2 C3'
_cell_volume   219.97991511
_cell_formula_units_Z   1
loop_
 _symmetry_equiv_pos_site_id
 _symmetry_equiv_pos_as_xyz
  1  'x, y, z'
loop_
 _atom_site_type_symbol
 _atom_site_label
 _atom_site_symmetry_multiplicity
 _atom_site_fract_x
 _atom_site_fract_y
 _atom_site_fract_z
 _atom_site_occupancy
  C  C0  1  0.00000000  0.25000000  0.75000000  1
  C  C1  1  0.42570600  0.75000000  0.75000000  1
  C  C2  1  0.57429400  0.25000000  0.25000000  1
  Ni  Ni3  1  0.50000000  0.75000000  0.25000000  1
  Ni  Ni4  1  0.50000000  0.25000000  0.75000000  1
  Cu  Cu5  1  0.67841200  0.25840200  0.92915200  1
  Cu  Cu6  1  0.66634200  0.56328600  0.25967800  1
  Cu  Cu7  1  0.24144800  0.25000000  0.25000000  1
  Cu  Cu8  1  0.75855200  0.75000000  0.75000000  1
  Cu  Cu9  1  0.66634200  0.93671400  0.24032200  1
  Cu  Cu10  1  0.67841200  0.24159800  0.57084800  1
  Cu  Cu11  1  0.33365800  0.75967800  0.43671400  1
  Cu  Cu12  1  0.32158800  0.07084800  0.75840200  1
  Cu  Cu13  1  0.32158800  0.42915200  0.74159800  1
  Cu  Cu14  1  0.33365800  0.74032200  0.06328600  1
