# generated using pymatgen
data_Cu2NiC11
_symmetry_space_group_name_H-M   'P 1'
_cell_length_a   5.90153267
_cell_length_b   5.88047188
_cell_length_c   6.14849725
_cell_angle_alpha   61.43183133
_cell_angle_beta   63.68553325
_cell_angle_gamma   60.11797953
_symmetry_Int_Tables_number   1
_chemical_formula_structural   Cu2NiC11
_chemical_formula_sum   'Cu2 Ni1 C11'
_cell_volume   156.48195141
_cell_formula_units_Z   1
loop_
 _symmetry_equiv_pos_site_id
 _symmetry_equiv_pos_as_xyz
  1  'x, y, z'
loop_
 _atom_site_type_symbol
 _atom_site_label
 _atom_site_symmetry_multiplicity
 _atom_site_fract_x
 _atom_site_fract_y
 _atom_site_fract_z
 _atom_site_occupancy
  Ni  Ni0  1  0.12500000  0.12500000  0.62500000  1
  C  C1  1  0.62500000  0.12500000  0.62500000  1
  C  C2  1  0.62500000  0.62500000  0.12500000  1
  C  C3  1  0.62500000  0.62500000  0.62500000  1
  Cu  Cu4  1  0.93486900  0.97991200  0.10530700  1
  Cu  Cu5  1  0.31513100  0.27008800  0.14469300  1
  C  C6  1  0.40728400  0.35903600  0.36122500  1
  C  C7  1  0.39580500  0.40625300  0.79168900  1
  C  C8  1  0.40728400  0.87245500  0.36122500  1
  C  C9  1  0.86927800  0.36862800  0.39346600  1
  C  C10  1  0.38072200  0.88137200  0.85653400  1
  C  C11  1  0.85419500  0.84374700  0.45831100  1
  C  C12  1  0.84271600  0.37754500  0.88877500  1
  C  C13  1  0.84271600  0.89096400  0.88877500  1
