# generated using pymatgen
data_Cu2NiC11
_symmetry_space_group_name_H-M   'P 1'
_cell_length_a   9.11655837
_cell_length_b   9.11655805
_cell_length_c   22.12700228
_cell_angle_alpha   90.00000000
_cell_angle_beta   90.00000000
_cell_angle_gamma   120.00000120
_symmetry_Int_Tables_number   1
_chemical_formula_structural   Cu2NiC11
_chemical_formula_sum   'Cu18 Ni9 C99'
_cell_volume   1592.63048947
_cell_formula_units_Z   9
loop_
 _symmetry_equiv_pos_site_id
 _symmetry_equiv_pos_as_xyz
  1  'x, y, z'
loop_
 _atom_site_type_symbol
 _atom_site_label
 _atom_site_symmetry_multiplicity
 _atom_site_fract_x
 _atom_site_fract_y
 _atom_site_fract_z
 _atom_site_occupancy
  C  C0  1  0.63195967  0.99892465  0.25138243  1
  C  C1  1  0.36696498  0.36804033  0.25138243  1
  C  C2  1  0.00107535  0.63303502  0.25138243  1
  C  C3  1  0.64531351  0.63067787  0.74211254  1
  C  C4  1  0.98536436  0.35468649  0.74211254  1
  C  C5  1  0.36932213  0.01463564  0.74211254  1
  C  C6  1  0.29483420  0.33503397  0.58097451  1
  C  C7  1  0.04020077  0.70516580  0.58097451  1
  C  C8  1  0.66496603  0.95979923  0.58097451  1
  C  C9  1  0.29371332  0.96212207  0.09167275  1
  C  C10  1  0.66840975  0.70628668  0.09167275  1
  C  C11  1  0.03787793  0.33159025  0.09167275  1
  C  C12  1  0.97369449  0.68173874  0.91511849  1
  C  C13  1  0.70804324  0.02630551  0.91511849  1
  C  C14  1  0.31826126  0.29195676  0.91511849  1
  C  C15  1  0.97871897  0.29642785  0.40817251  1
  C  C16  1  0.31770789  0.02128103  0.40817251  1
  C  C17  1  0.70357215  0.68229211  0.40817251  1
  C  C18  1  -0.00000000  -0.00000000  0.49648428  1
  C  C19  1  -0.00000000  -0.00000000  0.00601551  1
  C  C20  1  0.66666700  0.33333300  0.82567462  1
  C  C21  1  0.66666700  0.33333300  0.32379364  1
  C  C22  1  0.33333300  0.66666700  0.17254357  1
  C  C23  1  0.33333300  0.66666700  0.65554938  1
  C  C24  1  0.66666700  0.33333300  0.98338541  1
  C  C25  1  0.66666700  0.33333300  0.48269167  1
  C  C26  1  0.33333300  0.66666700  0.81569869  1
  Ni  Ni27  1  -0.00000000  -0.00000000  0.34078678  1
  Ni  Ni28  1  -0.00000000  -0.00000000  0.84313676  1
  Ni  Ni29  1  -0.00000000  -0.00000000  0.65138389  1
  Ni  Ni30  1  -0.00000000  -0.00000000  0.16068278  1
  Ni  Ni31  1  0.66666700  0.33333300  0.67637301  1
  Ni  Ni32  1  0.66666700  0.33333300  0.18246024  1
  Ni  Ni33  1  0.33333300  0.66666700  0.01762221  1
  Ni  Ni34  1  0.33333300  0.66666700  0.50902593  1
  Ni  Ni35  1  0.33333300  0.66666700  0.31837778  1
  Cu  Cu36  1  0.29843507  0.99952351  0.24971668  1
  Cu  Cu37  1  0.70108844  0.70156493  0.24971668  1
  Cu  Cu38  1  0.00047649  0.29891156  0.24971668  1
  Cu  Cu39  1  0.29552503  0.29561605  0.75104480  1
  Cu  Cu40  1  0.00009103  0.70447497  0.75104480  1
  Cu  Cu41  1  0.70438395  -0.00009103  0.75104480  1
  Cu  Cu42  1  0.96483213  0.33376524  0.58596624  1
  Cu  Cu43  1  0.36893411  0.03516787  0.58596624  1
  Cu  Cu44  1  0.66623476  0.63106589  0.58596624  1
  Cu  Cu45  1  0.96487627  0.62941981  0.08412151  1
  Cu  Cu46  1  0.66454454  0.03512373  0.08412151  1
  Cu  Cu47  1  0.37058019  0.33545546  0.08412151  1
  Cu  Cu48  1  0.62971419  0.66807099  0.91860900  1
  Cu  Cu49  1  0.03835580  0.37028581  0.91860900  1
  Cu  Cu50  1  0.33192901  0.96164420  0.91860900  1
  Cu  Cu51  1  0.62935914  0.96220057  0.41787571  1
  Cu  Cu52  1  0.33284042  0.37064086  0.41787571  1
  Cu  Cu53  1  0.03779943  0.66715958  0.41787571  1
  C  C54  1  0.21631519  0.02802835  0.30667470  1
  C  C55  1  0.81171316  0.78368481  0.30667470  1
  C  C56  1  0.97197165  0.18828684  0.30667470  1
  C  C57  1  0.21771653  0.19056460  0.80911218  1
  C  C58  1  0.97284807  0.78228347  0.80911218  1
  C  C59  1  0.80943540  0.02715193  0.80911218  1
  C  C60  1  0.77893684  0.96221793  0.69494569  1
  C  C61  1  0.18328110  0.22106316  0.69494569  1
  C  C62  1  0.03778207  0.81671890  0.69494569  1
  C  C63  1  0.78114487  0.81069462  0.19195351  1
  C  C64  1  0.02954975  0.21885513  0.19195351  1
  C  C65  1  0.18930538  0.97045025  0.19195351  1
  C  C66  1  0.88465587  0.36140344  0.64345448  1
  C  C67  1  0.47674857  0.11534413  0.64345448  1
  C  C68  1  0.63859656  0.52325143  0.64345448  1
  C  C69  1  0.88002550  0.51805122  0.13900591  1
  C  C70  1  0.63802673  0.11997450  0.13900591  1
  C  C71  1  0.48194878  0.36197327  0.13900591  1
  C  C72  1  0.46354594  0.31384669  0.02559352  1
  C  C73  1  0.85030175  0.53645406  0.02559352  1
  C  C74  1  0.68615331  0.14969825  0.02559352  1
  C  C75  1  0.46540146  0.15196882  0.53055003  1
  C  C76  1  0.68656836  0.53459854  0.53055003  1
  C  C77  1  0.84803118  0.31343164  0.53055003  1
  C  C78  1  0.54683276  0.69339683  0.97388352  1
  C  C79  1  0.14656307  0.45316724  0.97388352  1
  C  C80  1  0.30660317  0.85343693  0.97388352  1
  C  C81  1  0.55128780  0.85678358  0.47595192  1
  C  C82  1  0.30549478  0.44871220  0.47595192  1
  C  C83  1  0.14321642  0.69450522  0.47595192  1
  C  C84  1  0.11187961  0.62885263  0.36185461  1
  C  C85  1  0.51697202  0.88812039  0.36185461  1
  C  C86  1  0.37114737  0.48302798  0.36185461  1
  C  C87  1  0.12397828  0.48538719  0.86139010  1
  C  C88  1  0.36140791  0.87602172  0.86139010  1
  C  C89  1  0.51461281  0.63859209  0.86139010  1
  C  C90  1  0.01199124  0.82212879  0.41298826  1
  C  C91  1  0.81013755  0.98800876  0.41298826  1
  C  C92  1  0.17787121  0.18986245  0.41298826  1
  C  C93  1  0.01273631  0.19063161  0.91112655  1
  C  C94  1  0.17789530  0.98726369  0.91112655  1
  C  C95  1  0.80936839  0.82210470  0.91112655  1
  C  C96  1  0.97444400  0.16889456  0.58646462  1
  C  C97  1  0.19445056  0.02555600  0.58646462  1
  C  C98  1  0.83110544  0.80554944  0.58646462  1
  C  C99  1  0.97565780  0.80413844  0.08380690  1
  C  C100  1  0.82848064  0.02434220  0.08380690  1
  C  C101  1  0.19586156  0.17151936  0.08380690  1
  C  C102  1  0.67866002  0.15522636  0.74660064  1
  C  C103  1  0.47656734  0.32133998  0.74660064  1
  C  C104  1  0.84477364  0.52343266  0.74660064  1
  C  C105  1  0.68400055  0.52315556  0.24599126  1
  C  C106  1  0.83915600  0.31599945  0.24599126  1
  C  C107  1  0.47684444  0.16084400  0.24599126  1
  C  C108  1  0.64210552  0.50098913  0.92027008  1
  C  C109  1  0.85888461  0.35789448  0.92027008  1
  C  C110  1  0.49901087  0.14111539  0.92027008  1
  C  C111  1  0.64841157  0.14507484  0.42498047  1
  C  C112  1  0.49666426  0.35158843  0.42498047  1
  C  C113  1  0.85492516  0.50333574  0.42498047  1
  C  C114  1  0.35267339  0.49451860  0.07759793  1
  C  C115  1  0.14184422  0.64732661  0.07759793  1
  C  C116  1  0.50548140  0.85815578  0.07759793  1
  C  C117  1  0.35121883  0.85804922  0.57966106  1
  C  C118  1  0.50682939  0.64878117  0.57966106  1
  C  C119  1  0.14195078  0.49317061  0.57966106  1
  C  C120  1  0.31547294  0.83824635  0.25426594  1
  C  C121  1  0.52277241  0.68452706  0.25426594  1
  C  C122  1  0.16175365  0.47722759  0.25426594  1
  C  C123  1  0.31451393  0.47846480  0.75788023  1
  C  C124  1  0.16394987  0.68548607  0.75788023  1
  C  C125  1  0.52153520  0.83605013  0.75788023  1
