# generated using pymatgen
data_Cu2Ni4C7
_symmetry_space_group_name_H-M   'P 1'
_cell_length_a   3.34202600
_cell_length_b   3.34198692
_cell_length_c   44.97624443
_cell_angle_alpha   89.98638068
_cell_angle_beta   89.99906571
_cell_angle_gamma   120.00027586
_symmetry_Int_Tables_number   1
_chemical_formula_structural   Cu2Ni4C7
_chemical_formula_sum   'Cu2 Ni4 C7'
_cell_volume   435.03797241
_cell_formula_units_Z   1
loop_
 _symmetry_equiv_pos_site_id
 _symmetry_equiv_pos_as_xyz
  1  'x, y, z'
loop_
 _atom_site_type_symbol
 _atom_site_label
 _atom_site_symmetry_multiplicity
 _atom_site_fract_x
 _atom_site_fract_y
 _atom_site_fract_z
 _atom_site_occupancy
  C  C0  1  0.99996300  0.99956500  0.38625000  1
  C  C1  1  0.66674800  0.33343600  0.05110900  1
  C  C2  1  0.66658300  0.33318800  0.13540000  1
  C  C3  1  0.33334700  0.66666500  0.09325600  1
  C  C4  1  0.33331000  0.66670900  0.47543500  1
  C  C5  1  0.66676300  0.33354100  0.27491500  1
  C  C6  1  0.66660600  0.33325800  0.65762900  1
  Ni  Ni7  1  0.33337800  0.66678900  0.31232300  1
  Ni  Ni8  1  0.33320300  0.66647600  0.69486300  1
  Ni  Ni9  1  0.33348800  0.66696800  0.23773500  1
  Ni  Ni10  1  0.33333100  0.66668100  0.62036800  1
  Cu  Cu11  1  0.66672300  0.33353600  0.44086100  1
  Cu  Cu12  1  0.66655600  0.33318800  0.50881200  1
