# generated using pymatgen
data_Cu2NiC15
_symmetry_space_group_name_H-M   'P 1'
_cell_length_a   8.78685754
_cell_length_b   8.75806391
_cell_length_c   23.07211034
_cell_angle_alpha   90.27057884
_cell_angle_beta   90.00000000
_cell_angle_gamma   120.10881501
_symmetry_Int_Tables_number   1
_chemical_formula_structural   Cu2NiC15
_chemical_formula_sum   'Cu12 Ni6 C90'
_cell_volume   1535.94593833
_cell_formula_units_Z   6
loop_
 _symmetry_equiv_pos_site_id
 _symmetry_equiv_pos_as_xyz
  1  'x, y, z'
loop_
 _atom_site_type_symbol
 _atom_site_label
 _atom_site_symmetry_multiplicity
 _atom_site_fract_x
 _atom_site_fract_y
 _atom_site_fract_z
 _atom_site_occupancy
  C  C0  1  0.98963898  0.99239216  0.50493408  1
  C  C1  1  0.00275319  0.99239216  0.00493408  1
  C  C2  1  0.66155629  0.32265374  0.83829345  1
  C  C3  1  0.66109844  0.32265374  0.33829345  1
  C  C4  1  0.32785882  0.67140498  0.17167509  1
  C  C5  1  0.34354515  0.67140498  0.67167509  1
  C  C6  1  0.00263839  0.00088223  0.35303783  1
  C  C7  1  0.99824384  0.00088223  0.85303783  1
  C  C8  1  0.66577152  0.33315247  0.68638002  1
  C  C9  1  0.66738196  0.33315247  0.18638002  1
  C  C10  1  0.32345186  0.67323786  0.01980897  1
  C  C11  1  0.34978500  0.67323786  0.51980897  1
  C  C12  1  0.97781791  0.98665143  0.64917697  1
  C  C13  1  0.00883352  0.98665143  0.14917697  1
  C  C14  1  0.66516881  0.33399911  0.98281607  1
  C  C15  1  0.66883131  0.33399911  0.48281607  1
  C  C16  1  0.33948852  0.68864288  0.31588514  1
  C  C17  1  0.34915336  0.68864288  0.81588514  1
  Ni  Ni18  1  0.28984335  0.99537311  0.24875984  1
  Ni  Ni19  1  0.70552975  0.99537311  0.74875984  1
  Ni  Ni20  1  0.67408449  0.62410081  0.58147028  1
  Ni  Ni21  1  0.95001733  0.62410081  0.08147028  1
  Ni  Ni22  1  0.33993480  0.96600048  0.91516743  1
  Ni  Ni23  1  0.62606468  0.96600048  0.41516743  1
  Cu  Cu24  1  0.70581599  0.71055086  0.24876602  1
  Cu  Cu25  1  0.00516009  0.29274826  0.24858430  1
  Cu  Cu26  1  0.28758817  0.29274826  0.74858430  1
  Cu  Cu27  1  0.00473487  0.71055086  0.74876602  1
  Cu  Cu28  1  0.95858520  0.33168751  0.58206641  1
  Cu  Cu29  1  0.37070379  0.04383963  0.58242170  1
  Cu  Cu30  1  0.67313684  0.04383963  0.08242170  1
  Cu  Cu31  1  0.37310332  0.33168751  0.08206641  1
  Cu  Cu32  1  0.62082470  0.66205297  0.91589881  1
  Cu  Cu33  1  0.04204339  0.37909681  0.91473879  1
  Cu  Cu34  1  0.33705243  0.37909681  0.41473879  1
  Cu  Cu35  1  0.04122727  0.66205297  0.41589881  1
  C  C36  1  0.20331120  0.02774581  0.30389973  1
  C  C37  1  0.81809762  0.79116664  0.30193218  1
  C  C38  1  0.97167328  0.18050334  0.30192454  1
  C  C39  1  0.20883006  0.18050334  0.80192454  1
  C  C40  1  0.97306903  0.79116664  0.80193218  1
  C  C41  1  0.82443461  0.02774581  0.80389973  1
  C  C42  1  0.79061857  0.97334628  0.69529197  1
  C  C43  1  0.18649933  0.21016904  0.69644660  1
  C  C44  1  0.03041586  0.81519061  0.69718379  1
  C  C45  1  0.78477475  0.81519061  0.19718379  1
  C  C46  1  0.02366970  0.21016904  0.19644660  1
  C  C47  1  0.18272770  0.97334628  0.19529197  1
  C  C48  1  0.87568503  0.36068063  0.63532932  1
  C  C49  1  0.48499105  0.12277091  0.63550205  1
  C  C50  1  0.64044208  0.50769758  0.63689769  1
  C  C51  1  0.86725649  0.50769758  0.13689769  1
  C  C52  1  0.63778085  0.12277091  0.13550205  1
  C  C53  1  0.48499660  0.36068063  0.13532932  1
  C  C54  1  0.45193043  0.30466137  0.03053927  1
  C  C55  1  0.84467891  0.53722899  0.02736467  1
  C  C56  1  0.69352769  0.14518078  0.03057843  1
  C  C57  1  0.45165410  0.14518078  0.53057843  1
  C  C58  1  0.69255108  0.53722899  0.52736467  1
  C  C59  1  0.85273194  0.30466137  0.53053927  1
  C  C60  1  0.54152783  0.69334500  0.96898808  1
  C  C61  1  0.15348643  0.45744563  0.96847990  1
  C  C62  1  0.30580447  0.84496663  0.97019116  1
  C  C63  1  0.53916116  0.84496663  0.47019116  1
  C  C64  1  0.30395820  0.45744563  0.46847990  1
  C  C65  1  0.15181617  0.69334500  0.46898808  1
  C  C66  1  0.11907874  0.63697978  0.36375305  1
  C  C67  1  0.51739316  0.87895046  0.36216193  1
  C  C68  1  0.35628721  0.48081362  0.36306857  1
  C  C69  1  0.12452542  0.48081362  0.86306857  1
  C  C70  1  0.36155630  0.87895046  0.86216193  1
  C  C71  1  0.51790004  0.63697978  0.86375305  1
  C  C72  1  0.02752988  0.82831676  0.41034433  1
  C  C73  1  0.81019609  0.97689669  0.40910368  1
  C  C74  1  0.17118991  0.19885906  0.41054091  1
  C  C75  1  0.02766914  0.19885906  0.91054091  1
  C  C76  1  0.16670059  0.97689669  0.90910368  1
  C  C77  1  0.80078688  0.82831676  0.91034433  1
  C  C78  1  0.98423903  0.18004433  0.58996835  1
  C  C79  1  0.19657180  0.02276872  0.59147325  1
  C  C80  1  0.83205849  0.80956840  0.58827317  1
  C  C81  1  0.97750991  0.80956840  0.08827317  1
  C  C82  1  0.82619693  0.02276872  0.09147325  1
  C  C83  1  0.19580530  0.18004433  0.08996835  1
  C  C84  1  0.69145345  0.16772035  0.74265660  1
  C  C85  1  0.46741637  0.30716238  0.74389190  1
  C  C86  1  0.83765792  0.53223672  0.74362791  1
  C  C87  1  0.69457980  0.53223672  0.24362791  1
  C  C88  1  0.83974702  0.30716238  0.24389190  1
  C  C89  1  0.47626790  0.16772035  0.24265660  1
  C  C90  1  0.64735328  0.51062820  0.92274837  1
  C  C91  1  0.86613730  0.35474572  0.92269607  1
  C  C92  1  0.50015584  0.14884378  0.92479826  1
  C  C93  1  0.64868894  0.14884378  0.42479826  1
  C  C94  1  0.48860943  0.35474572  0.42269607  1
  C  C95  1  0.86327592  0.51062820  0.42274837  1
  C  C96  1  0.36280258  0.49812956  0.07667990  1
  C  C97  1  0.13777856  0.63832209  0.07683514  1
  C  C98  1  0.50815724  0.86333234  0.07716821  1
  C  C99  1  0.35517410  0.86333234  0.57716821  1
  C  C100  1  0.50054253  0.63832209  0.57683514  1
  C  C101  1  0.13532598  0.49812956  0.57667990  1
  C  C102  1  0.31224267  0.83452056  0.25538916  1
  C  C103  1  0.52842601  0.68214255  0.25669659  1
  C  C104  1  0.15837926  0.46845138  0.25769409  1
  C  C105  1  0.31007112  0.46845138  0.75769409  1
  C  C106  1  0.15371553  0.68214255  0.75669659  1
  C  C107  1  0.52227689  0.83452056  0.75538916  1
