# generated using pymatgen
data_Cu4NiC36
_symmetry_space_group_name_H-M   'P 1'
_cell_length_a   8.13820406
_cell_length_b   8.05432979
_cell_length_c   8.40397905
_cell_angle_alpha   89.13106793
_cell_angle_beta   90.12805970
_cell_angle_gamma   91.80942947
_symmetry_Int_Tables_number   1
_chemical_formula_structural   Cu4NiC36
_chemical_formula_sum   'Cu4 Ni1 C36'
_cell_volume   550.52332660
_cell_formula_units_Z   1
loop_
 _symmetry_equiv_pos_site_id
 _symmetry_equiv_pos_as_xyz
  1  'x, y, z'
loop_
 _atom_site_type_symbol
 _atom_site_label
 _atom_site_symmetry_multiplicity
 _atom_site_fract_x
 _atom_site_fract_y
 _atom_site_fract_z
 _atom_site_occupancy
  C  C0  1  0.72904000  0.52836400  0.50005100  1
  C  C1  1  0.24129700  0.51784400  0.50354100  1
  C  C2  1  0.69219700  0.00521300  0.50513300  1
  C  C3  1  0.26792700  0.02060300  0.49776300  1
  C  C4  1  0.74638400  0.46334200  0.97896500  1
  C  C5  1  0.30235200  0.48279100  0.98128100  1
  C  C6  1  0.27212400  0.96526500  0.99312600  1
  C  C7  1  0.77407500  0.98085900  0.00084700  1
  Ni  Ni8  1  0.03172900  0.61861300  0.16760500  1
  Cu  Cu9  1  0.99268400  0.22687500  0.70529400  1
  Cu  Cu10  1  0.96833700  0.88477400  0.34146600  1
  Cu  Cu11  1  0.50369300  0.24794600  0.24574000  1
  Cu  Cu12  1  0.50479200  0.74721100  0.74978900  1
  C  C13  1  0.00398200  0.25636200  0.25780800  1
  C  C14  1  0.00071300  0.74452200  0.74933700  1
  C  C15  1  0.49949200  0.24478900  0.74430600  1
  C  C16  1  0.50339100  0.74413700  0.24124700  1
  C  C17  1  0.03740000  0.02149000  0.16641000  1
  C  C18  1  0.03054600  0.98438600  0.79182300  1
  C  C19  1  0.02902800  0.38959800  0.05447600  1
  C  C20  1  0.94210900  0.71674900  0.97232400  1
  C  C21  1  0.97672900  0.48022700  0.35339300  1
  C  C22  1  0.97002800  0.50659600  0.71058500  1
  C  C23  1  0.97461300  0.13390600  0.47681100  1
  C  C24  1  0.06536200  0.78159700  0.52300500  1
  C  C25  1  0.76662300  0.22252000  0.21390800  1
  C  C26  1  0.23521500  0.71415000  0.79006900  1
  C  C27  1  0.73954000  0.21737400  0.77275500  1
  C  C28  1  0.25840500  0.70161300  0.19664900  1
  C  C29  1  0.76930500  0.77722800  0.69737600  1
  C  C30  1  0.24322200  0.27153700  0.29579000  1
  C  C31  1  0.47214100  0.98538700  0.26120400  1
  C  C32  1  0.46977300  0.00477300  0.72582000  1
  C  C33  1  0.47495700  0.22956200  0.97575800  1
  C  C34  1  0.53581400  0.76727200  0.99924500  1
  C  C35  1  0.52963100  0.26216400  0.51382500  1
  C  C36  1  0.47430400  0.73049500  0.48496300  1
  C  C37  1  0.54015700  0.50600000  0.22209500  1
  C  C38  1  0.53059800  0.48593600  0.75945100  1
  C  C39  1  0.75479600  0.78402400  0.28739800  1
  C  C40  1  0.26216400  0.27090600  0.71656600  1
