# generated using pymatgen
data_Cu2Ni4C5
_symmetry_space_group_name_H-M   'P 1'
_cell_length_a   5.98093700
_cell_length_b   8.77016000
_cell_length_c   14.60488900
_cell_angle_alpha   90.00000000
_cell_angle_beta   90.00000000
_cell_angle_gamma   90.00000000
_symmetry_Int_Tables_number   1
_chemical_formula_structural   Cu2Ni4C5
_chemical_formula_sum   'Cu8 Ni16 C20'
_cell_volume   766.08155333
_cell_formula_units_Z   4
loop_
 _symmetry_equiv_pos_site_id
 _symmetry_equiv_pos_as_xyz
  1  'x, y, z'
loop_
 _atom_site_type_symbol
 _atom_site_label
 _atom_site_symmetry_multiplicity
 _atom_site_fract_x
 _atom_site_fract_y
 _atom_site_fract_z
 _atom_site_occupancy
  Ni  Ni0  1  0.99062800  0.63957700  0.08154800  1
  Ni  Ni1  1  0.49062800  0.86042300  0.41845200  1
  Ni  Ni2  1  0.00937200  0.63957700  0.41845200  1
  Ni  Ni3  1  0.50937200  0.86042300  0.08154800  1
  Ni  Ni4  1  0.99062800  0.36042300  0.58154800  1
  Ni  Ni5  1  0.00937200  0.36042300  0.91845200  1
  Ni  Ni6  1  0.50000000  0.93284200  0.75000000  1
  Ni  Ni7  1  0.00000000  0.56715800  0.75000000  1
  Ni  Ni8  1  0.50000000  0.06715800  0.25000000  1
  Ni  Ni9  1  0.00000000  0.43284200  0.25000000  1
  Ni  Ni10  1  0.25000000  0.75000000  0.24772800  1
  Ni  Ni11  1  0.75000000  0.75000000  0.25227200  1
  Ni  Ni12  1  0.75000000  0.25000000  0.75227200  1
  Ni  Ni13  1  0.25000000  0.25000000  0.74772800  1
  Ni  Ni14  1  0.50937200  0.13957700  0.58154800  1
  Ni  Ni15  1  0.49062800  0.13957700  0.91845200  1
  Cu  Cu16  1  0.50992800  0.58378100  0.61122800  1
  Cu  Cu17  1  0.00992800  0.91621900  0.88877200  1
  Cu  Cu18  1  0.49007200  0.58378100  0.88877200  1
  Cu  Cu19  1  0.99007200  0.91621900  0.61122800  1
  Cu  Cu20  1  0.49007200  0.41621900  0.38877200  1
  Cu  Cu21  1  0.99007200  0.08378100  0.11122800  1
  Cu  Cu22  1  0.50992800  0.41621900  0.11122800  1
  Cu  Cu23  1  0.00992800  0.08378100  0.38877200  1
  C  C24  1  0.63046100  0.91296600  0.61570100  1
  C  C25  1  0.13046100  0.58703400  0.88429900  1
  C  C26  1  0.36953900  0.91296600  0.88429900  1
  C  C27  1  0.86953900  0.58703400  0.61570100  1
  C  C28  1  0.36953900  0.08703400  0.38429900  1
  C  C29  1  0.86953900  0.41296600  0.11570100  1
  C  C30  1  0.63046100  0.08703400  0.11570100  1
  C  C31  1  0.13046100  0.41296600  0.38429900  1
  C  C32  1  0.45631400  0.63013000  0.04273900  1
  C  C33  1  0.95631400  0.86987000  0.45726100  1
  C  C34  1  0.45631400  0.36987000  0.54273900  1
  C  C35  1  0.95631400  0.13013000  0.95726100  1
  C  C36  1  0.54368600  0.36987000  0.95726100  1
  C  C37  1  0.04368600  0.13013000  0.54273900  1
  C  C38  1  0.50000000  0.56342000  0.25000000  1
  C  C39  1  0.00000000  0.93658000  0.25000000  1
  C  C40  1  0.50000000  0.43658000  0.75000000  1
  C  C41  1  0.04368600  0.86987000  0.04273900  1
  C  C42  1  0.00000000  0.06342000  0.75000000  1
  C  C43  1  0.54368600  0.63013000  0.45726100  1
