# generated using pymatgen
data_Cu(NiC)5
_symmetry_space_group_name_H-M   'P 1'
_cell_length_a   7.40059000
_cell_length_b   9.55290300
_cell_length_c   13.97823300
_cell_angle_alpha   90.00000000
_cell_angle_beta   90.00000000
_cell_angle_gamma   90.00000000
_symmetry_Int_Tables_number   1
_chemical_formula_structural   Cu(NiC)5
_chemical_formula_sum   'Cu4 Ni20 C20'
_cell_volume   988.22079360
_cell_formula_units_Z   4
loop_
 _symmetry_equiv_pos_site_id
 _symmetry_equiv_pos_as_xyz
  1  'x, y, z'
loop_
 _atom_site_type_symbol
 _atom_site_label
 _atom_site_symmetry_multiplicity
 _atom_site_fract_x
 _atom_site_fract_y
 _atom_site_fract_z
 _atom_site_occupancy
  C  C0  1  0.13364700  0.99742900  0.35144600  1
  C  C1  1  0.63364700  0.00257100  0.14855400  1
  C  C2  1  0.86635300  0.49742900  0.64855400  1
  C  C3  1  0.36635300  0.50257100  0.85144600  1
  C  C4  1  0.63364700  0.49742900  0.14855400  1
  C  C5  1  0.13364700  0.50257100  0.35144600  1
  C  C6  1  0.36635300  0.99742900  0.85144600  1
  C  C7  1  0.86635300  0.00257100  0.64855400  1
  C  C8  1  0.18933600  0.75000000  0.10956500  1
  C  C9  1  0.68933600  0.25000000  0.39043500  1
  C  C10  1  0.81066400  0.25000000  0.89043500  1
  C  C11  1  0.31066400  0.75000000  0.60956500  1
  C  C12  1  0.46011000  0.16612200  0.53475800  1
  C  C13  1  0.96011000  0.83387800  0.96524200  1
  C  C14  1  0.53989000  0.66612200  0.46524200  1
  C  C15  1  0.03989000  0.33387800  0.03475800  1
  C  C16  1  0.53989000  0.83387800  0.46524200  1
  C  C17  1  0.03989000  0.16612200  0.03475800  1
  C  C18  1  0.46011000  0.33387800  0.53475800  1
  C  C19  1  0.96011000  0.66612200  0.96524200  1
  Ni  Ni20  1  0.92500200  0.75000000  0.20999500  1
  Ni  Ni21  1  0.42500200  0.25000000  0.29000500  1
  Ni  Ni22  1  0.07499800  0.25000000  0.79000500  1
  Ni  Ni23  1  0.57499800  0.75000000  0.70999500  1
  Ni  Ni24  1  0.37891600  0.75000000  0.24691100  1
  Ni  Ni25  1  0.87891600  0.25000000  0.25308900  1
  Ni  Ni26  1  0.62108400  0.25000000  0.75308900  1
  Ni  Ni27  1  0.12108400  0.75000000  0.74691100  1
  Ni  Ni28  1  0.45654900  0.75000000  0.00814100  1
  Ni  Ni29  1  0.95654900  0.25000000  0.49185900  1
  Ni  Ni30  1  0.54345100  0.25000000  0.99185900  1
  Ni  Ni31  1  0.04345100  0.75000000  0.50814100  1
  Ni  Ni32  1  0.18680800  0.00112900  0.10176200  1
  Ni  Ni33  1  0.68680800  0.99887100  0.39823800  1
  Ni  Ni34  1  0.81319200  0.50112900  0.89823800  1
  Ni  Ni35  1  0.31319200  0.49887100  0.60176200  1
  Ni  Ni36  1  0.81319200  0.99887100  0.89823800  1
  Ni  Ni37  1  0.31319200  0.00112900  0.60176200  1
  Ni  Ni38  1  0.18680800  0.49887100  0.10176200  1
  Ni  Ni39  1  0.68680800  0.50112900  0.39823800  1
  Cu  Cu40  1  0.47352900  0.75000000  0.48753500  1
  Cu  Cu41  1  0.97352900  0.25000000  0.01246500  1
  Cu  Cu42  1  0.52647100  0.25000000  0.51246500  1
  Cu  Cu43  1  0.02647100  0.75000000  0.98753500  1
