# generated using pymatgen
data_Cu2NiC12
_symmetry_space_group_name_H-M   'P 1'
_cell_length_a   6.31913037
_cell_length_b   6.31913037
_cell_length_c   6.06472193
_cell_angle_alpha   61.32308947
_cell_angle_beta   61.32308947
_cell_angle_gamma   58.13537059
_symmetry_Int_Tables_number   1
_chemical_formula_structural   Cu2NiC12
_chemical_formula_sum   'Cu2 Ni1 C12'
_cell_volume   171.90647884
_cell_formula_units_Z   1
loop_
 _symmetry_equiv_pos_site_id
 _symmetry_equiv_pos_as_xyz
  1  'x, y, z'
loop_
 _atom_site_type_symbol
 _atom_site_label
 _atom_site_symmetry_multiplicity
 _atom_site_fract_x
 _atom_site_fract_y
 _atom_site_fract_z
 _atom_site_occupancy
  Ni  Ni0  1  0.52410700  0.52410700  0.97589300  1
  C  C1  1  0.87239400  0.38269200  0.37245700  1
  C  C2  1  0.38269200  0.87239400  0.37245700  1
  C  C3  1  0.32817500  0.32817500  0.88945700  1
  C  C4  1  0.32817500  0.32817500  0.45419300  1
  Cu  Cu5  1  0.80829400  0.80829400  0.69170600  1
  Cu  Cu6  1  0.97448100  0.97448100  0.02551900  1
  C  C7  1  0.57921700  0.13647600  0.14215400  1
  C  C8  1  0.13647600  0.57921700  0.14215400  1
  C  C9  1  0.11099600  0.11099600  0.61723700  1
  C  C10  1  0.11099600  0.11099600  0.16077100  1
  C  C11  1  0.18557000  0.63041600  0.59200700  1
  C  C12  1  0.63041600  0.18557000  0.59200700  1
  C  C13  1  0.64942200  0.64942200  0.11075300  1
  C  C14  1  0.64942200  0.64942200  0.59040400  1
