# generated using pymatgen
data_Cu5(NiC)7
_symmetry_space_group_name_H-M   'P 1'
_cell_length_a   5.07107613
_cell_length_b   7.69759246
_cell_length_c   5.92628481
_cell_angle_alpha   100.89982623
_cell_angle_beta   101.30974253
_cell_angle_gamma   82.10718830
_symmetry_Int_Tables_number   1
_chemical_formula_structural   Cu5(NiC)7
_chemical_formula_sum   'Cu5 Ni7 C7'
_cell_volume   221.53821022
_cell_formula_units_Z   1
loop_
 _symmetry_equiv_pos_site_id
 _symmetry_equiv_pos_as_xyz
  1  'x, y, z'
loop_
 _atom_site_type_symbol
 _atom_site_label
 _atom_site_symmetry_multiplicity
 _atom_site_fract_x
 _atom_site_fract_y
 _atom_site_fract_z
 _atom_site_occupancy
  C  C0  1  0.48466819  0.34995664  0.33353831  1
  C  C1  1  0.57302901  0.01037803  0.48957217  1
  C  C2  1  0.48717636  0.33589137  0.83843853  1
  C  C3  1  0.58439483  0.68946645  0.11021297  1
  C  C4  1  0.98900406  0.67368869  0.68323351  1
  C  C5  1  0.99009060  0.32159145  0.34378415  1
  C  C6  1  0.94294074  0.00244496  0.02139510  1
  Ni  Ni7  1  0.80228782  0.77248541  0.95477743  1
  Ni  Ni8  1  0.78220638  0.11826820  0.29328373  1
  Ni  Ni9  1  0.72563453  0.76888258  0.44732317  1
  Ni  Ni10  1  0.69389775  0.11352854  0.81059360  1
  Ni  Ni11  1  0.68165245  0.43714565  0.12808862  1
  Ni  Ni12  1  0.29827377  0.56337156  0.86049158  1
  Ni  Ni13  1  0.32429583  0.22821935  0.53922250  1
  Cu  Cu14  1  0.77342328  0.44422759  0.60712715  1
  Cu  Cu15  1  0.30104422  0.89982838  0.20995025  1
  Cu  Cu16  1  0.21092918  0.23267268  0.07223023  1
  Cu  Cu17  1  0.15441518  0.89834929  0.75976433  1
  Cu  Cu18  1  0.18674381  0.53960017  0.38983167  1
