# generated using pymatgen
data_CuNiC18
_symmetry_space_group_name_H-M   'P 1'
_cell_length_a   15.08950624
_cell_length_b   8.76136994
_cell_length_c   8.83026805
_cell_angle_alpha   90.00000000
_cell_angle_beta   125.37520074
_cell_angle_gamma   90.00000000
_symmetry_Int_Tables_number   1
_chemical_formula_structural   CuNiC18
_chemical_formula_sum   'Cu4 Ni4 C72'
_cell_volume   951.87553061
_cell_formula_units_Z   4
loop_
 _symmetry_equiv_pos_site_id
 _symmetry_equiv_pos_as_xyz
  1  'x, y, z'
loop_
 _atom_site_type_symbol
 _atom_site_label
 _atom_site_symmetry_multiplicity
 _atom_site_fract_x
 _atom_site_fract_y
 _atom_site_fract_z
 _atom_site_occupancy
  C  C0  1  0.25093279  0.72895293  0.99509105  1
  C  C1  1  0.75093279  0.77104707  0.49509105  1
  C  C2  1  0.75093279  0.22895293  0.99509105  1
  C  C3  1  0.25093279  0.27104707  0.49509105  1
  C  C4  1  0.50469925  0.11472721  0.75685872  1
  C  C5  1  0.50469925  0.88527279  0.25685872  1
  C  C6  1  0.00469925  0.61472721  0.75685872  1
  C  C7  1  0.00469925  0.38527279  0.25685872  1
  C  C8  1  0.18669077  0.93654736  0.27822424  1
  C  C9  1  0.18669077  0.06345264  0.77822424  1
  C  C10  1  0.68669077  0.43654736  0.27822424  1
  C  C11  1  0.68669077  0.56345264  0.77822424  1
  C  C12  1  0.10533262  0.74157635  0.56217986  1
  C  C13  1  0.10533262  0.25842365  0.06217986  1
  C  C14  1  0.60533262  0.24157635  0.56217986  1
  C  C15  1  0.60533262  0.75842365  0.06217986  1
  Ni  Ni16  1  0.64646443  0.89206132  0.74880001  1
  Ni  Ni17  1  0.64646443  0.10793868  0.24880001  1
  Ni  Ni18  1  0.14646443  0.39206132  0.74880001  1
  Ni  Ni19  1  0.14646443  0.60793868  0.24880001  1
  Cu  Cu20  1  0.89708416  0.75892026  0.93934180  1
  Cu  Cu21  1  0.89708416  0.24107974  0.43934180  1
  Cu  Cu22  1  0.39708416  0.25892026  0.93934180  1
  Cu  Cu23  1  0.39708416  0.74107974  0.43934180  1
  C  C24  1  0.99610514  0.96253090  0.75434311  1
  C  C25  1  0.99610514  0.03746910  0.25434311  1
  C  C26  1  0.49610514  0.46253090  0.75434311  1
  C  C27  1  0.49610514  0.53746910  0.25434311  1
  C  C28  1  0.35535330  0.89522222  0.75631129  1
  C  C29  1  0.35535330  0.10477778  0.25631129  1
  C  C30  1  0.85535330  0.39522222  0.75631129  1
  C  C31  1  0.85535330  0.60477778  0.25631129  1
  C  C32  1  0.15032126  0.57629643  0.73785629  1
  C  C33  1  0.85205429  0.57516350  0.76135760  1
  C  C34  1  0.85205429  0.42483650  0.26135760  1
  C  C35  1  0.15032126  0.42370357  0.23785629  1
  C  C36  1  0.65032126  0.07629643  0.73785629  1
  C  C37  1  0.35205429  0.07516350  0.76135760  1
  C  C38  1  0.35205429  0.92483650  0.26135760  1
  C  C39  1  0.65032126  0.92370357  0.23785629  1
  C  C40  1  0.42573524  0.56230797  0.57679079  1
  C  C41  1  0.56581229  0.55597868  0.93225711  1
  C  C42  1  0.56581229  0.44402132  0.43225711  1
  C  C43  1  0.42573524  0.43769203  0.07679079  1
  C  C44  1  0.92573524  0.06230797  0.57679079  1
  C  C45  1  0.06581229  0.05597868  0.93225711  1
  C  C46  1  0.06581229  0.94402132  0.43225711  1
  C  C47  1  0.92573524  0.93769203  0.07679079  1
  C  C48  1  0.25364847  0.83806671  0.73974252  1
  C  C49  1  0.74983701  0.80396836  0.76673950  1
  C  C50  1  0.74983701  0.19603164  0.26673950  1
  C  C51  1  0.25364847  0.16193329  0.23974252  1
  C  C52  1  0.75364847  0.33806671  0.73974252  1
  C  C53  1  0.24983701  0.30396836  0.76673950  1
  C  C54  1  0.24983701  0.69603164  0.26673950  1
  C  C55  1  0.75364847  0.66193329  0.23974252  1
  C  C56  1  0.35702967  0.86498063  0.58267656  1
  C  C57  1  0.64118817  0.85423725  0.91996341  1
  C  C58  1  0.64118817  0.14576275  0.41996341  1
  C  C59  1  0.35702967  0.13501937  0.08267656  1
  C  C60  1  0.85702967  0.36498063  0.58267656  1
  C  C61  1  0.14118817  0.35423725  0.91996341  1
  C  C62  1  0.14118817  0.64576275  0.41996341  1
  C  C63  1  0.85702967  0.63501937  0.08267656  1
  C  C64  1  0.45415616  0.83095101  0.93660749  1
  C  C65  1  0.53860322  0.81146275  0.55638563  1
  C  C66  1  0.53860322  0.18853725  0.05638563  1
  C  C67  1  0.45415616  0.16904899  0.43660749  1
  C  C68  1  0.95415616  0.33095101  0.93660749  1
  C  C69  1  0.03860322  0.31146275  0.55638563  1
  C  C70  1  0.03860322  0.68853725  0.05638563  1
  C  C71  1  0.95415616  0.66904899  0.43660749  1
  C  C72  1  0.07562943  0.85914154  0.74306324  1
  C  C73  1  0.91332233  0.85602670  0.75540979  1
  C  C74  1  0.91332233  0.14397330  0.25540979  1
  C  C75  1  0.07562943  0.14085846  0.24306324  1
  C  C76  1  0.57562943  0.35914154  0.74306324  1
  C  C77  1  0.41332233  0.35602670  0.75540979  1
  C  C78  1  0.41332233  0.64397330  0.25540979  1
  C  C79  1  0.57562943  0.64085846  0.24306324  1
