# generated using pymatgen
data_CuNiC18
_symmetry_space_group_name_H-M   'P 1'
_cell_length_a   9.01056117
_cell_length_b   9.00672148
_cell_length_c   22.10856780
_cell_angle_alpha   90.00000000
_cell_angle_beta   90.15989445
_cell_angle_gamma   119.98590687
_symmetry_Int_Tables_number   1
_chemical_formula_structural   CuNiC18
_chemical_formula_sum   'Cu6 Ni6 C108'
_cell_volume   1554.06513432
_cell_formula_units_Z   6
loop_
 _symmetry_equiv_pos_site_id
 _symmetry_equiv_pos_as_xyz
  1  'x, y, z'
loop_
 _atom_site_type_symbol
 _atom_site_label
 _atom_site_symmetry_multiplicity
 _atom_site_fract_x
 _atom_site_fract_y
 _atom_site_fract_z
 _atom_site_occupancy
  C  C0  1  0.98493230  0.96573494  0.49510932  1
  C  C1  1  0.98493230  0.01919735  0.99510932  1
  C  C2  1  0.66516854  0.33608336  0.82841951  1
  C  C3  1  0.66516854  0.32908418  0.32841951  1
  C  C4  1  0.32974044  0.66273831  0.16182259  1
  C  C5  1  0.32974044  0.66700313  0.66182259  1
  C  C6  1  0.37429256  0.37005579  0.24709315  1
  C  C7  1  0.99262660  0.62649946  0.24586761  1
  C  C8  1  0.99262660  0.36612713  0.74586761  1
  C  C9  1  0.37429256  0.00423677  0.74709315  1
  C  C10  1  0.29693051  0.34020519  0.57828520  1
  C  C11  1  0.66322518  0.96194914  0.58021916  1
  C  C12  1  0.29693051  0.95672432  0.07828520  1
  C  C13  1  0.66322518  0.70127505  0.08021916  1
  C  C14  1  0.96725587  0.67687166  0.91393573  1
  C  C15  1  0.33004528  0.29233844  0.91269109  1
  C  C16  1  0.96725587  0.29038520  0.41393573  1
  C  C17  1  0.33004528  0.03770783  0.41269109  1
  Ni  Ni18  1  -0.00050333  0.99781132  0.64405024  1
  Ni  Ni19  1  -0.00050333  0.00168535  0.14405024  1
  Ni  Ni20  1  0.66753883  0.32909436  0.97730155  1
  Ni  Ni21  1  0.66753883  0.33844346  0.47730155  1
  Ni  Ni22  1  0.33682142  0.66904680  0.31066691  1
  Ni  Ni23  1  0.33682142  0.66777562  0.81066691  1
  Cu  Cu24  1  0.99465196  0.99645421  0.35457368  1
  Cu  Cu25  1  0.99465196  0.99819775  0.85457368  1
  Cu  Cu26  1  0.66741177  0.34022508  0.68805767  1
  Cu  Cu27  1  0.66741177  0.32718569  0.18805767  1
  Cu  Cu28  1  0.32889039  0.65975208  0.02130615  1
  Cu  Cu29  1  0.32889039  0.66913931  0.52130615  1
  C  C30  1  0.29135473  0.00333912  0.25172001  1
  C  C31  1  0.71183851  0.71351366  0.24931842  1
  C  C32  1  0.99388669  0.28504383  0.25330926  1
  C  C33  1  0.29135473  0.28801561  0.75172001  1
  C  C34  1  0.99388669  0.70884285  0.75330926  1
  C  C35  1  0.71183851  0.99832485  0.74931842  1
  C  C36  1  0.95726812  0.33996552  0.58528001  1
  C  C37  1  0.37884679  0.04288232  0.58505895  1
  C  C38  1  0.66741263  0.62225255  0.58421060  1
  C  C39  1  0.95726812  0.61730160  0.08528001  1
  C  C40  1  0.66741263  0.04515908  0.08421060  1
  C  C41  1  0.37884679  0.33596346  0.08505895  1
  C  C42  1  0.62505399  0.67543285  0.92064694  1
  C  C43  1  0.04457724  0.37765446  0.91524814  1
  C  C44  1  0.33486652  0.95584232  0.91809680  1
  C  C45  1  0.62505399  0.94962214  0.42064694  1
  C  C46  1  0.33486652  0.37902519  0.41809680  1
  C  C47  1  0.04457724  0.66692378  0.41524814  1
  C  C48  1  0.19770422  0.02752971  0.31117685  1
  C  C49  1  0.83805712  0.82308897  0.30551433  1
  C  C50  1  0.98398565  0.18324316  0.31541096  1
  C  C51  1  0.19770422  0.17017451  0.81117685  1
  C  C52  1  0.98398565  0.80074249  0.81541096  1
  C  C53  1  0.83805712  0.01496815  0.80551433  1
  C  C54  1  0.79979734  0.98097335  0.68656817  1
  C  C55  1  0.16836470  0.19643576  0.69153197  1
  C  C56  1  0.01801688  0.83648809  0.69563970  1
  C  C57  1  0.79979734  0.81882399  0.18656817  1
  C  C58  1  0.01801688  0.18152879  0.19563970  1
  C  C59  1  0.16836470  0.97192893  0.19153197  1
  C  C60  1  0.86130195  0.34995854  0.64606976  1
  C  C61  1  0.49494198  0.13669893  0.64492035  1
  C  C62  1  0.64850679  0.49885253  0.64161972  1
  C  C63  1  0.86130195  0.51134241  0.14606976  1
  C  C64  1  0.64850679  0.14965326  0.14161972  1
  C  C65  1  0.49494198  0.35824204  0.14492035  1
  C  C66  1  0.47341060  0.31006564  0.02499188  1
  C  C67  1  0.83680597  0.52626154  0.02505971  1
  C  C68  1  0.68571041  0.15994396  0.02359913  1
  C  C69  1  0.47341060  0.16334396  0.52499188  1
  C  C70  1  0.68571041  0.52576545  0.52359913  1
  C  C71  1  0.83680597  0.31054344  0.52505971  1
  C  C72  1  0.53579176  0.68966974  0.98255332  1
  C  C73  1  0.17227371  0.48317498  0.97219226  1
  C  C74  1  0.31960573  0.84115870  0.97759500  1
  C  C75  1  0.53579176  0.84612302  0.48255332  1
  C  C76  1  0.31960573  0.47844803  0.47759500  1
  C  C77  1  0.17227371  0.68909974  0.47219226  1
  C  C78  1  0.13078382  0.63733125  0.35398548  1
  C  C79  1  0.49505370  0.84934223  0.36299795  1
  C  C80  1  0.34872854  0.48884570  0.35643920  1
  C  C81  1  0.13078382  0.49345357  0.85398548  1
  C  C82  1  0.34872854  0.85988384  0.85643920  1
  C  C83  1  0.49505370  0.64571247  0.86299795  1
  C  C84  1  0.03076363  0.83912705  0.41169369  1
  C  C85  1  0.81735497  0.97910790  0.41366243  1
  C  C86  1  0.16555005  0.18703297  0.41662811  1
  C  C87  1  0.03076363  0.19163658  0.91169369  1
  C  C88  1  0.16555005  0.97851709  0.91662811  1
  C  C89  1  0.81735497  0.83824708  0.91366243  1
  C  C90  1  0.97411102  0.16372935  0.58655965  1
  C  C91  1  0.19190309  0.03503421  0.58802869  1
  C  C92  1  0.83898445  0.81393927  0.58675173  1
  C  C93  1  0.97411102  0.81038167  0.08655965  1
  C  C94  1  0.83898445  0.02504518  0.08675173  1
  C  C95  1  0.19190309  0.15686888  0.08802869  1
  C  C96  1  0.69103807  0.16802227  0.74935189  1
  C  C97  1  0.47783898  0.30295203  0.74614068  1
  C  C98  1  0.83154735  0.51575746  0.74711273  1
  C  C99  1  0.69103807  0.52301481  0.24935189  1
  C  C100  1  0.83154735  0.31578889  0.24711273  1
  C  C101  1  0.47783898  0.17488595  0.24614068  1
  C  C102  1  0.63819623  0.49736176  0.92091988  1
  C  C103  1  0.85979816  0.37116480  0.92086180  1
  C  C104  1  0.50422721  0.15081741  0.91904649  1
  C  C105  1  0.63819623  0.14083347  0.42091988  1
  C  C106  1  0.50422721  0.35340880  0.41904649  1
  C  C107  1  0.85979816  0.48863236  0.42086180  1
  C  C108  1  0.36030882  0.50586761  0.08013192  1
  C  C109  1  0.15100120  0.64789494  0.07979049  1
  C  C110  1  0.49662134  0.85589824  0.08238983  1
  C  C111  1  0.36030882  0.85444221  0.58013192  1
  C  C112  1  0.49662134  0.64072410  0.58238983  1
  C  C113  1  0.15100120  0.50310727  0.57979049  1
  C  C114  1  0.30088697  0.82563952  0.25489229  1
  C  C115  1  0.51905668  0.69105856  0.25398328  1
  C  C116  1  0.17253738  0.47586857  0.25189999  1
  C  C117  1  0.30088697  0.47524845  0.75489229  1
  C  C118  1  0.17253738  0.69666981  0.75189999  1
  C  C119  1  0.51905668  0.82799911  0.75398328  1
