# generated using pymatgen
data_Cu2Ni2C3
_symmetry_space_group_name_H-M   'P 1'
_cell_length_a   4.13611000
_cell_length_b   4.94047700
_cell_length_c   12.80644608
_cell_angle_alpha   101.12150148
_cell_angle_beta   99.29312889
_cell_angle_gamma   90.00000000
_symmetry_Int_Tables_number   1
_chemical_formula_structural   Cu2Ni2C3
_chemical_formula_sum   'Cu4 Ni4 C6'
_cell_volume   253.27569333
_cell_formula_units_Z   2
loop_
 _symmetry_equiv_pos_site_id
 _symmetry_equiv_pos_as_xyz
  1  'x, y, z'
loop_
 _atom_site_type_symbol
 _atom_site_label
 _atom_site_symmetry_multiplicity
 _atom_site_fract_x
 _atom_site_fract_y
 _atom_site_fract_z
 _atom_site_occupancy
  C  C0  1  0.00000000  0.00000000  0.00000000  1
  C  C1  1  0.29135800  0.29135800  0.58271600  1
  C  C2  1  0.70864200  0.70864200  0.41728400  1
  C  C3  1  0.00000000  0.50000000  0.00000000  1
  Ni  Ni4  1  0.89299500  0.39299500  0.78599100  1
  Ni  Ni5  1  0.40459800  0.90459800  0.80919600  1
  Ni  Ni6  1  0.10700500  0.60700500  0.21400900  1
  Ni  Ni7  1  0.59540200  0.09540200  0.19080400  1
  Cu  Cu8  1  0.86700200  0.86700200  0.73400500  1
  Cu  Cu9  1  0.13299800  0.13299800  0.26599500  1
  Cu  Cu10  1  0.43870400  0.43870400  0.87740900  1
  Cu  Cu11  1  0.56129600  0.56129600  0.12259100  1
  C  C12  1  0.74894600  0.24894600  0.49789100  1
  C  C13  1  0.25105400  0.75105400  0.50210900  1
