# generated using pymatgen
data_Cu5(NiC15)7
_symmetry_space_group_name_H-M   'P 1'
_cell_length_a   8.89063636
_cell_length_b   8.85423901
_cell_length_c   22.27585505
_cell_angle_alpha   89.95590628
_cell_angle_beta   90.20378849
_cell_angle_gamma   119.84020932
_symmetry_Int_Tables_number   1
_chemical_formula_structural   Cu5(NiC15)7
_chemical_formula_sum   'Cu5 Ni7 C105'
_cell_volume   1521.04863437
_cell_formula_units_Z   1
loop_
 _symmetry_equiv_pos_site_id
 _symmetry_equiv_pos_as_xyz
  1  'x, y, z'
loop_
 _atom_site_type_symbol
 _atom_site_label
 _atom_site_symmetry_multiplicity
 _atom_site_fract_x
 _atom_site_fract_y
 _atom_site_fract_z
 _atom_site_occupancy
  C  C0  1  0.98710747  0.63131306  0.24508442  1
  C  C1  1  0.64845146  0.63641664  0.74826067  1
  C  C2  1  0.98773524  0.35068307  0.74840645  1
  C  C3  1  0.36372642  0.01204888  0.74831267  1
  C  C4  1  0.29586349  0.33371288  0.58517184  1
  C  C5  1  0.03863939  0.70516083  0.58578194  1
  C  C6  1  0.66560747  0.96228211  0.58522135  1
  C  C7  1  0.65454397  0.68939691  0.07916287  1
  C  C8  1  0.32028188  0.02394790  0.41180320  1
  C  C9  1  0.98921080  0.99941704  0.49521933  1
  C  C10  1  0.00997309  0.00854362  0.98867968  1
  C  C11  1  0.66697061  0.33329487  0.83265731  1
  C  C12  1  0.66438608  0.33042520  0.32329257  1
  C  C13  1  0.33084615  0.66742734  0.15616174  1
  C  C14  1  0.33361250  0.66694506  0.66304146  1
  Ni  Ni15  1  0.99411963  0.00026439  0.35219056  1
  Ni  Ni16  1  0.99977011  0.99991091  0.85281393  1
  Ni  Ni17  1  0.99996291  0.00035858  0.65086495  1
  Ni  Ni18  1  0.66670817  0.33290741  0.68429051  1
  Ni  Ni19  1  0.66103836  0.32715442  0.18501423  1
  Ni  Ni20  1  0.32692786  0.66590290  0.01883032  1
  Ni  Ni21  1  0.33417872  0.66650811  0.51627110  1
  Cu  Cu22  1  0.00439611  0.00671410  0.14494590  1
  Cu  Cu23  1  0.66611998  0.33042380  0.97920473  1
  Cu  Cu24  1  0.67157670  0.33762659  0.47798822  1
  Cu  Cu25  1  0.33848398  0.66514510  0.31173071  1
  Cu  Cu26  1  0.33254630  0.66637127  0.81945495  1
  C  C27  1  0.29394480  0.00571054  0.25353543  1
  C  C28  1  0.71279595  0.71055294  0.25076989  1
  C  C29  1  0.99676714  0.28841117  0.25253527  1
  C  C30  1  0.29327038  0.29392667  0.74979441  1
  C  C31  1  0.00077992  0.70697082  0.74979619  1
  C  C32  1  0.70545706  0.99856082  0.74983636  1
  C  C33  1  0.96111745  0.33479940  0.58487969  1
  C  C34  1  0.37440060  0.03995215  0.58365653  1
  C  C35  1  0.66526248  0.62626615  0.58489503  1
  C  C36  1  0.96035155  0.62184788  0.08663982  1
  C  C37  1  0.66344997  0.04171087  0.08560930  1
  C  C38  1  0.37902789  0.33532495  0.08473922  1
  C  C39  1  0.63046874  0.67038847  0.92113691  1
  C  C40  1  0.04107267  0.37072522  0.92030366  1
  C  C41  1  0.32949170  0.95926197  0.92017067  1
  C  C42  1  0.62822359  0.95575903  0.41942631  1
  C  C43  1  0.33002716  0.37328806  0.41954100  1
  C  C44  1  0.04348977  0.66799805  0.41765046  1
  C  C45  1  0.21080245  0.02011238  0.31058545  1
  C  C46  1  0.82595487  0.79566260  0.30452115  1
  C  C47  1  0.97760936  0.18313109  0.30709339  1
  C  C48  1  0.20604846  0.17618758  0.80253876  1
  C  C49  1  0.97063055  0.79438036  0.80266977  1
  C  C50  1  0.82339804  0.02913819  0.80269563  1
  C  C51  1  0.76903252  0.95437633  0.69133141  1
  C  C52  1  0.18543374  0.23078361  0.69115355  1
  C  C53  1  0.04472170  0.81477284  0.69123969  1
  C  C54  1  0.79568519  0.82656850  0.19253864  1
  C  C55  1  0.02751963  0.20009683  0.19518582  1
  C  C56  1  0.16614802  0.96897787  0.19786097  1
  C  C57  1  0.87971180  0.36420969  0.64045409  1
  C  C58  1  0.48590019  0.12284457  0.63922245  1
  C  C59  1  0.63676598  0.51579185  0.64063888  1
  C  C60  1  0.87722350  0.52407259  0.14378366  1
  C  C61  1  0.64375842  0.12747654  0.14025104  1
  C  C62  1  0.49091941  0.36397541  0.13896374  1
  C  C63  1  0.46694062  0.30283897  0.02782997  1
  C  C64  1  0.83232264  0.53113958  0.03116939  1
  C  C65  1  0.69400392  0.16042268  0.02833438  1
  C  C66  1  0.47244492  0.16019722  0.52665310  1
  C  C67  1  0.68752740  0.52412012  0.52900824  1
  C  C68  1  0.83705027  0.31258278  0.52883827  1
  C  C69  1  0.54311117  0.68686461  0.97623610  1
  C  C70  1  0.15177813  0.46278968  0.97298413  1
  C  C71  1  0.31365679  0.84991013  0.97297964  1
  C  C72  1  0.54460020  0.85763543  0.47641368  1
  C  C73  1  0.31112544  0.45439970  0.47625481  1
  C  C74  1  0.14995935  0.69281232  0.47385668  1
  C  C75  1  0.13254829  0.63793638  0.36082135  1
  C  C76  1  0.49992182  0.86349535  0.36396590  1
  C  C77  1  0.35939384  0.49606190  0.36366221  1
  C  C78  1  0.12879989  0.49107877  0.86100042  1
  C  C79  1  0.36107980  0.87142935  0.86081283  1
  C  C80  1  0.50708615  0.63916673  0.86307600  1
  C  C81  1  0.02217543  0.82648383  0.40978317  1
  C  C82  1  0.80741838  0.98382023  0.41069069  1
  C  C83  1  0.18218231  0.18867764  0.41101253  1
  C  C84  1  0.01335447  0.19103859  0.90937203  1
  C  C85  1  0.17776243  0.98691726  0.90957810  1
  C  C86  1  0.80803683  0.82312642  0.91003777  1
  C  C87  1  0.96959350  0.16554838  0.58449165  1
  C  C88  1  0.19660212  0.03037922  0.58387350  1
  C  C89  1  0.83338133  0.80365575  0.58445181  1
  C  C90  1  0.96572307  0.80700435  0.09032657  1
  C  C91  1  0.83800245  0.02820815  0.09013005  1
  C  C92  1  0.19496290  0.16323555  0.09067656  1
  C  C93  1  0.67492642  0.15551804  0.74469605  1
  C  C94  1  0.47983233  0.32431411  0.74479600  1
  C  C95  1  0.84490205  0.51991431  0.74470253  1
  C  C96  1  0.68753917  0.52890645  0.24287748  1
  C  C97  1  0.85073083  0.32866500  0.24416969  1
  C  C98  1  0.47391521  0.15584311  0.24439883  1
  C  C99  1  0.63787871  0.49462521  0.92336885  1
  C  C100  1  0.85852448  0.36389353  0.92387440  1
  C  C101  1  0.50507891  0.14226868  0.92306994  1
  C  C102  1  0.63141634  0.13889591  0.42210370  1
  C  C103  1  0.50330093  0.35998742  0.42252797  1
  C  C104  1  0.85987365  0.49686952  0.42249932  1
  C  C105  1  0.35490083  0.49190043  0.07586113  1
  C  C106  1  0.14046740  0.65175903  0.07776819  1
  C  C107  1  0.51753463  0.85541706  0.07734322  1
  C  C108  1  0.35464102  0.85799152  0.57702808  1
  C  C109  1  0.50382331  0.64527586  0.57716672  1
  C  C110  1  0.14085387  0.49645092  0.57703907  1
  C  C111  1  0.29862008  0.82540196  0.25703107  1
  C  C112  1  0.52780309  0.69744716  0.25766668  1
  C  C113  1  0.17104951  0.47664762  0.25707385  1
  C  C114  1  0.31425873  0.48384521  0.75906191  1
  C  C115  1  0.16943722  0.68623112  0.75894464  1
  C  C116  1  0.51669895  0.82993577  0.75910637  1
