# generated using pymatgen
data_Cu6Ni2C7
_symmetry_space_group_name_H-M   'P 1'
_cell_length_a   7.53188900
_cell_length_b   9.16067800
_cell_length_c   9.89122311
_cell_angle_alpha   83.51183631
_cell_angle_beta   90.00000000
_cell_angle_gamma   90.00000000
_symmetry_Int_Tables_number   1
_chemical_formula_structural   Cu6Ni2C7
_chemical_formula_sum   'Cu24 Ni8 C28'
_cell_volume   678.09574687
_cell_formula_units_Z   4
loop_
 _symmetry_equiv_pos_site_id
 _symmetry_equiv_pos_as_xyz
  1  'x, y, z'
loop_
 _atom_site_type_symbol
 _atom_site_label
 _atom_site_symmetry_multiplicity
 _atom_site_fract_x
 _atom_site_fract_y
 _atom_site_fract_z
 _atom_site_occupancy
  C  C0  1  0.50000000  0.50000000  0.00000000  1
  C  C1  1  0.00000000  0.50000000  0.50000000  1
  C  C2  1  0.00000000  0.00000000  0.00000000  1
  C  C3  1  0.50000000  0.00000000  0.50000000  1
  C  C4  1  0.64749800  0.45993600  0.28353100  1
  C  C5  1  0.14749800  0.54006400  0.21646900  1
  C  C6  1  0.35250200  0.54006400  0.71646900  1
  C  C7  1  0.85250200  0.45993600  0.78353100  1
  C  C8  1  0.59906800  0.30125600  0.23826200  1
  C  C9  1  0.09906800  0.69874400  0.26173800  1
  C  C10  1  0.40093200  0.69874400  0.76173800  1
  C  C11  1  0.90093200  0.30125600  0.73826200  1
  C  C12  1  0.38863500  0.23144000  0.95927500  1
  C  C13  1  0.88863500  0.76856000  0.54072500  1
  C  C14  1  0.61136500  0.76856000  0.04072500  1
  C  C15  1  0.11136500  0.23144000  0.45927500  1
  C  C16  1  0.59491500  0.20386600  0.99205600  1
  C  C17  1  0.09491500  0.79613400  0.50794400  1
  C  C18  1  0.40508500  0.79613400  0.00794400  1
  C  C19  1  0.90508500  0.20386600  0.49205600  1
  C  C20  1  0.98074800  0.32172600  0.11541700  1
  C  C21  1  0.48074800  0.67827400  0.38458300  1
  C  C22  1  0.01925200  0.67827400  0.88458300  1
  C  C23  1  0.51925200  0.32172600  0.61541700  1
  C  C24  1  0.77430800  0.94613700  0.26360200  1
  C  C25  1  0.27430800  0.05386300  0.23639800  1
  C  C26  1  0.22569200  0.05386300  0.73639800  1
  C  C27  1  0.72569200  0.94613700  0.76360200  1
  Ni  Ni28  1  0.11669000  0.32518700  0.07248300  1
  Ni  Ni29  1  0.61669000  0.67481300  0.42751700  1
  Ni  Ni30  1  0.88331000  0.67481300  0.92751600  1
  Ni  Ni31  1  0.38331000  0.32518700  0.57248400  1
  Ni  Ni32  1  0.79369900  0.04592700  0.71585800  1
  Ni  Ni33  1  0.29369900  0.95407300  0.78414200  1
  Ni  Ni34  1  0.20630100  0.95407300  0.28414200  1
  Ni  Ni35  1  0.70630100  0.04592700  0.21585800  1
  Cu  Cu36  1  0.62536100  0.40466200  0.20413200  1
  Cu  Cu37  1  0.12536100  0.59533800  0.29586800  1
  Cu  Cu38  1  0.37463900  0.59533800  0.79586800  1
  Cu  Cu39  1  0.87463900  0.40466200  0.70413200  1
  Cu  Cu40  1  0.51105200  0.26473300  0.93183200  1
  Cu  Cu41  1  0.01105200  0.73526700  0.56816800  1
  Cu  Cu42  1  0.48894800  0.73526700  0.06816800  1
  Cu  Cu43  1  0.98894800  0.26473300  0.43183200  1
  Cu  Cu44  1  0.16858200  0.21540900  0.01366300  1
  Cu  Cu45  1  0.66858200  0.78459100  0.48633700  1
  Cu  Cu46  1  0.83141800  0.78459100  0.98633700  1
  Cu  Cu47  1  0.33141800  0.21540900  0.51366300  1
  Cu  Cu48  1  0.20920500  0.43814900  0.08623500  1
  Cu  Cu49  1  0.70920500  0.56185100  0.41376500  1
  Cu  Cu50  1  0.79079500  0.56185100  0.91376500  1
  Cu  Cu51  1  0.29079500  0.43814900  0.58623500  1
  Cu  Cu52  1  0.74991100  0.09483200  0.09483100  1
  Cu  Cu53  1  0.24991100  0.90516800  0.40516900  1
  Cu  Cu54  1  0.25008900  0.90516800  0.90516900  1
  Cu  Cu55  1  0.75008900  0.09483200  0.59483100  1
  Cu  Cu56  1  0.58984200  0.10569400  0.28451000  1
  Cu  Cu57  1  0.08984200  0.89430600  0.21549000  1
  Cu  Cu58  1  0.41015800  0.89430600  0.71549000  1
  Cu  Cu59  1  0.91015800  0.10569400  0.78451000  1
