# generated using pymatgen
data_Cu12Ni7C59
_symmetry_space_group_name_H-M   'P 1'
_cell_length_a   18.05704715
_cell_length_b   9.03867804
_cell_length_c   22.81950779
_cell_angle_alpha   89.98846261
_cell_angle_beta   89.98984504
_cell_angle_gamma   120.11053336
_symmetry_Int_Tables_number   1
_chemical_formula_structural   Cu12Ni7C59
_chemical_formula_sum   'Cu36 Ni21 C177'
_cell_volume   3221.83817460
_cell_formula_units_Z   3
loop_
 _symmetry_equiv_pos_site_id
 _symmetry_equiv_pos_as_xyz
  1  'x, y, z'
loop_
 _atom_site_type_symbol
 _atom_site_label
 _atom_site_symmetry_multiplicity
 _atom_site_fract_x
 _atom_site_fract_y
 _atom_site_fract_z
 _atom_site_occupancy
  C  C0  1  0.31707099  0.99955660  0.25205721  1
  C  C1  1  0.68353471  0.36534068  0.25186175  1
  C  C2  1  0.31469072  0.63124461  0.75253713  1
  C  C3  1  0.81468182  0.63117464  0.75232580  1
  C  C4  1  0.15118047  0.33361643  0.58266536  1
  C  C5  1  0.65098879  0.33393782  0.58253863  1
  C  C6  1  0.01515330  0.69775010  0.58315279  1
  C  C7  1  0.51574040  0.69739834  0.58321566  1
  C  C8  1  0.33283196  0.96843368  0.58248683  1
  C  C9  1  0.83331944  0.96933749  0.58258951  1
  C  C10  1  0.15110854  0.96889547  0.08268376  1
  C  C11  1  0.65190873  0.96984156  0.08354585  1
  C  C12  1  0.33295556  0.69653732  0.08330433  1
  C  C13  1  0.83322638  0.69746484  0.08296392  1
  C  C14  1  0.01512199  0.33341696  0.08299971  1
  C  C15  1  0.51538887  0.33389972  0.08332962  1
  C  C16  1  0.66696799  0.03299946  0.41430717  1
  C  C17  1  0.34853345  0.66616660  0.41374315  1
  C  C18  1  0.00026925  0.99919846  0.49777994  1
  C  C19  1  0.49960739  0.01079669  0.49558839  1
  C  C20  1  0.00005016  0.00017877  0.99950883  1
  C  C21  1  0.50020343  0.99978599  0.99957754  1
  C  C22  1  0.33375753  0.32402271  0.83652904  1
  C  C23  1  0.83375229  0.32412480  0.83655522  1
  C  C24  1  0.33464830  0.33490114  0.33278164  1
  C  C25  1  0.84217351  0.34144036  0.33319208  1
  C  C26  1  0.16239039  0.65506834  0.17128421  1
  C  C27  1  0.66586201  0.67721596  0.17093123  1
  C  C28  1  0.16154311  0.66746116  0.67149431  1
  C  C29  1  0.66150175  0.66664893  0.67152511  1
  C  C30  1  0.00026046  0.99938812  0.35077004  1
  C  C31  1  0.00101192  0.00215593  0.85302797  1
  C  C32  1  0.50102365  0.00225203  0.85296853  1
  Ni  Ni33  1  0.49967344  0.00483281  0.34915901  1
  Ni  Ni34  1  0.00147503  0.00271926  0.65364123  1
  Ni  Ni35  1  0.50140927  0.00230957  0.65317828  1
  Ni  Ni36  1  0.99992827  0.00027130  0.15345601  1
  Ni  Ni37  1  0.50023339  0.99760503  0.15367978  1
  Ni  Ni38  1  0.33372456  0.32673330  0.68857705  1
  Ni  Ni39  1  0.83380900  0.32702792  0.68859966  1
  Ni  Ni40  1  0.33227697  0.34013902  0.18547584  1
  Ni  Ni41  1  0.83807595  0.33187785  0.18731284  1
  Ni  Ni42  1  0.33333295  0.33399078  0.98007396  1
  Ni  Ni43  1  0.83333591  0.33367447  0.98023412  1
  Ni  Ni44  1  0.33275568  0.32463930  0.48136097  1
  Ni  Ni45  1  0.83683541  0.34136580  0.48087488  1
  Ni  Ni46  1  0.16633069  0.66694583  0.01031520  1
  Ni  Ni47  1  0.66645574  0.66677194  0.01032424  1
  Ni  Ni48  1  0.16285418  0.66373599  0.51094344  1
  Ni  Ni49  1  0.66854907  0.66619472  0.51157192  1
  Ni  Ni50  1  0.16370127  0.66064319  0.31642591  1
  Ni  Ni51  1  0.66505511  0.66897659  0.31673965  1
  Ni  Ni52  1  0.16360773  0.66732195  0.81792494  1
  Ni  Ni53  1  0.66358512  0.66731339  0.81795973  1
  Cu  Cu54  1  0.14709306  0.99869441  0.25017213  1
  Cu  Cu55  1  0.65034868  0.00026114  0.24997119  1
  Cu  Cu56  1  0.34955888  0.70055850  0.25114215  1
  Cu  Cu57  1  0.85244083  0.70529161  0.25036684  1
  Cu  Cu58  1  0.00072932  0.29354084  0.25032211  1
  Cu  Cu59  1  0.49965325  0.29937880  0.24846495  1
  Cu  Cu60  1  0.14721479  0.29589069  0.75061270  1
  Cu  Cu61  1  0.64718053  0.29575238  0.75054703  1
  Cu  Cu62  1  0.00113011  0.70830803  0.75021157  1
  Cu  Cu63  1  0.50110120  0.70848760  0.75008879  1
  Cu  Cu64  1  0.35333765  0.99865836  0.75104152  1
  Cu  Cu65  1  0.85329566  0.99867386  0.75108916  1
  Cu  Cu66  1  0.48127695  0.33421797  0.58410217  1
  Cu  Cu67  1  0.98065264  0.33375008  0.58362409  1
  Cu  Cu68  1  0.18561438  0.03763429  0.58377786  1
  Cu  Cu69  1  0.68618020  0.03802761  0.58221360  1
  Cu  Cu70  1  0.33276905  0.62793055  0.58361904  1
  Cu  Cu71  1  0.83334722  0.62904463  0.58547919  1
  Cu  Cu72  1  0.48108825  0.62789581  0.08257639  1
  Cu  Cu73  1  0.98099421  0.62811606  0.08305819  1
  Cu  Cu74  1  0.33288889  0.03782427  0.08432070  1
  Cu  Cu75  1  0.83312535  0.03772119  0.08263261  1
  Cu  Cu76  1  0.18540456  0.33357934  0.08232366  1
  Cu  Cu77  1  0.68631334  0.33426725  0.08444761  1
  Cu  Cu78  1  0.31685278  0.66747971  0.91428690  1
  Cu  Cu79  1  0.81684105  0.66724254  0.91428484  1
  Cu  Cu80  1  0.01661394  0.36616908  0.91577763  1
  Cu  Cu81  1  0.51664878  0.36615130  0.91584800  1
  Cu  Cu82  1  0.16656293  0.96651226  0.91567484  1
  Cu  Cu83  1  0.66653970  0.96656471  0.91563105  1
  Cu  Cu84  1  0.31551082  0.96374290  0.41567306  1
  Cu  Cu85  1  0.81755715  0.96579953  0.41634669  1
  Cu  Cu86  1  0.16532032  0.36564232  0.41648575  1
  Cu  Cu87  1  0.66691079  0.36637950  0.41607782  1
  Cu  Cu88  1  0.01722580  0.66973151  0.41535815  1
  Cu  Cu89  1  0.51684992  0.66631297  0.41741415  1
  C  C90  1  0.09339957  0.01300770  0.30214314  1
  C  C91  1  0.60902929  0.03009894  0.30482952  1
  C  C92  1  0.40307652  0.78369327  0.30666606  1
  C  C93  1  0.91324913  0.81293046  0.30238795  1
  C  C94  1  0.48287840  0.18180529  0.30132689  1
  C  C95  1  0.99421462  0.17118023  0.30227635  1
  C  C96  1  0.09405807  0.17406228  0.80199915  1
  C  C97  1  0.59403435  0.17410972  0.80201245  1
  C  C98  1  0.49193427  0.81428274  0.80149636  1
  C  C99  1  0.99200206  0.81432148  0.80156642  1
  C  C100  1  0.41430090  0.01397764  0.80261462  1
  C  C101  1  0.91430050  0.01425375  0.80261160  1
  C  C102  1  0.38871643  0.96744466  0.69308558  1
  C  C103  1  0.88871477  0.96775097  0.69308161  1
  C  C104  1  0.09911308  0.22516906  0.69205784  1
  C  C105  1  0.59911267  0.22491138  0.69205403  1
  C  C106  1  0.01254943  0.80363279  0.69145895  1
  C  C107  1  0.51263722  0.80385738  0.69133247  1
  C  C108  1  0.38849094  0.80979593  0.19441514  1
  C  C109  1  0.88872550  0.80291931  0.19244141  1
  C  C110  1  0.01225078  0.22142459  0.19178086  1
  C  C111  1  0.51619782  0.22516417  0.19137766  1
  C  C112  1  0.09824661  0.97444240  0.19224502  1
  C  C113  1  0.59889476  0.97529378  0.19260981  1
  C  C114  1  0.44250592  0.37094677  0.63843180  1
  C  C115  1  0.94253636  0.37110114  0.63812536  1
  C  C116  1  0.24258878  0.11471588  0.63822712  1
  C  C117  1  0.74391527  0.11882701  0.63607167  1
  C  C118  1  0.31712569  0.51802598  0.63939685  1
  C  C119  1  0.81675083  0.52065389  0.64172193  1
  C  C120  1  0.44316612  0.51514175  0.13716285  1
  C  C121  1  0.94307679  0.51548981  0.13803407  1
  C  C122  1  0.31593711  0.11078341  0.14104977  1
  C  C123  1  0.81476909  0.11344848  0.13743507  1
  C  C124  1  0.24126666  0.37005774  0.13728114  1
  C  C125  1  0.74023347  0.36835743  0.14102739  1
  C  C126  1  0.22450665  0.29706829  0.02887746  1
  C  C127  1  0.72685177  0.29920342  0.03143704  1
  C  C128  1  0.42392321  0.55115150  0.02878098  1
  C  C129  1  0.92375900  0.55094562  0.02935880  1
  C  C130  1  0.35036205  0.15449101  0.03150578  1
  C  C131  1  0.85152462  0.15196957  0.02890058  1
  C  C132  1  0.22350905  0.15168490  0.52982505  1
  C  C133  1  0.72365263  0.14592332  0.52628171  1
  C  C134  1  0.34871348  0.54920812  0.52861577  1
  C  C135  1  0.85068476  0.54860063  0.53214889  1
  C  C136  1  0.42458380  0.29648368  0.52995338  1
  C  C137  1  0.92383900  0.29606676  0.52947660  1
  C  C138  1  0.28285110  0.70624098  0.97151605  1
  C  C139  1  0.78285855  0.70599012  0.97148384  1
  C  C140  1  0.06862850  0.43014854  0.97378393  1
  C  C141  1  0.56875599  0.43021688  0.97385505  1
  C  C142  1  0.14602175  0.86221311  0.97367582  1
  C  C143  1  0.64594369  0.86215838  0.97356584  1
  C  C144  1  0.27641705  0.85387094  0.47279097  1
  C  C145  1  0.78631246  0.86495739  0.47500666  1
  C  C146  1  0.14541139  0.42860706  0.47479793  1
  C  C147  1  0.65449895  0.44290980  0.47393992  1
  C  C148  1  0.06679337  0.70808318  0.47452355  1
  C  C149  1  0.57067594  0.70001607  0.47487241  1
  C  C150  1  0.06156519  0.64409474  0.36395262  1
  C  C151  1  0.55989767  0.63979732  0.36461624  1
  C  C152  1  0.26246986  0.87896712  0.36065189  1
  C  C153  1  0.75687595  0.87843114  0.36542555  1
  C  C154  1  0.18280252  0.48634962  0.36543802  1
  C  C155  1  0.67819454  0.47348761  0.36124979  1
  C  C156  1  0.06031244  0.47800189  0.86320409  1
  C  C157  1  0.56016492  0.47808806  0.86327363  1
  C  C158  1  0.17965981  0.87994493  0.86322173  1
  C  C159  1  0.67975075  0.88028214  0.86317010  1
  C  C160  1  0.26309140  0.64436276  0.85971355  1
  C  C161  1  0.76310145  0.64409308  0.85970647  1
  C  C162  1  0.00894423  0.83497597  0.40461721  1
  C  C163  1  0.51007916  0.83158083  0.41290748  1
  C  C164  1  0.40337977  0.97055762  0.41314709  1
  C  C165  1  0.90796549  0.98433244  0.40479866  1
  C  C166  1  0.08441601  0.18422043  0.40505952  1
  C  C167  1  0.58708246  0.18359780  0.41319787  1
  C  C168  1  0.00935111  0.18442404  0.90494777  1
  C  C169  1  0.50936368  0.18447054  0.90499901  1
  C  C170  1  0.08321164  0.98175658  0.90455928  1
  C  C171  1  0.58317130  0.98180182  0.90445334  1
  C  C172  1  0.40825082  0.83476382  0.90458667  1
  C  C173  1  0.90824708  0.83451377  0.90455607  1
  C  C174  1  0.49142696  0.17270721  0.58933256  1
  C  C175  1  0.99149519  0.17321301  0.58894549  1
  C  C176  1  0.09444592  0.01683254  0.58877528  1
  C  C177  1  0.59555237  0.01859618  0.58793403  1
  C  C178  1  0.41378299  0.81013682  0.58826512  1
  C  C179  1  0.91399066  0.81184301  0.58912401  1
  C  C180  1  0.49152107  0.81032177  0.08818015  1
  C  C181  1  0.99169220  0.81034418  0.08869747  1
  C  C182  1  0.41359660  0.01649271  0.08875061  1
  C  C183  1  0.91370162  0.01633851  0.08809323  1
  C  C184  1  0.09423919  0.17211093  0.08793020  1
  C  C185  1  0.59475799  0.17249946  0.08853853  1
  C  C186  1  0.34869082  0.16305301  0.75109511  1
  C  C187  1  0.84856154  0.16304783  0.75090558  1
  C  C188  1  0.23641484  0.31075235  0.75072018  1
  C  C189  1  0.73637182  0.31026845  0.75076552  1
  C  C190  1  0.41429911  0.53737113  0.75039007  1
  C  C191  1  0.91439318  0.53714495  0.75058008  1
  C  C192  1  0.34077833  0.52329291  0.24730850  1
  C  C193  1  0.84584402  0.52838113  0.25106479  1
  C  C194  1  0.41655668  0.30790412  0.24442261  1
  C  C195  1  0.91715222  0.29894145  0.25226917  1
  C  C196  1  0.23610712  0.16129057  0.25097740  1
  C  C197  1  0.73730733  0.17148281  0.24648122  1
  C  C198  1  0.32975908  0.51420054  0.91930946  1
  C  C199  1  0.82975178  0.51391897  0.91945540  1
  C  C200  1  0.42656370  0.33847141  0.92035280  1
  C  C201  1  0.92657332  0.33896090  0.92009379  1
  C  C202  1  0.24320610  0.14647462  0.92023336  1
  C  C203  1  0.74298040  0.14687558  0.92027250  1
  C  C204  1  0.32485578  0.14146112  0.41968429  1
  C  C205  1  0.82504196  0.14264537  0.42105132  1
  C  C206  1  0.24675497  0.35247975  0.42156342  1
  C  C207  1  0.74601706  0.34179244  0.41951219  1
  C  C208  1  0.42499221  0.51226657  0.42148065  1
  C  C209  1  0.92704248  0.51435749  0.41934270  1
  C  C210  1  0.17562603  0.49569770  0.07656979  1
  C  C211  1  0.67656839  0.49612078  0.07753033  1
  C  C212  1  0.07191240  0.64789879  0.07719744  1
  C  C213  1  0.57234858  0.64906332  0.07669346  1
  C  C214  1  0.25174148  0.85610621  0.07759964  1
  C  C215  1  0.75212464  0.85535892  0.07669687  1
  C  C216  1  0.17521355  0.85577566  0.57793823  1
  C  C217  1  0.67574697  0.85586160  0.57749732  1
  C  C218  1  0.25163075  0.64704268  0.57799341  1
  C  C219  1  0.75228247  0.64793781  0.57932731  1
  C  C220  1  0.07161089  0.49579943  0.57766041  1
  C  C221  1  0.57235962  0.49530615  0.57826124  1
  C  C222  1  0.15838951  0.84205423  0.25649059  1
  C  C223  1  0.66012844  0.84167661  0.25416059  1
  C  C224  1  0.26216581  0.69512511  0.25433767  1
  C  C225  1  0.76230801  0.68082030  0.25716808  1
  C  C226  1  0.08072987  0.46889457  0.25667534  1
  C  C227  1  0.58317906  0.47397115  0.25413073  1
  C  C228  1  0.15964502  0.47657809  0.75675093  1
  C  C229  1  0.65968756  0.47650447  0.75679456  1
  C  C230  1  0.07930829  0.68767009  0.75610083  1
  C  C231  1  0.57925313  0.68763404  0.75604800  1
  C  C232  1  0.26621839  0.83294361  0.75742209  1
  C  C233  1  0.76621783  0.83305701  0.75740778  1
