# generated using pymatgen
data_Cu11NiC5
_symmetry_space_group_name_H-M   'P 1'
_cell_length_a   7.60075838
_cell_length_b   5.19083627
_cell_length_c   5.47102259
_cell_angle_alpha   90.07153726
_cell_angle_beta   85.23407708
_cell_angle_gamma   90.08761802
_symmetry_Int_Tables_number   1
_chemical_formula_structural   Cu11NiC5
_chemical_formula_sum   'Cu11 Ni1 C5'
_cell_volume   215.10860618
_cell_formula_units_Z   1
loop_
 _symmetry_equiv_pos_site_id
 _symmetry_equiv_pos_as_xyz
  1  'x, y, z'
loop_
 _atom_site_type_symbol
 _atom_site_label
 _atom_site_symmetry_multiplicity
 _atom_site_fract_x
 _atom_site_fract_y
 _atom_site_fract_z
 _atom_site_occupancy
  C  C0  1  0.70527500  0.99426300  0.38740500  1
  C  C1  1  0.01090000  0.48235800  0.50854100  1
  C  C2  1  0.01291100  0.00688900  0.97082100  1
  C  C3  1  0.48387200  0.49755700  0.50817000  1
  C  C4  1  0.48712400  0.00039100  0.99100500  1
  Ni  Ni5  1  0.05130700  0.20358700  0.70870900  1
  Cu  Cu6  1  0.05062100  0.31351900  0.20647300  1
  Cu  Cu7  1  0.26410500  0.86996900  0.99533100  1
  Cu  Cu8  1  0.43806500  0.30977700  0.82694400  1
  Cu  Cu9  1  0.24331900  0.62941500  0.49340400  1
  Cu  Cu10  1  0.46071400  0.16037500  0.32145200  1
  Cu  Cu11  1  0.57808600  0.83117700  0.67921400  1
  Cu  Cu12  1  0.74973200  0.34790400  0.50257500  1
  Cu  Cu13  1  0.57347000  0.71122100  0.20676900  1
  Cu  Cu14  1  0.73428600  0.10378600  0.02508000  1
  Cu  Cu15  1  0.93676200  0.70225100  0.77565500  1
  Cu  Cu16  1  0.93241500  0.82306000  0.29245200  1
