# generated using pymatgen
data_CuNiC3
_symmetry_space_group_name_H-M   'P 1'
_cell_length_a   5.04411600
_cell_length_b   8.66920600
_cell_length_c   9.37697900
_cell_angle_alpha   90.00000000
_cell_angle_beta   90.00000000
_cell_angle_gamma   90.00000000
_symmetry_Int_Tables_number   1
_chemical_formula_structural   CuNiC3
_chemical_formula_sum   'Cu8 Ni8 C24'
_cell_volume   410.04104515
_cell_formula_units_Z   8
loop_
 _symmetry_equiv_pos_site_id
 _symmetry_equiv_pos_as_xyz
  1  'x, y, z'
loop_
 _atom_site_type_symbol
 _atom_site_label
 _atom_site_symmetry_multiplicity
 _atom_site_fract_x
 _atom_site_fract_y
 _atom_site_fract_z
 _atom_site_occupancy
  Ni  Ni0  1  0.81823300  0.83677700  0.30333200  1
  Ni  Ni1  1  0.18176700  0.16322300  0.80333200  1
  Ni  Ni2  1  0.68176700  0.33677700  0.80333200  1
  Ni  Ni3  1  0.31823300  0.66322300  0.30333200  1
  Ni  Ni4  1  0.16877200  0.84538000  0.00202300  1
  Ni  Ni5  1  0.83122800  0.15462000  0.50202300  1
  Ni  Ni6  1  0.33122800  0.34538000  0.50202300  1
  Ni  Ni7  1  0.66877200  0.65462000  0.00202300  1
  Cu  Cu8  1  0.66776100  0.97086700  0.80131400  1
  Cu  Cu9  1  0.33223900  0.02913300  0.30131400  1
  Cu  Cu10  1  0.83223900  0.47086700  0.30131400  1
  Cu  Cu11  1  0.16776100  0.52913300  0.80131400  1
  Cu  Cu12  1  0.18425500  0.85066400  0.58103700  1
  Cu  Cu13  1  0.81574500  0.14933600  0.08103700  1
  Cu  Cu14  1  0.31574500  0.35066400  0.08103700  1
  Cu  Cu15  1  0.68425500  0.64933600  0.58103700  1
  C  C16  1  0.50036100  0.82551300  0.94350000  1
  C  C17  1  0.49963900  0.17448700  0.44350000  1
  C  C18  1  0.99963900  0.32551300  0.44350000  1
  C  C19  1  0.00036100  0.67448700  0.94350000  1
  C  C20  1  0.83615300  0.83101000  0.67185600  1
  C  C21  1  0.16384700  0.16899000  0.17185600  1
  C  C22  1  0.66384700  0.33101000  0.17185600  1
  C  C23  1  0.33615300  0.66899000  0.67185600  1
  C  C24  1  0.14621800  0.83404700  0.19463400  1
  C  C25  1  0.85378200  0.16595300  0.69463400  1
  C  C26  1  0.35378200  0.33404700  0.69463400  1
  C  C27  1  0.64621800  0.66595300  0.19463400  1
  C  C28  1  0.66555300  0.99237400  0.20160600  1
  C  C29  1  0.33444700  0.00762600  0.70160600  1
  C  C30  1  0.83444700  0.49237400  0.70160600  1
  C  C31  1  0.16555300  0.50762600  0.20160600  1
  C  C32  1  0.48063900  0.82038100  0.41590200  1
  C  C33  1  0.51936100  0.17961900  0.91590200  1
  C  C34  1  0.01936100  0.32038100  0.91590200  1
  C  C35  1  0.98063900  0.67961900  0.41590200  1
  C  C36  1  0.49690800  0.51021100  0.42916600  1
  C  C37  1  0.00309200  0.01021100  0.92916600  1
  C  C38  1  0.50309200  0.48978900  0.92916600  1
  C  C39  1  0.99690800  0.98978900  0.42916600  1
