# generated using pymatgen
data_Cu6Ni3C4
_symmetry_space_group_name_H-M   'P 1'
_cell_length_a   8.68306400
_cell_length_b   10.18478100
_cell_length_c   12.95302621
_cell_angle_alpha   88.89606238
_cell_angle_beta   90.00000000
_cell_angle_gamma   90.00000000
_symmetry_Int_Tables_number   1
_chemical_formula_structural   Cu6Ni3C4
_chemical_formula_sum   'Cu24 Ni12 C16'
_cell_volume   1145.28961961
_cell_formula_units_Z   4
loop_
 _symmetry_equiv_pos_site_id
 _symmetry_equiv_pos_as_xyz
  1  'x, y, z'
loop_
 _atom_site_type_symbol
 _atom_site_label
 _atom_site_symmetry_multiplicity
 _atom_site_fract_x
 _atom_site_fract_y
 _atom_site_fract_z
 _atom_site_occupancy
  C  C0  1  0.51504800  0.32914200  0.86700300  1
  C  C1  1  0.01504800  0.17085800  0.13299700  1
  C  C2  1  0.21415800  0.94956700  0.73413800  1
  C  C3  1  0.98495200  0.82914200  0.86700300  1
  C  C4  1  0.56080200  0.59900700  0.79044600  1
  C  C5  1  0.06080200  0.90099300  0.20955400  1
  C  C6  1  0.43919800  0.40099300  0.20955400  1
  C  C7  1  0.93919800  0.09900700  0.79044600  1
  C  C8  1  0.58163100  0.37598900  0.65075000  1
  C  C9  1  0.08163100  0.12401100  0.34925000  1
  C  C10  1  0.41836900  0.62401100  0.34925000  1
  C  C11  1  0.91836900  0.87598900  0.65075000  1
  C  C12  1  0.28584200  0.44956700  0.73413800  1
  C  C13  1  0.78584200  0.05043300  0.26586200  1
  C  C14  1  0.71415800  0.55043300  0.26586200  1
  C  C15  1  0.48495200  0.67085800  0.13299700  1
  Ni  Ni16  1  0.68220700  0.30674300  0.53583700  1
  Ni  Ni17  1  0.31779300  0.69325700  0.46416300  1
  Ni  Ni18  1  0.81779300  0.80674300  0.53583700  1
  Ni  Ni19  1  0.54527900  0.21023700  0.97812300  1
  Ni  Ni20  1  0.04527900  0.28976300  0.02187700  1
  Ni  Ni21  1  0.45472100  0.78976300  0.02187700  1
  Ni  Ni22  1  0.95472100  0.71023700  0.97812300  1
  Ni  Ni23  1  0.07408600  0.45929400  0.70520000  1
  Ni  Ni24  1  0.57408600  0.04070600  0.29480000  1
  Ni  Ni25  1  0.92591400  0.54070600  0.29480000  1
  Ni  Ni26  1  0.42591400  0.95929400  0.70520000  1
  Ni  Ni27  1  0.18220700  0.19325700  0.46416300  1
  Cu  Cu28  1  0.57603500  0.47819400  0.88038400  1
  Cu  Cu29  1  0.09576900  0.21161000  0.24187800  1
  Cu  Cu30  1  0.40423100  0.71161000  0.24187800  1
  Cu  Cu31  1  0.90423100  0.78839000  0.75812200  1
  Cu  Cu32  1  0.63446100  0.51978500  0.68911000  1
  Cu  Cu33  1  0.13446100  0.98021500  0.31089000  1
  Cu  Cu34  1  0.36553900  0.48021500  0.31089000  1
  Cu  Cu35  1  0.86553900  0.01978500  0.68911000  1
  Cu  Cu36  1  0.33634700  0.35322200  0.83114000  1
  Cu  Cu37  1  0.83634700  0.14677800  0.16886000  1
  Cu  Cu38  1  0.66365300  0.64677800  0.16886000  1
  Cu  Cu39  1  0.16365300  0.85322200  0.83114000  1
  Cu  Cu40  1  0.12732200  0.08501600  0.76250500  1
  Cu  Cu41  1  0.59576900  0.28839000  0.75812200  1
  Cu  Cu42  1  0.62732200  0.41498400  0.23749500  1
  Cu  Cu43  1  0.87267800  0.91498400  0.23749500  1
  Cu  Cu44  1  0.07603500  0.02180600  0.11961600  1
  Cu  Cu45  1  0.42396500  0.52180600  0.11961600  1
  Cu  Cu46  1  0.92396500  0.97819400  0.88038400  1
  Cu  Cu47  1  0.39447800  0.39337500  0.64165900  1
  Cu  Cu48  1  0.89447800  0.10662500  0.35834100  1
  Cu  Cu49  1  0.60552200  0.60662500  0.35834100  1
  Cu  Cu50  1  0.10552200  0.89337500  0.64165900  1
  Cu  Cu51  1  0.37267800  0.58501600  0.76250500  1
