# generated using pymatgen
data_Cu5NiC6
_symmetry_space_group_name_H-M   'P 1'
_cell_length_a   8.28347490
_cell_length_b   8.28347490
_cell_length_c   6.84986403
_cell_angle_alpha   84.47936166
_cell_angle_beta   84.47936166
_cell_angle_gamma   91.79834685
_symmetry_Int_Tables_number   1
_chemical_formula_structural   Cu5NiC6
_chemical_formula_sum   'Cu10 Ni2 C12'
_cell_volume   465.26803103
_cell_formula_units_Z   2
loop_
 _symmetry_equiv_pos_site_id
 _symmetry_equiv_pos_as_xyz
  1  'x, y, z'
loop_
 _atom_site_type_symbol
 _atom_site_label
 _atom_site_symmetry_multiplicity
 _atom_site_fract_x
 _atom_site_fract_y
 _atom_site_fract_z
 _atom_site_occupancy
  Ni  Ni0  1  0.31707200  0.68292800  0.75000000  1
  Ni  Ni1  1  0.68292800  0.31707200  0.25000000  1
  Cu  Cu2  1  0.35059300  0.20263800  0.69739600  1
  Cu  Cu3  1  0.79736200  0.64940700  0.80260400  1
  Cu  Cu4  1  0.64940700  0.79736200  0.30260400  1
  Cu  Cu5  1  0.20263800  0.35059300  0.19739600  1
  Cu  Cu6  1  0.93410400  0.38528400  0.71013800  1
  Cu  Cu7  1  0.38528400  0.93410400  0.21013800  1
  Cu  Cu8  1  0.06589600  0.61471600  0.28986200  1
  Cu  Cu9  1  0.61471600  0.06589600  0.78986200  1
  Cu  Cu10  1  0.00000000  0.00000000  0.00000000  1
  Cu  Cu11  1  0.00000000  0.00000000  0.50000000  1
  C  C12  1  0.27689900  0.48223400  0.79292600  1
  C  C13  1  0.51776600  0.72310100  0.70707400  1
  C  C14  1  0.72310100  0.51776600  0.20707400  1
  C  C15  1  0.48223400  0.27689900  0.29292600  1
  C  C16  1  0.24102800  0.77119400  0.94725700  1
  C  C17  1  0.22880600  0.75897200  0.55274300  1
  C  C18  1  0.75897200  0.22880600  0.05274300  1
  C  C19  1  0.77119400  0.24102800  0.44725700  1
  C  C20  1  0.81175400  0.90863800  0.85423700  1
  C  C21  1  0.09136200  0.18824600  0.64576300  1
  C  C22  1  0.18824600  0.09136200  0.14576300  1
  C  C23  1  0.90863800  0.81175400  0.35423700  1
