# generated using pymatgen
data_Cu5Ni9C46
_symmetry_space_group_name_H-M   'P 1'
_cell_length_a   9.35201541
_cell_length_b   9.35201507
_cell_length_c   22.79248901
_cell_angle_alpha   89.89148966
_cell_angle_beta   90.10851034
_cell_angle_gamma   119.90915825
_symmetry_Int_Tables_number   1
_chemical_formula_structural   Cu5Ni9C46
_chemical_formula_sum   'Cu10 Ni18 C92'
_cell_volume   1727.93967356
_cell_formula_units_Z   2
loop_
 _symmetry_equiv_pos_site_id
 _symmetry_equiv_pos_as_xyz
  1  'x, y, z'
loop_
 _atom_site_type_symbol
 _atom_site_label
 _atom_site_symmetry_multiplicity
 _atom_site_fract_x
 _atom_site_fract_y
 _atom_site_fract_z
 _atom_site_occupancy
  Ni  Ni0  1  0.34011803  0.32968723  0.25215331  1
  Ni  Ni1  1  0.67031277  0.65988197  0.75215331  1
  Ni  Ni2  1  0.03036312  0.69825927  0.59021234  1
  Ni  Ni3  1  0.66634023  0.96815257  0.58869168  1
  Ni  Ni4  1  0.30174073  0.96963688  0.09021234  1
  Ni  Ni5  1  0.03184743  0.33365977  0.08869168  1
  Ni  Ni6  1  0.96229281  0.67333515  0.90230125  1
  Ni  Ni7  1  0.70855841  0.03455307  0.90407557  1
  Ni  Ni8  1  0.33287493  0.29293037  0.90554823  1
  Ni  Ni9  1  0.96544693  0.29144159  0.40407557  1
  Ni  Ni10  1  0.32666485  0.03770719  0.40230125  1
  Ni  Ni11  1  0.70706963  0.66712507  0.40554823  1
  Ni  Ni12  1  0.02327580  0.02213349  0.49574034  1
  Ni  Ni13  1  0.97786651  0.97672420  0.99574034  1
  Ni  Ni14  1  0.66615862  0.31558029  0.82371943  1
  Ni  Ni15  1  0.68441971  0.33384138  0.32371943  1
  Ni  Ni16  1  0.36331247  0.69131588  0.17266689  1
  Ni  Ni17  1  0.30868412  0.63668753  0.67266689  1
  Cu  Cu18  1  0.98893681  0.99174450  0.34231337  1
  Cu  Cu19  1  0.00825550  0.01106319  0.84231337  1
  Cu  Cu20  1  0.01470218  0.01295978  0.66045394  1
  Cu  Cu21  1  0.98704022  0.98529782  0.16045394  1
  Cu  Cu22  1  0.65616324  0.32506834  0.68601843  1
  Cu  Cu23  1  0.67493166  0.34383676  0.18601843  1
  Cu  Cu24  1  0.66857067  0.33996704  0.97847358  1
  Cu  Cu25  1  0.66003296  0.33142933  0.47847358  1
  Cu  Cu26  1  0.34066250  0.66600652  0.01612508  1
  Cu  Cu27  1  0.33399348  0.65933750  0.51612508  1
  C  C28  1  0.33302960  0.67123629  0.31765975  1
  C  C29  1  0.32876371  0.66697040  0.81765975  1
  C  C30  1  0.31287535  0.99645344  0.25162799  1
  C  C31  1  0.67453379  0.68253979  0.25726068  1
  C  C32  1  0.01295566  0.32474245  0.25358489  1
  C  C33  1  0.31746021  0.32546621  0.75726068  1
  C  C34  1  0.00354656  0.68712465  0.75162799  1
  C  C35  1  0.67525755  0.98704434  0.75358489  1
  C  C36  1  0.63015277  0.66790281  0.91289832  1
  C  C37  1  0.03794397  0.37157224  0.91926751  1
  C  C38  1  0.33365449  0.96170910  0.91935480  1
  C  C39  1  0.62842776  0.96205603  0.41926751  1
  C  C40  1  0.33209719  0.36984723  0.41289832  1
  C  C41  1  0.03829090  0.66634551  0.41935480  1
  C  C42  1  0.96255954  0.32646285  0.58057398  1
  C  C43  1  0.35510004  0.02448483  0.57909708  1
  C  C44  1  0.67759808  0.64801401  0.58415445  1
  C  C45  1  0.97551517  0.64489996  0.07909708  1
  C  C46  1  0.67353715  0.03744046  0.08057398  1
  C  C47  1  0.35198599  0.32240192  0.08415445  1
  C  C48  1  0.22287532  0.02025558  0.30383695  1
  C  C49  1  0.76880718  0.75338170  0.31414584  1
  C  C50  1  0.99990937  0.22585963  0.30880211  1
  C  C51  1  0.24661830  0.23119282  0.81414584  1
  C  C52  1  0.97974442  0.77712468  0.80383695  1
  C  C53  1  0.77414037  0.00009063  0.80880211  1
  C  C54  1  0.75173015  0.95018237  0.69911603  1
  C  C55  1  0.20724154  0.23682395  0.70485869  1
  C  C56  1  0.03671872  0.78573612  0.69407020  1
  C  C57  1  0.76317605  0.79275846  0.20485869  1
  C  C58  1  0.04981763  0.24826985  0.19911603  1
  C  C59  1  0.21426388  0.96328128  0.19407020  1
  C  C60  1  0.85915015  0.33037333  0.62881281  1
  C  C61  1  0.45901565  0.12824394  0.62762659  1
  C  C62  1  0.67803765  0.55682422  0.63708807  1
  C  C63  1  0.87175606  0.54098435  0.12762659  1
  C  C64  1  0.66962667  0.14084985  0.12881281  1
  C  C65  1  0.44317578  0.32196235  0.13708807  1
  C  C66  1  0.44104295  0.32394046  0.02988426  1
  C  C67  1  0.89895814  0.57157455  0.02172858  1
  C  C68  1  0.67932556  0.11668893  0.02305482  1
  C  C69  1  0.42842545  0.10104186  0.52172858  1
  C  C70  1  0.67605954  0.55895705  0.52988426  1
  C  C71  1  0.88331107  0.32067444  0.52305482  1
  C  C72  1  0.55064979  0.68394840  0.96887560  1
  C  C73  1  0.11638885  0.44017639  0.97919639  1
  C  C74  1  0.32380991  0.88159964  0.97893127  1
  C  C75  1  0.55982361  0.88361115  0.47919639  1
  C  C76  1  0.31605160  0.44935021  0.46887560  1
  C  C77  1  0.11840036  0.67619009  0.47893127  1
  C  C78  1  0.16079056  0.66735229  0.36912814  1
  C  C79  1  0.50846598  0.83525230  0.36988019  1
  C  C80  1  0.33028467  0.47899757  0.35884242  1
  C  C81  1  0.16474770  0.49153402  0.86988019  1
  C  C82  1  0.33264771  0.83920944  0.86912814  1
  C  C83  1  0.52100243  0.66971533  0.85884242  1
  C  C84  1  0.01603547  0.81765009  0.41193313  1
  C  C85  1  0.80439283  0.98982224  0.41271304  1
  C  C86  1  0.18511481  0.19202654  0.40906556  1
  C  C87  1  0.01017776  0.19560717  0.91271304  1
  C  C88  1  0.18234991  0.98396453  0.91193313  1
  C  C89  1  0.80797346  0.81488519  0.90906556  1
  C  C90  1  0.97593291  0.17404035  0.58479785  1
  C  C91  1  0.18381380  -0.00217452  0.58199023  1
  C  C92  1  0.83228181  0.81420826  0.58300066  1
  C  C93  1  0.00217452  0.81618620  0.08199023  1
  C  C94  1  0.82595965  0.02406709  0.08479785  1
  C  C95  1  0.18579174  0.16771819  0.08300066  1
  C  C96  1  0.64735630  0.13325075  0.74765864  1
  C  C97  1  0.49953769  0.37246276  0.75090011  1
  C  C98  1  0.85187849  0.51439522  0.74799748  1
  C  C99  1  0.62753724  0.50046231  0.25090011  1
  C  C100  1  0.86674925  0.35264370  0.24765864  1
  C  C101  1  0.48560478  0.14812151  0.24799748  1
  C  C102  1  0.63004117  0.50184258  0.90845318  1
  C  C103  1  0.87401385  0.37303097  0.90945235  1
  C  C104  1  0.49725606  0.12749314  0.91086305  1
  C  C105  1  0.62696903  0.12598615  0.40945235  1
  C  C106  1  0.49815742  0.36995883  0.40845318  1
  C  C107  1  0.87250686  0.50274394  0.41086305  1
  C  C108  1  0.32532059  0.46750895  0.08679961  1
  C  C109  1  0.14186488  0.65595231  0.08551990  1
  C  C110  1  0.52065232  0.87193633  0.08555108  1
  C  C111  1  0.34404769  0.85813512  0.58551990  1
  C  C112  1  0.53249105  0.67467941  0.58679961  1
  C  C113  1  0.12806367  0.47934768  0.58555108  1
  C  C114  1  0.33154065  0.83791383  0.26489673  1
  C  C115  1  0.49896776  0.67600822  0.26221061  1
  C  C116  1  0.17565358  0.50423355  0.26101197  1
  C  C117  1  0.32399178  0.50103224  0.76221061  1
  C  C118  1  0.16208617  0.66845935  0.76489673  1
  C  C119  1  0.49576645  0.82434642  0.76101197  1
