# generated using pymatgen
data_Cu2Ni4C13
_symmetry_space_group_name_H-M   'P 1'
_cell_length_a   6.89776842
_cell_length_b   6.89776768
_cell_length_c   5.75939284
_cell_angle_alpha   73.44212236
_cell_angle_beta   106.55787982
_cell_angle_gamma   99.93215699
_symmetry_Int_Tables_number   1
_chemical_formula_structural   Cu2Ni4C13
_chemical_formula_sum   'Cu2 Ni4 C13'
_cell_volume   250.52677280
_cell_formula_units_Z   1
loop_
 _symmetry_equiv_pos_site_id
 _symmetry_equiv_pos_as_xyz
  1  'x, y, z'
loop_
 _atom_site_type_symbol
 _atom_site_label
 _atom_site_symmetry_multiplicity
 _atom_site_fract_x
 _atom_site_fract_y
 _atom_site_fract_z
 _atom_site_occupancy
  C  C0  1  0.27923100  0.27923100  0.25000000  1
  Ni  Ni1  1  0.19689900  0.61683200  0.75845100  1
  Ni  Ni2  1  0.39090900  0.81868200  0.24894000  1
  Ni  Ni3  1  0.61683200  0.19689900  0.74154900  1
  Ni  Ni4  1  0.81868200  0.39090900  0.25106000  1
  Cu  Cu5  1  0.07928200  0.07928200  0.75000000  1
  Cu  Cu6  1  0.91987700  0.91987700  0.25000000  1
  C  C7  1  0.03128500  0.80285500  0.64970600  1
  C  C8  1  0.08256600  0.37228100  0.77844800  1
  C  C9  1  0.20720800  0.00535000  0.15404000  1
  C  C10  1  0.36483300  0.66105000  0.56876200  1
  C  C11  1  0.37228100  0.08256600  0.72155200  1
  C  C12  1  0.31639100  0.59406900  0.08857600  1
  C  C13  1  0.66105000  0.36483300  0.93123800  1
  C  C14  1  0.63710000  0.91033700  0.27680500  1
  C  C15  1  0.59406900  0.31639100  0.41142400  1
  C  C16  1  0.80285500  0.03128500  0.85029400  1
  C  C17  1  0.91033700  0.63710000  0.22319500  1
  C  C18  1  0.00535000  0.20720800  0.34596000  1
