# generated using pymatgen
data_Cu2NiC12
_symmetry_space_group_name_H-M   'P 1'
_cell_length_a   7.34445674
_cell_length_b   7.34445647
_cell_length_c   6.96494100
_cell_angle_alpha   61.69511979
_cell_angle_beta   61.69512095
_cell_angle_gamma   56.44609535
_symmetry_Int_Tables_number   1
_chemical_formula_structural   Cu2NiC12
_chemical_formula_sum   'Cu2 Ni1 C12'
_cell_volume   263.89151809
_cell_formula_units_Z   1
loop_
 _symmetry_equiv_pos_site_id
 _symmetry_equiv_pos_as_xyz
  1  'x, y, z'
loop_
 _atom_site_type_symbol
 _atom_site_label
 _atom_site_symmetry_multiplicity
 _atom_site_fract_x
 _atom_site_fract_y
 _atom_site_fract_z
 _atom_site_occupancy
  Ni  Ni0  1  0.09222500  0.09222500  0.65777500  1
  C  C1  1  0.48935000  0.48935000  0.02947600  1
  C  C2  1  0.02628400  0.57529200  0.44921200  1
  C  C3  1  0.48935000  0.48935000  0.49182300  1
  C  C4  1  0.57529200  0.02628400  0.44921200  1
  Cu  Cu5  1  0.15285300  0.15285300  0.09714700  1
  Cu  Cu6  1  0.83555500  0.83555500  0.91444500  1
  C  C7  1  0.25703700  0.76467200  0.23914600  1
  C  C8  1  0.72332800  0.72332800  0.75232300  1
  C  C9  1  0.26701800  0.26701800  0.25851600  1
  C  C10  1  0.72332800  0.72332800  0.30101900  1
  C  C11  1  0.24542500  0.69311600  0.78072800  1
  C  C12  1  0.26701800  0.26701800  0.70745000  1
  C  C13  1  0.76467200  0.25703700  0.23914600  1
  C  C14  1  0.69311600  0.24542500  0.78072800  1
