# generated using pymatgen
data_Cu2Ni10C7
_symmetry_space_group_name_H-M   'P 1'
_cell_length_a   5.11123356
_cell_length_b   7.54580590
_cell_length_c   5.72200616
_cell_angle_alpha   98.24931997
_cell_angle_beta   98.52322707
_cell_angle_gamma   84.68912541
_symmetry_Int_Tables_number   1
_chemical_formula_structural   Cu2Ni10C7
_chemical_formula_sum   'Cu2 Ni10 C7'
_cell_volume   215.41912746
_cell_formula_units_Z   1
loop_
 _symmetry_equiv_pos_site_id
 _symmetry_equiv_pos_as_xyz
  1  'x, y, z'
loop_
 _atom_site_type_symbol
 _atom_site_label
 _atom_site_symmetry_multiplicity
 _atom_site_fract_x
 _atom_site_fract_y
 _atom_site_fract_z
 _atom_site_occupancy
  C  C0  1  0.50103510  0.49909504  0.48800788  1
  C  C1  1  0.47663143  0.99078068  0.50475536  1
  C  C2  1  0.55280351  0.69276668  0.10943670  1
  C  C3  1  0.47361625  0.31188866  0.86695768  1
  C  C4  1  0.99823300  0.67078070  0.67095812  1
  C  C5  1  0.98424837  0.31608639  0.34399202  1
  C  C6  1  0.99252955  0.98921598  0.99729502  1
  Ni  Ni7  1  0.86633519  0.42793790  0.62514798  1
  Ni  Ni8  1  0.85421880  0.76325478  0.96500161  1
  Ni  Ni9  1  0.85904238  0.09652297  0.29364287  1
  Ni  Ni10  1  0.66719389  0.08351304  0.81301334  1
  Ni  Ni11  1  0.65359005  0.74591556  0.45987648  1
  Ni  Ni12  1  0.65603340  0.42658876  0.16717611  1
  Ni  Ni13  1  0.36369574  0.56211294  0.81627818  1
  Ni  Ni14  1  0.33585962  0.24867782  0.52226446  1
  Ni  Ni15  1  0.32566105  0.91112344  0.18043314  1
  Ni  Ni16  1  0.14010094  0.89461148  0.71286600  1
  Cu  Cu17  1  0.14185267  0.55936942  0.34298796  1
  Cu  Cu18  1  0.14343007  0.23833277  0.03657607  1
