# generated using pymatgen
data_Cu(NiC6)2
_symmetry_space_group_name_H-M   'P 1'
_cell_length_a   6.56658200
_cell_length_b   6.56658200
_cell_length_c   5.49915000
_cell_angle_alpha   90.00000000
_cell_angle_beta   90.00000000
_cell_angle_gamma   90.00000000
_symmetry_Int_Tables_number   1
_chemical_formula_structural   Cu(NiC6)2
_chemical_formula_sum   'Cu1 Ni2 C12'
_cell_volume   237.12334340
_cell_formula_units_Z   1
loop_
 _symmetry_equiv_pos_site_id
 _symmetry_equiv_pos_as_xyz
  1  'x, y, z'
loop_
 _atom_site_type_symbol
 _atom_site_label
 _atom_site_symmetry_multiplicity
 _atom_site_fract_x
 _atom_site_fract_y
 _atom_site_fract_z
 _atom_site_occupancy
  C  C0  1  0.75000000  0.25000000  0.00000000  1
  C  C1  1  0.75000000  0.25000000  0.50000000  1
  Ni  Ni2  1  0.25000000  0.25000000  0.61903200  1
  Ni  Ni3  1  0.75000000  0.75000000  0.38096800  1
  Cu  Cu4  1  0.25000000  0.75000000  0.50000000  1
  C  C5  1  0.04734600  0.75000000  0.31726400  1
  C  C6  1  0.25000000  0.25000000  0.32219900  1
  C  C7  1  0.25000000  0.54734600  0.68273600  1
  C  C8  1  0.25000000  0.95265400  0.68273600  1
  C  C9  1  0.45265400  0.75000000  0.31726400  1
  C  C10  1  0.54326300  0.25000000  0.72635700  1
  C  C11  1  0.75000000  0.04326300  0.27364300  1
  C  C12  1  0.75000000  0.45673700  0.27364300  1
  C  C13  1  0.75000000  0.75000000  0.67780100  1
  C  C14  1  0.95673700  0.25000000  0.72635700  1
