# generated using pymatgen
data_Cu6Ni3C61
_symmetry_space_group_name_H-M   'P 1'
_cell_length_a   17.74418220
_cell_length_b   8.90046635
_cell_length_c   23.36011086
_cell_angle_alpha   90.02645129
_cell_angle_beta   89.67386484
_cell_angle_gamma   120.14379900
_symmetry_Int_Tables_number   1
_chemical_formula_structural   Cu6Ni3C61
_chemical_formula_sum   'Cu18 Ni9 C183'
_cell_volume   3190.32152413
_cell_formula_units_Z   3
loop_
 _symmetry_equiv_pos_site_id
 _symmetry_equiv_pos_as_xyz
  1  'x, y, z'
loop_
 _atom_site_type_symbol
 _atom_site_label
 _atom_site_symmetry_multiplicity
 _atom_site_fract_x
 _atom_site_fract_y
 _atom_site_fract_z
 _atom_site_occupancy
  C  C0  1  0.00143827  0.98705774  0.49440701  1
  C  C1  1  0.49951485  0.01451285  0.99819315  1
  C  C2  1  0.32823273  0.32285906  0.83753276  1
  C  C3  1  0.83528417  0.33412991  0.83499895  1
  C  C4  1  0.32558370  0.32245243  0.33015911  1
  C  C5  1  0.83015051  0.33628203  0.33548326  1
  C  C6  1  0.00460835  0.99321854  0.35237784  1
  C  C7  1  0.50005144  0.00978761  0.85517535  1
  C  C8  1  0.00186032  0.01075699  0.65043459  1
  C  C9  1  0.50128847  0.99290429  0.15150050  1
  C  C10  1  0.83647290  0.33471309  0.98161914  1
  C  C11  1  0.33501267  0.33518463  0.47855911  1
  Ni  Ni12  1  0.15071427  0.00226214  0.25061071  1
  Ni  Ni13  1  0.64901236  0.99569075  0.25019616  1
  Ni  Ni14  1  0.14923427  0.30327604  0.75031789  1
  Ni  Ni15  1  0.68927779  0.03881623  0.58207044  1
  Ni  Ni16  1  0.18798423  0.33807719  0.08118620  1
  Ni  Ni17  1  0.51986167  0.37855653  0.92072646  1
  Ni  Ni18  1  0.16545696  0.94657040  0.91664153  1
  Ni  Ni19  1  0.66332610  0.38160361  0.41616598  1
  Ni  Ni20  1  0.01909975  0.66220197  0.42044464  1
  Cu  Cu21  1  0.51011134  0.01639070  0.35184802  1
  Cu  Cu22  1  0.01185598  0.00616446  0.85402435  1
  Cu  Cu23  1  0.50531128  0.00234848  0.64619025  1
  Cu  Cu24  1  0.01282707  0.01035822  0.14901068  1
  Cu  Cu25  1  0.32447349  0.32793695  0.68347587  1
  Cu  Cu26  1  0.83364020  0.32746385  0.67956168  1
  Cu  Cu27  1  0.32669720  0.33426178  0.18351971  1
  Cu  Cu28  1  0.82705501  0.32272526  0.18497015  1
  Cu  Cu29  1  0.32638956  0.31672728  0.97813339  1
  Cu  Cu30  1  0.82536156  0.33433893  0.47617873  1
  Cu  Cu31  1  0.16344459  0.66624583  0.02253960  1
  Cu  Cu32  1  0.66612017  0.66300545  0.02183669  1
  Cu  Cu33  1  0.16759225  0.67178819  0.51711812  1
  Cu  Cu34  1  0.66325422  0.66489387  0.51930750  1
  Cu  Cu35  1  0.15660242  0.66865304  0.31193053  1
  Cu  Cu36  1  0.67075497  0.66876095  0.31273088  1
  Cu  Cu37  1  0.17011603  0.66968733  0.81459781  1
  Cu  Cu38  1  0.65936556  0.65847455  0.81592260  1
  C  C39  1  0.35115656  0.70461614  0.25452414  1
  C  C40  1  0.85373493  0.70599026  0.24613267  1
  C  C41  1  0.99856517  0.29474932  0.24835249  1
  C  C42  1  0.49834120  0.29809209  0.25059124  1
  C  C43  1  0.65116729  0.30091201  0.74878173  1
  C  C44  1  0.99658075  0.69646898  0.75055919  1
  C  C45  1  0.50002823  0.70205139  0.74845853  1
  C  C46  1  0.35459866  0.00307430  0.74634895  1
  C  C47  1  0.84938700  0.99711325  0.75428026  1
  C  C48  1  0.47864654  0.33214096  0.58656289  1
  C  C49  1  0.97994755  0.33896905  0.57972205  1
  C  C50  1  0.18731212  0.03205427  0.58167230  1
  C  C51  1  0.33212913  0.63259353  0.58394700  1
  C  C52  1  0.83178811  0.62340344  0.58168520  1
  C  C53  1  0.47766109  0.61774422  0.08099010  1
  C  C54  1  0.97799343  0.62668351  0.08601119  1
  C  C55  1  0.33306834  0.04168948  0.08146810  1
  C  C56  1  0.83394853  0.03166473  0.08444713  1
  C  C57  1  0.68750264  0.34034480  0.08197626  1
  C  C58  1  0.31042951  0.66260020  0.91903967  1
  C  C59  1  0.81352719  0.67561515  0.91339191  1
  C  C60  1  0.02151314  0.37237869  0.91439379  1
  C  C61  1  0.66833789  0.95372786  0.91693831  1
  C  C62  1  0.31447463  0.95124189  0.41344981  1
  C  C63  1  0.81093999  0.95805673  0.41884085  1
  C  C64  1  0.16721347  0.38487259  0.41569360  1
  C  C65  1  0.52229331  0.67219324  0.41411593  1
  C  C66  1  0.11780982  0.05081669  0.30654975  1
  C  C67  1  0.60903858  0.03894265  0.30806823  1
  C  C68  1  0.40774463  0.78913359  0.30590901  1
  C  C69  1  0.90319561  0.77407945  0.29794318  1
  C  C70  1  0.47780727  0.18365127  0.30283854  1
  C  C71  1  0.97898419  0.18979117  0.29931466  1
  C  C72  1  0.10860670  0.17869676  0.80801433  1
  C  C73  1  0.61548233  0.19452235  0.79955680  1
  C  C74  1  0.48357183  0.77325587  0.79958946  1
  C  C75  1  0.97624680  0.76967659  0.80251818  1
  C  C76  1  0.40601030  0.03481804  0.79743548  1
  C  C77  1  0.90469747  0.02512044  0.80550650  1
  C  C78  1  0.39674207  0.97363948  0.69434881  1
  C  C79  1  0.88252235  0.96529304  0.70203365  1
  C  C80  1  0.09604694  0.23040773  0.69363237  1
  C  C81  1  0.59574680  0.22202520  0.69716614  1
  C  C82  1  0.00935680  0.79586574  0.69919343  1
  C  C83  1  0.51370617  0.81187809  0.69631480  1
  C  C84  1  0.38411950  0.80483462  0.20257848  1
  C  C85  1  0.89384584  0.81696472  0.19424425  1
  C  C86  1  0.00945437  0.21323261  0.19529301  1
  C  C87  1  0.51218678  0.22325290  0.19971331  1
  C  C88  1  0.08949680  0.95991730  0.19327011  1
  C  C89  1  0.59642118  0.96238866  0.19319448  1
  C  C90  1  0.43685959  0.36375900  0.63873489  1
  C  C91  1  0.94452995  0.37168504  0.63548102  1
  C  C92  1  0.24135335  0.11234412  0.63549292  1
  C  C93  1  0.74667351  0.11662075  0.64170566  1
  C  C94  1  0.31591700  0.52232193  0.63664744  1
  C  C95  1  0.81830687  0.51787081  0.63605664  1
  C  C96  1  0.44087006  0.51274294  0.13479360  1
  C  C97  1  0.93666660  0.50995989  0.13752430  1
  C  C98  1  0.32096647  0.12242078  0.13392060  1
  C  C99  1  0.81503822  0.10977503  0.13571273  1
  C  C100  1  0.24925873  0.38274372  0.13803225  1
  C  C101  1  0.74167568  0.36704294  0.13464549  1
  C  C102  1  0.23197530  0.30168008  0.02547968  1
  C  C103  1  0.72794345  0.31720170  0.03110670  1
  C  C104  1  0.42495501  0.52897776  0.03006835  1
  C  C105  1  0.92794854  0.55255935  0.03454878  1
  C  C106  1  0.34856619  0.15151639  0.02960737  1
  C  C107  1  0.85002864  0.13616707  0.03344372  1
  C  C108  1  0.22895487  0.14100928  0.53212147  1
  C  C109  1  0.73424746  0.16626083  0.52801378  1
  C  C110  1  0.35008739  0.55999912  0.53398364  1
  C  C111  1  0.84744747  0.54103155  0.53165182  1
  C  C112  1  0.42704192  0.29975857  0.53566776  1
  C  C113  1  0.92407382  0.32014977  0.53107453  1
  C  C114  1  0.26762857  0.68616795  0.96992142  1
  C  C115  1  0.77614547  0.70508995  0.96638472  1
  C  C116  1  0.07290384  0.44760693  0.96686474  1
  C  C117  1  0.58555422  0.47277852  0.97498887  1
  C  C118  1  0.15058655  0.82868164  0.97367756  1
  C  C119  1  0.66030652  0.85160966  0.96966959  1
  C  C120  1  0.27896122  0.85024189  0.46836743  1
  C  C121  1  0.76832994  0.85126832  0.47101381  1
  C  C122  1  0.16013468  0.46831600  0.47096114  1
  C  C123  1  0.64954102  0.46787042  0.47499413  1
  C  C124  1  0.08228429  0.70229752  0.47722137  1
  C  C125  1  0.57325518  0.70058541  0.46782666  1
  C  C126  1  0.05916809  0.61776841  0.36319836  1
  C  C127  1  0.56538870  0.64683542  0.36375955  1
  C  C128  1  0.25742680  0.86477992  0.36401250  1
  C  C129  1  0.75872186  0.88074362  0.36650160  1
  C  C130  1  0.18025640  0.49407414  0.36419932  1
  C  C131  1  0.68388920  0.50292518  0.35892033  1
  C  C132  1  0.06354809  0.48123498  0.86283686  1
  C  C133  1  0.55884007  0.49277626  0.85975153  1
  C  C134  1  0.18421423  0.86740155  0.85767413  1
  C  C135  1  0.68222417  0.87451609  0.86360520  1
  C  C136  1  0.25950654  0.63610562  0.86552123  1
  C  C137  1  0.75706172  0.64521557  0.86184155  1
  C  C138  1  0.00716412  0.82761031  0.42053363  1
  C  C139  1  0.51225056  0.82697317  0.40821544  1
  C  C140  1  0.40019835  0.96242333  0.40592631  1
  C  C141  1  0.89730677  0.97904239  0.41546999  1
  C  C142  1  0.08699324  0.21816298  0.41498888  1
  C  C143  1  0.57463529  0.19379362  0.41009761  1
  C  C144  1  0.01121055  0.19642798  0.90816352  1
  C  C145  1  0.51067910  0.19107977  0.91887810  1
  C  C146  1  0.07546092  0.95367453  0.91073961  1
  C  C147  1  0.58820662  0.96030583  0.91349549  1
  C  C148  1  0.39693510  0.81556098  0.91478479  1
  C  C149  1  0.89883506  0.83686565  0.90471859  1
  C  C150  1  0.48684579  0.17525439  0.59701546  1
  C  C151  1  0.98570743  0.18166104  0.58390180  1
  C  C152  1  0.09995168  0.00573106  0.58830526  1
  C  C153  1  0.59315490  0.02175064  0.59265199  1
  C  C154  1  0.40833656  0.80874969  0.59481247  1
  C  C155  1  0.90792736  0.79604174  0.58705287  1
  C  C156  1  0.48567596  0.78877794  0.08376134  1
  C  C157  1  0.98384236  0.79696172  0.09460803  1
  C  C158  1  0.40858770  0.01854473  0.08528419  1
  C  C159  1  0.90819486  0.00567134  0.09599603  1
  C  C160  1  0.09066725  0.16820308  0.08972540  1
  C  C161  1  0.59955853  0.19280413  0.08765172  1
  C  C162  1  0.34697807  0.16217196  0.73736870  1
  C  C163  1  0.84145929  0.15947280  0.74932683  1
  C  C164  1  0.24895171  0.32104860  0.74657719  1
  C  C165  1  0.74068685  0.32369499  0.74016668  1
  C  C166  1  0.42437781  0.52380216  0.73866532  1
  C  C167  1  0.91535714  0.51326847  0.74489171  1
  C  C168  1  0.34759495  0.53169594  0.24904416  1
  C  C169  1  0.84533704  0.52966751  0.23760071  1
  C  C170  1  0.42107746  0.32349506  0.24475866  1
  C  C171  1  0.92332798  0.32607423  0.23908075  1
  C  C172  1  0.25005423  0.17476030  0.24204887  1
  C  C173  1  0.74844546  0.17694300  0.24639044  1
  C  C174  1  0.31701042  0.50320991  0.92305037  1
  C  C175  1  0.82281233  0.52171828  0.91748239  1
  C  C176  1  0.42661474  0.37584785  0.92524300  1
  C  C177  1  0.93511917  0.35574542  0.91740520  1
  C  C178  1  0.25128038  0.14049306  0.91941832  1
  C  C179  1  0.74615454  0.12672728  0.91884640  1
  C  C180  1  0.32369611  0.12359073  0.41850776  1
  C  C181  1  0.81548168  0.12913210  0.42358489  1
  C  C182  1  0.24551049  0.36861447  0.41886606  1
  C  C183  1  0.74962034  0.36066866  0.41972403  1
  C  C184  1  0.43650513  0.51533155  0.41842908  1
  C  C185  1  0.92578603  0.47560162  0.42553448  1
  C  C186  1  0.17715795  0.50902128  0.07196444  1
  C  C187  1  0.68594786  0.50825565  0.07896025  1
  C  C188  1  0.06591029  0.64554655  0.08135380  1
  C  C189  1  0.56714808  0.63816104  0.07689046  1
  C  C190  1  0.25145602  0.87177618  0.07562703  1
  C  C191  1  0.75230938  0.85580540  0.07713659  1
  C  C192  1  0.18574074  0.86216743  0.57838568  1
  C  C193  1  0.67567008  0.84470314  0.57284563  1
  C  C194  1  0.25263385  0.64837328  0.57716145  1
  C  C195  1  0.75077904  0.63095200  0.57630738  1
  C  C196  1  0.06845392  0.49585565  0.57584899  1
  C  C197  1  0.56613012  0.48801346  0.58182612  1
  C  C198  1  0.16228719  0.83044079  0.25429564  1
  C  C199  1  0.66293478  0.83036646  0.26267351  1
  C  C200  1  0.26176442  0.67247671  0.26529644  1
  C  C201  1  0.76492124  0.68220950  0.25116898  1
  C  C202  1  0.08017409  0.46577670  0.25296707  1
  C  C203  1  0.57680747  0.46968688  0.26054249  1
  C  C204  1  0.16309922  0.49687522  0.76253845  1
  C  C205  1  0.66069751  0.47687490  0.75498405  1
  C  C206  1  0.07305512  0.67652825  0.76056740  1
  C  C207  1  0.58157210  0.69109338  0.75297233  1
  C  C208  1  0.26694132  0.84831785  0.75113289  1
  C  C209  1  0.75934513  0.84233072  0.76356612  1
