# generated using pymatgen
data_Cu2NiC10
_symmetry_space_group_name_H-M   'P 1'
_cell_length_a   10.96202700
_cell_length_b   5.83442400
_cell_length_c   7.62831871
_cell_angle_alpha   85.45701627
_cell_angle_beta   90.00000000
_cell_angle_gamma   90.00000000
_symmetry_Int_Tables_number   1
_chemical_formula_structural   Cu2NiC10
_chemical_formula_sum   'Cu8 Ni4 C40'
_cell_volume   486.35240333
_cell_formula_units_Z   4
loop_
 _symmetry_equiv_pos_site_id
 _symmetry_equiv_pos_as_xyz
  1  'x, y, z'
loop_
 _atom_site_type_symbol
 _atom_site_label
 _atom_site_symmetry_multiplicity
 _atom_site_fract_x
 _atom_site_fract_y
 _atom_site_fract_z
 _atom_site_occupancy
  C  C0  1  0.57448200  0.13940200  0.31037300  1
  C  C1  1  0.07448200  0.86059800  0.18962700  1
  C  C2  1  0.42551800  0.86059800  0.68962700  1
  C  C3  1  0.92551800  0.13940200  0.81037300  1
  C  C4  1  0.60605400  0.70752500  0.25758000  1
  C  C5  1  0.10605400  0.29247500  0.24242000  1
  C  C6  1  0.39394600  0.29247500  0.74242000  1
  C  C7  1  0.89394600  0.70752500  0.75758000  1
  C  C8  1  0.47081500  0.74864000  0.34003300  1
  C  C9  1  0.97081500  0.25136000  0.15996700  1
  C  C10  1  0.52918500  0.25136000  0.65996700  1
  C  C11  1  0.02918500  0.74864000  0.84003300  1
  C  C12  1  0.49197200  0.80376300  0.12867400  1
  C  C13  1  0.99197200  0.19623700  0.37132600  1
  C  C14  1  0.50802800  0.19623700  0.87132600  1
  C  C15  1  0.00802800  0.80376300  0.62867400  1
  C  C16  1  0.40660100  0.39111700  0.16357500  1
  C  C17  1  0.90660100  0.60888300  0.33642500  1
  C  C18  1  0.59339900  0.60888300  0.83642500  1
  C  C19  1  0.09339900  0.39111700  0.66357500  1
  C  C20  1  0.34538600  0.14877600  0.24469600  1
  C  C21  1  0.84538600  0.85122400  0.25530400  1
  C  C22  1  0.65461400  0.85122400  0.75530400  1
  C  C23  1  0.15461400  0.14877600  0.74469600  1
  C  C24  1  0.37542400  0.35961000  0.37550200  1
  C  C25  1  0.87542400  0.64039000  0.12449800  1
  C  C26  1  0.62457600  0.64039000  0.62449800  1
  C  C27  1  0.12457600  0.35961000  0.87550200  1
  Ni  Ni28  1  0.74324300  0.26462200  0.95944200  1
  Ni  Ni29  1  0.24324300  0.73537800  0.54055800  1
  Ni  Ni30  1  0.25675700  0.73537800  0.04055800  1
  Ni  Ni31  1  0.75675700  0.26462200  0.45944200  1
  Cu  Cu32  1  0.53281900  0.81694900  0.24905200  1
  Cu  Cu33  1  0.03281900  0.18305100  0.25094800  1
  Cu  Cu34  1  0.46718100  0.18305100  0.75094800  1
  Cu  Cu35  1  0.96718100  0.81694900  0.74905200  1
  Cu  Cu36  1  0.40730100  0.27379400  0.27171900  1
  Cu  Cu37  1  0.90730100  0.72620600  0.22828100  1
  Cu  Cu38  1  0.59269900  0.72620600  0.72828100  1
  Cu  Cu39  1  0.09269900  0.27379400  0.77171900  1
  C  C40  1  0.74640200  0.07091400  0.38335700  1
  C  C41  1  0.24640200  0.92908600  0.11664300  1
  C  C42  1  0.25359800  0.92908600  0.61664300  1
  C  C43  1  0.75359800  0.07091400  0.88335700  1
  C  C44  1  0.85530600  0.33125100  0.52511700  1
  C  C45  1  0.35530600  0.66874900  0.97488300  1
  C  C46  1  0.14469400  0.66874900  0.47488300  1
  C  C47  1  0.64469400  0.33125100  0.02511700  1
  C  C48  1  0.65410000  0.38333600  0.45761300  1
  C  C49  1  0.15410000  0.61666400  0.04238700  1
  C  C50  1  0.34590000  0.61666400  0.54238700  1
  C  C51  1  0.84590000  0.38333600  0.95761300  1
