# generated using pymatgen
data_Cu16Ni6C7
_symmetry_space_group_name_H-M   'P 1'
_cell_length_a   7.75786083
_cell_length_b   7.75786083
_cell_length_c   7.75786083
_cell_angle_alpha   60.00000000
_cell_angle_beta   60.00000000
_cell_angle_gamma   60.00000000
_symmetry_Int_Tables_number   1
_chemical_formula_structural   Cu16Ni6C7
_chemical_formula_sum   'Cu16 Ni6 C7'
_cell_volume   330.14973678
_cell_formula_units_Z   1
loop_
 _symmetry_equiv_pos_site_id
 _symmetry_equiv_pos_as_xyz
  1  'x, y, z'
loop_
 _atom_site_type_symbol
 _atom_site_label
 _atom_site_symmetry_multiplicity
 _atom_site_fract_x
 _atom_site_fract_y
 _atom_site_fract_z
 _atom_site_occupancy
  Ni  Ni0  1  0.80863100  0.19136900  0.80863100  1
  Ni  Ni1  1  0.19136900  0.19136900  0.80863100  1
  Ni  Ni2  1  0.80863100  0.80863100  0.19136900  1
  Ni  Ni3  1  0.80863100  0.19136900  0.19136900  1
  Ni  Ni4  1  0.19136900  0.80863100  0.80863100  1
  Ni  Ni5  1  0.19136900  0.80863100  0.19136900  1
  Cu  Cu6  1  0.50735000  0.16421700  0.16421700  1
  Cu  Cu7  1  0.83578300  0.83578300  0.83578300  1
  Cu  Cu8  1  0.14975800  0.61674700  0.61674700  1
  Cu  Cu9  1  0.61674700  0.14975800  0.61674700  1
  Cu  Cu10  1  0.61674700  0.61674700  0.14975800  1
  Cu  Cu11  1  0.38325300  0.85024200  0.38325300  1
  Cu  Cu12  1  0.38325300  0.38325300  0.85024200  1
  Cu  Cu13  1  0.85024200  0.38325300  0.38325300  1
  Cu  Cu14  1  0.61674700  0.61674700  0.61674700  1
  Cu  Cu15  1  0.16421700  0.16421700  0.50735000  1
  Cu  Cu16  1  0.16421700  0.50735000  0.16421700  1
  Cu  Cu17  1  0.83578300  0.83578300  0.49265000  1
  Cu  Cu18  1  0.83578300  0.49265000  0.83578300  1
  Cu  Cu19  1  0.49265000  0.83578300  0.83578300  1
  Cu  Cu20  1  0.16421700  0.16421700  0.16421700  1
  Cu  Cu21  1  0.38325300  0.38325300  0.38325300  1
  C  C22  1  0.50000000  0.50000000  0.50000000  1
  C  C23  1  0.00000000  0.50000000  0.00000000  1
  C  C24  1  0.50000000  0.00000000  0.00000000  1
  C  C25  1  0.00000000  0.50000000  0.50000000  1
  C  C26  1  0.50000000  0.00000000  0.50000000  1
  C  C27  1  0.00000000  0.00000000  0.50000000  1
  C  C28  1  0.50000000  0.50000000  0.00000000  1
