# generated using pymatgen
data_Cu6Ni6C7
_symmetry_space_group_name_H-M   'P 1'
_cell_length_a   7.47512237
_cell_length_b   15.17517599
_cell_length_c   3.08707820
_cell_angle_alpha   90.00000000
_cell_angle_beta   90.00000000
_cell_angle_gamma   137.37279969
_symmetry_Int_Tables_number   1
_chemical_formula_structural   Cu6Ni6C7
_chemical_formula_sum   'Cu6 Ni6 C7'
_cell_volume   237.15532292
_cell_formula_units_Z   1
loop_
 _symmetry_equiv_pos_site_id
 _symmetry_equiv_pos_as_xyz
  1  'x, y, z'
loop_
 _atom_site_type_symbol
 _atom_site_label
 _atom_site_symmetry_multiplicity
 _atom_site_fract_x
 _atom_site_fract_y
 _atom_site_fract_z
 _atom_site_occupancy
  C  C0  1  0.51653612  0.16654947  0.50000000  1
  C  C1  1  0.99677668  0.01469333  0.00000000  1
  C  C2  1  0.09071086  0.36737864  0.00000000  1
  C  C3  1  0.00928963  0.66558897  -0.00000000  1
  C  C4  1  0.44166548  0.32624376  0.50000000  1
  C  C5  1  0.42687540  0.65898934  0.50000000  1
  C  C6  1  0.48488827  0.93233367  0.50000000  1
  Ni  Ni7  1  0.19024138  0.33557245  0.50000000  1
  Ni  Ni8  1  0.18328420  0.66440020  0.50000000  1
  Ni  Ni9  1  0.36451717  0.19531702  0.00000000  1
  Ni  Ni10  1  0.32935329  0.55320612  -0.00000000  1
  Ni  Ni11  1  0.26289858  0.85230858  0.00000000  1
  Ni  Ni12  1  0.84983275  0.02005685  0.50000000  1
  Cu  Cu13  1  0.15147390  0.98755880  0.50000000  1
  Cu  Cu14  1  0.69724449  0.46219444  -0.00000000  1
  Cu  Cu15  1  0.67943824  0.80362244  -0.00000000  1
  Cu  Cu16  1  0.68011406  0.15908244  0.00000000  1
  Cu  Cu17  1  0.86668578  0.35297835  0.50000000  1
  Cu  Cu18  1  0.80483870  0.64705012  0.50000000  1
