# generated using pymatgen
data_CuNiC8
_symmetry_space_group_name_H-M   'P 1'
_cell_length_a   11.13575900
_cell_length_b   5.65807100
_cell_length_c   9.35392657
_cell_angle_alpha   85.26737507
_cell_angle_beta   90.00000000
_cell_angle_gamma   90.00000000
_symmetry_Int_Tables_number   1
_chemical_formula_structural   CuNiC8
_chemical_formula_sum   'Cu4 Ni4 C32'
_cell_volume   587.35266744
_cell_formula_units_Z   4
loop_
 _symmetry_equiv_pos_site_id
 _symmetry_equiv_pos_as_xyz
  1  'x, y, z'
loop_
 _atom_site_type_symbol
 _atom_site_label
 _atom_site_symmetry_multiplicity
 _atom_site_fract_x
 _atom_site_fract_y
 _atom_site_fract_z
 _atom_site_occupancy
  C  C0  1  0.66852600  0.23540400  0.46007000  1
  C  C1  1  0.16852600  0.76459600  0.03993000  1
  C  C2  1  0.33147400  0.76459600  0.53993000  1
  C  C3  1  0.83147400  0.23540400  0.96007000  1
  Ni  Ni4  1  0.43597100  0.18393300  0.88134300  1
  Ni  Ni5  1  0.93597100  0.81606700  0.61865700  1
  Ni  Ni6  1  0.06402900  0.18393300  0.38134300  1
  Ni  Ni7  1  0.56402900  0.81606700  0.11865700  1
  Cu  Cu8  1  0.61975100  0.69056300  0.73510000  1
  Cu  Cu9  1  0.38024900  0.30943700  0.26490000  1
  Cu  Cu10  1  0.11975100  0.30943700  0.76490000  1
  Cu  Cu11  1  0.88024900  0.69056300  0.23510000  1
  C  C12  1  0.90539700  0.70589800  0.02691800  1
  C  C13  1  0.40539700  0.29410200  0.47308200  1
  C  C14  1  0.09460300  0.29410200  0.97308200  1
  C  C15  1  0.59460300  0.70589800  0.52691800  1
  C  C16  1  0.14589500  0.34465200  0.55900800  1
  C  C17  1  0.64589500  0.65534800  0.94099200  1
  C  C18  1  0.85410500  0.65534800  0.44099200  1
  C  C19  1  0.35410500  0.34465200  0.05900800  1
  C  C20  1  0.23811200  0.10371900  0.28930400  1
  C  C21  1  0.73811200  0.89628100  0.21069600  1
  C  C22  1  0.76188800  0.89628100  0.71069600  1
  C  C23  1  0.26188800  0.10371900  0.78930400  1
  C  C24  1  0.71317200  0.40575200  0.71815800  1
  C  C25  1  0.21317200  0.59424800  0.78184200  1
  C  C26  1  0.28682800  0.59424800  0.28184200  1
  C  C27  1  0.78682800  0.40575200  0.21815800  1
  C  C28  1  0.96965000  0.49615300  0.74639600  1
  C  C29  1  0.46965000  0.50384700  0.75360400  1
  C  C30  1  0.03035000  0.50384700  0.25360400  1
  C  C31  1  0.53035000  0.49615300  0.24639600  1
  C  C32  1  0.60174600  0.13814000  0.98982600  1
  C  C33  1  0.10174600  0.86186000  0.51017400  1
  C  C34  1  0.39825400  0.86186000  0.01017400  1
  C  C35  1  0.89825400  0.13814000  0.48982600  1
  C  C36  1  0.51526300  0.97699900  0.71778800  1
  C  C37  1  0.01526300  0.02300100  0.78221200  1
  C  C38  1  0.48473700  0.02300100  0.28221200  1
  C  C39  1  0.98473700  0.97699900  0.21778800  1
