# generated using pymatgen
data_Cu9Ni3C25
_symmetry_space_group_name_H-M   'P 1'
_cell_length_a   14.07811746
_cell_length_b   14.07811746
_cell_length_c   14.07811746
_cell_angle_alpha   90.00000000
_cell_angle_beta   90.00000000
_cell_angle_gamma   90.00000000
_symmetry_Int_Tables_number   1
_chemical_formula_structural   Cu9Ni3C25
_chemical_formula_sum   'Cu72 Ni24 C200'
_cell_volume   2790.18984136
_cell_formula_units_Z   8
loop_
 _symmetry_equiv_pos_site_id
 _symmetry_equiv_pos_as_xyz
  1  'x, y, z'
loop_
 _atom_site_type_symbol
 _atom_site_label
 _atom_site_symmetry_multiplicity
 _atom_site_fract_x
 _atom_site_fract_y
 _atom_site_fract_z
 _atom_site_occupancy
  C  C0  1  0.90054115  0.81402239  0.53124853  1
  C  C1  1  0.53124853  0.90054115  0.81402239  1
  C  C2  1  0.81402239  0.53124853  0.90054115  1
  C  C3  1  0.68597761  0.46875147  0.40054115  1
  C  C4  1  0.03124853  0.59945885  0.18597761  1
  C  C5  1  0.18597761  0.03124853  0.59945885  1
  C  C6  1  0.96875147  0.09945885  0.31402239  1
  C  C7  1  0.46875147  0.40054115  0.68597761  1
  C  C8  1  0.31402239  0.96875147  0.09945885  1
  C  C9  1  0.40054115  0.68597761  0.46875147  1
  C  C10  1  0.09945885  0.31402239  0.96875147  1
  C  C11  1  0.59945885  0.18597761  0.03124853  1
  C  C12  1  0.09945885  0.18597761  0.46875147  1
  C  C13  1  0.46875147  0.09945885  0.18597761  1
  C  C14  1  0.18597761  0.46875147  0.09945885  1
  C  C15  1  0.31402239  0.53124853  0.59945885  1
  C  C16  1  0.96875147  0.40054115  0.81402239  1
  C  C17  1  0.81402239  0.96875147  0.40054115  1
  C  C18  1  0.03124853  0.90054115  0.68597761  1
  C  C19  1  0.53124853  0.59945885  0.31402239  1
  C  C20  1  0.68597761  0.03124853  0.90054115  1
  C  C21  1  0.59945885  0.31402239  0.53124853  1
  C  C22  1  0.90054115  0.68597761  0.03124853  1
  C  C23  1  0.40054115  0.81402239  0.96875147  1
  C  C24  1  0.90113988  0.69093939  0.51509886  1
  C  C25  1  0.51509886  0.90113988  0.69093939  1
  C  C26  1  0.69093939  0.51509886  0.90113988  1
  C  C27  1  0.80906061  0.48490114  0.40113988  1
  C  C28  1  0.01509886  0.59886012  0.30906061  1
  C  C29  1  0.30906061  0.01509886  0.59886012  1
  C  C30  1  0.98490114  0.09886012  0.19093939  1
  C  C31  1  0.48490114  0.40113988  0.80906061  1
  C  C32  1  0.19093939  0.98490114  0.09886012  1
  C  C33  1  0.40113988  0.80906061  0.48490114  1
  C  C34  1  0.09886012  0.19093939  0.98490114  1
  C  C35  1  0.59886012  0.30906061  0.01509886  1
  C  C36  1  0.09886012  0.30906061  0.48490114  1
  C  C37  1  0.48490114  0.09886012  0.30906061  1
  C  C38  1  0.30906061  0.48490114  0.09886012  1
  C  C39  1  0.19093939  0.51509886  0.59886012  1
  C  C40  1  0.98490114  0.40113988  0.69093939  1
  C  C41  1  0.69093939  0.98490114  0.40113988  1
  C  C42  1  0.01509886  0.90113988  0.80906061  1
  C  C43  1  0.51509886  0.59886012  0.19093939  1
  C  C44  1  0.80906061  0.01509886  0.90113988  1
  C  C45  1  0.59886012  0.19093939  0.51509886  1
  C  C46  1  0.90113988  0.80906061  0.01509886  1
  C  C47  1  0.40113988  0.69093939  0.98490114  1
  C  C48  1  0.64932745  0.83738561  0.53919302  1
  C  C49  1  0.53919302  0.64932745  0.83738561  1
  C  C50  1  0.83738561  0.53919302  0.64932745  1
  C  C51  1  0.66261439  0.46080698  0.14932745  1
  C  C52  1  0.03919302  0.85067255  0.16261439  1
  C  C53  1  0.16261439  0.03919302  0.85067255  1
  C  C54  1  0.96080698  0.35067255  0.33738561  1
  C  C55  1  0.46080698  0.14932745  0.66261439  1
  C  C56  1  0.33738561  0.96080698  0.35067255  1
  C  C57  1  0.14932745  0.66261439  0.46080698  1
  C  C58  1  0.35067255  0.33738561  0.96080698  1
  C  C59  1  0.85067255  0.16261439  0.03919302  1
  C  C60  1  0.35067255  0.16261439  0.46080698  1
  C  C61  1  0.46080698  0.35067255  0.16261439  1
  C  C62  1  0.16261439  0.46080698  0.35067255  1
  C  C63  1  0.33738561  0.53919302  0.85067255  1
  C  C64  1  0.96080698  0.14932745  0.83738561  1
  C  C65  1  0.83738561  0.96080698  0.14932745  1
  C  C66  1  0.03919302  0.64932745  0.66261439  1
  C  C67  1  0.53919302  0.85067255  0.33738561  1
  C  C68  1  0.66261439  0.03919302  0.64932745  1
  C  C69  1  0.85067255  0.33738561  0.53919302  1
  C  C70  1  0.64932745  0.66261439  0.03919302  1
  C  C71  1  0.14932745  0.83738561  0.96080698  1
  C  C72  1  0.76030413  0.89236675  0.54626473  1
  C  C73  1  0.54626473  0.76030413  0.89236675  1
  C  C74  1  0.89236675  0.54626473  0.76030413  1
  C  C75  1  0.60763325  0.45373527  0.26030413  1
  C  C76  1  0.04626473  0.73969587  0.10763325  1
  C  C77  1  0.10763325  0.04626473  0.73969587  1
  C  C78  1  0.95373527  0.23969587  0.39236675  1
  C  C79  1  0.45373527  0.26030413  0.60763325  1
  C  C80  1  0.39236675  0.95373527  0.23969587  1
  C  C81  1  0.26030413  0.60763325  0.45373527  1
  C  C82  1  0.23969587  0.39236675  0.95373527  1
  C  C83  1  0.73969587  0.10763325  0.04626473  1
  C  C84  1  0.23969587  0.10763325  0.45373527  1
  C  C85  1  0.45373527  0.23969587  0.10763325  1
  C  C86  1  0.10763325  0.45373527  0.23969587  1
  C  C87  1  0.39236675  0.54626473  0.73969587  1
  C  C88  1  0.95373527  0.26030413  0.89236675  1
  C  C89  1  0.89236675  0.95373527  0.26030413  1
  C  C90  1  0.04626473  0.76030413  0.60763325  1
  C  C91  1  0.54626473  0.73969587  0.39236675  1
  C  C92  1  0.60763325  0.04626473  0.76030413  1
  C  C93  1  0.73969587  0.39236675  0.54626473  1
  C  C94  1  0.76030413  0.60763325  0.04626473  1
  C  C95  1  0.26030413  0.89236675  0.95373527  1
  C  C96  1  0.65128257  0.66114695  0.51234072  1
  C  C97  1  0.51234072  0.65128257  0.66114695  1
  C  C98  1  0.66114695  0.51234072  0.65128257  1
  C  C99  1  0.83885305  0.48765928  0.15128257  1
  C  C100  1  0.01234072  0.84871743  0.33885305  1
  C  C101  1  0.33885305  0.01234072  0.84871743  1
  C  C102  1  0.98765928  0.34871743  0.16114695  1
  C  C103  1  0.48765928  0.15128257  0.83885305  1
  C  C104  1  0.16114695  0.98765928  0.34871743  1
  C  C105  1  0.15128257  0.83885305  0.48765928  1
  C  C106  1  0.34871743  0.16114695  0.98765928  1
  C  C107  1  0.84871743  0.33885305  0.01234072  1
  C  C108  1  0.34871743  0.33885305  0.48765928  1
  C  C109  1  0.48765928  0.34871743  0.33885305  1
  C  C110  1  0.33885305  0.48765928  0.34871743  1
  C  C111  1  0.16114695  0.51234072  0.84871743  1
  C  C112  1  0.98765928  0.15128257  0.66114695  1
  C  C113  1  0.66114695  0.98765928  0.15128257  1
  C  C114  1  0.01234072  0.65128257  0.83885305  1
  C  C115  1  0.51234072  0.84871743  0.16114695  1
  C  C116  1  0.83885305  0.01234072  0.65128257  1
  C  C117  1  0.84871743  0.16114695  0.51234072  1
  C  C118  1  0.65128257  0.83885305  0.01234072  1
  C  C119  1  0.15128257  0.66114695  0.98765928  1
  C  C120  1  0.76407268  0.60889404  0.50620258  1
  C  C121  1  0.50620258  0.76407268  0.60889404  1
  C  C122  1  0.60889404  0.50620258  0.76407268  1
  C  C123  1  0.89110596  0.49379742  0.26407268  1
  C  C124  1  0.00620258  0.73592732  0.39110596  1
  C  C125  1  0.39110596  0.00620258  0.73592732  1
  C  C126  1  0.99379742  0.23592732  0.10889404  1
  C  C127  1  0.49379742  0.26407268  0.89110596  1
  C  C128  1  0.10889404  0.99379742  0.23592732  1
  C  C129  1  0.26407268  0.89110596  0.49379742  1
  C  C130  1  0.23592732  0.10889404  0.99379742  1
  C  C131  1  0.73592732  0.39110596  0.00620258  1
  C  C132  1  0.23592732  0.39110596  0.49379742  1
  C  C133  1  0.49379742  0.23592732  0.39110596  1
  C  C134  1  0.39110596  0.49379742  0.23592732  1
  C  C135  1  0.10889404  0.50620258  0.73592732  1
  C  C136  1  0.99379742  0.26407268  0.60889404  1
  C  C137  1  0.60889404  0.99379742  0.26407268  1
  C  C138  1  0.00620258  0.76407268  0.89110596  1
  C  C139  1  0.50620258  0.73592732  0.10889404  1
  C  C140  1  0.89110596  0.00620258  0.76407268  1
  C  C141  1  0.73592732  0.10889404  0.50620258  1
  C  C142  1  0.76407268  0.89110596  0.00620258  1
  C  C143  1  0.26407268  0.60889404  0.99379742  1
  Ni  Ni144  1  0.76856872  0.75043396  0.52934406  1
  Ni  Ni145  1  0.52934406  0.76856872  0.75043396  1
  Ni  Ni146  1  0.75043396  0.52934406  0.76856872  1
  Ni  Ni147  1  0.74956604  0.47065594  0.26856872  1
  Ni  Ni148  1  0.02934406  0.73143128  0.24956604  1
  Ni  Ni149  1  0.24956604  0.02934406  0.73143128  1
  Ni  Ni150  1  0.97065594  0.23143128  0.25043396  1
  Ni  Ni151  1  0.47065594  0.26856872  0.74956604  1
  Ni  Ni152  1  0.25043396  0.97065594  0.23143128  1
  Ni  Ni153  1  0.26856872  0.74956604  0.47065594  1
  Ni  Ni154  1  0.23143128  0.25043396  0.97065594  1
  Ni  Ni155  1  0.73143128  0.24956604  0.02934406  1
  Ni  Ni156  1  0.23143128  0.24956604  0.47065594  1
  Ni  Ni157  1  0.47065594  0.23143128  0.24956604  1
  Ni  Ni158  1  0.24956604  0.47065594  0.23143128  1
  Ni  Ni159  1  0.25043396  0.52934406  0.73143128  1
  Ni  Ni160  1  0.97065594  0.26856872  0.75043396  1
  Ni  Ni161  1  0.75043396  0.97065594  0.26856872  1
  Ni  Ni162  1  0.02934406  0.76856872  0.74956604  1
  Ni  Ni163  1  0.52934406  0.73143128  0.25043396  1
  Ni  Ni164  1  0.74956604  0.02934406  0.76856872  1
  Ni  Ni165  1  0.73143128  0.25043396  0.52934406  1
  Ni  Ni166  1  0.76856872  0.74956604  0.02934406  1
  Ni  Ni167  1  0.26856872  0.75043396  0.97065594  1
  Cu  Cu168  1  0.86359847  0.75187604  0.52630195  1
  Cu  Cu169  1  0.52630195  0.86359847  0.75187604  1
  Cu  Cu170  1  0.75187604  0.52630195  0.86359847  1
  Cu  Cu171  1  0.74812396  0.47369805  0.36359847  1
  Cu  Cu172  1  0.02630195  0.63640153  0.24812396  1
  Cu  Cu173  1  0.24812396  0.02630195  0.63640153  1
  Cu  Cu174  1  0.97369805  0.13640153  0.25187604  1
  Cu  Cu175  1  0.47369805  0.36359847  0.74812396  1
  Cu  Cu176  1  0.25187604  0.97369805  0.13640153  1
  Cu  Cu177  1  0.36359847  0.74812396  0.47369805  1
  Cu  Cu178  1  0.13640153  0.25187604  0.97369805  1
  Cu  Cu179  1  0.63640153  0.24812396  0.02630195  1
  Cu  Cu180  1  0.13640153  0.24812396  0.47369805  1
  Cu  Cu181  1  0.47369805  0.13640153  0.24812396  1
  Cu  Cu182  1  0.24812396  0.47369805  0.13640153  1
  Cu  Cu183  1  0.25187604  0.52630195  0.63640153  1
  Cu  Cu184  1  0.97369805  0.36359847  0.75187604  1
  Cu  Cu185  1  0.75187604  0.97369805  0.36359847  1
  Cu  Cu186  1  0.02630195  0.86359847  0.74812396  1
  Cu  Cu187  1  0.52630195  0.63640153  0.25187604  1
  Cu  Cu188  1  0.74812396  0.02630195  0.86359847  1
  Cu  Cu189  1  0.63640153  0.25187604  0.52630195  1
  Cu  Cu190  1  0.86359847  0.74812396  0.02630195  1
  Cu  Cu191  1  0.36359847  0.75187604  0.97369805  1
  Cu  Cu192  1  0.72148904  0.83136266  0.54597369  1
  Cu  Cu193  1  0.54597369  0.72148904  0.83136266  1
  Cu  Cu194  1  0.83136266  0.54597369  0.72148904  1
  Cu  Cu195  1  0.66863734  0.45402631  0.22148904  1
  Cu  Cu196  1  0.04597369  0.77851096  0.16863734  1
  Cu  Cu197  1  0.16863734  0.04597369  0.77851096  1
  Cu  Cu198  1  0.95402631  0.27851096  0.33136266  1
  Cu  Cu199  1  0.45402631  0.22148904  0.66863734  1
  Cu  Cu200  1  0.33136266  0.95402631  0.27851096  1
  Cu  Cu201  1  0.22148904  0.66863734  0.45402631  1
  Cu  Cu202  1  0.27851096  0.33136266  0.95402631  1
  Cu  Cu203  1  0.77851096  0.16863734  0.04597369  1
  Cu  Cu204  1  0.27851096  0.16863734  0.45402631  1
  Cu  Cu205  1  0.45402631  0.27851096  0.16863734  1
  Cu  Cu206  1  0.16863734  0.45402631  0.27851096  1
  Cu  Cu207  1  0.33136266  0.54597369  0.77851096  1
  Cu  Cu208  1  0.95402631  0.22148904  0.83136266  1
  Cu  Cu209  1  0.83136266  0.95402631  0.22148904  1
  Cu  Cu210  1  0.04597369  0.72148904  0.66863734  1
  Cu  Cu211  1  0.54597369  0.77851096  0.33136266  1
  Cu  Cu212  1  0.66863734  0.04597369  0.72148904  1
  Cu  Cu213  1  0.77851096  0.33136266  0.54597369  1
  Cu  Cu214  1  0.72148904  0.66863734  0.04597369  1
  Cu  Cu215  1  0.22148904  0.83136266  0.95402631  1
  Cu  Cu216  1  0.72348894  0.66772207  0.51755964  1
  Cu  Cu217  1  0.51755964  0.72348894  0.66772207  1
  Cu  Cu218  1  0.66772207  0.51755964  0.72348894  1
  Cu  Cu219  1  0.83227793  0.48244036  0.22348894  1
  Cu  Cu220  1  0.01755964  0.77651106  0.33227793  1
  Cu  Cu221  1  0.33227793  0.01755964  0.77651106  1
  Cu  Cu222  1  0.98244036  0.27651106  0.16772207  1
  Cu  Cu223  1  0.48244036  0.22348894  0.83227793  1
  Cu  Cu224  1  0.16772207  0.98244036  0.27651106  1
  Cu  Cu225  1  0.22348894  0.83227793  0.48244036  1
  Cu  Cu226  1  0.27651106  0.16772207  0.98244036  1
  Cu  Cu227  1  0.77651106  0.33227793  0.01755964  1
  Cu  Cu228  1  0.27651106  0.33227793  0.48244036  1
  Cu  Cu229  1  0.48244036  0.27651106  0.33227793  1
  Cu  Cu230  1  0.33227793  0.48244036  0.27651106  1
  Cu  Cu231  1  0.16772207  0.51755964  0.77651106  1
  Cu  Cu232  1  0.98244036  0.22348894  0.66772207  1
  Cu  Cu233  1  0.66772207  0.98244036  0.22348894  1
  Cu  Cu234  1  0.01755964  0.72348894  0.83227793  1
  Cu  Cu235  1  0.51755964  0.77651106  0.16772207  1
  Cu  Cu236  1  0.83227793  0.01755964  0.72348894  1
  Cu  Cu237  1  0.77651106  0.16772207  0.51755964  1
  Cu  Cu238  1  0.72348894  0.83227793  0.01755964  1
  Cu  Cu239  1  0.22348894  0.66772207  0.98244036  1
  C  C240  1  0.02966718  0.62555643  0.02480065  1
  C  C241  1  0.02480065  0.02966718  0.62555643  1
  C  C242  1  0.62555643  0.02480065  0.02966718  1
  C  C243  1  0.87444357  0.97519935  0.52966718  1
  C  C244  1  0.52480065  0.47033282  0.37444357  1
  C  C245  1  0.37444357  0.52480065  0.47033282  1
  C  C246  1  0.47519935  0.97033282  0.12555643  1
  C  C247  1  0.97519935  0.52966718  0.87444357  1
  C  C248  1  0.12555643  0.47519935  0.97033282  1
  C  C249  1  0.52966718  0.87444357  0.97519935  1
  C  C250  1  0.97033282  0.12555643  0.47519935  1
  C  C251  1  0.47033282  0.37444357  0.52480065  1
  C  C252  1  0.97033282  0.37444357  0.97519935  1
  C  C253  1  0.97519935  0.97033282  0.37444357  1
  C  C254  1  0.37444357  0.97519935  0.97033282  1
  C  C255  1  0.12555643  0.02480065  0.47033282  1
  C  C256  1  0.47519935  0.52966718  0.62555643  1
  C  C257  1  0.62555643  0.47519935  0.52966718  1
  C  C258  1  0.52480065  0.02966718  0.87444357  1
  C  C259  1  0.02480065  0.47033282  0.12555643  1
  C  C260  1  0.87444357  0.52480065  0.02966718  1
  C  C261  1  0.47033282  0.12555643  0.02480065  1
  C  C262  1  0.02966718  0.87444357  0.52480065  1
  C  C263  1  0.52966718  0.62555643  0.47519935  1
  C  C264  1  0.02197935  0.62649586  0.47235802  1
  C  C265  1  0.47235802  0.02197935  0.62649586  1
  C  C266  1  0.62649586  0.47235802  0.02197935  1
  C  C267  1  0.87350414  0.52764198  0.52197935  1
  C  C268  1  0.97235802  0.47802065  0.37350414  1
  C  C269  1  0.37350414  0.97235802  0.47802065  1
  C  C270  1  0.02764198  0.97802065  0.12649586  1
  C  C271  1  0.52764198  0.52197935  0.87350414  1
  C  C272  1  0.12649586  0.02764198  0.97802065  1
  C  C273  1  0.52197935  0.87350414  0.52764198  1
  C  C274  1  0.97802065  0.12649586  0.02764198  1
  C  C275  1  0.47802065  0.37350414  0.97235802  1
  C  C276  1  0.97802065  0.37350414  0.52764198  1
  C  C277  1  0.52764198  0.97802065  0.37350414  1
  C  C278  1  0.37350414  0.52764198  0.97802065  1
  C  C279  1  0.12649586  0.47235802  0.47802065  1
  C  C280  1  0.02764198  0.52197935  0.62649586  1
  C  C281  1  0.62649586  0.02764198  0.52197935  1
  C  C282  1  0.97235802  0.02197935  0.87350414  1
  C  C283  1  0.47235802  0.47802065  0.12649586  1
  C  C284  1  0.87350414  0.97235802  0.02197935  1
  C  C285  1  0.47802065  0.12649586  0.47235802  1
  C  C286  1  0.02197935  0.87350414  0.97235802  1
  C  C287  1  0.52197935  0.62649586  0.02764198  1
  C  C288  1  0.00000000  0.50000000  0.00000000  1
  C  C289  1  0.00000000  0.00000000  0.50000000  1
  C  C290  1  0.50000000  0.00000000  0.00000000  1
  C  C291  1  0.50000000  0.50000000  0.50000000  1
  C  C292  1  0.00000000  0.50000000  0.50000000  1
  C  C293  1  0.50000000  0.00000000  0.50000000  1
  C  C294  1  0.50000000  0.50000000  0.00000000  1
  C  C295  1  0.00000000  0.00000000  0.00000000  1
