# generated using pymatgen
data_Cu11(NiC3)2
_symmetry_space_group_name_H-M   'P 1'
_cell_length_a   6.96858030
_cell_length_b   6.96858030
_cell_length_c   15.93843600
_cell_angle_alpha   90.00000000
_cell_angle_beta   90.00000000
_cell_angle_gamma   119.71568252
_symmetry_Int_Tables_number   1
_chemical_formula_structural   Cu11(NiC3)2
_chemical_formula_sum   'Cu22 Ni4 C12'
_cell_volume   672.20552585
_cell_formula_units_Z   2
loop_
 _symmetry_equiv_pos_site_id
 _symmetry_equiv_pos_as_xyz
  1  'x, y, z'
loop_
 _atom_site_type_symbol
 _atom_site_label
 _atom_site_symmetry_multiplicity
 _atom_site_fract_x
 _atom_site_fract_y
 _atom_site_fract_z
 _atom_site_occupancy
  C  C0  1  0.06877700  0.06877700  0.85781200  1
  C  C1  1  0.93122300  0.93122300  0.35781200  1
  C  C2  1  0.06877700  0.06877700  0.64218800  1
  C  C3  1  0.93122300  0.93122300  0.14218800  1
  C  C4  1  0.21614200  0.52489600  0.08473100  1
  C  C5  1  0.78385800  0.47510400  0.58473100  1
  C  C6  1  0.52489600  0.21614200  0.41526900  1
  C  C7  1  0.47510400  0.78385800  0.91526900  1
  C  C8  1  0.78385800  0.47510400  0.91526900  1
  C  C9  1  0.21614200  0.52489600  0.41526900  1
  C  C10  1  0.47510400  0.78385800  0.58473100  1
  C  C11  1  0.52489600  0.21614200  0.08473100  1
  Ni  Ni12  1  0.13838000  0.47218300  0.75000000  1
  Ni  Ni13  1  0.86162000  0.52781700  0.25000000  1
  Ni  Ni14  1  0.47218300  0.13838000  0.75000000  1
  Ni  Ni15  1  0.52781700  0.86162000  0.25000000  1
  Cu  Cu16  1  0.92729600  0.92729600  0.75000000  1
  Cu  Cu17  1  0.07270400  0.07270400  0.25000000  1
  Cu  Cu18  1  0.96224200  0.20181100  0.09627100  1
  Cu  Cu19  1  0.03775800  0.79818900  0.59627100  1
  Cu  Cu20  1  0.20181100  0.96224200  0.40372900  1
  Cu  Cu21  1  0.79818900  0.03775800  0.90372900  1
  Cu  Cu22  1  0.03775800  0.79818900  0.90372900  1
  Cu  Cu23  1  0.96224200  0.20181100  0.40372900  1
  Cu  Cu24  1  0.79818900  0.03775800  0.59627100  1
  Cu  Cu25  1  0.20181100  0.96224200  0.09627100  1
  Cu  Cu26  1  0.81492400  0.51582600  0.03539000  1
  Cu  Cu27  1  0.18507600  0.48417400  0.53539000  1
  Cu  Cu28  1  0.51582600  0.81492400  0.46461000  1
  Cu  Cu29  1  0.48417400  0.18507600  0.96461000  1
  Cu  Cu30  1  0.18507600  0.48417400  0.96461000  1
  Cu  Cu31  1  0.81492400  0.51582600  0.46461000  1
  Cu  Cu32  1  0.42524900  0.42524900  0.11337200  1
  Cu  Cu33  1  0.57475100  0.57475100  0.61337200  1
  Cu  Cu34  1  0.42524900  0.42524900  0.38662800  1
  Cu  Cu35  1  0.57475100  0.57475100  0.88662800  1
  Cu  Cu36  1  0.51582600  0.81492400  0.03539000  1
  Cu  Cu37  1  0.48417400  0.18507600  0.53539000  1
