# generated using pymatgen
data_Cu9Ni6C67
_symmetry_space_group_name_H-M   'P 1'
_cell_length_a   18.45889324
_cell_length_b   9.23840804
_cell_length_c   22.68275502
_cell_angle_alpha   89.95658471
_cell_angle_beta   89.85752629
_cell_angle_gamma   119.98834593
_symmetry_Int_Tables_number   1
_chemical_formula_structural   Cu9Ni6C67
_chemical_formula_sum   'Cu27 Ni18 C201'
_cell_volume   3350.25388916
_cell_formula_units_Z   3
loop_
 _symmetry_equiv_pos_site_id
 _symmetry_equiv_pos_as_xyz
  1  'x, y, z'
loop_
 _atom_site_type_symbol
 _atom_site_label
 _atom_site_symmetry_multiplicity
 _atom_site_fract_x
 _atom_site_fract_y
 _atom_site_fract_z
 _atom_site_occupancy
  C  C0  1  0.81436571  0.00611550  0.24358647  1
  C  C1  1  0.68933110  0.37122370  0.24357020  1
  C  C2  1  0.50150709  0.62149071  0.24539300  1
  C  C3  1  0.31323465  0.62098044  0.74356935  1
  C  C4  1  0.99486930  0.36789443  0.74710305  1
  C  C5  1  0.18736211  0.00714016  0.74299734  1
  C  C6  1  0.15315408  0.33907228  0.58465603  1
  C  C7  1  0.65831662  0.34535781  0.58807916  1
  C  C8  1  0.01758939  0.69283455  0.58551212  1
  C  C9  1  0.51441321  0.68320002  0.58418747  1
  C  C10  1  0.32499967  0.97177319  0.58762775  1
  C  C11  1  0.83043410  0.97236357  0.58923056  1
  C  C12  1  0.15604308  0.96908917  0.08443372  1
  C  C13  1  0.65725901  0.96567982  0.07987022  1
  C  C14  1  0.32940209  0.68594548  0.08407336  1
  C  C15  1  0.82738779  0.68468570  0.08395049  1
  C  C16  1  0.01396626  0.34468522  0.08071528  1
  C  C17  1  0.51814595  0.34815969  0.07878721  1
  C  C18  1  0.48777713  0.67031127  0.91604081  1
  C  C19  1  0.98083409  0.65395819  0.91017775  1
  C  C20  1  0.35819142  0.05063500  0.91267608  1
  C  C21  1  0.85438153  0.05120087  0.91318716  1
  C  C22  1  0.16094524  0.29748744  0.91616070  1
  C  C23  1  0.66416424  0.29110049  0.92203477  1
  C  C24  1  0.48115345  0.30994188  0.41521457  1
  C  C25  1  0.98592453  0.30147225  0.42096657  1
  C  C26  1  0.16242327  0.03675969  0.42643157  1
  C  C27  1  0.66287952  0.02380182  0.42081611  1
  C  C28  1  0.35233986  0.65417036  0.42287241  1
  C  C29  1  0.85752639  0.66611851  0.41610816  1
  C  C30  1  0.00464419  0.00148284  0.50313146  1
  C  C31  1  0.50226754  0.99142487  0.50300792  1
  C  C32  1  0.00100250  0.01243587  0.99777538  1
  C  C33  1  0.50470142  0.00810704  0.99505212  1
  C  C34  1  0.34352119  0.33538362  0.82241412  1
  C  C35  1  0.83568484  0.32570731  0.82770832  1
  C  C36  1  0.33474139  0.33240483  0.33338974  1
  C  C37  1  0.84402028  0.35218977  0.32386189  1
  C  C38  1  0.16443793  0.66390201  0.16032255  1
  C  C39  1  0.66734258  0.66669616  0.16430804  1
  C  C40  1  0.16493781  0.66583507  0.66559751  1
  C  C41  1  0.66891865  0.67067627  0.66380052  1
  C  C42  1  0.99737168  0.99598431  0.65032174  1
  C  C43  1  0.49666765  0.99198192  0.64783746  1
  C  C44  1  0.99640112  0.00201180  0.14702173  1
  C  C45  1  0.50581191  0.01338711  0.14557880  1
  C  C46  1  0.15755709  0.64575835  0.31317847  1
  C  C47  1  0.66153318  0.68017226  0.81055273  1
  Ni  Ni48  1  0.00150503  0.99924970  0.34816441  1
  Ni  Ni49  1  0.50221804  0.99992051  0.34538930  1
  Ni  Ni50  1  0.99874155  0.00842638  0.84166127  1
  Ni  Ni51  1  0.50197652  0.00534155  0.84749762  1
  Ni  Ni52  1  0.33647028  0.33290938  0.68393064  1
  Ni  Ni53  1  0.83482594  0.33809297  0.68335187  1
  Ni  Ni54  1  0.33463141  0.31979298  0.17980988  1
  Ni  Ni55  1  0.83739054  0.34035906  0.18424243  1
  Ni  Ni56  1  0.34003506  0.33616667  0.99018109  1
  Ni  Ni57  1  0.83602965  0.32789236  0.98589606  1
  Ni  Ni58  1  0.33534329  0.34368785  0.48846553  1
  Ni  Ni59  1  0.83908054  0.34194311  0.49333446  1
  Ni  Ni60  1  0.16210042  0.65282643  0.01934776  1
  Ni  Ni61  1  0.66187311  0.66499612  0.01801537  1
  Ni  Ni62  1  0.16158007  0.65883105  0.51976359  1
  Ni  Ni63  1  0.66261977  0.67196039  0.52033673  1
  Ni  Ni64  1  0.66154773  0.66301804  0.30757289  1
  Ni  Ni65  1  0.16047402  0.65867204  0.80712155  1
  Cu  Cu66  1  0.64872390  0.00399619  0.25027119  1
  Cu  Cu67  1  0.85373390  0.70620314  0.25346684  1
  Cu  Cu68  1  0.00012440  0.29112670  0.25158373  1
  Cu  Cu69  1  0.49389336  0.28736076  0.25252836  1
  Cu  Cu70  1  0.14876072  0.29254698  0.75047183  1
  Cu  Cu71  1  0.99585698  0.70347069  0.75299306  1
  Cu  Cu72  1  0.49865851  0.70784892  0.75195381  1
  Cu  Cu73  1  0.35319770  0.00063783  0.75361206  1
  Cu  Cu74  1  0.84834265  0.99777338  0.75111739  1
  Cu  Cu75  1  0.48053333  0.32799231  0.58152463  1
  Cu  Cu76  1  0.98234318  0.32789743  0.58459526  1
  Cu  Cu77  1  0.18381003  0.03796050  0.58309129  1
  Cu  Cu78  1  0.68574462  0.04334502  0.58311345  1
  Cu  Cu79  1  0.33314952  0.63247675  0.58421941  1
  Cu  Cu80  1  0.83365441  0.63376456  0.58187901  1
  Cu  Cu81  1  0.48148891  0.63500500  0.08630505  1
  Cu  Cu82  1  0.98059102  0.63252061  0.08222185  1
  Cu  Cu83  1  0.33287768  0.02909516  0.08176373  1
  Cu  Cu84  1  0.83240742  0.03451811  0.08460600  1
  Cu  Cu85  1  0.18760013  0.32950108  0.08488750  1
  Cu  Cu86  1  0.68801274  0.33711428  0.08284981  1
  Cu  Cu87  1  0.01830682  0.36700985  0.91617817  1
  Cu  Cu88  1  0.51987797  0.37314745  0.91615677  1
  Cu  Cu89  1  0.66662855  0.96585774  0.91730116  1
  Cu  Cu90  1  0.16686841  0.36818568  0.41681674  1
  Cu  Cu91  1  0.01740101  0.66561481  0.41740942  1
  Cu  Cu92  1  0.51748764  0.66742491  0.41473110  1
  C  C93  1  0.14967841  0.99525820  0.25079107  1
  C  C94  1  0.34831155  0.70442013  0.25032919  1
  C  C95  1  0.64814311  0.30225144  0.75004933  1
  C  C96  1  0.31326461  0.66361597  0.91711287  1
  C  C97  1  0.81143041  0.66784203  0.91519411  1
  C  C98  1  0.16844612  0.96456409  0.91708164  1
  C  C99  1  0.31087089  0.95218628  0.41299791  1
  C  C100  1  0.81300468  0.96230136  0.41617401  1
  C  C101  1  0.66781886  0.37199521  0.41618574  1
  C  C102  1  0.11214372  0.01480151  0.30557806  1
  C  C103  1  0.61133062  0.03468938  0.31118703  1
  C  C104  1  0.39810038  0.77875631  0.30521762  1
  C  C105  1  0.90363097  0.78473198  0.31426951  1
  C  C106  1  0.48203147  0.18515437  0.31394676  1
  C  C107  1  0.98983408  0.19100313  0.31205381  1
  C  C108  1  0.11395293  0.18900017  0.81220666  1
  C  C109  1  0.61144025  0.20612168  0.80551820  1
  C  C110  1  0.48745903  0.78714475  0.81235536  1
  C  C111  1  0.98794594  0.78430580  0.81511266  1
  C  C112  1  0.40314749  0.02242873  0.81463533  1
  C  C113  1  0.90035897  0.03032692  0.81213659  1
  C  C114  1  0.40916540  0.98197159  0.69744166  1
  C  C115  1  0.89983185  0.97499253  0.69424573  1
  C  C116  1  0.08279092  0.18328638  0.69573805  1
  C  C117  1  0.59324459  0.21424673  0.69805264  1
  C  C118  1  0.00505128  0.82816821  0.69622724  1
  C  C119  1  0.51449525  0.83516941  0.69482299  1
  C  C120  1  0.39135266  0.80988220  0.19779973  1
  C  C121  1  0.90949720  0.83768436  0.19744484  1
  C  C122  1  0.01579091  0.19588066  0.19458121  1
  C  C123  1  0.50203993  0.17757945  0.19615712  1
  C  C124  1  0.09590155  0.97072832  0.19821187  1
  C  C125  1  0.58225429  0.98320271  0.19551573  1
  C  C126  1  0.44042710  0.38064531  0.63412008  1
  C  C127  1  0.94193405  0.37012490  0.64013936  1
  C  C128  1  0.24379694  0.11748805  0.63970190  1
  C  C129  1  0.74903751  0.12956254  0.63636928  1
  C  C130  1  0.31382094  0.51502982  0.64098332  1
  C  C131  1  0.80845035  0.50023689  0.63449545  1
  C  C132  1  0.44205899  0.51969597  0.14433623  1
  C  C133  1  0.94189511  0.50242392  0.13581594  1
  C  C134  1  0.30603540  0.10318509  0.13642467  1
  C  C135  1  0.81302571  0.11036336  0.14237338  1
  C  C136  1  0.24991908  0.37146820  0.13999915  1
  C  C137  1  0.74234204  0.36783171  0.14152777  1
  C  C138  1  0.22162587  0.28562840  0.02369552  1
  C  C139  1  0.72089752  0.28693498  0.02348930  1
  C  C140  1  0.42375403  0.56884258  0.02661376  1
  C  C141  1  0.92274677  0.57136782  0.02235307  1
  C  C142  1  0.36100929  0.14732298  0.02243262  1
  C  C143  1  0.86018792  0.15062647  0.02562981  1
  C  C144  1  0.21983219  0.15285163  0.52237534  1
  C  C145  1  0.71815622  0.15069853  0.52042805  1
  C  C146  1  0.36085057  0.57386259  0.52426196  1
  C  C147  1  0.85774044  0.57309493  0.51971754  1
  C  C148  1  0.42414714  0.27537929  0.52048979  1
  C  C149  1  0.92650057  0.28091209  0.52334595  1
  C  C150  1  0.27492771  0.68880706  0.97113475  1
  C  C151  1  0.77582773  0.69044399  0.97082658  1
  C  C152  1  0.07598623  0.44247875  0.97552658  1
  C  C153  1  0.57354022  0.44569993  0.97641784  1
  C  C154  1  0.16039427  0.86646273  0.97141137  1
  C  C155  1  0.65081284  0.85415625  0.97603564  1
  C  C156  1  0.27539686  0.85854117  0.46836315  1
  C  C157  1  0.77395872  0.85884394  0.46971746  1
  C  C158  1  0.15199555  0.45309457  0.47409453  1
  C  C159  1  0.65902454  0.45419314  0.46972720  1
  C  C160  1  0.07658514  0.70344730  0.47406467  1
  C  C161  1  0.57770228  0.71154434  0.47258921  1
  C  C162  1  0.07415056  0.64767403  0.35981637  1
  C  C163  1  0.55978868  0.63443418  0.35640024  1
  C  C164  1  0.25733961  0.86002684  0.36147880  1
  C  C165  1  0.76332325  0.88057760  0.36279192  1
  C  C166  1  0.17669688  0.50114004  0.35978821  1
  C  C167  1  0.67855038  0.47204053  0.36256632  1
  C  C168  1  0.06236251  0.48844344  0.85909555  1
  C  C169  1  0.57679940  0.50300525  0.86082405  1
  C  C170  1  0.18029090  0.88546077  0.86423856  1
  C  C171  1  0.67629183  0.85485206  0.86075973  1
  C  C172  1  0.26352792  0.64702822  0.86411347  1
  C  C173  1  0.75767749  0.65304280  0.86408299  1
  C  C174  1  0.00900269  0.83262993  0.41098673  1
  C  C175  1  0.50345840  0.83374223  0.41112494  1
  C  C176  1  0.39624703  0.97139345  0.40869501  1
  C  C177  1  0.89864133  0.98424885  0.41423822  1
  C  C178  1  0.08300994  0.18463196  0.41064762  1
  C  C179  1  0.58901100  0.20338610  0.41468333  1
  C  C180  1  0.00757629  0.17652341  0.91362370  1
  C  C181  1  0.50909062  0.18570494  0.91140958  1
  C  C182  1  0.09039133  0.97631543  0.91522767  1
  C  C183  1  0.58224499  0.98135913  0.91137173  1
  C  C184  1  0.39915760  0.81290153  0.91522248  1
  C  C185  1  0.89728784  0.81642350  0.91151633  1
  C  C186  1  0.49080994  0.16052935  0.59559535  1
  C  C187  1  0.98989851  0.15678469  0.59294938  1
  C  C188  1  0.08914474  0.01800948  0.59260930  1
  C  C189  1  0.59185604  0.02866219  0.59410189  1
  C  C190  1  0.42091361  0.82231842  0.59425055  1
  C  C191  1  0.91895598  0.81896090  0.59280502  1
  C  C192  1  0.48840088  0.82131621  0.09614821  1
  C  C193  1  0.99151757  0.82176999  0.09642698  1
  C  C194  1  0.41750387  0.01233499  0.09515594  1
  C  C195  1  0.92049769  0.01954023  0.09426307  1
  C  C196  1  0.09365545  0.15648049  0.09570282  1
  C  C197  1  0.59069561  0.16458562  0.09209432  1
  C  C198  1  0.33705215  0.15577200  0.74691446  1
  C  C199  1  0.83958200  0.16215859  0.74446497  1
  C  C200  1  0.24114543  0.31458031  0.74512515  1
  C  C201  1  0.73083021  0.32162164  0.74429119  1
  C  C202  1  0.41593019  0.52926395  0.74517128  1
  C  C203  1  0.91735046  0.51452276  0.74843328  1
  C  C204  1  0.33906059  0.53689537  0.24581793  1
  C  C205  1  0.83723033  0.51829963  0.24703049  1
  C  C206  1  0.41584647  0.32396232  0.24814930  1
  C  C207  1  0.91747625  0.30548035  0.24560290  1
  C  C208  1  0.23303363  0.14518334  0.24538979  1
  C  C209  1  0.74056987  0.16712746  0.24555977  1
  C  C210  1  0.31873129  0.50779307  0.92087395  1
  C  C211  1  0.81651238  0.51149014  0.91627475  1
  C  C212  1  0.42809713  0.36604760  0.91658742  1
  C  C213  1  0.92673295  0.35820543  0.91963543  1
  C  C214  1  0.24356793  0.13609431  0.92014011  1
  C  C215  1  0.75195355  0.14778298  0.91573354  1
  C  C216  1  0.31723620  0.11936748  0.41380107  1
  C  C217  1  0.81858854  0.12909979  0.42003167  1
  C  C218  1  0.25268111  0.35832432  0.41454306  1
  C  C219  1  0.74226119  0.34945671  0.41909514  1
  C  C220  1  0.42580381  0.49376624  0.41941975  1
  C  C221  1  0.92730964  0.48973375  0.41661854  1
  C  C222  1  0.17225497  0.48920812  0.08159285  1
  C  C223  1  0.67244352  0.49485322  0.07836790  1
  C  C224  1  0.07707533  0.66932667  0.07739399  1
  C  C225  1  0.57522376  0.66153571  0.08220146  1
  C  C226  1  0.25411514  0.83981302  0.07434516  1
  C  C227  1  0.75587794  0.84353847  0.07771060  1
  C  C228  1  0.17223658  0.85106388  0.57781665  1
  C  C229  1  0.67004709  0.85245651  0.58079593  1
  C  C230  1  0.25697045  0.67095574  0.57721678  1
  C  C231  1  0.75387795  0.66503976  0.57526444  1
  C  C232  1  0.07651475  0.48884341  0.58172541  1
  C  C233  1  0.57665106  0.48433939  0.57666635  1
  C  C234  1  0.15826644  0.84093361  0.25588308  1
  C  C235  1  0.65017616  0.82882559  0.24724724  1
  C  C236  1  0.26515349  0.69560745  0.25584076  1
  C  C237  1  0.76356573  0.70469714  0.25164259  1
  C  C238  1  0.08800123  0.48425493  0.25669698  1
  C  C239  1  0.58419657  0.46294674  0.24842712  1
  C  C240  1  0.15108142  0.47176915  0.74778145  1
  C  C241  1  0.65302802  0.46927647  0.75467159  1
  C  C242  1  0.08607321  0.70664323  0.74810048  1
  C  C243  1  0.58567164  0.69173488  0.75680997  1
  C  C244  1  0.26392737  0.82167074  0.75196392  1
  C  C245  1  0.75671104  0.81770156  0.75830448  1
