# generated using pymatgen
data_Cu10Ni2C5
_symmetry_space_group_name_H-M   'P 1'
_cell_length_a   5.99624366
_cell_length_b   6.02979662
_cell_length_c   7.74760426
_cell_angle_alpha   97.37288435
_cell_angle_beta   107.04976633
_cell_angle_gamma   117.46928324
_symmetry_Int_Tables_number   1
_chemical_formula_structural   Cu10Ni2C5
_chemical_formula_sum   'Cu10 Ni2 C5'
_cell_volume   225.85671776
_cell_formula_units_Z   1
loop_
 _symmetry_equiv_pos_site_id
 _symmetry_equiv_pos_as_xyz
  1  'x, y, z'
loop_
 _atom_site_type_symbol
 _atom_site_label
 _atom_site_symmetry_multiplicity
 _atom_site_fract_x
 _atom_site_fract_y
 _atom_site_fract_z
 _atom_site_occupancy
  C  C0  1  0.92119388  0.34076166  0.25786907  1
  C  C1  1  0.21740664  0.02894369  0.24660546  1
  C  C2  1  0.88283452  0.94716102  0.82581235  1
  C  C3  1  0.43695816  0.96641997  0.92486092  1
  C  C4  1  0.95647738  0.48755083  0.92372181  1
  Ni  Ni5  1  0.73517483  0.63726640  0.37312872  1
  Ni  Ni6  1  0.27420150  0.38740520  0.66152749  1
  Cu  Cu7  1  0.41779458  0.67929523  0.70868003  1
  Cu  Cu8  1  0.97162853  0.70783663  0.30570401  1
  Cu  Cu9  1  0.59919741  0.33471350  0.30678279  1
  Cu  Cu10  1  0.02846750  0.29008766  0.70917394  1
  Cu  Cu11  1  0.82969856  0.16976186  0.99752021  1
  Cu  Cu12  1  0.12870144  0.85310261  0.98313103  1
  Cu  Cu13  1  0.45505852  0.29733797  0.74953733  1
  Cu  Cu14  1  0.55336068  0.72020832  0.27893135  1
  Cu  Cu15  1  0.85328600  0.73019769  0.58093886  1
  Cu  Cu16  1  0.16564287  0.27611678  0.44385263  1
