# generated using pymatgen
data_Cu2NiC2
_symmetry_space_group_name_H-M   'P 1'
_cell_length_a   9.88353371
_cell_length_b   9.88353371
_cell_length_c   12.06592900
_cell_angle_alpha   90.00000000
_cell_angle_beta   90.00000000
_cell_angle_gamma   140.30796884
_symmetry_Int_Tables_number   1
_chemical_formula_structural   Cu2NiC2
_chemical_formula_sum   'Cu12 Ni6 C12'
_cell_volume   752.75824808
_cell_formula_units_Z   6
loop_
 _symmetry_equiv_pos_site_id
 _symmetry_equiv_pos_as_xyz
  1  'x, y, z'
loop_
 _atom_site_type_symbol
 _atom_site_label
 _atom_site_symmetry_multiplicity
 _atom_site_fract_x
 _atom_site_fract_y
 _atom_site_fract_z
 _atom_site_occupancy
  C  C0  1  0.74429200  0.74429200  0.93848100  1
  C  C1  1  0.74429200  0.74429200  0.56151900  1
  C  C2  1  0.25570800  0.25570800  0.43848100  1
  C  C3  1  0.25570800  0.25570800  0.06151900  1
  C  C4  1  0.01234100  0.15571800  0.89816500  1
  C  C5  1  0.15571800  0.01234100  0.60183500  1
  C  C6  1  0.98765900  0.84428200  0.39816500  1
  C  C7  1  0.84428200  0.98765900  0.10183500  1
  C  C8  1  0.98765900  0.84428200  0.10183500  1
  C  C9  1  0.84428200  0.98765900  0.39816500  1
  C  C10  1  0.01234100  0.15571800  0.60183500  1
  C  C11  1  0.15571800  0.01234100  0.89816500  1
  Ni  Ni12  1  0.38091100  0.38091100  0.62806400  1
  Ni  Ni13  1  0.38091100  0.38091100  0.87193600  1
  Ni  Ni14  1  0.61908900  0.61908900  0.12806400  1
  Ni  Ni15  1  0.61908900  0.61908900  0.37193600  1
  Ni  Ni16  1  0.91161900  0.91161900  0.75000000  1
  Ni  Ni17  1  0.08838100  0.08838100  0.25000000  1
  Cu  Cu18  1  0.97407200  0.63112500  0.25000000  1
  Cu  Cu19  1  0.63112500  0.97407200  0.25000000  1
  Cu  Cu20  1  0.02592800  0.36887500  0.75000000  1
  Cu  Cu21  1  0.36887500  0.02592800  0.75000000  1
  Cu  Cu22  1  0.11080700  0.39505700  0.06345400  1
  Cu  Cu23  1  0.39505700  0.11080700  0.43654600  1
  Cu  Cu24  1  0.39505700  0.11080700  0.06345400  1
  Cu  Cu25  1  0.11080700  0.39505700  0.43654600  1
  Cu  Cu26  1  0.60494300  0.88919300  0.56345400  1
  Cu  Cu27  1  0.88919300  0.60494300  0.93654600  1
  Cu  Cu28  1  0.60494300  0.88919300  0.93654600  1
  Cu  Cu29  1  0.88919300  0.60494300  0.56345400  1
