# generated using pymatgen
data_Cu3Ni3C35
_symmetry_space_group_name_H-M   'P 1'
_cell_length_a   9.17717949
_cell_length_b   9.14792940
_cell_length_c   22.89081782
_cell_angle_alpha   89.98064396
_cell_angle_beta   90.04576001
_cell_angle_gamma   120.00241553
_symmetry_Int_Tables_number   1
_chemical_formula_structural   Cu3Ni3C35
_chemical_formula_sum   'Cu9 Ni9 C105'
_cell_volume   1664.22966890
_cell_formula_units_Z   3
loop_
 _symmetry_equiv_pos_site_id
 _symmetry_equiv_pos_as_xyz
  1  'x, y, z'
loop_
 _atom_site_type_symbol
 _atom_site_label
 _atom_site_symmetry_multiplicity
 _atom_site_fract_x
 _atom_site_fract_y
 _atom_site_fract_z
 _atom_site_occupancy
  C  C0  1  0.63464722  0.00359493  0.25172321  1
  C  C1  1  0.36541434  0.36888436  0.24831735  1
  C  C2  1  0.99991682  0.62619225  0.24991652  1
  C  C3  1  0.63328980  0.63535051  0.74977196  1
  C  C4  1  0.99479890  0.36402417  0.74940740  1
  C  C5  1  0.37188080  0.00097060  0.74860934  1
  C  C6  1  0.03303217  0.69674318  0.58320199  1
  C  C7  1  0.66368136  0.97077024  0.58312724  1
  C  C8  1  0.66641194  0.69142585  0.08249365  1
  C  C9  1  0.03093591  0.33585738  0.08506012  1
  C  C10  1  0.96152397  0.66505667  0.91828504  1
  C  C11  1  0.70015830  0.03151166  0.91643648  1
  C  C12  1  0.33846648  0.30279519  0.91770248  1
  C  C13  1  0.96672828  0.30386582  0.41599313  1
  C  C14  1  0.33537786  0.02843621  0.41776936  1
  C  C15  1  0.00037387  0.99921169  0.50010414  1
  C  C16  1  0.00625651  0.99580945  0.00015378  1
  C  C17  1  0.66670435  0.33331640  0.83340927  1
  C  C18  1  0.67258605  0.33917775  0.33392340  1
  C  C19  1  0.32692970  0.66626515  0.16698958  1
  C  C20  1  0.33353506  0.66266019  0.66556821  1
  C  C21  1  0.98862551  0.99393225  0.35315346  1
  C  C22  1  0.00358889  0.00798421  0.64751209  1
  C  C23  1  0.01128269  0.00485228  0.14682063  1
  C  C24  1  0.66714300  0.33304412  0.48193274  1
  C  C25  1  0.33502199  0.67013600  0.01952016  1
  C  C26  1  0.33306655  0.66721844  0.51811121  1
  C  C27  1  0.99165826  0.99772335  0.84997920  1
  C  C28  1  0.66775178  0.32649893  0.68211987  1
  C  C29  1  0.67146047  0.33659502  0.18133570  1
  C  C30  1  0.66300363  0.34002011  0.98471398  1
  C  C31  1  0.32846402  0.66476456  0.31825737  1
  C  C32  1  0.34154637  0.66928593  0.81673503  1
  Ni  Ni33  1  0.99981593  0.29764703  0.24988001  1
  Ni  Ni34  1  0.70385351  0.00058879  0.75056512  1
  Ni  Ni35  1  0.96156192  0.33506490  0.58422730  1
  Ni  Ni36  1  0.37219665  0.04072718  0.58374296  1
  Ni  Ni37  1  0.95955793  0.62640572  0.08314672  1
  Ni  Ni38  1  0.37550580  0.33226103  0.08330837  1
  Ni  Ni39  1  0.62958625  0.66605109  0.91598997  1
  Ni  Ni40  1  0.62473812  0.95784435  0.41587543  1
  Ni  Ni41  1  0.03877168  0.66658341  0.41577024  1
  Cu  Cu42  1  0.29458631  0.00048122  0.25121150  1
  Cu  Cu43  1  0.70539249  0.70580534  0.24874784  1
  Cu  Cu44  1  0.29333581  0.29350570  0.75202413  1
  Cu  Cu45  1  0.99941872  0.70640383  0.75076911  1
  Cu  Cu46  1  0.66542372  0.62352478  0.58552296  1
  Cu  Cu47  1  0.66595196  0.04200824  0.08342425  1
  Cu  Cu48  1  0.04069852  0.37374366  0.91568097  1
  Cu  Cu49  1  0.33379515  0.96015993  0.91521878  1
  Cu  Cu50  1  0.33521604  0.37546095  0.41491834  1
  C  C51  1  0.20995415  0.02851661  0.30536628  1
  C  C52  1  0.82366753  0.79335355  0.30197679  1
  C  C53  1  0.97108524  0.17444961  0.30651941  1
  C  C54  1  0.21300725  0.18142080  0.80617304  1
  C  C55  1  0.97359419  0.79210707  0.80489877  1
  C  C56  1  0.82554223  0.03323763  0.80721437  1
  C  C57  1  0.79409019  0.96679265  0.69375190  1
  C  C58  1  0.17706835  0.20476506  0.69839345  1
  C  C59  1  0.03034207  0.81977905  0.69610310  1
  C  C60  1  0.79000760  0.81868745  0.19458044  1
  C  C61  1  0.02868289  0.20336612  0.19334795  1
  C  C62  1  0.17629497  0.96961920  0.19802042  1
  C  C63  1  0.87828510  0.36975511  0.64151121  1
  C  C64  1  0.48999116  0.12360518  0.64109457  1
  C  C65  1  0.64105676  0.51992451  0.64085090  1
  C  C66  1  0.87844507  0.50895639  0.14113610  1
  C  C67  1  0.63979217  0.12108417  0.13857345  1
  C  C68  1  0.49090764  0.36839811  0.14139897  1
  C  C69  1  0.45664961  0.30375179  0.02451581  1
  C  C70  1  0.84344226  0.54275255  0.02521561  1
  C  C71  1  0.69842751  0.15122513  0.02843699  1
  C  C72  1  0.45791113  0.15433507  0.52530837  1
  C  C73  1  0.69693071  0.54083539  0.53175303  1
  C  C74  1  0.84130472  0.30139263  0.52662595  1
  C  C75  1  0.53983850  0.69993065  0.97285571  1
  C  C76  1  0.15322512  0.45951683  0.97036648  1
  C  C77  1  0.30233515  0.84286747  0.96848994  1
  C  C78  1  0.54058910  0.84503578  0.47450271  1
  C  C79  1  0.30198360  0.45772480  0.46841949  1
  C  C80  1  0.15858227  0.69806169  0.47347659  1
  C  C81  1  0.12239484  0.63122752  0.35862716  1
  C  C82  1  0.50901450  0.87541769  0.35825674  1
  C  C83  1  0.36027579  0.48007663  0.35972420  1
  C  C84  1  0.12199946  0.48623416  0.86161354  1
  C  C85  1  0.36050330  0.87674296  0.86063280  1
  C  C86  1  0.50798850  0.63384295  0.85939103  1
  C  C87  1  0.03467475  0.84316091  0.41013677  1
  C  C88  1  0.81798166  0.98983078  0.41160626  1
  C  C89  1  0.17434737  0.19645766  0.40952731  1
  C  C90  1  0.02932229  0.19870953  0.91117232  1
  C  C91  1  0.17609978  0.97986724  0.91020801  1
  C  C92  1  0.81678788  0.83640132  0.91126525  1
  C  C93  1  0.96790964  0.15895035  0.58946734  1
  C  C94  1  0.17900323  0.00578010  0.58975914  1
  C  C95  1  0.82792810  0.80197718  0.59014760  1
  C  C96  1  0.96699112  0.80886835  0.09021136  1
  C  C97  1  0.82455060  0.02065360  0.09025737  1
  C  C98  1  0.18118174  0.17207692  0.08846137  1
  C  C99  1  0.68767605  0.17109118  0.74581668  1
  C  C100  1  0.47016259  0.31502602  0.74446301  1
  C  C101  1  0.83798152  0.53189923  0.74511317  1
  C  C102  1  0.68898270  0.52967611  0.24491452  1
  C  C103  1  0.82807959  0.30982298  0.24570862  1
  C  C104  1  0.46825684  0.16009099  0.24427221  1
  C  C105  1  0.64628801  0.49583495  0.92050218  1
  C  C106  1  0.86273221  0.35087230  0.92240352  1
  C  C107  1  0.49545696  0.13411483  0.92181876  1
  C  C108  1  0.64251670  0.14662396  0.42188850  1
  C  C109  1  0.48758796  0.34896827  0.42211055  1
  C  C110  1  0.85514066  0.49649371  0.42296639  1
  C  C111  1  0.35526698  0.50274049  0.07644628  1
  C  C112  1  0.14396247  0.63963146  0.07617193  1
  C  C113  1  0.51184875  0.86093693  0.07733702  1
  C  C114  1  0.35790820  0.85313170  0.57798228  1
  C  C115  1  0.51378106  0.65153467  0.57795101  1
  C  C116  1  0.14558620  0.50413841  0.57715198  1
  C  C117  1  0.31088307  0.84065691  0.25500203  1
  C  C118  1  0.53196220  0.69188391  0.25556578  1
  C  C119  1  0.17173767  0.48197579  0.25397692  1
  C  C120  1  0.30418062  0.46812173  0.75580101  1
  C  C121  1  0.15708618  0.68662127  0.75634429  1
  C  C122  1  0.51690968  0.83031327  0.75543590  1
