# generated using pymatgen
data_CuNiC14
_symmetry_space_group_name_H-M   'P 1'
_cell_length_a   5.88262300
_cell_length_b   6.24566512
_cell_length_c   7.42332158
_cell_angle_alpha   94.92964505
_cell_angle_beta   90.00000000
_cell_angle_gamma   118.09510736
_symmetry_Int_Tables_number   1
_chemical_formula_structural   CuNiC14
_chemical_formula_sum   'Cu1 Ni1 C14'
_cell_volume   239.45754441
_cell_formula_units_Z   1
loop_
 _symmetry_equiv_pos_site_id
 _symmetry_equiv_pos_as_xyz
  1  'x, y, z'
loop_
 _atom_site_type_symbol
 _atom_site_label
 _atom_site_symmetry_multiplicity
 _atom_site_fract_x
 _atom_site_fract_y
 _atom_site_fract_z
 _atom_site_occupancy
  C  C0  1  0.61784200  0.23568300  0.38574500  1
  C  C1  1  0.32026300  0.64052700  0.65269300  1
  C  C2  1  0.05322700  0.10645300  0.98592100  1
  Ni  Ni3  1  0.83221700  0.66443500  0.17027900  1
  C  C4  1  0.34606600  0.69213300  0.15801000  1
  C  C5  1  0.65969100  0.31938200  0.83138100  1
  Cu  Cu6  1  0.96523600  0.93047300  0.53839400  1
  C  C7  1  0.82242400  0.14445900  0.67876300  1
  C  C8  1  0.80175500  0.60351000  0.65809900  1
  C  C9  1  0.32203500  0.14445900  0.67876300  1
  C  C10  1  0.68873700  0.84378200  0.31766200  1
  C  C11  1  0.20556500  0.41112900  0.30206100  1
  C  C12  1  0.15504500  0.84378200  0.31766200  1
  C  C13  1  0.51435600  0.02871300  0.00598300  1
  C  C14  1  0.00466200  0.52887500  0.99262600  1
  C  C15  1  0.52421300  0.52887500  0.99262600  1
