# generated using pymatgen
data_CuNiC3
_symmetry_space_group_name_H-M   'P 1'
_cell_length_a   5.23280200
_cell_length_b   5.29105900
_cell_length_c   7.54040100
_cell_angle_alpha   90.00000000
_cell_angle_beta   90.00000000
_cell_angle_gamma   90.00000000
_symmetry_Int_Tables_number   1
_chemical_formula_structural   CuNiC3
_chemical_formula_sum   'Cu4 Ni4 C12'
_cell_volume   208.77156596
_cell_formula_units_Z   4
loop_
 _symmetry_equiv_pos_site_id
 _symmetry_equiv_pos_as_xyz
  1  'x, y, z'
loop_
 _atom_site_type_symbol
 _atom_site_label
 _atom_site_symmetry_multiplicity
 _atom_site_fract_x
 _atom_site_fract_y
 _atom_site_fract_z
 _atom_site_occupancy
  Ni  Ni0  1  0.50000000  0.00000000  0.00000000  1
  Ni  Ni1  1  0.00000000  0.50000000  0.00000000  1
  Ni  Ni2  1  0.00000000  0.50000000  0.50000000  1
  Ni  Ni3  1  0.50000000  0.00000000  0.50000000  1
  Cu  Cu4  1  0.50799000  0.46044700  0.75000000  1
  Cu  Cu5  1  0.00799000  0.03955300  0.25000000  1
  Cu  Cu6  1  0.99201000  0.96044700  0.75000000  1
  Cu  Cu7  1  0.49201000  0.53955300  0.25000000  1
  C  C8  1  0.10524600  0.44323500  0.25000000  1
  C  C9  1  0.60524600  0.05676500  0.75000000  1
  C  C10  1  0.39475400  0.94323500  0.25000000  1
  C  C11  1  0.89475400  0.55676500  0.75000000  1
  C  C12  1  0.82319000  0.81809700  0.44328300  1
  C  C13  1  0.17681000  0.18190300  0.55671700  1
  C  C14  1  0.82319000  0.81809700  0.05671700  1
  C  C15  1  0.32319000  0.68190300  0.94328300  1
  C  C16  1  0.32319000  0.68190300  0.55671700  1
  C  C17  1  0.67681000  0.31809700  0.05671700  1
  C  C18  1  0.17681000  0.18190300  0.94328300  1
  C  C19  1  0.67681000  0.31809700  0.44328300  1
