# generated using pymatgen
data_Cu3Ni6C73
_symmetry_space_group_name_H-M   'P 1'
_cell_length_a   18.11698754
_cell_length_b   9.00581784
_cell_length_c   21.90241315
_cell_angle_alpha   90.20326627
_cell_angle_beta   89.32238435
_cell_angle_gamma   120.30224480
_symmetry_Int_Tables_number   1
_chemical_formula_structural   Cu3Ni6C73
_chemical_formula_sum   'Cu9 Ni18 C219'
_cell_volume   3085.09750984
_cell_formula_units_Z   3
loop_
 _symmetry_equiv_pos_site_id
 _symmetry_equiv_pos_as_xyz
  1  'x, y, z'
loop_
 _atom_site_type_symbol
 _atom_site_label
 _atom_site_symmetry_multiplicity
 _atom_site_fract_x
 _atom_site_fract_y
 _atom_site_fract_z
 _atom_site_occupancy
  C  C0  1  0.19474366  0.36445951  0.24955919  1
  C  C1  1  0.68841306  0.35633008  0.24550819  1
  C  C2  1  0.99839606  0.64139169  0.25520071  1
  C  C3  1  0.49600258  0.62815238  0.24218603  1
  C  C4  1  0.32231699  0.64063665  0.74620981  1
  C  C5  1  0.82235147  0.64010045  0.73317229  1
  C  C6  1  0.18968128  0.02781827  0.74548779  1
  C  C7  1  0.69186614  0.02535122  0.74780342  1
  C  C8  1  0.15375436  0.32705730  0.57483918  1
  C  C9  1  0.66818702  0.35164767  0.57775353  1
  C  C10  1  0.00762438  0.69317643  0.57981125  1
  C  C11  1  0.51070846  0.69195418  0.58411301  1
  C  C12  1  0.32235257  0.97119280  0.59590768  1
  C  C13  1  0.82192765  0.96348212  0.59556073  1
  C  C14  1  0.15489247  0.97364607  0.07881133  1
  C  C15  1  0.64987932  0.96062424  0.06793594  1
  C  C16  1  0.82122174  0.67492391  0.09473925  1
  C  C17  1  0.01326066  0.33205223  0.08281633  1
  C  C18  1  0.51625011  0.34392058  0.09319822  1
  C  C19  1  0.48816699  0.66705080  0.92571120  1
  C  C20  1  0.99273931  0.67814200  0.91712140  1
  C  C21  1  0.84711651  0.03427466  0.90494218  1
  C  C22  1  0.16532213  0.28579209  0.90594198  1
  C  C23  1  0.66208167  0.27246699  0.91467173  1
  C  C24  1  0.49191009  0.31306184  0.41907499  1
  C  C25  1  0.98726437  0.30283642  0.42354959  1
  C  C26  1  0.16305005  0.05493150  0.41508304  1
  C  C27  1  0.66487011  0.05424139  0.41461751  1
  C  C28  1  0.35200314  0.65996835  0.40336512  1
  C  C29  1  0.85097349  0.66259663  0.41678928  1
  C  C30  1  0.00573124  0.99881535  0.50224165  1
  C  C31  1  0.51629964  0.02356372  0.50031848  1
  C  C32  1  0.00827588  0.00393700  0.99861154  1
  C  C33  1  0.49730016  0.99506262  0.00058315  1
  C  C34  1  0.33915430  0.30615583  0.83113660  1
  C  C35  1  0.83010773  0.31701718  0.82590908  1
  C  C36  1  0.32577741  0.32547750  0.32528448  1
  C  C37  1  0.81992628  0.32182098  0.32713769  1
  C  C38  1  0.19060497  0.67905404  0.16170882  1
  C  C39  1  0.66201124  0.66695463  0.16190930  1
  C  C40  1  0.15726909  0.66312354  0.66602705  1
  C  C41  1  0.66900068  0.66760439  0.66303783  1
  C  C42  1  0.00502766  0.00578165  0.34944625  1
  C  C43  1  0.50671519  0.00786862  0.34760318  1
  C  C44  1  0.00548922  0.00870716  0.84829365  1
  C  C45  1  0.50203197  0.00428799  0.85268468  1
  C  C46  1  0.32835268  0.31758035  0.68622243  1
  C  C47  1  0.82628718  0.32427958  0.68449915  1
  C  C48  1  0.32853726  0.33447660  0.18645529  1
  C  C49  1  0.82581788  0.32872374  0.18528244  1
  C  C50  1  0.81323925  0.30220206  0.98194675  1
  C  C51  1  0.31659216  0.32437156  0.48031600  1
  C  C52  1  0.81635184  0.34483314  0.48696348  1
  C  C53  1  0.16983049  0.66461477  0.01882447  1
  C  C54  1  0.65836074  0.65653538  0.01925133  1
  C  C55  1  0.16310381  0.66562226  0.51828393  1
  C  C56  1  0.66889947  0.66712671  0.52126022  1
  Ni  Ni57  1  0.15455227  0.99300506  0.25656404  1
  Ni  Ni58  1  0.65255846  0.98818793  0.25485949  1
  Ni  Ni59  1  0.36073076  0.72149345  0.25259272  1
  Ni  Ni60  1  0.85875887  0.71614767  0.25153137  1
  Ni  Ni61  1  0.14613735  0.30676262  0.75240336  1
  Ni  Ni62  1  0.64992450  0.30959353  0.75922960  1
  Ni  Ni63  1  0.35990088  0.00628298  0.75273446  1
  Ni  Ni64  1  0.85902842  0.00898419  0.75501993  1
  Ni  Ni65  1  0.17930045  0.02859006  0.58541185  1
  Ni  Ni66  1  0.67605136  0.03231806  0.58702915  1
  Ni  Ni67  1  0.84003663  0.64649795  0.58570801  1
  Ni  Ni68  1  0.47048503  0.61050122  0.08305086  1
  Ni  Ni69  1  0.18003685  0.32850772  0.09110794  1
  Ni  Ni70  1  0.67647249  0.31932228  0.08708774  1
  Ni  Ni71  1  0.17103596  0.96001730  0.92044061  1
  Ni  Ni72  1  0.66536233  0.95360454  0.91529758  1
  Ni  Ni73  1  0.16540903  0.38070019  0.41531526  1
  Ni  Ni74  1  0.66510709  0.37980946  0.41527297  1
  Cu  Cu75  1  0.00170394  0.01306288  0.65188469  1
  Cu  Cu76  1  0.51335092  0.03805026  0.66138598  1
  Cu  Cu77  1  0.01444012  0.99548961  0.16057534  1
  Cu  Cu78  1  0.50939845  0.95343497  0.14984770  1
  Cu  Cu79  1  0.31631380  0.30858451  0.99132645  1
  Cu  Cu80  1  0.18957967  0.69118948  0.30948910  1
  Cu  Cu81  1  0.68463295  0.67780881  0.30629600  1
  Cu  Cu82  1  0.18080917  0.69167579  0.80923036  1
  Cu  Cu83  1  0.67921856  0.68395847  0.80952477  1
  C  C84  1  0.00240810  0.29285161  0.24891950  1
  C  C85  1  0.50167251  0.29689963  0.25216464  1
  C  C86  1  0.00524375  0.70802852  0.75268328  1
  C  C87  1  0.50334938  0.70950590  0.75002292  1
  C  C88  1  0.47578405  0.32726642  0.58243911  1
  C  C89  1  0.97729281  0.33002966  0.58273105  1
  C  C90  1  0.33559187  0.63360768  0.58138363  1
  C  C91  1  0.97867504  0.62636978  0.08314154  1
  C  C92  1  0.33251607  0.04269597  0.08300321  1
  C  C93  1  0.83900979  0.04331972  0.08115942  1
  C  C94  1  0.31221629  0.66263406  0.91459340  1
  C  C95  1  0.81460770  0.66436480  0.91858784  1
  C  C96  1  0.02111919  0.38140419  0.91832040  1
  C  C97  1  0.51703578  0.37351797  0.91686025  1
  C  C98  1  0.31321904  0.96408868  0.41800283  1
  C  C99  1  0.81220287  0.96260314  0.41569297  1
  C  C100  1  0.01912390  0.66104567  0.41573852  1
  C  C101  1  0.51787227  0.66063350  0.41918869  1
  C  C102  1  0.10858551  0.02619605  0.31313760  1
  C  C103  1  0.60917421  0.02276484  0.31273257  1
  C  C104  1  0.40655178  0.80899714  0.31492649  1
  C  C105  1  0.90965403  0.80657156  0.31177434  1
  C  C106  1  0.49592018  0.20631048  0.30961639  1
  C  C107  1  0.99047768  0.19666632  0.30498117  1
  C  C108  1  0.11001446  0.18664766  0.81163494  1
  C  C109  1  0.60665545  0.18143330  0.81495214  1
  C  C110  1  0.49111971  0.77870632  0.80718367  1
  C  C111  1  0.99357754  0.78401082  0.80918772  1
  C  C112  1  0.40753257  0.98861182  0.80908677  1
  C  C113  1  0.90364676  0.00379810  0.81680692  1
  C  C114  1  0.40651896  0.97239878  0.68760201  1
  C  C115  1  0.90615002  0.97146997  0.69512866  1
  C  C116  1  0.08352768  0.21274542  0.69126602  1
  C  C117  1  0.59129282  0.23185270  0.69476472  1
  C  C118  1  0.01843627  0.82042431  0.69814643  1
  C  C119  1  0.51661510  0.82995710  0.69631988  1
  C  C120  1  0.41271582  0.84979742  0.19263129  1
  C  C121  1  0.90991910  0.84117960  0.18807903  1
  C  C122  1  0.01583884  0.20147338  0.19374125  1
  C  C123  1  0.51180162  0.21146486  0.19798490  1
  C  C124  1  0.08757149  0.94121678  0.19439978  1
  C  C125  1  0.58757026  0.93016673  0.19256995  1
  C  C126  1  0.43200602  0.34982217  0.63506445  1
  C  C127  1  0.93293950  0.34386240  0.63570199  1
  C  C128  1  0.24369510  0.11312778  0.64180162  1
  C  C129  1  0.73612532  0.11321397  0.64517930  1
  C  C130  1  0.33285986  0.53809218  0.63679596  1
  C  C131  1  0.83113212  0.52457802  0.64217557  1
  C  C132  1  0.43175719  0.49416116  0.14206035  1
  C  C133  1  0.93693302  0.52459713  0.13819673  1
  C  C134  1  0.31922178  0.12376757  0.13522228  1
  C  C135  1  0.83557782  0.13931167  0.13392640  1
  C  C136  1  0.23115089  0.34508930  0.15061479  1
  C  C137  1  0.73969743  0.36174230  0.14377823  1
  C  C138  1  0.21842213  0.27487171  0.02831593  1
  C  C139  1  0.70843250  0.26481482  0.02511630  1
  C  C140  1  0.40517501  0.50772484  0.02046853  1
  C  C141  1  0.93002893  0.54076208  0.02743255  1
  C  C142  1  0.34277561  0.14851586  0.02467957  1
  C  C143  1  0.84821149  0.14080629  0.02363222  1
  C  C144  1  0.21350532  0.14200456  0.52231703  1
  C  C145  1  0.70884976  0.15391325  0.52580882  1
  C  C146  1  0.34229619  0.54551698  0.52595960  1
  C  C147  1  0.86166336  0.57660349  0.52262409  1
  C  C148  1  0.42816900  0.30830889  0.52542387  1
  C  C149  1  0.93105047  0.31449282  0.52517777  1
  C  C150  1  0.26608126  0.67274693  0.96858951  1
  C  C151  1  0.76976951  0.67901401  0.97248968  1
  C  C152  1  0.06950104  0.45755346  0.97513643  1
  C  C153  1  0.56420061  0.44975210  0.97377943  1
  C  C154  1  0.15691030  0.84663250  0.97999548  1
  C  C155  1  0.66230553  0.84713874  0.97439679  1
  C  C156  1  0.26867416  0.86099875  0.47217622  1
  C  C157  1  0.76906994  0.86218923  0.47050081  1
  C  C158  1  0.15678848  0.47029734  0.47636884  1
  C  C159  1  0.65263442  0.46768232  0.47519081  1
  C  C160  1  0.06963498  0.68156635  0.47095227  1
  C  C161  1  0.56920169  0.68038523  0.47376169  1
  C  C162  1  0.06396884  0.65091446  0.35987006  1
  C  C163  1  0.55890670  0.64376222  0.36282165  1
  C  C164  1  0.25805072  0.88704735  0.36124574  1
  C  C165  1  0.75790449  0.88264527  0.35925778  1
  C  C166  1  0.17906150  0.51359428  0.35287550  1
  C  C167  1  0.67978005  0.50965576  0.35194267  1
  C  C168  1  0.06707450  0.49071080  0.86460925  1
  C  C169  1  0.56348642  0.48634552  0.86348308  1
  C  C170  1  0.18364866  0.86588804  0.85555177  1
  C  C171  1  0.67791808  0.85168268  0.85150173  1
  C  C172  1  0.26174796  0.64357829  0.85665211  1
  C  C173  1  0.76444857  0.64188180  0.86106669  1
  C  C174  1  0.00645473  0.81244100  0.41434673  1
  C  C175  1  0.50543456  0.81265385  0.41784479  1
  C  C176  1  0.39686263  0.97587733  0.41253713  1
  C  C177  1  0.89682611  0.97513322  0.41061474  1
  C  C178  1  0.07821456  0.19196631  0.41103375  1
  C  C179  1  0.57900703  0.18983812  0.41011313  1
  C  C180  1  0.00934634  0.20502500  0.91463938  1
  C  C181  1  0.50675166  0.19958617  0.91292044  1
  C  C182  1  0.08724201  0.98303697  0.91362365  1
  C  C183  1  0.57793272  0.96456536  0.91381525  1
  C  C184  1  0.39927690  0.80812960  0.91258487  1
  C  C185  1  0.90156425  0.81986667  0.91559742  1
  C  C186  1  0.48088189  0.16474818  0.58755568  1
  C  C187  1  0.98564910  0.17064298  0.58525473  1
  C  C188  1  0.08518452  0.02337328  0.59732786  1
  C  C189  1  0.57634112  0.02203164  0.59908241  1
  C  C190  1  0.41205325  0.80907273  0.58075350  1
  C  C191  1  0.92635913  0.84637578  0.59468987  1
  C  C192  1  0.47951650  0.80606166  0.08508337  1
  C  C193  1  0.98394509  0.80010115  0.08535433  1
  C  C194  1  0.41185377  0.03575392  0.08275899  1
  C  C195  1  0.91600579  0.02293580  0.08266771  1
  C  C196  1  0.08054253  0.13413608  0.09640775  1
  C  C197  1  0.57692376  0.13783281  0.10081077  1
  C  C198  1  0.34392778  0.16495028  0.74665521  1
  C  C199  1  0.84208663  0.16555986  0.74652052  1
  C  C200  1  0.24322088  0.34476671  0.74023416  1
  C  C201  1  0.74577816  0.34419816  0.74922700  1
  C  C202  1  0.42714994  0.54081562  0.73860969  1
  C  C203  1  0.93234979  0.53567400  0.74506832  1
  C  C204  1  0.34713997  0.53002193  0.24743681  1
  C  C205  1  0.84858151  0.52723997  0.24439932  1
  C  C206  1  0.42817887  0.32345660  0.24926404  1
  C  C207  1  0.93003245  0.31967477  0.23885517  1
  C  C208  1  0.24787047  0.15136062  0.24527613  1
  C  C209  1  0.74556777  0.15026105  0.24287267  1
  C  C210  1  0.31502154  0.49828504  0.91523707  1
  C  C211  1  0.82486267  0.51051078  0.92187327  1
  C  C212  1  0.43173198  0.36259971  0.91825060  1
  C  C213  1  0.93560146  0.36765077  0.92111339  1
  C  C214  1  0.25991731  0.16414795  0.92526310  1
  C  C215  1  0.75240708  0.14409578  0.91099661  1
  C  C216  1  0.32502012  0.13933298  0.42048300  1
  C  C217  1  0.82448615  0.13862123  0.41874747  1
  C  C218  1  0.25157047  0.36415298  0.41102487  1
  C  C219  1  0.75187259  0.36545863  0.41350226  1
  C  C220  1  0.43154778  0.50051699  0.42352058  1
  C  C221  1  0.93466408  0.49912949  0.41770445  1
  C  C222  1  0.16053783  0.48174468  0.07834985  1
  C  C223  1  0.66452488  0.48644594  0.07853090  1
  C  C224  1  0.06734507  0.65615541  0.08134104  1
  C  C225  1  0.56814992  0.65206761  0.07490008  1
  C  C226  1  0.25594960  0.86792133  0.07695745  1
  C  C227  1  0.76091215  0.86868923  0.08074077  1
  C  C228  1  0.16107092  0.83086022  0.57905077  1
  C  C229  1  0.65757213  0.83702046  0.57813125  1
  C  C230  1  0.25658955  0.64790181  0.58127018  1
  C  C231  1  0.75446768  0.66498566  0.58173037  1
  C  C232  1  0.06604874  0.48178724  0.58108307  1
  C  C233  1  0.56407724  0.47631043  0.58064979  1
  C  C234  1  0.15183358  0.80132048  0.26089339  1
  C  C235  1  0.65118026  0.79940943  0.26103128  1
  C  C236  1  0.26156150  0.69773937  0.25073256  1
  C  C237  1  0.76021521  0.69113175  0.24790655  1
  C  C238  1  0.08286656  0.46373159  0.24823539  1
  C  C239  1  0.58330770  0.47501011  0.25192840  1
  C  C240  1  0.15280678  0.50206318  0.76085195  1
  C  C241  1  0.65365033  0.50079210  0.76301975  1
  C  C242  1  0.08802714  0.70485890  0.75463796  1
  C  C243  1  0.58264922  0.69821998  0.74881741  1
  C  C244  1  0.25924096  0.82489002  0.74962964  1
  C  C245  1  0.75929551  0.82252272  0.75211029  1
