# generated using pymatgen
data_Cu3NiC9
_symmetry_space_group_name_H-M   'P 1'
_cell_length_a   7.04299100
_cell_length_b   7.27803200
_cell_length_c   13.89734932
_cell_angle_alpha   86.90107413
_cell_angle_beta   90.00000000
_cell_angle_gamma   90.00000000
_symmetry_Int_Tables_number   1
_chemical_formula_structural   Cu3NiC9
_chemical_formula_sum   'Cu12 Ni4 C36'
_cell_volume   711.32410722
_cell_formula_units_Z   4
loop_
 _symmetry_equiv_pos_site_id
 _symmetry_equiv_pos_as_xyz
  1  'x, y, z'
loop_
 _atom_site_type_symbol
 _atom_site_label
 _atom_site_symmetry_multiplicity
 _atom_site_fract_x
 _atom_site_fract_y
 _atom_site_fract_z
 _atom_site_occupancy
  Ni  Ni0  1  0.36333300  0.75946800  0.56945300  1
  Ni  Ni1  1  0.86333300  0.24053200  0.93054700  1
  Ni  Ni2  1  0.63666700  0.24053200  0.43054700  1
  Ni  Ni3  1  0.13666700  0.75946800  0.06945300  1
  Cu  Cu4  1  0.31532800  0.23688700  0.63541500  1
  Cu  Cu5  1  0.81532800  0.76311300  0.86458500  1
  Cu  Cu6  1  0.68467200  0.76311300  0.36458500  1
  Cu  Cu7  1  0.18467200  0.23688700  0.13541500  1
  Cu  Cu8  1  0.39163900  0.29404700  0.84205400  1
  Cu  Cu9  1  0.89163900  0.70595300  0.65794600  1
  Cu  Cu10  1  0.60836100  0.70595300  0.15794600  1
  Cu  Cu11  1  0.10836100  0.29404700  0.34205400  1
  Cu  Cu12  1  0.39870300  0.70593100  0.82615100  1
  Cu  Cu13  1  0.89870300  0.29406900  0.67384900  1
  Cu  Cu14  1  0.60129700  0.29406900  0.17384900  1
  Cu  Cu15  1  0.10129700  0.70593100  0.32615100  1
  C  C16  1  0.34444700  0.43085600  0.59572300  1
  C  C17  1  0.84444700  0.56914400  0.90427700  1
  C  C18  1  0.65555300  0.56914400  0.40427700  1
  C  C19  1  0.15555300  0.43085600  0.09572300  1
  C  C20  1  0.39058300  0.08805800  0.57297400  1
  C  C21  1  0.89058300  0.91194200  0.92702600  1
  C  C22  1  0.60941700  0.91194200  0.42702600  1
  C  C23  1  0.10941700  0.08805800  0.07297400  1
  C  C24  1  0.03653700  0.79435000  0.59045000  1
  C  C25  1  0.53653700  0.20565000  0.90955000  1
  C  C26  1  0.96346300  0.20565000  0.40955000  1
  C  C27  1  0.46346300  0.79435000  0.09045000  1
  C  C28  1  0.18848800  0.29493100  0.87241900  1
  C  C29  1  0.68848800  0.70506900  0.62758100  1
  C  C30  1  0.81151200  0.70506900  0.12758100  1
  C  C31  1  0.31151200  0.29493100  0.37241900  1
  C  C32  1  0.17529500  0.78273500  0.23053200  1
  C  C33  1  0.67529500  0.21726500  0.26946800  1
  C  C34  1  0.82470500  0.21726500  0.76946800  1
  C  C35  1  0.32470500  0.78273500  0.73053200  1
  C  C36  1  0.08868100  0.20111200  0.23942500  1
  C  C37  1  0.58868100  0.79888800  0.26057500  1
  C  C38  1  0.91131900  0.79888800  0.76057500  1
  C  C39  1  0.41131900  0.20111200  0.73942500  1
  C  C40  1  0.22925800  0.72010300  0.41068800  1
  C  C41  1  0.72925800  0.27989700  0.08931200  1
  C  C42  1  0.77074200  0.27989700  0.58931200  1
  C  C43  1  0.27074200  0.72010300  0.91068800  1
  C  C44  1  0.03211800  0.49879300  0.31308700  1
  C  C45  1  0.53211800  0.50120700  0.18691300  1
  C  C46  1  0.96788200  0.50120700  0.68691300  1
  C  C47  1  0.46788200  0.49879300  0.81308700  1
  C  C48  1  0.40362100  0.19261300  0.15450100  1
  C  C49  1  0.90362100  0.80738700  0.34549900  1
  C  C50  1  0.59637900  0.80738700  0.84549900  1
  C  C51  1  0.09637900  0.19261300  0.65450100  1
