# generated using pymatgen
data_Cu2Ni4C7
_symmetry_space_group_name_H-M   'P 1'
_cell_length_a   3.33692600
_cell_length_b   3.33693530
_cell_length_c   46.73860000
_cell_angle_alpha   90.00079988
_cell_angle_beta   89.99996322
_cell_angle_gamma   119.99983649
_symmetry_Int_Tables_number   1
_chemical_formula_structural   Cu2Ni4C7
_chemical_formula_sum   'Cu2 Ni4 C7'
_cell_volume   450.71437373
_cell_formula_units_Z   1
loop_
 _symmetry_equiv_pos_site_id
 _symmetry_equiv_pos_as_xyz
  1  'x, y, z'
loop_
 _atom_site_type_symbol
 _atom_site_label
 _atom_site_symmetry_multiplicity
 _atom_site_fract_x
 _atom_site_fract_y
 _atom_site_fract_z
 _atom_site_occupancy
  C  C0  1  0.99999700  0.99999400  0.55775600  1
  C  C1  1  0.33333200  0.66666600  0.70561700  1
  C  C2  1  0.33332400  0.66664900  0.62351000  1
  C  C3  1  0.33333400  0.66666500  0.09396100  1
  C  C4  1  0.66665400  0.33331200  0.28186000  1
  C  C5  1  0.33335200  0.66670400  0.46048600  1
  C  C6  1  0.66665900  0.33332000  0.66476300  1
  Ni  Ni7  1  0.33332800  0.66665700  0.31755500  1
  Ni  Ni8  1  0.66666200  0.33332300  0.05824000  1
  Ni  Ni9  1  0.66667000  0.33333800  0.12967500  1
  Ni  Ni10  1  0.33332000  0.66664200  0.24611600  1
  Cu  Cu11  1  0.66667800  0.33335400  0.42799800  1
  Cu  Cu12  1  0.66668900  0.33337700  0.49329700  1
