# generated using pymatgen
data_Cu2Ni9C7
_symmetry_space_group_name_H-M   'P 1'
_cell_length_a   3.88810802
_cell_length_b   8.04522275
_cell_length_c   8.09306156
_cell_angle_alpha   87.04150374
_cell_angle_beta   76.11250479
_cell_angle_gamma   76.01598612
_symmetry_Int_Tables_number   1
_chemical_formula_structural   Cu2Ni9C7
_chemical_formula_sum   'Cu2 Ni9 C7'
_cell_volume   238.46761916
_cell_formula_units_Z   1
loop_
 _symmetry_equiv_pos_site_id
 _symmetry_equiv_pos_as_xyz
  1  'x, y, z'
loop_
 _atom_site_type_symbol
 _atom_site_label
 _atom_site_symmetry_multiplicity
 _atom_site_fract_x
 _atom_site_fract_y
 _atom_site_fract_z
 _atom_site_occupancy
  C  C0  1  0.21160000  0.03063700  0.54577300  1
  C  C1  1  0.34549200  0.11859500  0.18982200  1
  C  C2  1  0.66839500  0.88491300  0.77801000  1
  C  C3  1  0.38932500  0.63690200  0.58352700  1
  C  C4  1  0.62381100  0.30250700  0.44944600  1
  C  C5  1  0.88058700  0.35093300  0.88841900  1
  C  C6  1  0.02681600  0.70827100  0.23518700  1
  Ni  Ni7  1  0.80530600  0.17506200  0.21384200  1
  Ni  Ni8  1  0.20610300  0.85447600  0.73294600  1
  Ni  Ni9  1  0.14915200  0.26303900  0.43823200  1
  Ni  Ni10  1  0.86805400  0.69712200  0.56609300  1
  Ni  Ni11  1  0.49931400  0.02834600  0.97239400  1
  Ni  Ni12  1  0.55122500  0.53905700  0.35800000  1
  Ni  Ni13  1  0.44133600  0.42859600  0.68807500  1
  Ni  Ni14  1  0.38250300  0.91645200  0.31798500  1
  Ni  Ni15  1  0.66090000  0.07054000  0.60735700  1
  Cu  Cu16  1  0.26826400  0.38428100  0.07913700  1
  Cu  Cu17  1  0.70515100  0.66027100  0.93075300  1
