# generated using pymatgen
data_Cu4(NiC4)3
_symmetry_space_group_name_H-M   'P 1'
_cell_length_a   9.23446699
_cell_length_b   9.23446699
_cell_length_c   9.23446699
_cell_angle_alpha   109.47122063
_cell_angle_beta   109.47122063
_cell_angle_gamma   109.47122063
_symmetry_Int_Tables_number   1
_chemical_formula_structural   Cu4(NiC4)3
_chemical_formula_sum   'Cu8 Ni6 C24'
_cell_volume   606.19675633
_cell_formula_units_Z   2
loop_
 _symmetry_equiv_pos_site_id
 _symmetry_equiv_pos_as_xyz
  1  'x, y, z'
loop_
 _atom_site_type_symbol
 _atom_site_label
 _atom_site_symmetry_multiplicity
 _atom_site_fract_x
 _atom_site_fract_y
 _atom_site_fract_z
 _atom_site_occupancy
  Ni  Ni0  1  0.87500000  0.25000000  0.12500000  1
  Ni  Ni1  1  0.12500000  0.87500000  0.25000000  1
  Ni  Ni2  1  0.37500000  0.62500000  0.75000000  1
  Ni  Ni3  1  0.25000000  0.12500000  0.87500000  1
  Ni  Ni4  1  0.75000000  0.37500000  0.62500000  1
  Ni  Ni5  1  0.62500000  0.75000000  0.37500000  1
  Cu  Cu6  1  0.50000000  0.00000000  0.67352100  1
  Cu  Cu7  1  0.17352100  0.50000000  0.00000000  1
  Cu  Cu8  1  0.32647900  0.32647900  0.32647900  1
  Cu  Cu9  1  0.00000000  0.17352100  0.50000000  1
  Cu  Cu10  1  0.82647900  0.82647900  0.82647900  1
  Cu  Cu11  1  0.00000000  0.67352100  0.50000000  1
  Cu  Cu12  1  0.67352100  0.50000000  0.00000000  1
  Cu  Cu13  1  0.50000000  0.00000000  0.17352100  1
  C  C14  1  0.69479400  0.33441600  0.77960800  1
  C  C15  1  0.77960800  0.69479500  0.33441600  1
  C  C16  1  0.58481300  0.63962200  0.80520600  1
  C  C17  1  0.44519200  0.16558400  0.86037800  1
  C  C18  1  0.72039200  0.05480800  0.91518700  1
  C  C19  1  0.33441600  0.77960800  0.69479500  1
  C  C20  1  0.36037800  0.66558400  0.94519200  1
  C  C21  1  0.22039200  0.41518700  0.55480800  1
  C  C22  1  0.13962200  0.08481300  0.30520500  1
  C  C23  1  0.55480800  0.22039200  0.41518700  1
  C  C24  1  0.66558400  0.94519200  0.36037800  1
  C  C25  1  0.83441600  0.19479500  0.27960800  1
  C  C26  1  0.19479500  0.27960800  0.83441600  1
  C  C27  1  0.41518700  0.55480800  0.22039200  1
  C  C28  1  0.27960800  0.83441600  0.19479500  1
  C  C29  1  0.91518700  0.72039200  0.05480800  1
  C  C30  1  0.16558400  0.86037800  0.44519200  1
  C  C31  1  0.63962200  0.80520600  0.58481300  1
  C  C32  1  0.86037800  0.44519200  0.16558400  1
  C  C33  1  0.05480800  0.91518700  0.72039200  1
  C  C34  1  0.80520500  0.58481300  0.63962200  1
  C  C35  1  0.94519200  0.36037800  0.66558400  1
  C  C36  1  0.08481300  0.30520600  0.13962200  1
  C  C37  1  0.30520600  0.13962200  0.08481300  1
