# generated using pymatgen
data_CuNi4C3
_symmetry_space_group_name_H-M   'P 1'
_cell_length_a   5.21172000
_cell_length_b   5.36560926
_cell_length_c   7.39721607
_cell_angle_alpha   106.77179127
_cell_angle_beta   108.76034616
_cell_angle_gamma   97.87983281
_symmetry_Int_Tables_number   1
_chemical_formula_structural   CuNi4C3
_chemical_formula_sum   'Cu2 Ni8 C6'
_cell_volume   181.40448709
_cell_formula_units_Z   2
loop_
 _symmetry_equiv_pos_site_id
 _symmetry_equiv_pos_as_xyz
  1  'x, y, z'
loop_
 _atom_site_type_symbol
 _atom_site_label
 _atom_site_symmetry_multiplicity
 _atom_site_fract_x
 _atom_site_fract_y
 _atom_site_fract_z
 _atom_site_occupancy
  C  C0  1  0.26875000  0.61381700  0.18738200  1
  C  C1  1  0.73125000  0.38618300  0.81261800  1
  C  C2  1  0.00000000  0.00000000  0.00000000  1
  C  C3  1  0.00000000  0.00000000  0.50000000  1
  C  C4  1  0.32218400  0.64148200  0.76314000  1
  C  C5  1  0.67781600  0.35851800  0.23686000  1
  Ni  Ni6  1  0.30907900  0.34135700  0.65926100  1
  Ni  Ni7  1  0.69092100  0.65864300  0.34073900  1
  Ni  Ni8  1  0.36797700  0.24233200  0.08407800  1
  Ni  Ni9  1  0.75188000  0.21282500  0.38955200  1
  Ni  Ni10  1  0.63202300  0.75766800  0.91592200  1
  Ni  Ni11  1  0.24812000  0.78717500  0.61044800  1
  Ni  Ni12  1  0.12568800  0.66458800  0.88677900  1
  Ni  Ni13  1  0.87431200  0.33541200  0.11322100  1
  Cu  Cu14  1  0.12908700  0.92913200  0.26355000  1
  Cu  Cu15  1  0.87091300  0.07086800  0.73645000  1
