# generated using pymatgen
data_CuNiC12
_symmetry_space_group_name_H-M   'P 1'
_cell_length_a   9.17251411
_cell_length_b   9.17742996
_cell_length_c   22.34562644
_cell_angle_alpha   90.61371955
_cell_angle_beta   89.61027036
_cell_angle_gamma   120.01305104
_symmetry_Int_Tables_number   1
_chemical_formula_structural   CuNiC12
_chemical_formula_sum   'Cu9 Ni9 C108'
_cell_volume   1628.73333352
_cell_formula_units_Z   9
loop_
 _symmetry_equiv_pos_site_id
 _symmetry_equiv_pos_as_xyz
  1  'x, y, z'
loop_
 _atom_site_type_symbol
 _atom_site_label
 _atom_site_symmetry_multiplicity
 _atom_site_fract_x
 _atom_site_fract_y
 _atom_site_fract_z
 _atom_site_occupancy
  C  C0  1  0.64193859  0.02220435  0.26096084  1
  C  C1  1  0.34610778  0.34258081  0.25457247  1
  C  C2  1  0.00299048  0.62463611  0.24264176  1
  C  C3  1  0.62420290  0.62484233  0.73277908  1
  C  C4  1  0.99270215  0.34603609  0.73641260  1
  C  C5  1  0.38474747  0.02581615  0.75163332  1
  C  C6  1  0.30539396  0.35117077  0.59296869  1
  C  C7  1  0.01410059  0.67641107  0.58599190  1
  C  C8  1  0.66998411  0.95765898  0.57966256  1
  C  C9  1  0.28375065  0.94385037  0.08090769  1
  C  C10  1  0.67846383  0.69479588  0.08181079  1
  C  C11  1  0.02865035  0.34768833  0.09538696  1
  C  C12  1  0.98731794  0.68727176  0.91819578  1
  C  C13  1  0.68487470  0.02578293  0.89954592  1
  C  C14  1  0.32372457  0.27690584  0.90213875  1
  C  C15  1  0.95078068  0.27660833  0.41595357  1
  C  C16  1  0.34123226  0.03050582  0.40916195  1
  C  C17  1  0.69535755  0.68259418  0.43055855  1
  C  C18  1  0.97223395  0.99552747  0.50395498  1
  C  C19  1  0.01163569  0.98506672  0.99624050  1
  C  C20  1  0.64485568  0.31211337  0.82070003  1
  C  C21  1  0.66515976  0.30734424  0.33050634  1
  C  C22  1  0.30397406  0.66172121  0.17062485  1
  C  C23  1  0.34132612  0.65055915  0.66072031  1
  C  C24  1  0.00026538  0.01105797  0.34810098  1
  C  C25  1  0.01225157  0.01062607  0.84293230  1
  C  C26  1  0.67025063  0.33624803  0.68255600  1
  C  C27  1  0.67814339  0.33209742  0.18770320  1
  C  C28  1  0.31532633  0.67292160  0.01564131  1
  C  C29  1  0.34938832  0.66739835  0.52083023  1
  C  C30  1  0.99154406  0.01121897  0.64907340  1
  C  C31  1  0.01125896  0.99956195  0.15379509  1
  C  C32  1  0.66804775  0.33493933  0.98240192  1
  C  C33  1  0.67618299  0.33053183  0.48699798  1
  C  C34  1  0.33475544  0.67937120  0.31419396  1
  C  C35  1  0.34338487  0.67994246  0.81166813  1
  Ni  Ni36  1  0.30151559  0.00481682  0.25179738  1
  Ni  Ni37  1  0.00092409  0.29851562  0.25058211  1
  Ni  Ni38  1  0.30253799  0.29997933  0.75209979  1
  Ni  Ni39  1  0.70547052  0.00337039  0.75377951  1
  Ni  Ni40  1  0.97128512  0.34099124  0.58428369  1
  Ni  Ni41  1  0.66982337  0.62941448  0.58427216  1
  Ni  Ni42  1  0.96187872  0.62959289  0.08445211  1
  Ni  Ni43  1  0.32887192  0.96683610  0.91961431  1
  Ni  Ni44  1  0.63302070  0.96385257  0.41762928  1
  Cu  Cu45  1  0.70435831  0.70336306  0.25011514  1
  Cu  Cu46  1  -0.00068170  0.70614486  0.75252964  1
  Cu  Cu47  1  0.36973418  0.03585246  0.58355522  1
  Cu  Cu48  1  0.66556410  0.03450570  0.08257818  1
  Cu  Cu49  1  0.37270863  0.33711491  0.08306466  1
  Cu  Cu50  1  0.62379741  0.66391198  0.92025460  1
  Cu  Cu51  1  0.03914024  0.37092820  0.91959176  1
  Cu  Cu52  1  0.33263267  0.37144597  0.41606512  1
  Cu  Cu53  1  0.03693294  0.66748106  0.41683761  1
  C  C54  1  0.20891598  0.02599183  0.31053061  1
  C  C55  1  0.81057477  0.78455416  0.30313607  1
  C  C56  1  0.96864667  0.18023782  0.30787985  1
  C  C57  1  0.22305064  0.18719233  0.81186613  1
  C  C58  1  0.97971570  0.78804772  0.80753906  1
  C  C59  1  0.81274954  0.02058406  0.81412331  1
  C  C60  1  0.79149275  0.96759431  0.69487016  1
  C  C61  1  0.18067669  0.20616068  0.69370379  1
  C  C62  1  0.02748633  0.81086411  0.69869586  1
  C  C63  1  0.78195333  0.80864240  0.19508204  1
  C  C64  1  0.02738007  0.20931739  0.18842464  1
  C  C65  1  0.18208864  0.96743520  0.19098616  1
  C  C66  1  0.88219254  0.36646877  0.64327540  1
  C  C67  1  0.47513673  0.11616279  0.63703777  1
  C  C68  1  0.64040186  0.51111150  0.64173851  1
  C  C69  1  0.86533508  0.51406576  0.14163376  1
  C  C70  1  0.63786985  0.11332536  0.13610598  1
  C  C71  1  0.47194681  0.35638397  0.13692575  1
  C  C72  1  0.45421704  0.31136702  0.02923965  1
  C  C73  1  0.84588052  0.53979624  0.02336207  1
  C  C74  1  0.68624947  0.13823669  0.02872129  1
  C  C75  1  0.44900400  0.14144572  0.52877182  1
  C  C76  1  0.69055870  0.53778543  0.52209414  1
  C  C77  1  0.85019047  0.30322878  0.52410566  1
  C  C78  1  0.53942089  0.67949216  0.97491740  1
  C  C79  1  0.14272488  0.45289909  0.97371447  1
  C  C80  1  0.30563411  0.85886717  0.97987734  1
  C  C81  1  0.53719291  0.84824522  0.47496290  1
  C  C82  1  0.31150821  0.45592689  0.46943377  1
  C  C83  1  0.13881040  0.68651824  0.47014347  1
  C  C84  1  0.11772298  0.64312809  0.36147694  1
  C  C85  1  0.51763702  0.87411415  0.35630352  1
  C  C86  1  0.35206940  0.47154318  0.36083832  1
  C  C87  1  0.11813131  0.47390297  0.86608692  1
  C  C88  1  0.36178054  0.87524089  0.86135584  1
  C  C89  1  0.52043571  0.64121179  0.86653226  1
  C  C90  1  0.01904554  0.81958870  0.41128587  1
  C  C91  1  0.82157434  0.98140643  0.41325539  1
  C  C92  1  0.18181796  0.19941647  0.41242120  1
  C  C93  1  0.01508663  0.19895165  0.91581194  1
  C  C94  1  0.15818934  0.98329550  0.91376358  1
  C  C95  1  0.79415372  0.81444148  0.91630655  1
  C  C96  1  0.99187948  0.17110264  0.58580731  1
  C  C97  1  0.19992098  0.01843088  0.58866486  1
  C  C98  1  0.84819320  0.81426792  0.58681073  1
  C  C99  1  0.97913235  0.82093181  0.08580615  1
  C  C100  1  0.82206822  0.02368776  0.08646009  1
  C  C101  1  0.20112094  0.18511982  0.08497288  1
  C  C102  1  0.68760294  0.17067564  0.74734067  1
  C  C103  1  0.49259417  0.32805573  0.74520415  1
  C  C104  1  0.84762536  0.53737000  0.74795710  1
  C  C105  1  0.68231269  0.53289110  0.24276838  1
  C  C106  1  0.83873417  0.32712721  0.24656313  1
  C  C107  1  0.48550725  0.17489428  0.24365402  1
  C  C108  1  0.64152183  0.50934453  0.92237400  1
  C  C109  1  0.86761076  0.35558525  0.92489417  1
  C  C110  1  0.50347523  0.15928559  0.92293699  1
  C  C111  1  0.64662610  0.15333286  0.41853716  1
  C  C112  1  0.48780391  0.35593019  0.41945508  1
  C  C113  1  0.86472785  0.51306154  0.41883504  1
  C  C114  1  0.35863505  0.49011399  0.07646295  1
  C  C115  1  0.15039993  0.64627239  0.08154881  1
  C  C116  1  0.51983344  0.86129980  0.07650170  1
  C  C117  1  0.34962535  0.86577010  0.57618863  1
  C  C118  1  0.50728635  0.65837172  0.58104879  1
  C  C119  1  0.15575703  0.51091071  0.57610092  1
  C  C120  1  0.32234976  0.83472584  0.25305013  1
  C  C121  1  0.53360544  0.68559996  0.25507449  1
  C  C122  1  0.17813984  0.48433945  0.25391235  1
  C  C123  1  0.30937497  0.48532982  0.75751806  1
  C  C124  1  0.15142167  0.68523002  0.75760810  1
  C  C125  1  0.51264338  0.83302620  0.75457902  1
