# generated using pymatgen
data_Cu3NiC16
_symmetry_space_group_name_H-M   'P 1'
_cell_length_a   15.30023682
_cell_length_b   8.83893083
_cell_length_c   8.74065027
_cell_angle_alpha   90.00000000
_cell_angle_beta   125.29274762
_cell_angle_gamma   90.00000000
_symmetry_Int_Tables_number   1
_chemical_formula_structural   Cu3NiC16
_chemical_formula_sum   'Cu12 Ni4 C64'
_cell_volume   964.81474158
_cell_formula_units_Z   4
loop_
 _symmetry_equiv_pos_site_id
 _symmetry_equiv_pos_as_xyz
  1  'x, y, z'
loop_
 _atom_site_type_symbol
 _atom_site_label
 _atom_site_symmetry_multiplicity
 _atom_site_fract_x
 _atom_site_fract_y
 _atom_site_fract_z
 _atom_site_occupancy
  C  C0  1  0.24956785  0.73011365  0.98577611  1
  C  C1  1  0.74956785  0.76988635  0.48577611  1
  C  C2  1  0.74956785  0.23011365  0.98577611  1
  C  C3  1  0.24956785  0.26988635  0.48577611  1
  C  C4  1  0.50449599  0.10870317  0.74868565  1
  C  C5  1  0.50449599  0.89129683  0.24868565  1
  C  C6  1  0.00449599  0.60870317  0.74868565  1
  C  C7  1  0.00449599  0.39129683  0.24868565  1
  C  C8  1  0.18147716  0.94147180  0.28268288  1
  C  C9  1  0.18147716  0.05852820  0.78268288  1
  C  C10  1  0.68147716  0.44147180  0.28268288  1
  C  C11  1  0.68147716  0.55852820  0.78268288  1
  C  C12  1  0.10088037  0.74912410  0.55598130  1
  C  C13  1  0.10088037  0.25087590  0.05598130  1
  C  C14  1  0.60088037  0.24912410  0.55598130  1
  C  C15  1  0.60088037  0.75087590  0.05598130  1
  Ni  Ni16  1  0.89587405  0.75730879  0.94066941  1
  Ni  Ni17  1  0.89587405  0.24269121  0.44066941  1
  Ni  Ni18  1  0.39587405  0.25730879  0.94066941  1
  Ni  Ni19  1  0.39587405  0.74269121  0.44066941  1
  Cu  Cu20  1  0.99408405  0.95718423  0.75723951  1
  Cu  Cu21  1  0.99408405  0.04281577  0.25723951  1
  Cu  Cu22  1  0.49408405  0.45718423  0.75723951  1
  Cu  Cu23  1  0.49408405  0.54281577  0.25723951  1
  Cu  Cu24  1  0.35609348  0.90373241  0.76036387  1
  Cu  Cu25  1  0.64955516  0.88689017  0.75022425  1
  Cu  Cu26  1  0.64955516  0.11310983  0.25022425  1
  Cu  Cu27  1  0.35609348  0.09626759  0.26036387  1
  Cu  Cu28  1  0.85609348  0.40373241  0.76036387  1
  Cu  Cu29  1  0.14955516  0.38689017  0.75022425  1
  Cu  Cu30  1  0.14955516  0.61310983  0.25022425  1
  Cu  Cu31  1  0.85609348  0.59626759  0.26036387  1
  C  C32  1  0.15660490  0.55809963  0.74001432  1
  C  C33  1  0.85171619  0.58527073  0.75799256  1
  C  C34  1  0.85171619  0.41472927  0.25799256  1
  C  C35  1  0.15660490  0.44190037  0.24001432  1
  C  C36  1  0.65660490  0.05809963  0.74001432  1
  C  C37  1  0.35171619  0.08527073  0.75799256  1
  C  C38  1  0.35171619  0.91472927  0.25799256  1
  C  C39  1  0.65660490  0.94190037  0.24001432  1
  C  C40  1  0.42634604  0.56223690  0.57854666  1
  C  C41  1  0.56408730  0.54604641  0.93640594  1
  C  C42  1  0.56408730  0.45395359  0.43640594  1
  C  C43  1  0.42634604  0.43776310  0.07854666  1
  C  C44  1  0.92634604  0.06223690  0.57854666  1
  C  C45  1  0.06408730  0.04604641  0.93640594  1
  C  C46  1  0.06408730  0.95395359  0.43640594  1
  C  C47  1  0.92634604  0.93776310  0.07854666  1
  C  C48  1  0.25738975  0.84689149  0.74551288  1
  C  C49  1  0.74358985  0.80398466  0.75683156  1
  C  C50  1  0.74358985  0.19601534  0.25683156  1
  C  C51  1  0.25738975  0.15310851  0.24551288  1
  C  C52  1  0.75738975  0.34689149  0.74551288  1
  C  C53  1  0.24358985  0.30398466  0.75683156  1
  C  C54  1  0.24358985  0.69601534  0.25683156  1
  C  C55  1  0.75738975  0.65310851  0.24551288  1
  C  C56  1  0.35676386  0.86951376  0.58072327  1
  C  C57  1  0.65232995  0.84310026  0.91897031  1
  C  C58  1  0.65232995  0.15689974  0.41897031  1
  C  C59  1  0.35676386  0.13048624  0.08072327  1
  C  C60  1  0.85676386  0.36951376  0.58072327  1
  C  C61  1  0.15232995  0.34310026  0.91897031  1
  C  C62  1  0.15232995  0.65689974  0.41897031  1
  C  C63  1  0.85676386  0.63048624  0.08072327  1
  C  C64  1  0.45769215  0.85159431  0.93992234  1
  C  C65  1  0.54432232  0.81763553  0.56338654  1
  C  C66  1  0.54432232  0.18236447  0.06338654  1
  C  C67  1  0.45769215  0.14840569  0.43992234  1
  C  C68  1  0.95769215  0.35159431  0.93992234  1
  C  C69  1  0.04432232  0.31763553  0.56338654  1
  C  C70  1  0.04432232  0.68236447  0.06338654  1
  C  C71  1  0.95769215  0.64840569  0.43992234  1
  C  C72  1  0.06858223  0.84907268  0.74370805  1
  C  C73  1  0.90854736  0.85644272  0.75636259  1
  C  C74  1  0.90854736  0.14355728  0.25636259  1
  C  C75  1  0.06858223  0.15092732  0.24370805  1
  C  C76  1  0.56858223  0.34907268  0.74370805  1
  C  C77  1  0.40854736  0.35644272  0.75636259  1
  C  C78  1  0.40854736  0.64355728  0.25636259  1
  C  C79  1  0.56858223  0.65092732  0.24370805  1
