# generated using pymatgen
data_Cu6Ni3C2
_symmetry_space_group_name_H-M   'P 1'
_cell_length_a   4.49358500
_cell_length_b   13.61560800
_cell_length_c   25.00858000
_cell_angle_alpha   90.00000000
_cell_angle_beta   90.00000000
_cell_angle_gamma   90.00000000
_symmetry_Int_Tables_number   1
_chemical_formula_structural   Cu6Ni3C2
_chemical_formula_sum   'Cu24 Ni12 C8'
_cell_volume   1530.09724608
_cell_formula_units_Z   4
loop_
 _symmetry_equiv_pos_site_id
 _symmetry_equiv_pos_as_xyz
  1  'x, y, z'
loop_
 _atom_site_type_symbol
 _atom_site_label
 _atom_site_symmetry_multiplicity
 _atom_site_fract_x
 _atom_site_fract_y
 _atom_site_fract_z
 _atom_site_occupancy
  C  C0  1  0.25000000  0.04856400  0.57923100  1
  C  C1  1  0.75000000  0.95143600  0.42076900  1
  C  C2  1  0.25000000  0.54856400  0.92076900  1
  C  C3  1  0.75000000  0.45143600  0.07923100  1
  C  C4  1  0.25000000  0.13023500  0.89150900  1
  C  C5  1  0.75000000  0.86976500  0.10849100  1
  C  C6  1  0.25000000  0.63023500  0.60849100  1
  C  C7  1  0.75000000  0.36976500  0.39150900  1
  Ni  Ni8  1  0.25000000  0.81972300  0.90197500  1
  Ni  Ni9  1  0.25000000  0.31972300  0.59802500  1
  Ni  Ni10  1  0.75000000  0.68027700  0.40197500  1
  Ni  Ni11  1  0.75000000  0.18027700  0.09802500  1
  Ni  Ni12  1  0.25000000  0.19463100  0.23422100  1
  Ni  Ni13  1  0.75000000  0.80536900  0.76577900  1
  Ni  Ni14  1  0.25000000  0.69463100  0.26577900  1
  Ni  Ni15  1  0.75000000  0.30536900  0.73422100  1
  Ni  Ni16  1  0.75000000  0.45850200  0.25052900  1
  Ni  Ni17  1  0.25000000  0.54149800  0.74947100  1
  Ni  Ni18  1  0.75000000  0.95850200  0.24947100  1
  Ni  Ni19  1  0.25000000  0.04149800  0.75052900  1
  Cu  Cu20  1  0.75000000  0.07038300  0.99707000  1
  Cu  Cu21  1  0.25000000  0.92961700  0.00293000  1
  Cu  Cu22  1  0.75000000  0.57038300  0.50293000  1
  Cu  Cu23  1  0.25000000  0.42961700  0.49707000  1
  Cu  Cu24  1  0.75000000  0.93484800  0.85591500  1
  Cu  Cu25  1  0.25000000  0.56515200  0.35591500  1
  Cu  Cu26  1  0.25000000  0.06515200  0.14408500  1
  Cu  Cu27  1  0.75000000  0.43484800  0.64408500  1
  Cu  Cu28  1  0.75000000  0.33884000  0.92201600  1
  Cu  Cu29  1  0.25000000  0.66116000  0.07798400  1
  Cu  Cu30  1  0.75000000  0.83884000  0.57798400  1
  Cu  Cu31  1  0.25000000  0.16116000  0.42201600  1
  Cu  Cu32  1  0.75000000  0.19904000  0.49763800  1
  Cu  Cu33  1  0.25000000  0.80096000  0.50236200  1
  Cu  Cu34  1  0.75000000  0.69904000  0.00236200  1
  Cu  Cu35  1  0.25000000  0.30096000  0.99763800  1
  Cu  Cu36  1  0.75000000  0.15103200  0.30333800  1
  Cu  Cu37  1  0.25000000  0.84896800  0.69666200  1
  Cu  Cu38  1  0.75000000  0.65103200  0.19666200  1
  Cu  Cu39  1  0.25000000  0.34896800  0.80333800  1
  Cu  Cu40  1  0.75000000  0.11598300  0.68496700  1
  Cu  Cu41  1  0.25000000  0.88401700  0.31503300  1
  Cu  Cu42  1  0.75000000  0.61598300  0.81503300  1
  Cu  Cu43  1  0.25000000  0.38401700  0.18496700  1
