# generated using pymatgen
data_Cu2NiC8
_symmetry_space_group_name_H-M   'P 1'
_cell_length_a   7.01947734
_cell_length_b   7.01947734
_cell_length_c   7.01947742
_cell_angle_alpha   43.90909710
_cell_angle_beta   43.90909713
_cell_angle_gamma   43.90910550
_symmetry_Int_Tables_number   1
_chemical_formula_structural   Cu2NiC8
_chemical_formula_sum   'Cu2 Ni1 C8'
_cell_volume   151.06409041
_cell_formula_units_Z   1
loop_
 _symmetry_equiv_pos_site_id
 _symmetry_equiv_pos_as_xyz
  1  'x, y, z'
loop_
 _atom_site_type_symbol
 _atom_site_label
 _atom_site_symmetry_multiplicity
 _atom_site_fract_x
 _atom_site_fract_y
 _atom_site_fract_z
 _atom_site_occupancy
  Ni  Ni0  1  0.92400464  0.92400464  0.92400464  1
  Cu  Cu1  1  0.07075965  0.07075965  0.07075965  1
  Cu  Cu2  1  0.48556489  0.48556489  0.48556489  1
  C  C3  1  0.23702411  0.23702411  0.23702411  1
  C  C4  1  0.73512841  0.73512841  0.73512841  1
  C  C5  1  0.20385464  0.00638661  0.49762815  1
  C  C6  1  0.00538614  0.52019598  0.67864977  1
  C  C7  1  0.52019598  0.67864977  0.00538614  1
  C  C8  1  0.49762815  0.20385464  0.00638661  1
  C  C9  1  0.00638661  0.49762815  0.20385464  1
  C  C10  1  0.67864977  0.00538614  0.52019598  1
