# generated using pymatgen
data_Cu3NiC9
_symmetry_space_group_name_H-M   'P 1'
_cell_length_a   5.47323349
_cell_length_b   5.47323376
_cell_length_c   8.81570122
_cell_angle_alpha   80.25538248
_cell_angle_beta   80.25538513
_cell_angle_gamma   60.81142279
_symmetry_Int_Tables_number   1
_chemical_formula_structural   Cu3NiC9
_chemical_formula_sum   'Cu3 Ni1 C9'
_cell_volume   226.06863661
_cell_formula_units_Z   1
loop_
 _symmetry_equiv_pos_site_id
 _symmetry_equiv_pos_as_xyz
  1  'x, y, z'
loop_
 _atom_site_type_symbol
 _atom_site_label
 _atom_site_symmetry_multiplicity
 _atom_site_fract_x
 _atom_site_fract_y
 _atom_site_fract_z
 _atom_site_occupancy
  C  C0  1  0.08839280  0.08839280  0.04424352  1
  Ni  Ni1  1  0.85759674  0.85759674  0.77446357  1
  Cu  Cu2  1  0.37735173  0.37735173  0.30276745  1
  Cu  Cu3  1  0.60274785  0.60274785  0.68591512  1
  Cu  Cu4  1  0.99529370  0.99529370  0.49041423  1
  C  C5  1  0.77034797  0.23282377  0.66943594  1
  C  C6  1  0.72015157  0.22644126  0.33260371  1
  C  C7  1  0.22644126  0.72015157  0.33260371  1
  C  C8  1  0.23282377  0.77034797  0.66943594  1
  C  C9  1  0.21385953  0.21385953  0.41526193  1
  C  C10  1  0.78355407  0.78355407  0.57066367  1
  C  C11  1  0.65757608  0.65757608  0.87268653  1
  C  C12  1  0.36136292  0.36136292  0.12075470  1
