# generated using pymatgen
data_Cu5(NiC2)2
_symmetry_space_group_name_H-M   'P 1'
_cell_length_a   4.15355400
_cell_length_b   17.38057600
_cell_length_c   17.77288100
_cell_angle_alpha   90.00000000
_cell_angle_beta   90.00000000
_cell_angle_gamma   90.00000000
_symmetry_Int_Tables_number   1
_chemical_formula_structural   Cu5(NiC2)2
_chemical_formula_sum   'Cu20 Ni8 C16'
_cell_volume   1283.04491312
_cell_formula_units_Z   4
loop_
 _symmetry_equiv_pos_site_id
 _symmetry_equiv_pos_as_xyz
  1  'x, y, z'
loop_
 _atom_site_type_symbol
 _atom_site_label
 _atom_site_symmetry_multiplicity
 _atom_site_fract_x
 _atom_site_fract_y
 _atom_site_fract_z
 _atom_site_occupancy
  C  C0  1  0.25000000  0.18899900  0.91989800  1
  C  C1  1  0.25000000  0.68899900  0.58010200  1
  C  C2  1  0.75000000  0.81100100  0.08010200  1
  C  C3  1  0.25000000  0.43048100  0.91642300  1
  C  C4  1  0.75000000  0.56951900  0.08357700  1
  C  C5  1  0.25000000  0.93048100  0.58357700  1
  C  C6  1  0.75000000  0.06951900  0.41642300  1
  C  C7  1  0.25000000  0.18472200  0.26111700  1
  C  C8  1  0.75000000  0.81527800  0.73888300  1
  C  C9  1  0.25000000  0.68472200  0.23888300  1
  C  C10  1  0.75000000  0.31527800  0.76111700  1
  C  C11  1  0.25000000  0.18330100  0.57206700  1
  C  C12  1  0.75000000  0.81669900  0.42793300  1
  C  C13  1  0.25000000  0.68330100  0.92793300  1
  C  C14  1  0.75000000  0.31669900  0.07206700  1
  C  C15  1  0.75000000  0.31100100  0.41989800  1
  Ni  Ni16  1  0.75000000  0.56970900  0.75661500  1
  Ni  Ni17  1  0.25000000  0.43029100  0.24338500  1
  Ni  Ni18  1  0.25000000  0.93029100  0.25661500  1
  Ni  Ni19  1  0.75000000  0.06970900  0.74338500  1
  Ni  Ni20  1  0.25000000  0.44243000  0.58865300  1
  Ni  Ni21  1  0.75000000  0.55757000  0.41134700  1
  Ni  Ni22  1  0.25000000  0.94243000  0.91134700  1
  Ni  Ni23  1  0.75000000  0.05757000  0.08865300  1
  Cu  Cu24  1  0.25000000  0.43578100  0.41846900  1
  Cu  Cu25  1  0.75000000  0.56421900  0.58153100  1
  Cu  Cu26  1  0.25000000  0.93578100  0.08153100  1
  Cu  Cu27  1  0.75000000  0.06421900  0.91846900  1
  Cu  Cu28  1  0.75000000  0.54959900  0.90652900  1
  Cu  Cu29  1  0.25000000  0.95040100  0.40652900  1
  Cu  Cu30  1  0.75000000  0.04959900  0.59347100  1
  Cu  Cu31  1  0.25000000  0.17934800  0.73618400  1
  Cu  Cu32  1  0.75000000  0.82065200  0.26381600  1
  Cu  Cu33  1  0.25000000  0.67934800  0.76381600  1
  Cu  Cu34  1  0.75000000  0.32065200  0.23618400  1
  Cu  Cu35  1  0.25000000  0.45575800  0.74160800  1
  Cu  Cu36  1  0.75000000  0.54424200  0.25839200  1
  Cu  Cu37  1  0.25000000  0.95575800  0.75839200  1
  Cu  Cu38  1  0.75000000  0.04424200  0.24160800  1
  Cu  Cu39  1  0.75000000  0.33676700  0.59595700  1
  Cu  Cu40  1  0.25000000  0.66323300  0.40404300  1
  Cu  Cu41  1  0.25000000  0.45040100  0.09347100  1
  Cu  Cu42  1  0.25000000  0.16323300  0.09595700  1
  Cu  Cu43  1  0.75000000  0.83676700  0.90404300  1
