# generated using pymatgen
data_Cu6Ni2C21
_symmetry_space_group_name_H-M   'P 1'
_cell_length_a   7.84355510
_cell_length_b   7.84355510
_cell_length_c   7.84355510
_cell_angle_alpha   60.00000000
_cell_angle_beta   60.00000000
_cell_angle_gamma   60.00000000
_symmetry_Int_Tables_number   1
_chemical_formula_structural   Cu6Ni2C21
_chemical_formula_sum   'Cu6 Ni2 C21'
_cell_volume   341.21165520
_cell_formula_units_Z   1
loop_
 _symmetry_equiv_pos_site_id
 _symmetry_equiv_pos_as_xyz
  1  'x, y, z'
loop_
 _atom_site_type_symbol
 _atom_site_label
 _atom_site_symmetry_multiplicity
 _atom_site_fract_x
 _atom_site_fract_y
 _atom_site_fract_z
 _atom_site_occupancy
  Ni  Ni0  1  0.75000000  0.75000000  0.75000000  1
  Ni  Ni1  1  0.25000000  0.25000000  0.25000000  1
  C  C2  1  0.38433600  0.84699100  0.38433600  1
  C  C3  1  0.38433600  0.38433600  0.84699100  1
  C  C4  1  0.34791000  0.00000000  0.65209000  1
  C  C5  1  0.00000000  0.34791000  0.65209000  1
  C  C6  1  0.15300900  0.61566400  0.61566400  1
  C  C7  1  0.65209000  0.00000000  0.00000000  1
  C  C8  1  0.84699100  0.38433600  0.38433600  1
  C  C9  1  0.65209000  0.34791000  0.00000000  1
  C  C10  1  0.00000000  0.34791000  0.00000000  1
  C  C11  1  0.34791000  0.65209000  0.00000000  1
  C  C12  1  0.00000000  0.00000000  0.34791000  1
  C  C13  1  0.61566400  0.15300900  0.61566400  1
  C  C14  1  0.65209000  0.00000000  0.34791000  1
  C  C15  1  0.00000000  0.65209000  0.00000000  1
  C  C16  1  0.61566400  0.61566400  0.15300900  1
  C  C17  1  0.00000000  0.00000000  0.00000000  1
  C  C18  1  0.00000000  0.65209000  0.34791000  1
  C  C19  1  0.34791000  0.00000000  0.00000000  1
  C  C20  1  0.00000000  0.00000000  0.65209000  1
  C  C21  1  0.38433600  0.38433600  0.38433600  1
  C  C22  1  0.61566400  0.61566400  0.61566400  1
  Cu  Cu23  1  0.26243900  0.26243900  0.73756100  1
  Cu  Cu24  1  0.26243900  0.73756100  0.26243900  1
  Cu  Cu25  1  0.73756100  0.26243900  0.26243900  1
  Cu  Cu26  1  0.26243900  0.73756100  0.73756100  1
  Cu  Cu27  1  0.73756100  0.26243900  0.73756100  1
  Cu  Cu28  1  0.73756100  0.73756100  0.26243900  1
