# generated using pymatgen
data_Cu3Ni2C15
_symmetry_space_group_name_H-M   'P 1'
_cell_length_a   9.28109447
_cell_length_b   9.28109447
_cell_length_c   6.97385986
_cell_angle_alpha   73.77617971
_cell_angle_beta   73.77617971
_cell_angle_gamma   92.77833041
_symmetry_Int_Tables_number   1
_chemical_formula_structural   Cu3Ni2C15
_chemical_formula_sum   'Cu6 Ni4 C30'
_cell_volume   548.58707536
_cell_formula_units_Z   2
loop_
 _symmetry_equiv_pos_site_id
 _symmetry_equiv_pos_as_xyz
  1  'x, y, z'
loop_
 _atom_site_type_symbol
 _atom_site_label
 _atom_site_symmetry_multiplicity
 _atom_site_fract_x
 _atom_site_fract_y
 _atom_site_fract_z
 _atom_site_occupancy
  C  C0  1  0.50000000  0.50000000  0.00000000  1
  C  C1  1  0.27595900  0.72404100  0.75000000  1
  C  C2  1  0.00464300  0.99535700  0.75000000  1
  C  C3  1  0.99535700  0.00464300  0.25000000  1
  C  C4  1  0.72404100  0.27595900  0.25000000  1
  C  C5  1  0.50000000  0.50000000  0.50000000  1
  Ni  Ni6  1  0.37871800  0.06603800  0.85458900  1
  Ni  Ni7  1  0.06603800  0.37871800  0.35458900  1
  Ni  Ni8  1  0.62128200  0.93396200  0.14541100  1
  Ni  Ni9  1  0.93396200  0.62128200  0.64541100  1
  Cu  Cu10  1  0.86414500  0.65729300  0.13226600  1
  Cu  Cu11  1  0.72345400  0.27654600  0.75000000  1
  Cu  Cu12  1  0.65729300  0.86414500  0.63226600  1
  Cu  Cu13  1  0.27654600  0.72345400  0.25000000  1
  Cu  Cu14  1  0.13585500  0.34270700  0.86773400  1
  Cu  Cu15  1  0.34270700  0.13585500  0.36773400  1
  C  C16  1  0.15489700  0.16133200  0.38520200  1
  C  C17  1  0.00088100  0.33153300  0.10162000  1
  C  C18  1  0.83866800  0.84510300  0.11479800  1
  C  C19  1  0.66846700  0.99911900  0.39838000  1
  C  C20  1  0.75128900  0.15508300  0.96970300  1
  C  C21  1  0.70267700  0.54380200  0.18219100  1
  C  C22  1  0.40888600  0.05212200  0.16891400  1
  C  C23  1  0.33153300  0.00088100  0.60162000  1
  C  C24  1  0.94787800  0.59111400  0.33108600  1
  C  C25  1  0.45623900  0.73741700  0.27580600  1
  C  C26  1  0.59111400  0.94787800  0.83108600  1
  C  C27  1  0.26258300  0.54376100  0.22419400  1
  C  C28  1  0.84510300  0.83866800  0.61479800  1
  C  C29  1  0.05212300  0.40888600  0.66891400  1
  C  C30  1  0.29732300  0.45619800  0.81780900  1
  C  C31  1  0.73741700  0.45623900  0.77580600  1
  C  C32  1  0.15508300  0.75128900  0.46970300  1
  C  C33  1  0.84491700  0.24871100  0.53029700  1
  C  C34  1  0.99911900  0.66846700  0.89838000  1
  C  C35  1  0.54380200  0.70267700  0.68219100  1
  C  C36  1  0.54376100  0.26258300  0.72419400  1
  C  C37  1  0.16133200  0.15489700  0.88520200  1
  C  C38  1  0.24871100  0.84491700  0.03029700  1
  C  C39  1  0.45619800  0.29732300  0.31780900  1
