# generated using pymatgen
data_Cu4Ni2C3
_symmetry_space_group_name_H-M   'P 1'
_cell_length_a   3.78170200
_cell_length_b   4.36305216
_cell_length_c   10.51834907
_cell_angle_alpha   80.55418476
_cell_angle_beta   90.00000000
_cell_angle_gamma   90.00000000
_symmetry_Int_Tables_number   1
_chemical_formula_structural   Cu4Ni2C3
_chemical_formula_sum   'Cu4 Ni2 C3'
_cell_volume   171.19714218
_cell_formula_units_Z   1
loop_
 _symmetry_equiv_pos_site_id
 _symmetry_equiv_pos_as_xyz
  1  'x, y, z'
loop_
 _atom_site_type_symbol
 _atom_site_label
 _atom_site_symmetry_multiplicity
 _atom_site_fract_x
 _atom_site_fract_y
 _atom_site_fract_z
 _atom_site_occupancy
  C  C0  1  0.75000000  0.90863800  0.40724900  1
  C  C1  1  0.25000000  0.21852600  0.11939900  1
  C  C2  1  0.75000000  0.86076100  0.85962200  1
  Ni  Ni3  1  0.25000000  0.36192400  0.85351900  1
  Ni  Ni4  1  0.75000000  0.70777000  0.14569200  1
  Cu  Cu5  1  0.25000000  0.75326500  0.41702600  1
  Cu  Cu6  1  0.75000000  0.95810600  0.61166300  1
  Cu  Cu7  1  0.25000000  0.08451000  0.35380200  1
  Cu  Cu8  1  0.75000000  0.24025100  0.54750300  1
