# generated using pymatgen
data_CuNi5C31
_symmetry_space_group_name_H-M   'P 1'
_cell_length_a   8.73098058
_cell_length_b   8.71113739
_cell_length_c   22.54976435
_cell_angle_alpha   90.19092273
_cell_angle_beta   89.82409907
_cell_angle_gamma   120.16044428
_symmetry_Int_Tables_number   1
_chemical_formula_structural   CuNi5C31
_chemical_formula_sum   'Cu3 Ni15 C93'
_cell_volume   1482.87018322
_cell_formula_units_Z   3
loop_
 _symmetry_equiv_pos_site_id
 _symmetry_equiv_pos_as_xyz
  1  'x, y, z'
loop_
 _atom_site_type_symbol
 _atom_site_label
 _atom_site_symmetry_multiplicity
 _atom_site_fract_x
 _atom_site_fract_y
 _atom_site_fract_z
 _atom_site_occupancy
  C  C0  1  0.00297301  0.36436450  0.75144358  1
  C  C1  1  0.66767525  0.96903706  0.58382464  1
  C  C2  1  0.03258635  0.33385833  0.08380510  1
  C  C3  1  0.00752157  0.99447043  0.50424504  1
  C  C4  1  0.00600842  0.99366057  0.00364718  1
  C  C5  1  0.65662574  0.32686691  0.83384521  1
  C  C6  1  0.67796994  0.33724765  0.33302251  1
  C  C7  1  0.34426858  0.67174550  0.16757769  1
  C  C8  1  0.33388195  0.66702397  0.66651450  1
  C  C9  1  0.98726673  0.99208770  0.35491870  1
  C  C10  1  0.00605480  0.00359809  0.85468657  1
  C  C11  1  0.66241507  0.33535031  0.68489405  1
  C  C12  1  0.66967142  0.33689099  0.18569044  1
  C  C13  1  0.66599978  0.32927467  0.98084818  1
  C  C14  1  0.67308016  0.33457309  0.48052070  1
  C  C15  1  0.00456814  0.99792529  0.64957801  1
  C  C16  1  0.98941472  0.99692000  0.14860003  1
  C  C17  1  0.32866998  0.67064918  0.01971978  1
  C  C18  1  0.32789019  0.67137854  0.51950059  1
  C  C19  1  0.33137760  0.66428815  0.31382427  1
  C  C20  1  0.33215159  0.67636291  0.81303768  1
  Ni  Ni21  1  0.70096172  0.71121944  0.24895456  1
  Ni  Ni22  1  0.00920593  0.29622879  0.24893178  1
  Ni  Ni23  1  0.28979739  0.29566722  0.74950606  1
  Ni  Ni24  1  0.00609617  0.71420295  0.74899907  1
  Ni  Ni25  1  0.70424860  0.99004228  0.74861192  1
  Ni  Ni26  1  0.97119422  0.33591944  0.58436011  1
  Ni  Ni27  1  0.36425636  0.03581644  0.58249473  1
  Ni  Ni28  1  0.66522133  0.63249350  0.58232910  1
  Ni  Ni29  1  0.96511915  0.63704676  0.08298986  1
  Ni  Ni30  1  0.66202549  0.03004338  0.08362695  1
  Ni  Ni31  1  0.36821310  0.33309751  0.08350047  1
  Ni  Ni32  1  0.05208205  0.38711274  0.91667433  1
  Ni  Ni33  1  0.33397789  0.94725292  0.91688913  1
  Ni  Ni34  1  0.60917430  0.94563980  0.41706825  1
  Ni  Ni35  1  0.05509696  0.66708075  0.41580523  1
  Cu  Cu36  1  0.28638222  0.99440929  0.24940326  1
  Cu  Cu37  1  0.61453732  0.66551818  0.91647642  1
  Cu  Cu38  1  0.33439658  0.38294111  0.41680587  1
  C  C39  1  0.20656508  0.02271759  0.30333418  1
  C  C40  1  0.81852049  0.79348950  0.30460056  1
  C  C41  1  0.98195705  0.17822594  0.30344044  1
  C  C42  1  0.20614055  0.18027474  0.80527445  1
  C  C43  1  0.97443118  0.79513372  0.80502902  1
  C  C44  1  0.82705024  0.02811237  0.80279613  1
  C  C45  1  0.78669985  0.96677997  0.69118256  1
  C  C46  1  0.16946527  0.21174777  0.69521024  1
  C  C47  1  0.03334258  0.82549773  0.69378417  1
  C  C48  1  0.78990397  0.82449311  0.19393786  1
  C  C49  1  0.03476808  0.21386559  0.19149218  1
  C  C50  1  0.18045717  0.97091496  0.19596331  1
  C  C51  1  0.88433820  0.36447043  0.64048481  1
  C  C52  1  0.48834643  0.12312962  0.63679416  1
  C  C53  1  0.63657287  0.51501034  0.63722126  1
  C  C54  1  0.87696649  0.51132613  0.13694967  1
  C  C55  1  0.63455620  0.12036776  0.13837418  1
  C  C56  1  0.48624299  0.36166109  0.13793472  1
  C  C57  1  0.45719898  0.30450838  0.02851521  1
  C  C58  1  0.84766682  0.54664852  0.02815613  1
  C  C59  1  0.70003131  0.15538324  0.02947786  1
  C  C60  1  0.45656254  0.15305312  0.52776032  1
  C  C61  1  0.69402198  0.54229744  0.52782919  1
  C  C62  1  0.84367803  0.30022205  0.53093477  1
  C  C63  1  0.53801085  0.69236819  0.97094589  1
  C  C64  1  0.15965135  0.46530430  0.97378378  1
  C  C65  1  0.30674030  0.83944857  0.97304584  1
  C  C66  1  0.53621000  0.84096362  0.47494341  1
  C  C67  1  0.30614791  0.45972714  0.47066251  1
  C  C68  1  0.16095578  0.69422740  0.47237883  1
  C  C69  1  0.13314690  0.63527860  0.35957719  1
  C  C70  1  0.50145048  0.86074936  0.36128577  1
  C  C71  1  0.36235428  0.48594216  0.36249431  1
  C  C72  1  0.13346685  0.49092002  0.85923988  1
  C  C73  1  0.36628353  0.87066817  0.86042289  1
  C  C74  1  0.51187404  0.63875892  0.86254308  1
  C  C75  1  0.03508474  0.83438021  0.41016570  1
  C  C76  1  0.80007323  0.97225214  0.41185079  1
  C  C77  1  0.17591297  0.20154433  0.41098010  1
  C  C78  1  0.02568727  0.19686740  0.91200709  1
  C  C79  1  0.16712336  0.96731621  0.91184350  1
  C  C80  1  0.79568065  0.82505599  0.91161350  1
  C  C81  1  0.97657927  0.16277021  0.59018254  1
  C  C82  1  0.18369253  0.02022102  0.59014841  1
  C  C83  1  0.83033180  0.81799115  0.58939330  1
  C  C84  1  0.98299503  0.81889125  0.09173747  1
  C  C85  1  0.83539559  0.02437774  0.08953389  1
  C  C86  1  0.18199162  0.16804386  0.09057382  1
  C  C87  1  0.69251046  0.16312389  0.74353653  1
  C  C88  1  0.47365849  0.31293071  0.74387337  1
  C  C89  1  0.84104502  0.52352894  0.74388053  1
  C  C90  1  0.68272583  0.52486645  0.24365803  1
  C  C91  1  0.83887951  0.31037263  0.24403670  1
  C  C92  1  0.46559775  0.15646010  0.24476249  1
  C  C93  1  0.63723905  0.50708067  0.92177415  1
  C  C94  1  0.86499827  0.36674551  0.92211361  1
  C  C95  1  0.49786781  0.13770653  0.92238508  1
  C  C96  1  0.63348477  0.13475960  0.42198203  1
  C  C97  1  0.49308829  0.36158259  0.42215238  1
  C  C98  1  0.86457561  0.50309622  0.42180619  1
  C  C99  1  0.34671146  0.49765456  0.07642361  1
  C  C100  1  0.14417561  0.64299091  0.07718971  1
  C  C101  1  0.49848170  0.84780609  0.07543899  1
  C  C102  1  0.35714543  0.85568537  0.57709297  1
  C  C103  1  0.50073488  0.65295180  0.57589978  1
  C  C104  1  0.15178461  0.50114270  0.57550325  1
  C  C105  1  0.30687313  0.83715821  0.25504822  1
  C  C106  1  0.51846619  0.69383259  0.25724094  1
  C  C107  1  0.17309451  0.48158970  0.25642840  1
  C  C108  1  0.30564924  0.47885207  0.75761574  1
  C  C109  1  0.16636198  0.68544602  0.75494799  1
  C  C110  1  0.52110195  0.82659669  0.75687294  1
