# generated using pymatgen
data_CuNiC30
_symmetry_space_group_name_H-M   'P 1'
_cell_length_a   11.39968300
_cell_length_b   11.39968300
_cell_length_c   11.39968300
_cell_angle_alpha   90.00000000
_cell_angle_beta   90.00000000
_cell_angle_gamma   90.00000000
_symmetry_Int_Tables_number   1
_chemical_formula_structural   CuNiC30
_chemical_formula_sum   'Cu4 Ni4 C120'
_cell_volume   1481.42041148
_cell_formula_units_Z   4
loop_
 _symmetry_equiv_pos_site_id
 _symmetry_equiv_pos_as_xyz
  1  'x, y, z'
loop_
 _atom_site_type_symbol
 _atom_site_label
 _atom_site_symmetry_multiplicity
 _atom_site_fract_x
 _atom_site_fract_y
 _atom_site_fract_z
 _atom_site_occupancy
  Ni  Ni0  1  0.00000000  0.00000000  0.00000000  1
  Ni  Ni1  1  0.50000000  0.00000000  0.50000000  1
  Ni  Ni2  1  0.50000000  0.50000000  0.00000000  1
  Ni  Ni3  1  0.00000000  0.50000000  0.50000000  1
  Cu  Cu4  1  0.50000000  0.50000000  0.50000000  1
  Cu  Cu5  1  0.00000000  0.50000000  0.00000000  1
  Cu  Cu6  1  0.00000000  0.00000000  0.50000000  1
  Cu  Cu7  1  0.50000000  0.00000000  0.00000000  1
  C  C8  1  0.09928400  0.63305900  0.14895200  1
  C  C9  1  0.59928400  0.86694100  0.85104800  1
  C  C10  1  0.90071600  0.13305900  0.35104800  1
  C  C11  1  0.86694100  0.85104800  0.59928400  1
  C  C12  1  0.35104800  0.90071600  0.13305900  1
  C  C13  1  0.85104800  0.59928400  0.86694100  1
  C  C14  1  0.63305900  0.14895200  0.09928400  1
  C  C15  1  0.14895200  0.09928400  0.63305900  1
  C  C16  1  0.13305900  0.35104800  0.90071600  1
  C  C17  1  0.36694100  0.64895200  0.40071600  1
  C  C18  1  0.64895200  0.40071600  0.36694100  1
  C  C19  1  0.40071600  0.36694100  0.64895200  1
  C  C20  1  0.90071600  0.36694100  0.85104800  1
  C  C21  1  0.40071600  0.13305900  0.14895200  1
  C  C22  1  0.09928400  0.86694100  0.64895200  1
  C  C23  1  0.13305900  0.14895200  0.40071600  1
  C  C24  1  0.64895200  0.09928400  0.86694100  1
  C  C25  1  0.14895200  0.40071600  0.13305900  1
  C  C26  1  0.36694100  0.85104800  0.90071600  1
  C  C27  1  0.85104800  0.90071600  0.36694100  1
  C  C28  1  0.86694100  0.64895200  0.09928400  1
  C  C29  1  0.63305900  0.35104800  0.59928400  1
  C  C30  1  0.35104800  0.59928400  0.63305900  1
  C  C31  1  0.59928400  0.63305900  0.35104800  1
  C  C32  1  0.18478400  0.62564400  0.03119500  1
  C  C33  1  0.68478400  0.87435600  0.96880500  1
  C  C34  1  0.81521600  0.12564400  0.46880500  1
  C  C35  1  0.87435600  0.96880500  0.68478400  1
  C  C36  1  0.46880500  0.81521600  0.12564400  1
  C  C37  1  0.96880500  0.68478400  0.87435600  1
  C  C38  1  0.62564400  0.03119500  0.18478400  1
  C  C39  1  0.21173600  0.46829000  0.93027700  1
  C  C40  1  0.03119500  0.18478400  0.62564400  1
  C  C41  1  0.37435600  0.53119500  0.31521600  1
  C  C42  1  0.53119500  0.31521600  0.37435600  1
  C  C43  1  0.31521600  0.37435600  0.53119500  1
  C  C44  1  0.81521600  0.37435600  0.96880500  1
  C  C45  1  0.31521600  0.12564400  0.03119500  1
  C  C46  1  0.18478400  0.87435600  0.53119500  1
  C  C47  1  0.12564400  0.03119500  0.31521600  1
  C  C48  1  0.53119500  0.18478400  0.87435600  1
  C  C49  1  0.03119500  0.31521600  0.12564400  1
  C  C50  1  0.37435600  0.96880500  0.81521600  1
  C  C51  1  0.96880500  0.81521600  0.37435600  1
  C  C52  1  0.87435600  0.53119500  0.18478400  1
  C  C53  1  0.62564400  0.46880500  0.68478400  1
  C  C54  1  0.46880500  0.68478400  0.62564400  1
  C  C55  1  0.68478400  0.62564400  0.46880500  1
  C  C56  1  0.06972300  0.71173600  0.03171000  1
  C  C57  1  0.56972300  0.78826400  0.96829000  1
  C  C58  1  0.93027700  0.21173600  0.46829000  1
  C  C59  1  0.78826400  0.96829000  0.56972300  1
  C  C60  1  0.46829000  0.93027700  0.21173600  1
  C  C61  1  0.96829000  0.56972300  0.78826400  1
  C  C62  1  0.71173600  0.03171000  0.06972300  1
  C  C63  1  0.03171000  0.06972300  0.71173600  1
  C  C64  1  0.56972300  0.71173600  0.46829000  1
  C  C65  1  0.46829000  0.56972300  0.71173600  1
  C  C66  1  0.71173600  0.46829000  0.56972300  1
  C  C67  1  0.78826400  0.53171000  0.06972300  1
  C  C68  1  0.96829000  0.93027700  0.28826400  1
  C  C69  1  0.28826400  0.96829000  0.93027700  1
  C  C70  1  0.03171000  0.43027700  0.21173600  1
  C  C71  1  0.53171000  0.06972300  0.78826400  1
  C  C72  1  0.21173600  0.03171000  0.43027700  1
  C  C73  1  0.06972300  0.78826400  0.53171000  1
  C  C74  1  0.43027700  0.21173600  0.03171000  1
  C  C75  1  0.93027700  0.28826400  0.96829000  1
  C  C76  1  0.43027700  0.28826400  0.53171000  1
  C  C77  1  0.53171000  0.43027700  0.28826400  1
  C  C78  1  0.28826400  0.53171000  0.43027700  1
  C  C79  1  0.12564400  0.46880500  0.81521600  1
  C  C80  1  0.09854000  0.63049300  0.05846700  1
  C  C81  1  0.59854000  0.86950700  0.94153300  1
  C  C82  1  0.90146000  0.13049300  0.44153300  1
  C  C83  1  0.86950700  0.94153300  0.59854000  1
  C  C84  1  0.44153300  0.90146000  0.13049300  1
  C  C85  1  0.94153300  0.59854000  0.86950700  1
  C  C86  1  0.63049300  0.05846700  0.09854000  1
  C  C87  1  0.05846700  0.09854000  0.63049300  1
  C  C88  1  0.13049300  0.44153300  0.90146000  1
  C  C89  1  0.36950700  0.55846700  0.40146000  1
  C  C90  1  0.55846700  0.40146000  0.36950700  1
  C  C91  1  0.40146000  0.36950700  0.55846700  1
  C  C92  1  0.90146000  0.36950700  0.94153300  1
  C  C93  1  0.40146000  0.13049300  0.05846700  1
  C  C94  1  0.09854000  0.86950700  0.55846700  1
  C  C95  1  0.13049300  0.05846700  0.40146000  1
  C  C96  1  0.55846700  0.09854000  0.86950700  1
  C  C97  1  0.05846700  0.40146000  0.13049300  1
  C  C98  1  0.36950700  0.94153300  0.90146000  1
  C  C99  1  0.94153300  0.90146000  0.36950700  1
  C  C100  1  0.86950700  0.55846700  0.09854000  1
  C  C101  1  0.63049300  0.44153300  0.59854000  1
  C  C102  1  0.44153300  0.59854000  0.63049300  1
  C  C103  1  0.59854000  0.63049300  0.44153300  1
  C  C104  1  0.42928300  0.13442800  0.35219200  1
  C  C105  1  0.92928300  0.36557200  0.64780800  1
  C  C106  1  0.57071700  0.63442800  0.14780800  1
  C  C107  1  0.36557200  0.64780800  0.92928300  1
  C  C108  1  0.92928300  0.13442800  0.14780800  1
  C  C109  1  0.64780800  0.92928300  0.36557200  1
  C  C110  1  0.13442800  0.35219200  0.42928300  1
  C  C111  1  0.35219200  0.42928300  0.13442800  1
  C  C112  1  0.63442800  0.14780800  0.57071700  1
  C  C113  1  0.86557200  0.85219200  0.07071700  1
  C  C114  1  0.85219200  0.07071700  0.86557200  1
  C  C115  1  0.07071700  0.86557200  0.85219200  1
  C  C116  1  0.57071700  0.86557200  0.64780800  1
  C  C117  1  0.07071700  0.63442800  0.35219200  1
  C  C118  1  0.42928300  0.36557200  0.85219200  1
  C  C119  1  0.63442800  0.35219200  0.07071700  1
  C  C120  1  0.85219200  0.42928300  0.36557200  1
  C  C121  1  0.35219200  0.07071700  0.63442800  1
  C  C122  1  0.86557200  0.64780800  0.57071700  1
  C  C123  1  0.64780800  0.57071700  0.86557200  1
  C  C124  1  0.36557200  0.85219200  0.42928300  1
  C  C125  1  0.13442800  0.14780800  0.92928300  1
  C  C126  1  0.14780800  0.92928300  0.13442800  1
  C  C127  1  0.14780800  0.57071700  0.63442800  1
