# generated using pymatgen
data_Cu4Ni9C4
_symmetry_space_group_name_H-M   'P 1'
_cell_length_a   10.31850000
_cell_length_b   6.81110500
_cell_length_c   6.90969672
_cell_angle_alpha   76.78653628
_cell_angle_beta   90.00000000
_cell_angle_gamma   90.00000000
_symmetry_Int_Tables_number   1
_chemical_formula_structural   Cu4Ni9C4
_chemical_formula_sum   'Cu8 Ni18 C8'
_cell_volume   472.75957679
_cell_formula_units_Z   2
loop_
 _symmetry_equiv_pos_site_id
 _symmetry_equiv_pos_as_xyz
  1  'x, y, z'
loop_
 _atom_site_type_symbol
 _atom_site_label
 _atom_site_symmetry_multiplicity
 _atom_site_fract_x
 _atom_site_fract_y
 _atom_site_fract_z
 _atom_site_occupancy
  C  C0  1  0.25000000  0.19348900  0.22298300  1
  C  C1  1  0.75000000  0.80651100  0.77701700  1
  Ni  Ni2  1  0.09338800  0.33274700  0.42657300  1
  Ni  Ni3  1  0.59338800  0.66725300  0.57342700  1
  Ni  Ni4  1  0.90661200  0.66725300  0.57342700  1
  Ni  Ni5  1  0.40661200  0.33274700  0.42657300  1
  Ni  Ni6  1  0.01171500  0.25230800  0.23154300  1
  Ni  Ni7  1  0.51171500  0.74769200  0.76845700  1
  Ni  Ni8  1  0.98828500  0.74769200  0.76845700  1
  Ni  Ni9  1  0.48828500  0.25230800  0.23154300  1
  Ni  Ni10  1  0.09860100  0.48484000  0.18065200  1
  Ni  Ni11  1  0.59860100  0.51516000  0.81934800  1
  Ni  Ni12  1  0.90139900  0.51516000  0.81934800  1
  Ni  Ni13  1  0.40139900  0.48484000  0.18065200  1
  Ni  Ni14  1  0.25000000  0.90820300  0.51692700  1
  Ni  Ni15  1  0.75000000  0.09179700  0.48307300  1
  Ni  Ni16  1  0.33656900  0.84297700  0.31842400  1
  Ni  Ni17  1  0.83656900  0.15702300  0.68157600  1
  Ni  Ni18  1  0.66343100  0.15702300  0.68157600  1
  Ni  Ni19  1  0.16343100  0.84297700  0.31842400  1
  Cu  Cu20  1  0.25000000  0.19906700  0.93874400  1
  Cu  Cu21  1  0.75000000  0.80093300  0.06125600  1
  Cu  Cu22  1  0.09917300  0.32831900  0.26850600  1
  Cu  Cu23  1  0.59917300  0.67168100  0.73149400  1
  Cu  Cu24  1  0.90082700  0.67168100  0.73149400  1
  Cu  Cu25  1  0.40082700  0.32831900  0.26850600  1
  Cu  Cu26  1  0.25000000  0.92138800  0.35506000  1
  Cu  Cu27  1  0.75000000  0.07861200  0.64494000  1
  C  C28  1  0.14320800  0.10499500  0.87899600  1
  C  C29  1  0.64320800  0.89500500  0.12100400  1
  C  C30  1  0.85679200  0.89500500  0.12100400  1
  C  C31  1  0.35679200  0.10499500  0.87899600  1
  C  C32  1  0.25000000  0.39272000  0.82051100  1
  C  C33  1  0.75000000  0.60728000  0.17948900  1
