# generated using pymatgen
data_Cu2Ni3C13
_symmetry_space_group_name_H-M   'P 1'
_cell_length_a   5.37139430
_cell_length_b   5.37139430
_cell_length_c   14.80712700
_cell_angle_alpha   90.00000000
_cell_angle_beta   90.00000000
_cell_angle_gamma   120.00000365
_symmetry_Int_Tables_number   1
_chemical_formula_structural   Cu2Ni3C13
_chemical_formula_sum   'Cu4 Ni6 C26'
_cell_volume   369.97764562
_cell_formula_units_Z   2
loop_
 _symmetry_equiv_pos_site_id
 _symmetry_equiv_pos_as_xyz
  1  'x, y, z'
loop_
 _atom_site_type_symbol
 _atom_site_label
 _atom_site_symmetry_multiplicity
 _atom_site_fract_x
 _atom_site_fract_y
 _atom_site_fract_z
 _atom_site_occupancy
  Ni  Ni0  1  0.33125200  0.00000000  0.22241900  1
  Ni  Ni1  1  0.33125200  0.33125200  0.72241900  1
  Ni  Ni2  1  0.00000000  0.66874800  0.72241900  1
  Ni  Ni3  1  0.00000000  0.33125200  0.22241900  1
  Ni  Ni4  1  0.66874800  0.00000000  0.72241900  1
  Ni  Ni5  1  0.66874800  0.66874800  0.22241900  1
  Cu  Cu6  1  0.33333300  0.66666700  0.03215100  1
  Cu  Cu7  1  0.66666700  0.33333300  0.53215100  1
  Cu  Cu8  1  0.33333300  0.66666700  0.53215100  1
  Cu  Cu9  1  0.66666700  0.33333300  0.03215100  1
  C  C10  1  0.00000000  0.00000000  0.58249100  1
  C  C11  1  0.00000000  0.00000000  0.08249100  1
  C  C12  1  0.35116700  0.00000000  0.85393100  1
  C  C13  1  0.35116700  0.35116700  0.35393100  1
  C  C14  1  0.00000000  0.64883300  0.35393100  1
  C  C15  1  0.00000000  0.35116700  0.85393100  1
  C  C16  1  0.64883300  0.64883300  0.85393100  1
  C  C17  1  0.64883300  0.00000000  0.35393100  1
  C  C18  1  0.00000000  0.00000000  0.64778700  1
  C  C19  1  0.00000000  0.00000000  0.14778700  1
  C  C20  1  0.33333300  0.66666700  0.14086700  1
  C  C21  1  0.66666700  0.33333300  0.64086700  1
  C  C22  1  0.33333300  0.66666700  0.64086700  1
  C  C23  1  0.66666700  0.33333300  0.14086700  1
  C  C24  1  0.48816500  0.00000000  0.99076400  1
  C  C25  1  0.48816500  0.48816500  0.49076400  1
  C  C26  1  0.00000000  0.51183500  0.49076400  1
  C  C27  1  0.00000000  0.48816500  0.99076400  1
  C  C28  1  0.51183500  0.51183500  0.99076400  1
  C  C29  1  0.51183500  0.00000000  0.49076400  1
  C  C30  1  0.66385300  0.00000000  0.28854700  1
  C  C31  1  0.66385300  0.66385300  0.78854700  1
  C  C32  1  0.00000000  0.33614700  0.78854700  1
  C  C33  1  0.00000000  0.66385300  0.28854700  1
  C  C34  1  0.33614700  0.33614700  0.28854700  1
  C  C35  1  0.33614700  0.00000000  0.78854700  1
