# generated using pymatgen
data_Cu3Ni6C31
_symmetry_space_group_name_H-M   'P 1'
_cell_length_a   9.12608683
_cell_length_b   9.13875608
_cell_length_c   22.54211216
_cell_angle_alpha   89.75119508
_cell_angle_beta   90.30199286
_cell_angle_gamma   120.03237581
_symmetry_Int_Tables_number   1
_chemical_formula_structural   Cu3Ni6C31
_chemical_formula_sum   'Cu9 Ni18 C93'
_cell_volume   1627.60220343
_cell_formula_units_Z   3
loop_
 _symmetry_equiv_pos_site_id
 _symmetry_equiv_pos_as_xyz
  1  'x, y, z'
loop_
 _atom_site_type_symbol
 _atom_site_label
 _atom_site_symmetry_multiplicity
 _atom_site_fract_x
 _atom_site_fract_y
 _atom_site_fract_z
 _atom_site_occupancy
  Ni  Ni0  1  0.62322364  0.99921314  0.25202943  1
  Ni  Ni1  1  0.64181131  0.62701230  0.75189342  1
  Ni  Ni2  1  0.00242388  0.36481819  0.74278094  1
  Ni  Ni3  1  0.29571595  0.34446722  0.58480434  1
  Ni  Ni4  1  0.02301786  0.69080975  0.58896926  1
  Ni  Ni5  1  0.67651725  0.96115256  0.57503701  1
  Ni  Ni6  1  0.29788161  0.95105621  0.08723017  1
  Ni  Ni7  1  0.67008081  0.71255161  0.07649467  1
  Ni  Ni8  1  0.02771271  0.33720750  0.08218822  1
  Ni  Ni9  1  0.97442687  0.68246210  0.91398943  1
  Ni  Ni10  1  0.32478044  0.29419591  0.91131227  1
  Ni  Ni11  1  0.68159404  0.67295978  0.41373096  1
  Ni  Ni12  1  0.99699768  0.02369606  0.49465579  1
  Ni  Ni13  1  0.97779867  0.99365657  0.99415395  1
  Ni  Ni14  1  0.65100684  0.32213257  0.82910531  1
  Ni  Ni15  1  0.63517081  0.31283787  0.33034764  1
  Ni  Ni16  1  0.31579889  0.67568298  0.16956257  1
  Ni  Ni17  1  0.32543555  0.65773056  0.66515697  1
  Cu  Cu18  1  0.02273409  0.01829653  0.35357904  1
  Cu  Cu19  1  0.00546180  0.99797244  0.85303279  1
  Cu  Cu20  1  0.00641410  0.00350375  0.64956055  1
  Cu  Cu21  1  0.00441545  0.98796731  0.14822982  1
  Cu  Cu22  1  0.67117296  0.34842719  0.68663716  1
  Cu  Cu23  1  0.66528925  0.32465174  0.18620108  1
  Cu  Cu24  1  0.33421816  0.67464811  0.01716039  1
  Cu  Cu25  1  0.33998390  0.65588278  0.51568088  1
  Cu  Cu26  1  0.34162340  0.67669018  0.31735887  1
  C  C27  1  0.68071214  0.33410225  0.97583442  1
  C  C28  1  0.67349211  0.33406586  0.47787741  1
  C  C29  1  0.32570840  0.66291184  0.81742650  1
  C  C30  1  0.29742483  0.99721726  0.24904808  1
  C  C31  1  0.29756473  0.29661939  0.75116846  1
  C  C32  1  0.00656849  0.70875459  0.74983960  1
  C  C33  1  0.96150955  0.33506395  0.58587555  1
  C  C34  1  0.66904099  0.63049086  0.58305634  1
  C  C35  1  0.95740400  0.62329152  0.08412530  1
  C  C36  1  0.66807932  0.03950044  0.08505476  1
  C  C37  1  0.62667783  0.66842867  0.91948178  1
  C  C38  1  0.04184988  0.36899074  0.91983109  1
  C  C39  1  0.33816299  0.96202444  0.91822473  1
  C  C40  1  0.63257688  0.96329953  0.41695551  1
  C  C41  1  0.33436432  0.37135614  0.41798617  1
  C  C42  1  0.70522024  0.70381274  0.25064608  1
  C  C43  1  0.00340605  0.29486936  0.24880298  1
  C  C44  1  0.70191606  0.99534197  0.74966741  1
  C  C45  1  0.38045793  0.04748751  0.58216100  1
  C  C46  1  0.37759717  0.33286345  0.08235272  1
  C  C47  1  0.03737396  0.66407548  0.41823872  1
  C  C48  1  0.19210053  0.01317964  0.30415994  1
  C  C49  1  0.80471872  0.78642421  0.30459577  1
  C  C50  1  0.97545335  0.18273334  0.30060888  1
  C  C51  1  0.20210952  0.19011026  0.80975479  1
  C  C52  1  0.96783718  0.79109308  0.80684613  1
  C  C53  1  0.81093112  0.02237611  0.80154274  1
  C  C54  1  0.77712862  0.96754592  0.69479969  1
  C  C55  1  0.17802176  0.21886553  0.69141823  1
  C  C56  1  0.02932814  0.81658391  0.68888155  1
  C  C57  1  0.78874855  0.81150031  0.19664894  1
  C  C58  1  0.02011029  0.21500586  0.19336619  1
  C  C59  1  0.19270101  0.98179017  0.18669244  1
  C  C60  1  0.87102699  0.35314366  0.64504380  1
  C  C61  1  0.48482262  0.12339319  0.63537521  1
  C  C62  1  0.63547619  0.51233341  0.64146102  1
  C  C63  1  0.85529683  0.50008726  0.13857082  1
  C  C64  1  0.63364113  0.12321642  0.14288475  1
  C  C65  1  0.48242293  0.35423555  0.13496252  1
  C  C66  1  0.45750059  0.30966642  0.02764970  1
  C  C67  1  0.83597266  0.52878261  0.02323550  1
  C  C68  1  0.68653096  0.16993285  0.02790541  1
  C  C69  1  0.46581634  0.15506151  0.52854785  1
  C  C70  1  0.68866599  0.52387359  0.52620405  1
  C  C71  1  0.83036011  0.31164694  0.52953888  1
  C  C72  1  0.53945514  0.68507605  0.97901725  1
  C  C73  1  0.15225491  0.45495306  0.97841138  1
  C  C74  1  0.30181546  0.84849449  0.97721276  1
  C  C75  1  0.54006007  0.85012656  0.47613536  1
  C  C76  1  0.31250036  0.45129419  0.47994692  1
  C  C77  1  0.13273677  0.68531002  0.47367443  1
  C  C78  1  0.11661888  0.63742352  0.36621747  1
  C  C79  1  0.51646716  0.88339589  0.35755859  1
  C  C80  1  0.37578642  0.50419674  0.36377555  1
  C  C81  1  0.13529040  0.49937828  0.86150327  1
  C  C82  1  0.36334081  0.86000443  0.86156183  1
  C  C83  1  0.50081011  0.63781780  0.86051169  1
  C  C84  1  0.00293426  0.80529872  0.41196733  1
  C  C85  1  0.81405150  0.97077679  0.41072499  1
  C  C86  1  0.17479260  0.18172521  0.41334832  1
  C  C87  1  0.01788540  0.18537832  0.91039611  1
  C  C88  1  0.17374209  0.98460679  0.91048644  1
  C  C89  1  0.81779749  0.82182168  0.91182885  1
  C  C90  1  0.97886815  0.16473515  0.58533533  1
  C  C91  1  0.21282062  0.03835539  0.58517772  1
  C  C92  1  0.84312051  0.81492225  0.58512749  1
  C  C93  1  0.97215453  0.81078655  0.08510308  1
  C  C94  1  0.84563843  0.03566173  0.08640067  1
  C  C95  1  0.20569038  0.17940752  0.08598371  1
  C  C96  1  0.67955632  0.14379513  0.74382698  1
  C  C97  1  0.48875664  0.32586656  0.74724115  1
  C  C98  1  0.84406150  0.51312848  0.74693604  1
  C  C99  1  0.68546269  0.53412372  0.24488933  1
  C  C100  1  0.84593390  0.30773360  0.24586230  1
  C  C101  1  0.48981106  0.16546811  0.24790665  1
  C  C102  1  0.63147293  0.48621329  0.92350876  1
  C  C103  1  0.85815476  0.36824859  0.92134512  1
  C  C104  1  0.50558157  0.15326093  0.92356026  1
  C  C105  1  0.65356479  0.15501107  0.42707434  1
  C  C106  1  0.51394594  0.36069902  0.42597277  1
  C  C107  1  0.86156167  0.50514828  0.42278367  1
  C  C108  1  0.35878683  0.48457810  0.07893257  1
  C  C109  1  0.14356547  0.63908048  0.08073103  1
  C  C110  1  0.50353947  0.85002901  0.07987400  1
  C  C111  1  0.35418287  0.87472163  0.57561045  1
  C  C112  1  0.50280992  0.65574461  0.57996885  1
  C  C113  1  0.14385714  0.51074274  0.57935566  1
  C  C114  1  0.32099520  0.82894001  0.25303031  1
  C  C115  1  0.53567930  0.69265558  0.25270325  1
  C  C116  1  0.15434580  0.46372452  0.25526670  1
  C  C117  1  0.31951430  0.49315562  0.75771569  1
  C  C118  1  0.17764863  0.68701888  0.75739640  1
  C  C119  1  0.53344193  0.83583124  0.75586783  1
