# generated using pymatgen
data_CuNiC16
_symmetry_space_group_name_H-M   'P 1'
_cell_length_a   8.75763668
_cell_length_b   8.80747828
_cell_length_c   23.03962263
_cell_angle_alpha   89.04347901
_cell_angle_beta   90.00000000
_cell_angle_gamma   119.81297737
_symmetry_Int_Tables_number   1
_chemical_formula_structural   CuNiC16
_chemical_formula_sum   'Cu6 Ni6 C96'
_cell_volume   1541.62759211
_cell_formula_units_Z   6
loop_
 _symmetry_equiv_pos_site_id
 _symmetry_equiv_pos_as_xyz
  1  'x, y, z'
loop_
 _atom_site_type_symbol
 _atom_site_label
 _atom_site_symmetry_multiplicity
 _atom_site_fract_x
 _atom_site_fract_y
 _atom_site_fract_z
 _atom_site_occupancy
  C  C0  1  0.01634897  0.01192528  0.50497866  1
  C  C1  1  0.99557631  0.01192528  0.00497866  1
  C  C2  1  0.67906042  0.32970462  0.83729889  1
  C  C3  1  0.65064520  0.32970462  0.33729889  1
  C  C4  1  0.34165149  0.68394853  0.17084544  1
  C  C5  1  0.34229604  0.68394853  0.67084544  1
  C  C6  1  0.01892892  0.01270588  0.35530776  1
  C  C7  1  0.99377696  0.01270588  0.85530776  1
  C  C8  1  0.65902437  0.31174437  0.68751505  1
  C  C9  1  0.65272100  0.31174437  0.18751505  1
  C  C10  1  0.33443880  0.66597126  0.02089561  1
  C  C11  1  0.33153146  0.66597126  0.52089561  1
  Ni  Ni12  1  0.99553539  0.99351298  0.65005068  1
  Ni  Ni13  1  0.99797758  0.99351298  0.15005068  1
  Ni  Ni14  1  0.70016102  0.32386824  0.98149201  1
  Ni  Ni15  1  0.62370822  0.32386824  0.48149201  1
  Ni  Ni16  1  0.34019154  0.67235626  0.31455136  1
  Ni  Ni17  1  0.33216372  0.67235626  0.81455136  1
  Cu  Cu18  1  0.27984456  0.97974134  0.24788184  1
  Cu  Cu19  1  0.69989677  0.97974134  0.74788184  1
  Cu  Cu20  1  0.35780887  0.03863892  0.58422500  1
  Cu  Cu21  1  0.68083105  0.03863892  0.08422500  1
  Cu  Cu22  1  0.04680942  0.39102823  0.91420051  1
  Cu  Cu23  1  0.34421781  0.39102823  0.41420051  1
  C  C24  1  0.70755931  0.71230582  0.24985497  1
  C  C25  1  0.00849664  0.29648695  0.24870597  1
  C  C26  1  0.28799031  0.29648695  0.74870597  1
  C  C27  1  0.00474651  0.71230582  0.74985497  1
  C  C28  1  0.94922893  0.32601011  0.58078640  1
  C  C29  1  0.67561208  0.62652247  0.58227605  1
  C  C30  1  0.95091139  0.62652247  0.08227605  1
  C  C31  1  0.37678218  0.32601011  0.08078640  1
  C  C32  1  0.62131678  0.65387832  0.91673476  1
  C  C33  1  0.34140166  0.96427091  0.91551368  1
  C  C34  1  0.62286824  0.96427091  0.41551368  1
  C  C35  1  0.03256055  0.65387832  0.41673476  1
  C  C36  1  0.19609783  0.01733660  0.30553789  1
  C  C37  1  0.81203001  0.79387866  0.30205826  1
  C  C38  1  0.97192639  0.18473637  0.30185537  1
  C  C39  1  0.21280997  0.18473637  0.80185537  1
  C  C40  1  0.98184865  0.79387866  0.80205826  1
  C  C41  1  0.82123877  0.01733660  0.80553789  1
  C  C42  1  0.79897794  0.96267098  0.69070205  1
  C  C43  1  0.18427681  0.21269190  0.69695176  1
  C  C44  1  0.03297946  0.81934738  0.69646937  1
  C  C45  1  0.78636792  0.81934738  0.19646937  1
  C  C46  1  0.02841509  0.21269190  0.19695176  1
  C  C47  1  0.16369305  0.96267098  0.19070205  1
  C  C48  1  0.87342748  0.35681600  0.63427712  1
  C  C49  1  0.48525794  0.12848091  0.64038611  1
  C  C50  1  0.64946910  0.52073614  0.63543854  1
  C  C51  1  0.87126804  0.52073614  0.13543854  1
  C  C52  1  0.64322397  0.12848091  0.14038611  1
  C  C53  1  0.48338952  0.35681600  0.13427712  1
  C  C54  1  0.46478137  0.31135884  0.02902472  1
  C  C55  1  0.84529294  0.54638915  0.02981645  1
  C  C56  1  0.70717936  0.15756010  0.02635685  1
  C  C57  1  0.45038174  0.15756010  0.52635685  1
  C  C58  1  0.70109720  0.54638915  0.52981645  1
  C  C59  1  0.84657847  0.31135884  0.52902472  1
  C  C60  1  0.54537358  0.69195106  0.96862376  1
  C  C61  1  0.16040729  0.47368299  0.97271104  1
  C  C62  1  0.31571274  0.85551453  0.96850901  1
  C  C63  1  0.53980079  0.85551453  0.46850901  1
  C  C64  1  0.31327471  0.47368299  0.47271104  1
  C  C65  1  0.14657648  0.69195106  0.46862376  1
  C  C66  1  0.11703752  0.63694321  0.36409056  1
  C  C67  1  0.51538625  0.88730589  0.36354458  1
  C  C68  1  0.36340256  0.50726737  0.35648303  1
  C  C69  1  0.14386381  0.50726737  0.85648303  1
  C  C70  1  0.37191865  0.88730589  0.86354458  1
  C  C71  1  0.51990469  0.63694321  0.86409056  1
  C  C72  1  0.00751678  0.81038223  0.41141919  1
  C  C73  1  0.79559769  0.97214394  0.41024085  1
  C  C74  1  0.16818979  0.19260837  0.41135005  1
  C  C75  1  0.02441857  0.19260837  0.91135005  1
  C  C76  1  0.17654625  0.97214394  0.91024085  1
  C  C77  1  0.80286544  0.81038223  0.91141919  1
  C  C78  1  0.96851182  0.17019724  0.58800469  1
  C  C79  1  0.16585717  0.02289428  0.59475495  1
  C  C80  1  0.82928311  0.80308012  0.58666055  1
  C  C81  1  0.97379701  0.80308012  0.08666055  1
  C  C82  1  0.85703711  0.02289428  0.09475495  1
  C  C83  1  0.20168541  0.17019724  0.08800469  1
  C  C84  1  0.68630676  0.16028765  0.74495245  1
  C  C85  1  0.46941455  0.32040384  0.74417567  1
  C  C86  1  0.84380511  0.53777889  0.74406074  1
  C  C87  1  0.69397478  0.53777889  0.24406074  1
  C  C88  1  0.85099029  0.32040384  0.24417567  1
  C  C89  1  0.47398189  0.16028765  0.24495245  1
  C  C90  1  0.63313720  0.49530970  0.92601389  1
  C  C91  1  0.84997208  0.36947129  0.91886552  1
  C  C92  1  0.49252375  0.14181574  0.92258109  1
  C  C93  1  0.64929299  0.14181574  0.42258109  1
  C  C94  1  0.51950022  0.36947129  0.41886552  1
  C  C95  1  0.86217350  0.49530970  0.42601389  1
  C  C96  1  0.35637325  0.48510792  0.07734183  1
  C  C97  1  0.12911161  0.64248211  0.07739227  1
  C  C98  1  0.50380382  0.84628409  0.07770483  1
  C  C99  1  0.34247927  0.84628409  0.57770483  1
  C  C100  1  0.51336950  0.64248211  0.57739227  1
  C  C101  1  0.12873366  0.48510792  0.57734183  1
  C  C102  1  0.30662248  0.81084923  0.25899894  1
  C  C103  1  0.52946340  0.69136868  0.25460486  1
  C  C104  1  0.16585907  0.46824611  0.25492651  1
  C  C105  1  0.30238604  0.46824611  0.75492651  1
  C  C106  1  0.16190428  0.69136868  0.75460486  1
  C  C107  1  0.50422575  0.81084923  0.75899894  1
