# generated using pymatgen
data_Cu2NiC6
_symmetry_space_group_name_H-M   'P 1'
_cell_length_a   3.21121767
_cell_length_b   5.46379958
_cell_length_c   6.95835146
_cell_angle_alpha   88.60742747
_cell_angle_beta   90.00000000
_cell_angle_gamma   90.00000000
_symmetry_Int_Tables_number   1
_chemical_formula_structural   Cu2NiC6
_chemical_formula_sum   'Cu2 Ni1 C6'
_cell_volume   122.05134719
_cell_formula_units_Z   1
loop_
 _symmetry_equiv_pos_site_id
 _symmetry_equiv_pos_as_xyz
  1  'x, y, z'
loop_
 _atom_site_type_symbol
 _atom_site_label
 _atom_site_symmetry_multiplicity
 _atom_site_fract_x
 _atom_site_fract_y
 _atom_site_fract_z
 _atom_site_occupancy
  C  C0  1  0.25000100  0.31816913  0.07153081  1
  C  C1  1  0.74999900  0.83151438  0.87531477  1
  Ni  Ni2  1  0.25000000  0.00047230  0.38146481  1
  Cu  Cu3  1  0.25000100  0.36560497  0.67561143  1
  Cu  Cu4  1  0.74999900  0.60364050  0.34638079  1
  C  C5  1  0.74999900  0.22041771  0.37493278  1
  C  C6  1  0.25000100  0.71785581  0.56721606  1
  C  C7  1  0.74999900  0.27647694  0.84139225  1
  C  C8  1  0.25000100  0.74917326  0.16824032  1
