# generated using pymatgen
data_CuNi5C32
_symmetry_space_group_name_H-M   'P 1'
_cell_length_a   9.11569555
_cell_length_b   9.07580721
_cell_length_c   22.96100732
_cell_angle_alpha   90.23126934
_cell_angle_beta   89.89618926
_cell_angle_gamma   119.99222292
_symmetry_Int_Tables_number   1
_chemical_formula_structural   CuNi5C32
_chemical_formula_sum   'Cu3 Ni15 C96'
_cell_volume   1645.23189794
_cell_formula_units_Z   3
loop_
 _symmetry_equiv_pos_site_id
 _symmetry_equiv_pos_as_xyz
  1  'x, y, z'
loop_
 _atom_site_type_symbol
 _atom_site_label
 _atom_site_symmetry_multiplicity
 _atom_site_fract_x
 _atom_site_fract_y
 _atom_site_fract_z
 _atom_site_occupancy
  C  C0  1  0.63262678  0.62440189  0.74620945  1
  C  C1  1  0.99278440  0.36605490  0.75096728  1
  C  C2  1  0.37856263  0.00647042  0.74701186  1
  C  C3  1  0.65901566  0.68383441  0.08404818  1
  C  C4  1  0.02356675  0.34666943  0.08274858  1
  C  C5  1  0.32480712  0.02772118  0.41882518  1
  C  C6  1  0.98723290  0.99577586  0.49799735  1
  C  C7  1  0.00921082  0.99474256  0.99343625  1
  C  C8  1  0.66672590  0.33288238  0.83497472  1
  C  C9  1  0.69676083  0.33909025  0.33075914  1
  C  C10  1  0.33134875  0.67735912  0.16811796  1
  C  C11  1  0.34387075  0.67446904  0.66152687  1
  C  C12  1  0.98909262  0.00206250  0.35824841  1
  C  C13  1  0.66010233  0.33058024  0.68310249  1
  C  C14  1  0.67140228  0.33124921  0.18255709  1
  C  C15  1  0.99907617  0.00049965  0.85746037  1
  C  C16  1  0.00231960  0.98937962  0.64624332  1
  C  C17  1  0.00681623  0.01595939  0.14289764  1
  C  C18  1  0.66740078  0.33474023  0.97772927  1
  C  C19  1  0.65901362  0.34160282  0.47899016  1
  C  C20  1  0.33280713  0.67024327  0.01574957  1
  C  C21  1  0.34184227  0.67533804  0.51933549  1
  C  C22  1  0.32227453  0.65275535  0.31696307  1
  C  C23  1  0.33561249  0.66704516  0.81522076  1
  Ni  Ni24  1  0.00552086  0.30463255  0.25158972  1
  Ni  Ni25  1  0.28031073  0.28595981  0.75154877  1
  Ni  Ni26  1  0.00649704  0.71459372  0.75289717  1
  Ni  Ni27  1  0.71445055  0.99475558  0.75143144  1
  Ni  Ni28  1  0.36724647  0.03639936  0.58407932  1
  Ni  Ni29  1  0.66599128  0.63327273  0.58562253  1
  Ni  Ni30  1  0.96337188  0.63017296  0.08135042  1
  Ni  Ni31  1  0.66072587  0.03724780  0.08147328  1
  Ni  Ni32  1  0.37789206  0.33709457  0.08118779  1
  Ni  Ni33  1  0.62485208  0.66390175  0.91642875  1
  Ni  Ni34  1  0.04033436  0.37676833  0.91616607  1
  Ni  Ni35  1  0.33593073  0.96133537  0.91548497  1
  Ni  Ni36  1  0.61762974  0.95980879  0.41660110  1
  Ni  Ni37  1  0.33716948  0.38067052  0.41968755  1
  Ni  Ni38  1  0.03971101  0.65371665  0.41967922  1
  Cu  Cu39  1  0.28651558  0.99086992  0.25008350  1
  Cu  Cu40  1  0.70025114  0.71171997  0.24833307  1
  Cu  Cu41  1  0.96440236  0.33204623  0.58208103  1
  C  C42  1  0.20724226  0.00163864  0.30484174  1
  C  C43  1  0.80256179  0.79104786  0.30056714  1
  C  C44  1  0.99607644  0.19324274  0.30604593  1
  C  C45  1  0.18367998  0.16796043  0.80813524  1
  C  C46  1  0.98193795  0.81290826  0.80796031  1
  C  C47  1  0.83090654  0.01581172  0.80846360  1
  C  C48  1  0.80706554  0.96575489  0.69383556  1
  C  C49  1  0.15975877  0.19322377  0.69377311  1
  C  C50  1  0.03399772  0.83366983  0.69354396  1
  C  C51  1  0.79067058  0.81276425  0.19451433  1
  C  C52  1  0.02084342  0.19650263  0.19111818  1
  C  C53  1  0.17700189  0.97759735  0.19829046  1
  C  C54  1  0.89783085  0.35930723  0.63766312  1
  C  C55  1  0.46729241  0.09703234  0.64489567  1
  C  C56  1  0.63611741  0.53617081  0.64650139  1
  C  C57  1  0.89991529  0.50559699  0.13636695  1
  C  C58  1  0.62085925  0.10081524  0.14069297  1
  C  C59  1  0.49568580  0.39432929  0.13759636  1
  C  C60  1  0.47287579  0.30445731  0.02594771  1
  C  C61  1  0.83010671  0.53586971  0.02648712  1
  C  C62  1  0.70691331  0.17212536  0.02749296  1
  C  C63  1  0.47480424  0.16414117  0.52840949  1
  C  C64  1  0.68953246  0.52312328  0.53094772  1
  C  C65  1  0.85107167  0.31258035  0.53262559  1
  C  C66  1  0.52890856  0.68614565  0.97293462  1
  C  C67  1  0.15909418  0.46995218  0.97286243  1
  C  C68  1  0.31295731  0.83655172  0.97021968  1
  C  C69  1  0.51309703  0.84285368  0.47341886  1
  C  C70  1  0.31863382  0.48042797  0.47485668  1
  C  C71  1  0.16040219  0.67268987  0.47425062  1
  C  C72  1  0.13358908  0.62698742  0.35976610  1
  C  C73  1  0.49366248  0.86200790  0.35898477  1
  C  C74  1  0.36015230  0.49774490  0.36027981  1
  C  C75  1  0.13737771  0.49691207  0.85813675  1
  C  C76  1  0.36004388  0.86600141  0.85704045  1
  C  C77  1  0.50458081  0.64076665  0.85837206  1
  C  C78  1  0.03676690  0.82753849  0.41480447  1
  C  C79  1  0.79840416  0.97381435  0.41932682  1
  C  C80  1  0.18855426  0.18689404  0.41761397  1
  C  C81  1  0.02302276  0.18913575  0.91001789  1
  C  C82  1  0.16600149  0.97715376  0.91035799  1
  C  C83  1  0.81125271  0.83418266  0.91044577  1
  C  C84  1  0.97701006  0.17509837  0.58499475  1
  C  C85  1  0.18166549  0.02840932  0.58904563  1
  C  C86  1  0.83983089  0.82243124  0.58852607  1
  C  C87  1  0.97154842  0.81474475  0.09274047  1
  C  C88  1  0.83901878  0.02155366  0.09098455  1
  C  C89  1  0.18480439  0.16385289  0.09029124  1
  C  C90  1  0.69620108  0.16256078  0.74895276  1
  C  C91  1  0.46719023  0.30699127  0.74976783  1
  C  C92  1  0.84334208  0.52704781  0.74881733  1
  C  C93  1  0.67229549  0.53767365  0.24467262  1
  C  C94  1  0.84679511  0.33441026  0.24894634  1
  C  C95  1  0.45407427  0.14359084  0.24549106  1
  C  C96  1  0.64016793  0.49303281  0.92277083  1
  C  C97  1  0.85555353  0.36223658  0.92342645  1
  C  C98  1  0.50721234  0.14499521  0.92408204  1
  C  C99  1  0.62193331  0.14269226  0.42405879  1
  C  C100  1  0.51671328  0.37475711  0.42465463  1
  C  C101  1  0.85501768  0.48184357  0.42735470  1
  C  C102  1  0.33522141  0.49043239  0.06946695  1
  C  C103  1  0.15314456  0.65859047  0.06853639  1
  C  C104  1  0.51224409  0.84003389  0.07032635  1
  C  C105  1  0.33199571  0.84216598  0.57288208  1
  C  C106  1  0.50110491  0.65605732  0.57387525  1
  C  C107  1  0.13656412  0.48221582  0.57541152  1
  C  C108  1  0.29970867  0.83340924  0.25017684  1
  C  C109  1  0.53500253  0.70833974  0.25163919  1
  C  C110  1  0.18899473  0.49255784  0.25375835  1
  C  C111  1  0.29456845  0.47507329  0.75693101  1
  C  C112  1  0.18255314  0.70575901  0.75666477  1
  C  C113  1  0.52616407  0.82005014  0.75683371  1
