# generated using pymatgen
data_Cu3Ni3C31
_symmetry_space_group_name_H-M   'P 1'
_cell_length_a   8.86518833
_cell_length_b   8.85705454
_cell_length_c   22.85561381
_cell_angle_alpha   90.08088843
_cell_angle_beta   89.85448936
_cell_angle_gamma   119.89559860
_symmetry_Int_Tables_number   1
_chemical_formula_structural   Cu3Ni3C31
_chemical_formula_sum   'Cu9 Ni9 C93'
_cell_volume   1555.80557881
_cell_formula_units_Z   3
loop_
 _symmetry_equiv_pos_site_id
 _symmetry_equiv_pos_as_xyz
  1  'x, y, z'
loop_
 _atom_site_type_symbol
 _atom_site_label
 _atom_site_symmetry_multiplicity
 _atom_site_fract_x
 _atom_site_fract_y
 _atom_site_fract_z
 _atom_site_occupancy
  C  C0  1  0.66252773  0.68978963  0.08074335  1
  C  C1  1  0.33261407  0.29726177  0.91736046  1
  C  C2  1  0.33194432  0.03485439  0.41742032  1
  C  C3  1  0.99431862  0.00015549  0.49747917  1
  C  C4  1  0.00313013  0.99716973  0.99703461  1
  C  C5  1  0.67799346  0.33458599  0.83468974  1
  C  C6  1  0.67720412  0.34209754  0.33425242  1
  C  C7  1  0.31808133  0.65970634  0.16288898  1
  C  C8  1  0.33438706  0.67305056  0.66218531  1
  C  C9  1  0.00601954  0.00014577  0.64919139  1
  C  C10  1  0.01126323  0.00495535  0.14975426  1
  C  C11  1  0.66051819  0.32568699  0.68672177  1
  C  C12  1  0.66879267  0.33938739  0.18668921  1
  C  C13  1  0.33245918  0.66321411  0.31149194  1
  C  C14  1  0.33287232  0.67002684  0.81117983  1
  C  C15  1  0.99435844  0.00015406  0.34384548  1
  C  C16  1  0.99362024  0.99426701  0.84352215  1
  C  C17  1  0.67209792  0.33944736  0.98718806  1
  C  C18  1  0.66459721  0.33217861  0.48639440  1
  C  C19  1  0.31518395  0.65756226  0.01977280  1
  C  C20  1  0.33492960  0.67485636  0.51930728  1
  Ni  Ni21  1  0.29397147  0.00227978  0.25357263  1
  Ni  Ni22  1  0.71152385  0.71163260  0.25089700  1
  Ni  Ni23  1  0.99716466  0.28878903  0.25194897  1
  Ni  Ni24  1  0.29044900  0.29002322  0.75292428  1
  Ni  Ni25  1  0.99633759  0.70721037  0.75148376  1
  Ni  Ni26  1  0.71265497  0.00097463  0.75127001  1
  Ni  Ni27  1  0.37434100  0.03773644  0.58003988  1
  Ni  Ni28  1  0.96110445  0.62511933  0.08186715  1
  Ni  Ni29  1  0.37420207  0.33362495  0.08002402  1
  Cu  Cu30  1  0.95962590  0.33451474  0.58204939  1
  Cu  Cu31  1  0.66560034  0.62472429  0.58221701  1
  Cu  Cu32  1  0.66641459  0.04143652  0.08232981  1
  Cu  Cu33  1  0.62862017  0.67057068  0.91814766  1
  Cu  Cu34  1  0.03793264  0.37231412  0.91717106  1
  Cu  Cu35  1  0.33400753  0.95970581  0.91825130  1
  Cu  Cu36  1  0.62901682  0.95854095  0.41767495  1
  Cu  Cu37  1  0.33306317  0.37521560  0.41868242  1
  Cu  Cu38  1  0.03786511  0.66423553  0.41804000  1
  C  C39  1  0.22155630  0.03367611  0.30971496  1
  C  C40  1  0.82037894  0.78672509  0.30495843  1
  C  C41  1  0.96634707  0.18352775  0.30684749  1
  C  C42  1  0.22047232  0.18717570  0.80925697  1
  C  C43  1  0.96414333  0.78125118  0.80644544  1
  C  C44  1  0.81848139  0.03562975  0.80627261  1
  C  C45  1  0.79590504  0.97160135  0.69596353  1
  C  C46  1  0.17500916  0.20305082  0.69842265  1
  C  C47  1  0.02798803  0.82247026  0.69637271  1
  C  C48  1  0.79055472  0.81962443  0.19399261  1
  C  C49  1  0.02747730  0.20518866  0.19662352  1
  C  C50  1  0.17722599  0.97204120  0.19895232  1
  C  C51  1  0.87337991  0.35697265  0.63509686  1
  C  C52  1  0.49058232  0.13583307  0.63412082  1
  C  C53  1  0.64674167  0.51779370  0.63520300  1
  C  C54  1  0.86897036  0.51142264  0.13680286  1
  C  C55  1  0.64456182  0.12577540  0.13540121  1
  C  C56  1  0.49306830  0.35723107  0.13379857  1
  C  C57  1  0.44638577  0.29940857  0.02358665  1
  C  C58  1  0.84432969  0.55140223  0.02811427  1
  C  C59  1  0.69713919  0.14566177  0.02968257  1
  C  C60  1  0.44753580  0.14501819  0.52382357  1
  C  C61  1  0.69912373  0.55128713  0.52959065  1
  C  C62  1  0.85431140  0.30461844  0.52945957  1
  C  C63  1  0.54749167  0.69126585  0.97208717  1
  C  C64  1  0.14949716  0.45272476  0.96900803  1
  C  C65  1  0.31235498  0.85402008  0.97032051  1
  C  C66  1  0.54605030  0.85319000  0.47020786  1
  C  C67  1  0.31100870  0.45958071  0.47080759  1
  C  C68  1  0.14934792  0.69376901  0.46971489  1
  C  C69  1  0.12708277  0.64308840  0.36448613  1
  C  C70  1  0.51297899  0.86995958  0.36498786  1
  C  C71  1  0.35314045  0.48324987  0.36499348  1
  C  C72  1  0.12792273  0.48357760  0.86406033  1
  C  C73  1  0.35310118  0.87073921  0.86454769  1
  C  C74  1  0.51130484  0.64565421  0.86620892  1
  C  C75  1  0.02633505  0.82549086  0.41135569  1
  C  C76  1  0.80210248  0.97772140  0.41063049  1
  C  C77  1  0.17882867  0.19809788  0.41272349  1
  C  C78  1  0.02696048  0.19976240  0.91060726  1
  C  C79  1  0.17895849  0.98192628  0.91239960  1
  C  C80  1  0.80160190  0.82456744  0.91098500  1
  C  C81  1  0.97499885  0.17390431  0.59040314  1
  C  C82  1  0.19122526  0.02187658  0.59053355  1
  C  C83  1  0.82327438  0.80243935  0.59042757  1
  C  C84  1  0.97115145  0.80695488  0.09160644  1
  C  C85  1  0.82373792  0.01865951  0.09010075  1
  C  C86  1  0.19044271  0.17212811  0.09040634  1
  C  C87  1  0.68623866  0.16038337  0.74110301  1
  C  C88  1  0.47453087  0.31505558  0.74142669  1
  C  C89  1  0.83890935  0.52365806  0.73997594  1
  C  C90  1  0.68459862  0.52533379  0.24193043  1
  C  C91  1  0.83824796  0.31364184  0.24154805  1
  C  C92  1  0.47615758  0.16020955  0.24152505  1
  C  C93  1  0.63513569  0.50503575  0.91934586  1
  C  C94  1  0.86559296  0.35781403  0.92126588  1
  C  C95  1  0.49293312  0.13550363  0.92011881  1
  C  C96  1  0.63638557  0.13119543  0.42032649  1
  C  C97  1  0.49249740  0.35808951  0.42036367  1
  C  C98  1  0.86527551  0.50621607  0.42210820  1
  C  C99  1  0.36547932  0.50369841  0.07796775  1
  C  C100  1  0.14333983  0.64836008  0.07878119  1
  C  C101  1  0.51341348  0.86384050  0.07871735  1
  C  C102  1  0.35541964  0.85577637  0.57850175  1
  C  C103  1  0.50830280  0.64070088  0.57869572  1
  C  C104  1  0.13480994  0.48868081  0.57853362  1
  C  C105  1  0.31177380  0.83614990  0.25805230  1
  C  C106  1  0.52603229  0.68981945  0.25737228  1
  C  C107  1  0.16250607  0.47397142  0.25711265  1
  C  C108  1  0.31117942  0.47498882  0.75779804  1
  C  C109  1  0.16239425  0.68859017  0.75693243  1
  C  C110  1  0.52680132  0.83731596  0.75734604  1
