# generated using pymatgen
data_CuNiC16
_symmetry_space_group_name_H-M   'P 1'
_cell_length_a   8.43934721
_cell_length_b   8.41105987
_cell_length_c   21.90274060
_cell_angle_alpha   90.44371112
_cell_angle_beta   90.00000000
_cell_angle_gamma   120.11131334
_symmetry_Int_Tables_number   1
_chemical_formula_structural   CuNiC16
_chemical_formula_sum   'Cu6 Ni6 C96'
_cell_volume   1344.87846535
_cell_formula_units_Z   6
loop_
 _symmetry_equiv_pos_site_id
 _symmetry_equiv_pos_as_xyz
  1  'x, y, z'
loop_
 _atom_site_type_symbol
 _atom_site_label
 _atom_site_symmetry_multiplicity
 _atom_site_fract_x
 _atom_site_fract_y
 _atom_site_fract_z
 _atom_site_occupancy
  C  C0  1  0.01698573  0.00947768  0.50191278  1
  C  C1  1  0.99249195  0.00947768  0.00191278  1
  C  C2  1  0.68149606  0.33088473  0.83459977  1
  C  C3  1  0.64938967  0.33088473  0.33459977  1
  C  C4  1  0.33811399  0.68327521  0.16801300  1
  C  C5  1  0.34516021  0.68327521  0.66801300  1
  Ni  Ni6  1  0.99483597  0.99300844  0.64606411  1
  Ni  Ni7  1  0.99817247  0.99300844  0.14606411  1
  Ni  Ni8  1  0.68457367  0.32536672  0.97825793  1
  Ni  Ni9  1  0.64079405  0.32536672  0.47825793  1
  Ni  Ni10  1  0.33703068  0.67016769  0.31183484  1
  Ni  Ni11  1  0.33313601  0.67016769  0.81183484  1
  C  C12  1  0.28411217  0.99229172  0.24774374  1
  C  C13  1  0.70817955  0.99229172  0.74774374  1
  C  C14  1  0.36802700  0.03917638  0.58089085  1
  C  C15  1  0.67115038  0.03917638  0.08089085  1
  C  C16  1  0.05223184  0.38998739  0.91478167  1
  C  C17  1  0.33775455  0.38998739  0.41478167  1
  Cu  Cu18  1  0.02533332  0.02053486  0.35333047  1
  Cu  Cu19  1  0.99520155  0.02053486  0.85333047  1
  Cu  Cu20  1  0.65846555  0.30377772  0.68541973  1
  Cu  Cu21  1  0.64531318  0.30377772  0.18541973  1
  Cu  Cu22  1  0.33663037  0.66718833  0.01855802  1
  Cu  Cu23  1  0.33055696  0.66718833  0.51855802  1
  C  C24  1  0.71611410  0.71352888  0.24957712  1
  C  C25  1  -0.00000943  0.28901424  0.24893523  1
  C  C26  1  0.28902367  0.28901424  0.74893523  1
  C  C27  1  0.99741478  0.71352888  0.74957712  1
  C  C28  1  0.95077946  0.33260849  0.58195890  1
  C  C29  1  0.66778525  0.61566721  0.58392639  1
  C  C30  1  0.94788296  0.61566721  0.08392639  1
  C  C31  1  0.38183002  0.33260849  0.08195890  1
  C  C32  1  0.62349783  0.66333448  0.91601932  1
  C  C33  1  0.33048787  0.95693813  0.91505433  1
  C  C34  1  0.62644926  0.95693813  0.41505433  1
  C  C35  1  0.03983565  0.66333448  0.41601932  1
  C  C36  1  0.20828979  0.04156152  0.31072616  1
  C  C37  1  0.82644720  0.79373903  0.30676977  1
  C  C38  1  0.95334487  0.17259306  0.30549544  1
  C  C39  1  0.21924819  0.17259306  0.80549544  1
  C  C40  1  0.96729183  0.79373903  0.80676977  1
  C  C41  1  0.83327173  0.04156152  0.81072616  1
  C  C42  1  0.80458667  0.96605731  0.68889629  1
  C  C43  1  0.17718399  0.20168765  0.69479383  1
  C  C44  1  0.03126738  0.82682285  0.69526341  1
  C  C45  1  0.79555547  0.82682285  0.19526341  1
  C  C46  1  0.02450366  0.20168765  0.19479383  1
  C  C47  1  0.16147064  0.96605731  0.18889629  1
  C  C48  1  0.87870157  0.37577554  0.63929355  1
  C  C49  1  0.49507743  0.11382769  0.64357158  1
  C  C50  1  0.63661702  0.50414469  0.64029690  1
  C  C51  1  0.86752867  0.50414469  0.14029690  1
  C  C52  1  0.61875125  0.11382769  0.14357158  1
  C  C53  1  0.49707497  0.37577554  0.13929355  1
  C  C54  1  0.46983698  0.31077523  0.02755427  1
  C  C55  1  0.83554885  0.53517887  0.02869855  1
  C  C56  1  0.70005493  0.16346233  0.02291767  1
  C  C57  1  0.46340840  0.16346233  0.52291767  1
  C  C58  1  0.69963102  0.53517887  0.52869855  1
  C  C59  1  0.84093924  0.31077523  0.52755427  1
  C  C60  1  0.55461053  0.71290733  0.97231187  1
  C  C61  1  0.17721672  0.47137316  0.97838307  1
  C  C62  1  0.29562024  0.84675323  0.97189121  1
  C  C63  1  0.55113199  0.84675323  0.47189121  1
  C  C64  1  0.29415544  0.47137316  0.47838307  1
  C  C65  1  0.15829579  0.71290733  0.47231187  1
  C  C66  1  0.12412306  0.63843465  0.36145846  1
  C  C67  1  0.50861425  0.87887901  0.36126986  1
  C  C68  1  0.36020675  0.51055230  0.35641418  1
  C  C69  1  0.15034455  0.51055230  0.85641418  1
  C  C70  1  0.37026376  0.87887901  0.86126986  1
  C  C71  1  0.51431059  0.63843465  0.86145846  1
  C  C72  1  0.00914209  0.82360803  0.41061824  1
  C  C73  1  0.80568311  0.96446110  0.40747884  1
  C  C74  1  0.14651716  0.18417503  0.41262105  1
  C  C75  1  0.03765787  0.18417503  0.91262105  1
  C  C76  1  0.15877799  0.96446110  0.90747884  1
  C  C77  1  0.81446594  0.82360803  0.91061824  1
  C  C78  1  0.96400690  0.16607975  0.58892199  1
  C  C79  1  0.17006438  0.01752689  0.59307761  1
  C  C80  1  0.83059234  0.79966153  0.58974089  1
  C  C81  1  0.96906918  0.79966153  0.08974089  1
  C  C82  1  0.84746251  0.01752689  0.09307761  1
  C  C83  1  0.20207286  0.16607975  0.08892199  1
  C  C84  1  0.69810965  0.18546124  0.74487918  1
  C  C85  1  0.47889201  0.31890258  0.74357041  1
  C  C86  1  0.82726429  0.53098541  0.74265670  1
  C  C87  1  0.70372212  0.53098541  0.24265670  1
  C  C88  1  0.84001157  0.31890258  0.24357041  1
  C  C89  1  0.48735259  0.18546124  0.24487918  1
  C  C90  1  0.63006302  0.49407178  0.92591615  1
  C  C91  1  0.85216769  0.36871650  0.92155965  1
  C  C92  1  0.48796445  0.14436701  0.92358445  1
  C  C93  1  0.65640355  0.14436701  0.42358445  1
  C  C94  1  0.51654981  0.36871650  0.42155965  1
  C  C95  1  0.86400976  0.49407178  0.42591615  1
  C  C96  1  0.36022888  0.49779100  0.07902149  1
  C  C97  1  0.13183781  0.63278359  0.07893333  1
  C  C98  1  0.48019319  0.83453345  0.07295466  1
  C  C99  1  0.35433927  0.83453345  0.57295466  1
  C  C100  1  0.50094478  0.63278359  0.57893333  1
  C  C101  1  0.13756112  0.49779100  0.57902149  1
  C  C102  1  0.30970803  0.81697920  0.25884905  1
  C  C103  1  0.53221846  0.69143404  0.25602331  1
  C  C104  1  0.16717368  0.46770813  0.25670874  1
  C  C105  1  0.30053345  0.46770813  0.75670874  1
  C  C106  1  0.15921457  0.69143404  0.75602331  1
  C  C107  1  0.50727017  0.81697920  0.75884905  1
