# generated using pymatgen
data_Cu(NiC4)4
_symmetry_space_group_name_H-M   'P 1'
_cell_length_a   9.42377275
_cell_length_b   9.41002076
_cell_length_c   22.95685814
_cell_angle_alpha   90.07470692
_cell_angle_beta   89.81285287
_cell_angle_gamma   119.94350842
_symmetry_Int_Tables_number   1
_chemical_formula_structural   Cu(NiC4)4
_chemical_formula_sum   'Cu6 Ni24 C96'
_cell_volume   1764.01819354
_cell_formula_units_Z   6
loop_
 _symmetry_equiv_pos_site_id
 _symmetry_equiv_pos_as_xyz
  1  'x, y, z'
loop_
 _atom_site_type_symbol
 _atom_site_label
 _atom_site_symmetry_multiplicity
 _atom_site_fract_x
 _atom_site_fract_y
 _atom_site_fract_z
 _atom_site_occupancy
  Ni  Ni0  1  0.64905108  0.00794198  0.25401511  1
  Ni  Ni1  1  0.35065223  0.35943898  0.24624994  1
  Ni  Ni2  1  0.00017630  0.64202876  0.24976256  1
  Ni  Ni3  1  0.63641953  0.63492474  0.74445212  1
  Ni  Ni4  1  0.99005568  0.35461714  0.74836424  1
  Ni  Ni5  1  0.36886123  0.01254403  0.74842636  1
  Ni  Ni6  1  0.30032192  0.33807015  0.59017883  1
  Ni  Ni7  1  0.03940740  0.70288318  0.58306074  1
  Ni  Ni8  1  0.66458044  0.95833904  0.58358565  1
  Ni  Ni9  1  0.27727626  0.96438740  0.07985495  1
  Ni  Ni10  1  0.67204275  0.68172364  0.09176559  1
  Ni  Ni11  1  0.05322880  0.34149755  0.09011603  1
  Ni  Ni12  1  0.98641038  0.67056365  0.91533243  1
  Ni  Ni13  1  0.70800932  0.05343255  0.90226012  1
  Ni  Ni14  1  0.31252211  0.27550274  0.91869288  1
  Ni  Ni15  1  0.95232323  0.29337139  0.40843759  1
  Ni  Ni16  1  0.32665109  0.01199605  0.41556020  1
  Ni  Ni17  1  0.71840552  0.68669079  0.41939455  1
  Ni  Ni18  1  0.98368436  0.98095183  0.50307165  1
  Ni  Ni19  1  0.03615393  0.01449624  0.99951635  1
  Ni  Ni20  1  0.66838236  0.31858415  0.82937983  1
  Ni  Ni21  1  0.67852186  0.32886570  0.33213067  1
  Ni  Ni22  1  0.31796414  0.64607942  0.16829534  1
  Ni  Ni23  1  0.33717362  0.66669913  0.66324351  1
  Cu  Cu24  1  0.99779506  0.99630479  0.34513239  1
  Cu  Cu25  1  0.00703760  0.00396712  0.84475282  1
  Cu  Cu26  1  0.00322850  0.99912382  0.15556540  1
  Cu  Cu27  1  0.66643655  0.33478573  0.98038678  1
  Cu  Cu28  1  0.31808579  0.65693749  0.01842460  1
  Cu  Cu29  1  0.33567397  0.67556940  0.52071078  1
  C  C30  1  0.00024881  0.00061503  0.64963159  1
  C  C31  1  0.66875664  0.33351166  0.68352107  1
  C  C32  1  0.66704590  0.34313281  0.18516106  1
  C  C33  1  0.67566998  0.33057499  0.48551752  1
  C  C34  1  0.33048371  0.67762403  0.31658965  1
  C  C35  1  0.31987506  0.66693775  0.81065881  1
  C  C36  1  0.31252200  0.00382165  0.25046266  1
  C  C37  1  0.68577864  0.69175928  0.25036868  1
  C  C38  1  0.00069752  0.31106210  0.25026393  1
  C  C39  1  0.30465096  0.30475294  0.74918368  1
  C  C40  1  0.99486414  0.69786854  0.74986335  1
  C  C41  1  0.69721105  0.99740010  0.75031792  1
  C  C42  1  0.96245933  0.32568267  0.58519066  1
  C  C43  1  0.36984274  0.04489528  0.58397342  1
  C  C44  1  0.67228467  0.62831858  0.58373940  1
  C  C45  1  0.96532692  0.63632576  0.08263392  1
  C  C46  1  0.36679649  0.33389435  0.08303424  1
  C  C47  1  0.03210353  0.36181121  0.91527297  1
  C  C48  1  0.33474421  0.96580168  0.91660685  1
  C  C49  1  0.63625826  0.97226703  0.41809594  1
  C  C50  1  0.02662272  0.66270321  0.41893598  1
  C  C51  1  0.66975845  0.03792447  0.08449328  1
  C  C52  1  0.62505102  0.66797772  0.91491365  1
  C  C53  1  0.33872461  0.37202020  0.41648245  1
  C  C54  1  0.23860304  0.04844947  0.30769580  1
  C  C55  1  0.80798240  0.77249029  0.30605068  1
  C  C56  1  0.96382202  0.19429068  0.30752073  1
  C  C57  1  0.23449692  0.19359923  0.80784314  1
  C  C58  1  0.95672770  0.76632181  0.80918640  1
  C  C59  1  0.80498730  0.03483725  0.80930110  1
  C  C60  1  0.79691914  0.97237265  0.69514801  1
  C  C61  1  0.17779952  0.20877851  0.69406656  1
  C  C62  1  0.02322604  0.82326923  0.69497991  1
  C  C63  1  0.75933031  0.80959817  0.19305815  1
  C  C64  1  0.03764499  0.23242937  0.19265280  1
  C  C65  1  0.19157182  0.96143164  0.19447955  1
  C  C66  1  0.86853451  0.34764790  0.64118570  1
  C  C67  1  0.48319748  0.14072371  0.64010372  1
  C  C68  1  0.65670678  0.51745441  0.64055129  1
  C  C69  1  0.85943049  0.51835944  0.13842270  1
  C  C70  1  0.65346803  0.12379278  0.13633149  1
  C  C71  1  0.47916088  0.33500617  0.13886343  1
  C  C72  1  0.44783726  0.31006856  0.02314723  1
  C  C73  1  0.86515303  0.54753289  0.02312355  1
  C  C74  1  0.68460984  0.13227641  0.03041746  1
  C  C75  1  0.46292426  0.15670207  0.52537917  1
  C  C76  1  0.69265637  0.53555324  0.52513266  1
  C  C77  1  0.84745041  0.30348857  0.52667616  1
  C  C78  1  0.54827356  0.68260383  0.96991669  1
  C  C79  1  0.13806083  0.44234784  0.97503330  1
  C  C80  1  0.32717131  0.86942399  0.97707824  1
  C  C81  1  0.55586554  0.85978249  0.47587220  1
  C  C82  1  0.31932341  0.44965998  0.47025398  1
  C  C83  1  0.13276382  0.68012027  0.47697695  1
  C  C84  1  0.12433771  0.64275983  0.36172006  1
  C  C85  1  0.51766333  0.87063777  0.36172608  1
  C  C86  1  0.35127050  0.47256636  0.36457137  1
  C  C87  1  0.14238413  0.48013119  0.85945690  1
  C  C88  1  0.34393890  0.85846613  0.86014370  1
  C  C89  1  0.52531393  0.65685598  0.86360395  1
  C  C90  1  0.01130786  0.82909341  0.41437071  1
  C  C91  1  0.82455432  0.00722883  0.41257272  1
  C  C92  1  0.19223349  0.20561830  0.41233683  1
  C  C93  1  0.00177569  0.17458293  0.91299938  1
  C  C94  1  0.16481144  0.97499649  0.91493949  1
  C  C95  1  0.79088485  0.81447311  0.91172151  1
  C  C96  1  0.96775832  0.15394986  0.58846792  1
  C  C97  1  0.18956831  0.03311106  0.58790589  1
  C  C98  1  0.84112962  0.80917794  0.58744939  1
  C  C99  1  0.97616406  0.81603126  0.08617552  1
  C  C100  1  0.81802556  0.02365854  0.08829987  1
  C  C101  1  0.17960149  0.17727592  0.08696707  1
  C  C102  1  0.66946815  0.15581536  0.74220755  1
  C  C103  1  0.48912577  0.33088101  0.74049287  1
  C  C104  1  0.84049725  0.51163498  0.74177985  1
  C  C105  1  0.66412305  0.50660007  0.24283689  1
  C  C106  1  0.83869212  0.33305368  0.24298883  1
  C  C107  1  0.50000445  0.15588383  0.24100777  1
  C  C108  1  0.63699582  0.51560600  0.91603820  1
  C  C109  1  0.85596702  0.35958572  0.91237537  1
  C  C110  1  0.49973773  0.14885982  0.91183519  1
  C  C111  1  0.63587364  0.14965380  0.41948802  1
  C  C112  1  0.49059114  0.36138887  0.41857255  1
  C  C113  1  0.84242305  0.49426637  0.41948873  1
  C  C114  1  0.37120530  0.51179432  0.08725942  1
  C  C115  1  0.14884889  0.65469620  0.08725871  1
  C  C116  1  0.52070473  0.87209200  0.08247736  1
  C  C117  1  0.35120345  0.86193289  0.58388767  1
  C  C118  1  0.50658778  0.64326275  0.58288089  1
  C  C119  1  0.14626042  0.48498188  0.58288140  1
  C  C120  1  0.33171520  0.83912589  0.25845585  1
  C  C121  1  0.49971833  0.65950327  0.26149178  1
  C  C122  1  0.16306927  0.49453130  0.25837809  1
  C  C123  1  0.32294563  0.48842038  0.75335959  1
  C  C124  1  0.16517511  0.68561703  0.75194053  1
  C  C125  1  0.51633375  0.82878320  0.75370712  1
