# generated using pymatgen
data_Cu(NiC8)2
_symmetry_space_group_name_H-M   'P 1'
_cell_length_a   8.86271688
_cell_length_b   8.83367901
_cell_length_c   22.45572238
_cell_angle_alpha   90.19246241
_cell_angle_beta   88.65738482
_cell_angle_gamma   119.47284899
_symmetry_Int_Tables_number   1
_chemical_formula_structural   Cu(NiC8)2
_chemical_formula_sum   'Cu6 Ni12 C96'
_cell_volume   1530.06644048
_cell_formula_units_Z   6
loop_
 _symmetry_equiv_pos_site_id
 _symmetry_equiv_pos_as_xyz
  1  'x, y, z'
loop_
 _atom_site_type_symbol
 _atom_site_label
 _atom_site_symmetry_multiplicity
 _atom_site_fract_x
 _atom_site_fract_y
 _atom_site_fract_z
 _atom_site_occupancy
  Ni  Ni0  1  0.99024372  0.63539202  0.25312491  1
  Ni  Ni1  1  0.99623103  0.36376329  0.74346584  1
  Ni  Ni2  1  0.66196719  0.97473337  0.58873496  1
  Ni  Ni3  1  0.66679721  0.69897776  0.08114388  1
  Ni  Ni4  1  0.33520304  0.30134575  0.90671617  1
  Ni  Ni5  1  0.32236580  0.02607356  0.42025183  1
  Ni  Ni6  1  0.00368276  0.99352841  0.50409291  1
  Ni  Ni7  1  0.98932769  0.98603737  0.99874632  1
  Ni  Ni8  1  0.65436169  0.32214577  0.82566498  1
  Ni  Ni9  1  0.65478932  0.33662143  0.33467925  1
  Ni  Ni10  1  0.32508849  0.67119616  0.17003347  1
  Ni  Ni11  1  0.31833107  0.66684685  0.66279715  1
  Cu  Cu12  1  0.99783197  0.98585096  0.35342462  1
  Cu  Cu13  1  0.99076489  0.99176089  0.85078342  1
  Cu  Cu14  1  0.65827233  0.32400489  0.68705196  1
  Cu  Cu15  1  0.66319485  0.33490202  0.18994650  1
  Cu  Cu16  1  0.33041663  0.67296770  0.01893147  1
  Cu  Cu17  1  0.31558389  0.66337090  0.52219770  1
  C  C18  1  0.29488016  0.99454142  0.25406419  1
  C  C19  1  0.69115925  0.70721188  0.25320604  1
  C  C20  1  0.29537462  0.29387705  0.75535754  1
  C  C21  1  0.71778996  -0.00135234  0.74724747  1
  C  C22  1  0.96156799  0.33332254  0.58722785  1
  C  C23  1  0.37324902  0.05298176  0.58237921  1
  C  C24  1  0.96440028  0.63369933  0.08755983  1
  C  C25  1  0.63203006  0.66548148  0.92094251  1
  C  C26  1  0.02828884  0.64853219  0.41775341  1
  C  C27  1  0.02576477  0.04571585  0.64777484  1
  C  C28  1  0.99067939  0.95959250  0.15967942  1
  C  C29  1  0.69094603  0.36929514  0.98371570  1
  C  C30  1  0.68831825  0.34091370  0.49162508  1
  C  C31  1  0.33192532  0.67632680  0.31581748  1
  C  C32  1  0.38802091  0.66865891  0.80651932  1
  C  C33  1  0.00530646  0.28256034  0.24723675  1
  C  C34  1  0.01090570  0.71431383  0.74895411  1
  C  C35  1  0.67474124  0.62735236  0.58138036  1
  C  C36  1  0.67436195  0.05490338  0.07982129  1
  C  C37  1  0.36836957  0.32293998  0.08251636  1
  C  C38  1  0.03222911  0.37672382  0.91866851  1
  C  C39  1  0.34298971  0.96151874  0.91485851  1
  C  C40  1  0.62037581  0.95992868  0.41620504  1
  C  C41  1  0.33628917  0.38310578  0.41379083  1
  C  C42  1  0.21591201  0.03038601  0.31374257  1
  C  C43  1  0.83034929  0.80451543  0.30349812  1
  C  C44  1  0.98451760  0.18661365  0.30203390  1
  C  C45  1  0.21206698  0.18974309  0.81671724  1
  C  C46  1  0.98796671  0.79209821  0.80458141  1
  C  C47  1  0.82720535  0.02057962  0.80584119  1
  C  C48  1  0.80918598  0.96509642  0.68635117  1
  C  C49  1  0.16267508  0.21246228  0.69813862  1
  C  C50  1  0.03688042  0.82252138  0.69572308  1
  C  C51  1  0.77373459  0.82427747  0.18832232  1
  C  C52  1  0.02860094  0.19388586  0.19204580  1
  C  C53  1  0.15835912  0.94648728  0.19608868  1
  C  C54  1  0.88158473  0.36428730  0.64703875  1
  C  C55  1  0.49850388  0.13966388  0.63699057  1
  C  C56  1  0.64757201  0.52303411  0.63436851  1
  C  C57  1  0.87173849  0.52036509  0.14559638  1
  C  C58  1  0.64833136  0.13173887  0.13362341  1
  C  C59  1  0.48132294  0.34985957  0.13269450  1
  C  C60  1  0.45026211  0.29821413  0.02486993  1
  C  C61  1  0.83113714  0.54896999  0.02873986  1
  C  C62  1  0.69278504  0.16177725  0.02423422  1
  C  C63  1  0.46764035  0.17740267  0.51864644  1
  C  C64  1  0.69945607  0.54257625  0.52529004  1
  C  C65  1  0.82762032  0.28605419  0.52973723  1
  C  C66  1  0.53603708  0.67704697  0.98098091  1
  C  C67  1  0.14009189  0.46654386  0.97023986  1
  C  C68  1  0.31919544  0.85843999  0.96965800  1
  C  C69  1  0.54746698  0.85732260  0.47048870  1
  C  C70  1  0.32615828  0.46893788  0.46770974  1
  C  C71  1  0.16286636  0.69240574  0.46991872  1
  C  C72  1  0.12187494  0.62075613  0.35411475  1
  C  C73  1  0.50571660  0.87272109  0.36300374  1
  C  C74  1  0.35925038  0.49116674  0.35839527  1
  C  C75  1  0.10144736  0.47463922  0.86304239  1
  C  C76  1  0.36143996  0.87434327  0.86090135  1
  C  C77  1  0.49499351  0.61880570  0.86319055  1
  C  C78  1  0.01209192  0.82506070  0.41310299  1
  C  C79  1  0.79649297  0.98872034  0.40745256  1
  C  C80  1  0.17645186  0.20962499  0.41153249  1
  C  C81  1  0.01770702  0.20240152  0.91762657  1
  C  C82  1  0.18921013  0.98708122  0.91374295  1
  C  C83  1  0.82221013  0.82789321  0.91481169  1
  C  C84  1  0.96322928  0.14441734  0.58844568  1
  C  C85  1  0.17555667  0.02772017  0.59293020  1
  C  C86  1  0.83208660  0.79938017  0.58244849  1
  C  C87  1  0.96928051  0.82967362  0.09194277  1
  C  C88  1  0.83273690  0.03737250  0.08124024  1
  C  C89  1  0.19526629  0.16919387  0.08815240  1
  C  C90  1  0.69644304  0.16978769  0.74574807  1
  C  C91  1  0.49067300  0.33660035  0.74752960  1
  C  C92  1  0.85522143  0.53984815  0.74603703  1
  C  C93  1  0.68141737  0.51941437  0.24582704  1
  C  C94  1  0.85192206  0.30746082  0.24254939  1
  C  C95  1  0.48558668  0.15209962  0.24188726  1
  C  C96  1  0.63428389  0.47298884  0.92444171  1
  C  C97  1  0.85070110  0.35549975  0.92670566  1
  C  C98  1  0.50115067  0.13675470  0.91912481  1
  C  C99  1  0.62382835  0.13040033  0.41863184  1
  C  C100  1  0.48932714  0.35605544  0.41337024  1
  C  C101  1  0.83234816  0.47010019  0.42803412  1
  C  C102  1  0.35552087  0.48486893  0.07829224  1
  C  C103  1  0.15571571  0.65993678  0.07853858  1
  C  C104  1  0.52154043  0.87526466  0.07582757  1
  C  C105  1  0.36479729  0.86607361  0.57454504  1
  C  C106  1  0.52239702  0.65216883  0.57442316  1
  C  C107  1  0.15613141  0.48912990  0.57895315  1
  C  C108  1  0.29193812  0.80492033  0.25845874  1
  C  C109  1  0.49777934  0.68672725  0.26209624  1
  C  C110  1  0.16248537  0.45953172  0.24770091  1
  C  C111  1  0.29186678  0.48520861  0.75911318  1
  C  C112  1  0.16680078  0.69074095  0.75382703  1
  C  C113  1  0.52143931  0.82247510  0.75226146  1
