# generated using pymatgen
data_Cu4(Ni3C23)3
_symmetry_space_group_name_H-M   'P 1'
_cell_length_a   17.55222114
_cell_length_b   8.76418499
_cell_length_c   21.55691479
_cell_angle_alpha   90.07465792
_cell_angle_beta   89.36388051
_cell_angle_gamma   120.01293575
_symmetry_Int_Tables_number   1
_chemical_formula_structural   Cu4(Ni3C23)3
_chemical_formula_sum   'Cu12 Ni27 C207'
_cell_volume   2871.25808348
_cell_formula_units_Z   3
loop_
 _symmetry_equiv_pos_site_id
 _symmetry_equiv_pos_as_xyz
  1  'x, y, z'
loop_
 _atom_site_type_symbol
 _atom_site_label
 _atom_site_symmetry_multiplicity
 _atom_site_fract_x
 _atom_site_fract_y
 _atom_site_fract_z
 _atom_site_occupancy
  C  C0  1  0.81912487  0.00741004  0.25344310  1
  C  C1  1  0.17750492  0.35974898  0.25397833  1
  C  C2  1  0.68905410  0.37151830  0.25427357  1
  C  C3  1  0.99875955  0.63030276  0.24713063  1
  C  C4  1  0.50213746  0.63855868  0.25123848  1
  C  C5  1  0.31776250  0.62861180  0.74989083  1
  C  C6  1  0.00061115  0.36402926  0.74411956  1
  C  C7  1  0.49996409  0.36888915  0.74339710  1
  C  C8  1  0.18788803  0.00625599  0.74983574  1
  C  C9  1  0.68086135  0.99693918  0.74895619  1
  C  C10  1  0.14853308  0.32814132  0.58194530  1
  C  C11  1  0.65196700  0.33288167  0.58215949  1
  C  C12  1  0.33537717  0.97843972  0.58683413  1
  C  C13  1  0.83298199  0.96756216  0.58281468  1
  C  C14  1  0.14671130  0.96427580  0.07993643  1
  C  C15  1  0.65156756  0.97198430  0.08000008  1
  C  C16  1  0.33225325  0.69520438  0.08168420  1
  C  C17  1  0.83517384  0.69295710  0.08688971  1
  C  C18  1  0.48070811  0.67343598  0.91490993  1
  C  C19  1  0.98093981  0.67299441  0.92164196  1
  C  C20  1  0.34772943  0.02760235  0.90911526  1
  C  C21  1  0.84804673  0.02847158  0.91131755  1
  C  C22  1  0.16973380  0.29543579  0.90969050  1
  C  C23  1  0.66728996  0.29246742  0.91092085  1
  C  C24  1  0.48325230  0.29428419  0.42551780  1
  C  C25  1  0.97930779  0.28629787  0.41984819  1
  C  C26  1  0.16713319  0.04329083  0.41479668  1
  C  C27  1  0.67162554  0.04551435  0.41609835  1
  C  C28  1  0.34878170  0.66777337  0.41518429  1
  C  C29  1  0.84787045  0.66716610  0.41908226  1
  C  C30  1  0.99875754  0.99402893  0.50053379  1
  C  C31  1  0.50404514  0.00678019  0.50237814  1
  C  C32  1  0.00157372  0.99864624  0.00111448  1
  C  C33  1  0.50246975  0.00300826  0.99864195  1
  C  C34  1  0.33040088  0.33589996  0.82897176  1
  C  C35  1  0.82691461  0.33538714  0.83057256  1
  C  C36  1  0.32736450  0.31763556  0.33426513  1
  C  C37  1  0.83051755  0.32579140  0.33282475  1
  C  C38  1  0.16000994  0.65710123  0.16692870  1
  C  C39  1  0.66450081  0.65924709  0.16833435  1
  C  C40  1  0.16264557  0.66866240  0.66690125  1
  C  C41  1  0.66487412  0.66411615  0.66543957  1
  C  C42  1  0.00016334  0.01488002  0.35081646  1
  C  C43  1  0.50220997  0.00475298  0.35342821  1
  C  C44  1  0.00104766  0.99725008  0.85118443  1
  C  C45  1  0.50010938  0.98590748  0.84981448  1
  C  C46  1  0.33528715  0.32016856  0.68946988  1
  C  C47  1  0.83562582  0.34992442  0.19032515  1
  C  C48  1  0.32370209  0.33640692  0.98012035  1
  C  C49  1  0.82172840  0.33931778  0.98199568  1
  C  C50  1  0.32386184  0.30685670  0.48188936  1
  C  C51  1  0.82511642  0.32336581  0.48373013  1
  C  C52  1  0.68221911  0.68963230  0.31453280  1
  C  C53  1  0.18015616  0.67519665  0.81195580  1
  Ni  Ni54  1  0.14940355  0.00191851  0.25145546  1
  Ni  Ni55  1  0.64656569  0.99653904  0.25231520  1
  Ni  Ni56  1  0.36052209  0.72347354  0.24989613  1
  Ni  Ni57  1  0.85932695  0.71899075  0.25139754  1
  Ni  Ni58  1  0.99953207  0.28990953  0.25053066  1
  Ni  Ni59  1  0.14304109  0.28964420  0.75008874  1
  Ni  Ni60  1  0.64833232  0.29563627  0.75314517  1
  Ni  Ni61  1  0.49958344  0.70947140  0.75080048  1
  Ni  Ni62  1  0.35893134  0.99909936  0.75137689  1
  Ni  Ni63  1  0.86074622  0.00508390  0.74988635  1
  Ni  Ni64  1  0.47653510  0.33707853  0.58268383  1
  Ni  Ni65  1  0.97692086  0.34455541  0.58164401  1
  Ni  Ni66  1  0.18659967  0.03841691  0.58526465  1
  Ni  Ni67  1  0.68201775  0.03097882  0.58198140  1
  Ni  Ni68  1  0.83939146  0.61877172  0.58293192  1
  Ni  Ni69  1  0.47650327  0.61002308  0.08183210  1
  Ni  Ni70  1  0.97611332  0.61495717  0.08251791  1
  Ni  Ni71  1  0.18208957  0.33266459  0.08216620  1
  Ni  Ni72  1  0.68430786  0.33301692  0.08604911  1
  Ni  Ni73  1  0.31199673  0.66892796  0.91757644  1
  Ni  Ni74  1  0.81009038  0.66838246  0.91586759  1
  Ni  Ni75  1  0.16717420  0.95453777  0.91501157  1
  Ni  Ni76  1  0.66830546  0.95628456  0.91734925  1
  Ni  Ni77  1  0.31051789  0.95240517  0.41561172  1
  Ni  Ni78  1  0.81351166  0.96026507  0.41822748  1
  Ni  Ni79  1  0.16812207  0.38031004  0.41678646  1
  Ni  Ni80  1  0.66636641  0.37936779  0.41406026  1
  Cu  Cu81  1  0.99827963  0.01167112  0.64121891  1
  Cu  Cu82  1  0.50977279  0.01912209  0.65219307  1
  Cu  Cu83  1  0.00929826  0.00119949  0.15239195  1
  Cu  Cu84  1  0.50643086  0.98222846  0.14776198  1
  Cu  Cu85  1  0.82525347  0.31372572  0.68152275  1
  Cu  Cu86  1  0.32782947  0.35170754  0.18537397  1
  Cu  Cu87  1  0.16134236  0.66094732  0.01885654  1
  Cu  Cu88  1  0.66451672  0.66259981  0.02028339  1
  Cu  Cu89  1  0.16419917  0.66691433  0.52023616  1
  Cu  Cu90  1  0.67301592  0.65819684  0.52575596  1
  Cu  Cu91  1  0.17773657  0.67605214  0.30774232  1
  Cu  Cu92  1  0.67898647  0.68243310  0.80659546  1
  C  C93  1  0.49665764  0.28098685  0.25020006  1
  C  C94  1  -0.00071646  0.71210755  0.75227198  1
  C  C95  1  0.33511624  0.61669505  0.58176070  1
  C  C96  1  0.33597845  0.05527203  0.08298084  1
  C  C97  1  0.83539461  0.05317488  0.08179087  1
  C  C98  1  0.02216119  0.37805955  0.91606106  1
  C  C99  1  0.52054383  0.37705445  0.91823271  1
  C  C100  1  0.02336037  0.66709926  0.41541327  1
  C  C101  1  0.52291917  0.66727961  0.41603889  1
  C  C102  1  0.10618686  0.04810254  0.31011755  1
  C  C103  1  0.60015994  0.03956036  0.30973490  1
  C  C104  1  0.42251684  0.80855346  0.30886329  1
  C  C105  1  0.92352222  0.81104082  0.30976436  1
  C  C106  1  0.48570416  0.17961878  0.30744639  1
  C  C107  1  0.98060241  0.17315739  0.31259069  1
  C  C108  1  0.10038442  0.16200939  0.81098026  1
  C  C109  1  0.60223540  0.16522165  0.81243241  1
  C  C110  1  0.47963903  0.78564159  0.81382000  1
  C  C111  1  0.98819262  0.79306322  0.81007638  1
  C  C112  1  0.42091696  0.03257264  0.81130175  1
  C  C113  1  0.92058819  0.03916322  0.81082804  1
  C  C114  1  0.40243118  0.95825999  0.68877372  1
  C  C115  1  0.90219726  0.97138558  0.68709407  1
  C  C116  1  0.07897406  0.20439254  0.68898122  1
  C  C117  1  0.58746506  0.22231334  0.69027871  1
  C  C118  1  0.01582408  0.82380199  0.69723780  1
  C  C119  1  0.52573658  0.85222773  0.69355156  1
  C  C120  1  0.40200113  0.83907198  0.18524367  1
  C  C121  1  0.90221487  0.84576693  0.18782350  1
  C  C122  1  0.02665512  0.20164314  0.19239514  1
  C  C123  1  0.51268165  0.19893245  0.19448223  1
  C  C124  1  0.08956834  0.95633026  0.18802810  1
  C  C125  1  0.58358348  0.94538892  0.18899355  1
  C  C126  1  0.43174334  0.36003823  0.64471615  1
  C  C127  1  0.93413706  0.36999134  0.64657287  1
  C  C128  1  0.25017364  0.12444559  0.64456106  1
  C  C129  1  0.74553570  0.10872442  0.64414333  1
  C  C130  1  0.32264905  0.51179298  0.63795114  1
  C  C131  1  0.81412110  0.48355410  0.64234209  1
  C  C132  1  0.43317172  0.49580984  0.14655396  1
  C  C133  1  0.93225936  0.50284530  0.14447768  1
  C  C134  1  0.32173277  0.13871490  0.13878895  1
  C  C135  1  0.82269487  0.13325434  0.13788923  1
  C  C136  1  0.24725963  0.38360395  0.14365703  1
  C  C137  1  0.74743851  0.37025208  0.14498073  1
  C  C138  1  0.22597301  0.28903203  0.02347299  1
  C  C139  1  0.72139069  0.28488235  0.02369590  1
  C  C140  1  0.41279558  0.51843809  0.02391485  1
  C  C141  1  0.91468653  0.52551779  0.02143589  1
  C  C142  1  0.34417773  0.15364413  0.02554642  1
  C  C143  1  0.84177951  0.15262464  0.02469870  1
  C  C144  1  0.22461861  0.15927375  0.52275765  1
  C  C145  1  0.72455934  0.16190226  0.52298584  1
  C  C146  1  0.34197967  0.53051983  0.52455724  1
  C  C147  1  0.84993053  0.53371725  0.51938290  1
  C  C148  1  0.41433315  0.30081910  0.52170792  1
  C  C149  1  0.91475247  0.30726861  0.52279935  1
  C  C150  1  0.26460316  0.70631321  0.97929588  1
  C  C151  1  0.76736216  0.71031846  0.97867378  1
  C  C152  1  0.07781639  0.45403999  0.97265988  1
  C  C153  1  0.57818532  0.45687162  0.97389378  1
  C  C154  1  0.14572470  0.82745519  0.97808261  1
  C  C155  1  0.64596722  0.82515323  0.97907231  1
  C  C156  1  0.26697160  0.82329673  0.47751188  1
  C  C157  1  0.76617601  0.82534982  0.47801354  1
  C  C158  1  0.14630676  0.46862336  0.47772738  1
  C  C159  1  0.64518468  0.46288192  0.47670729  1
  C  C160  1  0.07949511  0.70140741  0.47139928  1
  C  C161  1  0.57764624  0.69788060  0.47062740  1
  C  C162  1  0.06303547  0.63630008  0.35921361  1
  C  C163  1  0.56133399  0.63704127  0.35872601  1
  C  C164  1  0.24227672  0.86477409  0.35771796  1
  C  C165  1  0.75115609  0.88092317  0.35761604  1
  C  C166  1  0.18869242  0.50844397  0.35499703  1
  C  C167  1  0.67847926  0.50367690  0.35394460  1
  C  C168  1  0.06217837  0.48884328  0.86122317  1
  C  C169  1  0.55711670  0.48641766  0.86241937  1
  C  C170  1  0.18187350  0.85703465  0.85579919  1
  C  C171  1  0.68815392  0.86656151  0.85672707  1
  C  C172  1  0.24832743  0.62392082  0.85849601  1
  C  C173  1  0.74088927  0.62002189  0.85906708  1
  C  C174  1  0.01512232  0.82737490  0.41154878  1
  C  C175  1  0.51305942  0.82800930  0.41127999  1
  C  C176  1  0.40775986  0.97074039  0.40826794  1
  C  C177  1  0.90975973  0.97116244  0.41310745  1
  C  C178  1  0.08126498  0.18398333  0.41183171  1
  C  C179  1  0.57789984  0.18047460  0.41044237  1
  C  C180  1  0.01342374  0.19993558  0.91277355  1
  C  C181  1  0.51281156  0.20069075  0.91447709  1
  C  C182  1  0.07969710  0.97806579  0.91162918  1
  C  C183  1  0.58145054  0.97869270  0.91276937  1
  C  C184  1  0.40867826  0.84854713  0.91445077  1
  C  C185  1  0.90790925  0.84392011  0.90861212  1
  C  C186  1  0.48637081  0.15486691  0.58839194  1
  C  C187  1  0.98838790  0.16606877  0.58498064  1
  C  C188  1  0.08936603  0.02143766  0.59298707  1
  C  C189  1  0.58680566  0.02389686  0.59045137  1
  C  C190  1  0.41238550  0.79717021  0.58291598  1
  C  C191  1  0.92272540  0.82034494  0.58969590  1
  C  C192  1  0.48526010  0.81084764  0.08619631  1
  C  C193  1  0.98724863  0.81747666  0.08757809  1
  C  C194  1  0.41412431  0.03280370  0.08610492  1
  C  C195  1  0.91239289  0.02719100  0.08269122  1
  C  C196  1  0.08692472  0.15103287  0.08969016  1
  C  C197  1  0.58409575  0.15292634  0.09361183  1
  C  C198  1  0.34622789  0.17117867  0.74754357  1
  C  C199  1  0.84945286  0.18334162  0.74486916  1
  C  C200  1  0.24157219  0.31577017  0.74043416  1
  C  C201  1  0.74380966  0.30392049  0.74434299  1
  C  C202  1  0.41278375  0.51694666  0.74165156  1
  C  C203  1  0.91975830  0.53433870  0.74960655  1
  C  C204  1  0.35067978  0.52243780  0.24536461  1
  C  C205  1  0.84619338  0.52122640  0.24654356  1
  C  C206  1  0.41675046  0.29881265  0.24622743  1
  C  C207  1  0.91292361  0.30868518  0.24121798  1
  C  C208  1  0.24745782  0.18413128  0.24030460  1
  C  C209  1  0.74323787  0.16821251  0.24085104  1
  C  C210  1  0.32341989  0.49423866  0.92356081  1
  C  C211  1  0.82055181  0.49282383  0.92208229  1
  C  C212  1  0.43122665  0.35394072  0.92700798  1
  C  C213  1  0.93295417  0.35625309  0.92367259  1
  C  C214  1  0.25761191  0.14797570  0.92290155  1
  C  C215  1  0.75848190  0.14962801  0.92439755  1
  C  C216  1  0.32128788  0.14904967  0.42133524  1
  C  C217  1  0.82461063  0.15708307  0.42485589  1
  C  C218  1  0.25805564  0.36692927  0.42351353  1
  C  C219  1  0.75545809  0.36368269  0.41929739  1
  C  C220  1  0.43235156  0.51036522  0.42165646  1
  C  C221  1  0.93521373  0.50841097  0.42088269  1
  C  C222  1  0.17798036  0.51527242  0.07523497  1
  C  C223  1  0.67952138  0.51627464  0.07649942  1
  C  C224  1  0.07902489  0.64967627  0.07699944  1
  C  C225  1  0.57839766  0.64702964  0.07895863  1
  C  C226  1  0.25479091  0.87415702  0.08253585  1
  C  C227  1  0.75260602  0.86994231  0.08097887  1
  C  C228  1  0.18183408  0.84502652  0.57587896  1
  C  C229  1  0.67657357  0.84037114  0.57501177  1
  C  C230  1  0.25263384  0.63395260  0.58075224  1
  C  C231  1  0.74908160  0.63862489  0.58112022  1
  C  C232  1  0.07929847  0.51415548  0.57833502  1
  C  C233  1  0.57781462  0.50552869  0.57734041  1
  C  C234  1  0.15376219  0.82048500  0.25657873  1
  C  C235  1  0.65136157  0.81487877  0.25879806  1
  C  C236  1  0.26036308  0.68959570  0.25071718  1
  C  C237  1  0.76061100  0.69787087  0.25390267  1
  C  C238  1  0.08849975  0.48913255  0.25692672  1
  C  C239  1  0.57534579  0.46159101  0.25304392  1
  C  C240  1  0.14930560  0.48341269  0.75794221  1
  C  C241  1  0.65248442  0.48659756  0.75858168  1
  C  C242  1  0.07844416  0.68975585  0.75710985  1
  C  C243  1  0.58863761  0.68895254  0.75776340  1
  C  C244  1  0.26007514  0.82235687  0.75338043  1
  C  C245  1  0.76051797  0.83459904  0.75167147  1
