# generated using pymatgen
data_Cu2NiC16
_symmetry_space_group_name_H-M   'P 1'
_cell_length_a   5.85088173
_cell_length_b   5.85088173
_cell_length_c   13.18446432
_cell_angle_alpha   90.00000000
_cell_angle_beta   90.00000000
_cell_angle_gamma   84.27983375
_symmetry_Int_Tables_number   1
_chemical_formula_structural   Cu2NiC16
_chemical_formula_sum   'Cu2 Ni1 C16'
_cell_volume   449.09392344
_cell_formula_units_Z   1
loop_
 _symmetry_equiv_pos_site_id
 _symmetry_equiv_pos_as_xyz
  1  'x, y, z'
loop_
 _atom_site_type_symbol
 _atom_site_label
 _atom_site_symmetry_multiplicity
 _atom_site_fract_x
 _atom_site_fract_y
 _atom_site_fract_z
 _atom_site_occupancy
  C  C0  1  0.82398971  0.82398971  0.00000000  1
  C  C1  1  0.23422364  0.76577636  0.50000000  1
  C  C2  1  0.76577636  0.23422364  0.50000000  1
  C  C3  1  0.17601029  0.17601029  0.00000000  1
  Ni  Ni4  1  0.50000000  0.50000000  0.00000000  1
  Cu  Cu5  1  0.50000000  0.50000000  0.74013945  1
  Cu  Cu6  1  0.50000000  0.50000000  0.25986055  1
  C  C7  1  0.00000000  0.50000000  0.74664844  1
  C  C8  1  0.50000000  0.00000000  0.74664844  1
  C  C9  1  0.00000000  0.50000000  0.25335156  1
  C  C10  1  0.50000000  0.00000000  0.25335156  1
  C  C11  1  0.73289093  0.73289093  0.65505630  1
  C  C12  1  0.26710907  0.26710907  0.65505630  1
  C  C13  1  0.73289093  0.73289093  0.34494370  1
  C  C14  1  0.72198183  0.27801817  0.14389636  1
  C  C15  1  0.27801817  0.72198183  0.85610364  1
  C  C16  1  0.26710907  0.26710907  0.34494370  1
  C  C17  1  0.27801817  0.72198183  0.14389636  1
  C  C18  1  0.72198183  0.27801817  0.85610364  1
