# generated using pymatgen
data_CuNi4C5
_symmetry_space_group_name_H-M   'P 1'
_cell_length_a   7.71740700
_cell_length_b   6.73522700
_cell_length_c   9.58192009
_cell_angle_alpha   79.09405924
_cell_angle_beta   90.00000000
_cell_angle_gamma   90.00000000
_symmetry_Int_Tables_number   1
_chemical_formula_structural   CuNi4C5
_chemical_formula_sum   'Cu4 Ni16 C20'
_cell_volume   489.05842053
_cell_formula_units_Z   4
loop_
 _symmetry_equiv_pos_site_id
 _symmetry_equiv_pos_as_xyz
  1  'x, y, z'
loop_
 _atom_site_type_symbol
 _atom_site_label
 _atom_site_symmetry_multiplicity
 _atom_site_fract_x
 _atom_site_fract_y
 _atom_site_fract_z
 _atom_site_occupancy
  C  C0  1  0.72328200  0.15907200  0.95710000  1
  C  C1  1  0.22328200  0.84092800  0.54290000  1
  C  C2  1  0.27671800  0.84092800  0.04290000  1
  C  C3  1  0.77671800  0.15907200  0.45710000  1
  C  C4  1  0.20062000  0.38269500  0.82842600  1
  C  C5  1  0.70062000  0.61730500  0.67157400  1
  C  C6  1  0.79938000  0.61730500  0.17157400  1
  C  C7  1  0.29938000  0.38269500  0.32842600  1
  C  C8  1  0.02674900  0.11239800  0.76024900  1
  C  C9  1  0.52674900  0.88760200  0.73975100  1
  C  C10  1  0.97325100  0.88760200  0.23975100  1
  C  C11  1  0.47325100  0.11239800  0.26024900  1
  C  C12  1  0.97900800  0.59301100  0.83455700  1
  C  C13  1  0.47900800  0.40698900  0.66544300  1
  C  C14  1  0.02099200  0.40698900  0.16544300  1
  C  C15  1  0.52099200  0.59301100  0.33455700  1
  C  C16  1  0.81214700  0.62986800  0.46127200  1
  C  C17  1  0.31214700  0.37013200  0.03872800  1
  C  C18  1  0.18785300  0.37013200  0.53872800  1
  C  C19  1  0.68785300  0.62986800  0.96127200  1
  Ni  Ni20  1  0.35467200  0.35702300  0.94002500  1
  Ni  Ni21  1  0.38844200  0.58827900  0.34759700  1
  Ni  Ni22  1  0.61155800  0.41172100  0.65240300  1
  Ni  Ni23  1  0.11155800  0.58827900  0.84759700  1
  Ni  Ni24  1  0.21834600  0.40699200  0.18058600  1
  Ni  Ni25  1  0.71834600  0.59300800  0.31941400  1
  Ni  Ni26  1  0.78165400  0.59300800  0.81941400  1
  Ni  Ni27  1  0.28165400  0.40699200  0.68058600  1
  Ni  Ni28  1  0.42724300  0.20626200  0.36316200  1
  Ni  Ni29  1  0.92724300  0.79373800  0.13683800  1
  Ni  Ni30  1  0.57275700  0.79373800  0.63683800  1
  Ni  Ni31  1  0.07275700  0.20626200  0.86316200  1
  Ni  Ni32  1  0.64532800  0.64297700  0.05997500  1
  Ni  Ni33  1  0.14532800  0.35702300  0.44002500  1
  Ni  Ni34  1  0.88844200  0.41172100  0.15240300  1
  Ni  Ni35  1  0.85467200  0.64297700  0.55997500  1
  Cu  Cu36  1  0.98211700  0.03510000  0.68024100  1
  Cu  Cu37  1  0.48211700  0.96490000  0.81975900  1
  Cu  Cu38  1  0.01788300  0.96490000  0.31975900  1
  Cu  Cu39  1  0.51788300  0.03510000  0.18024100  1
