# generated using pymatgen
data_Cu4Ni10C9
_symmetry_space_group_name_H-M   'P 1'
_cell_length_a   12.56246600
_cell_length_b   12.56246600
_cell_length_c   8.64829600
_cell_angle_alpha   90.00000000
_cell_angle_beta   90.00000000
_cell_angle_gamma   90.00000000
_symmetry_Int_Tables_number   1
_chemical_formula_structural   Cu4Ni10C9
_chemical_formula_sum   'Cu8 Ni20 C18'
_cell_volume   1364.83560711
_cell_formula_units_Z   2
loop_
 _symmetry_equiv_pos_site_id
 _symmetry_equiv_pos_as_xyz
  1  'x, y, z'
loop_
 _atom_site_type_symbol
 _atom_site_label
 _atom_site_symmetry_multiplicity
 _atom_site_fract_x
 _atom_site_fract_y
 _atom_site_fract_z
 _atom_site_occupancy
  C  C0  1  0.50000000  0.00000000  0.80002200  1
  C  C1  1  0.00000000  0.50000000  0.19997800  1
  C  C2  1  0.74004500  0.57564900  0.80559800  1
  C  C3  1  0.07564900  0.75995500  0.80559800  1
  C  C4  1  0.92435100  0.24004500  0.80559800  1
  C  C5  1  0.25995500  0.42435100  0.80559800  1
  C  C6  1  0.75995500  0.92435100  0.19440200  1
  C  C7  1  0.42435100  0.74004500  0.19440200  1
  C  C8  1  0.57564900  0.25995500  0.19440200  1
  C  C9  1  0.24004500  0.07564900  0.19440200  1
  C  C10  1  0.55147900  0.36194500  0.64404000  1
  C  C11  1  0.86194500  0.94852100  0.64404000  1
  C  C12  1  0.13805500  0.05147900  0.64404000  1
  C  C13  1  0.44852100  0.63805500  0.64404000  1
  C  C14  1  0.94852100  0.13805500  0.35596000  1
  C  C15  1  0.63805500  0.55147900  0.35596000  1
  C  C16  1  0.36194500  0.44852100  0.35596000  1
  C  C17  1  0.05147900  0.86194500  0.35596000  1
  Ni  Ni18  1  0.50000000  0.00000000  0.12025200  1
  Ni  Ni19  1  0.00000000  0.50000000  0.87974800  1
  Ni  Ni20  1  0.37892100  0.18754100  0.40848700  1
  Ni  Ni21  1  0.68754100  0.12107900  0.40848700  1
  Ni  Ni22  1  0.31245900  0.87892100  0.40848700  1
  Ni  Ni23  1  0.62107900  0.81245900  0.40848700  1
  Ni  Ni24  1  0.12107900  0.31245900  0.59151300  1
  Ni  Ni25  1  0.81245900  0.37892100  0.59151300  1
  Ni  Ni26  1  0.18754100  0.62107900  0.59151300  1
  Ni  Ni27  1  0.87892100  0.68754100  0.59151300  1
  Ni  Ni28  1  0.00000000  0.00000000  0.00000000  1
  Ni  Ni29  1  0.50000000  0.50000000  0.00000000  1
  Ni  Ni30  1  0.87479700  0.70754900  0.12871900  1
  Ni  Ni31  1  0.20754900  0.62520300  0.12871900  1
  Ni  Ni32  1  0.79245100  0.37479700  0.12871900  1
  Ni  Ni33  1  0.12520300  0.29245100  0.12871900  1
  Ni  Ni34  1  0.62520300  0.79245100  0.87128100  1
  Ni  Ni35  1  0.29245100  0.87479700  0.87128100  1
  Ni  Ni36  1  0.70754900  0.12520300  0.87128100  1
  Ni  Ni37  1  0.37479700  0.20754900  0.87128100  1
  Cu  Cu38  1  0.60991900  0.54357000  0.62445000  1
  Cu  Cu39  1  0.04357000  0.89008100  0.62445000  1
  Cu  Cu40  1  0.95643000  0.10991900  0.62445000  1
  Cu  Cu41  1  0.39008100  0.45643000  0.62445000  1
  Cu  Cu42  1  0.89008100  0.95643000  0.37555000  1
  Cu  Cu43  1  0.45643000  0.60991900  0.37555000  1
  Cu  Cu44  1  0.54357000  0.39008100  0.37555000  1
  Cu  Cu45  1  0.10991900  0.04357000  0.37555000  1
