# generated using pymatgen
data_Cu2Ni2C15
_symmetry_space_group_name_H-M   'P 1'
_cell_length_a   8.60445723
_cell_length_b   8.60445696
_cell_length_c   21.99529819
_cell_angle_alpha   90.44624037
_cell_angle_beta   89.55375956
_cell_angle_gamma   119.87407870
_symmetry_Int_Tables_number   1
_chemical_formula_structural   Cu2Ni2C15
_chemical_formula_sum   'Cu12 Ni12 C90'
_cell_volume   1412.01565493
_cell_formula_units_Z   6
loop_
 _symmetry_equiv_pos_site_id
 _symmetry_equiv_pos_as_xyz
  1  'x, y, z'
loop_
 _atom_site_type_symbol
 _atom_site_label
 _atom_site_symmetry_multiplicity
 _atom_site_fract_x
 _atom_site_fract_y
 _atom_site_fract_z
 _atom_site_occupancy
  C  C0  1  0.99772337  0.63180365  0.25102649  1
  C  C1  1  0.36819635  0.00227663  0.75102649  1
  C  C2  1  0.66439037  0.96513665  0.58435949  1
  C  C3  1  0.03486335  0.33560963  0.08435949  1
  C  C4  1  0.33105637  0.29847065  0.91769349  1
  C  C5  1  0.70152935  0.66894363  0.41769349  1
  C  C6  1  0.01066486  0.00011456  0.50012718  1
  C  C7  1  -0.00011456  0.98933514  0.00012718  1
  C  C8  1  0.67733186  0.33344756  0.83346018  1
  C  C9  1  0.66655244  0.32266814  0.33346018  1
  C  C10  1  0.34399786  0.66678156  0.16679418  1
  C  C11  1  0.33321844  0.65600214  0.66679418  1
  Ni  Ni12  1  0.98925322  0.99777187  0.35104736  1
  Ni  Ni13  1  0.00222813  0.01074678  0.85104736  1
  Ni  Ni14  1  0.00233235  0.99873259  0.64899158  1
  Ni  Ni15  1  0.00126741  0.99766765  0.14899158  1
  Ni  Ni16  1  0.65592022  0.33110487  0.68438036  1
  Ni  Ni17  1  0.66889513  0.34407978  0.18438036  1
  Ni  Ni18  1  0.66899935  0.33206559  0.98232458  1
  Ni  Ni19  1  0.66793441  0.33100065  0.48232458  1
  Ni  Ni20  1  0.32258622  0.66443887  0.01771436  1
  Ni  Ni21  1  0.33556113  0.67741378  0.51771436  1
  Ni  Ni22  1  0.33566535  0.66539959  0.31565858  1
  Ni  Ni23  1  0.33460041  0.66433465  0.81565858  1
  Cu  Cu24  1  0.70499640  0.71042679  0.24979586  1
  Cu  Cu25  1  0.99929853  0.28829591  0.24957441  1
  Cu  Cu26  1  0.28957321  0.29500360  0.74979586  1
  Cu  Cu27  1  0.71170409  0.00070147  0.74957441  1
  Cu  Cu28  1  0.37166340  0.04375979  0.58312886  1
  Cu  Cu29  1  0.66596553  0.62162891  0.58290741  1
  Cu  Cu30  1  0.95624021  0.62833660  0.08312886  1
  Cu  Cu31  1  0.37837109  0.33403447  0.08290741  1
  Cu  Cu32  1  0.03832940  0.37709379  0.91646286  1
  Cu  Cu33  1  0.33263153  0.95496291  0.91624141  1
  Cu  Cu34  1  0.62290621  0.96167060  0.41646286  1
  Cu  Cu35  1  0.04503709  0.66736847  0.41624141  1
  C  C36  1  0.29406380  0.00450461  0.25043283  1
  C  C37  1  0.99549539  0.70593620  0.75043283  1
  C  C38  1  0.96073080  0.33783761  0.58376583  1
  C  C39  1  0.66216239  0.03926920  0.08376583  1
  C  C40  1  0.62739680  0.67117161  0.91709983  1
  C  C41  1  0.32882839  0.37260320  0.41709983  1
  C  C42  1  0.21373321  0.03495830  0.30554573  1
  C  C43  1  0.82522032  0.78381181  0.30747764  1
  C  C44  1  0.96910374  0.17406611  0.30625471  1
  C  C45  1  0.21618819  0.17477968  0.80747764  1
  C  C46  1  0.96504170  0.78626679  0.80554573  1
  C  C47  1  0.82593389  0.03089626  0.80625471  1
  C  C48  1  0.78960708  0.96593059  0.69068384  1
  C  C49  1  0.17301516  0.20717135  0.69368371  1
  C  C50  1  0.03544615  0.82084070  0.69575370  1
  C  C51  1  0.79282865  0.82698484  0.19368371  1
  C  C52  1  0.03406941  0.21039292  0.19068384  1
  C  C53  1  0.17915930  0.96455385  0.19575370  1
  C  C54  1  0.88040021  0.36829130  0.63887873  1
  C  C55  1  0.49188732  0.11714481  0.64081064  1
  C  C56  1  0.63577074  0.50739911  0.63958771  1
  C  C57  1  0.88285519  0.50811268  0.14081064  1
  C  C58  1  0.63170870  0.11959979  0.13887873  1
  C  C59  1  0.49260089  0.36422926  0.13958771  1
  C  C60  1  0.45627408  0.29926359  0.02401684  1
  C  C61  1  0.83968216  0.54050435  0.02701671  1
  C  C62  1  0.70211315  0.15417370  0.02908670  1
  C  C63  1  0.45949565  0.16031784  0.52701671  1
  C  C64  1  0.70073641  0.54372592  0.52401684  1
  C  C65  1  0.84582630  0.29788685  0.52908670  1
  C  C66  1  0.54706621  0.70162530  0.97221273  1
  C  C67  1  0.15855332  0.45047881  0.97414464  1
  C  C68  1  0.30243674  0.84073311  0.97292171  1
  C  C69  1  0.54952119  0.84144668  0.47414464  1
  C  C70  1  0.29837470  0.45293379  0.47221273  1
  C  C71  1  0.15926689  0.69756326  0.47292171  1
  C  C72  1  0.12294008  0.63259759  0.35735084  1
  C  C73  1  0.50634816  0.87383835  0.36035071  1
  C  C74  1  0.36877915  0.48750770  0.36242070  1
  C  C75  1  0.12616165  0.49365184  0.86035071  1
  C  C76  1  0.36740241  0.87705992  0.85735084  1
  C  C77  1  0.51249230  0.63122085  0.86242070  1
  C  C78  1  0.02259895  0.83603440  0.40994940  1
  C  C79  1  0.81066953  0.97560460  0.41088263  1
  C  C80  1  0.17003403  0.19345207  0.41008682  1
  C  C81  1  0.02439540  0.18933047  0.91088263  1
  C  C82  1  0.16396560  0.97740105  0.90994940  1
  C  C83  1  0.80654793  0.82996597  0.91008682  1
  C  C84  1  0.97436773  0.17181091  0.58890676  1
  C  C85  1  0.18509077  0.02421943  0.59055379  1
  C  C86  1  0.83195002  0.81431899  0.58922556  1
  C  C87  1  0.97578057  0.81490923  0.09055379  1
  C  C88  1  0.82818909  0.02563227  0.08890676  1
  C  C89  1  0.18568101  0.16804998  0.08922556  1
  C  C90  1  0.68926595  0.16936740  0.74328240  1
  C  C91  1  0.47733653  0.30893760  0.74421563  1
  C  C92  1  0.83670103  0.52678507  0.74341982  1
  C  C93  1  0.69106240  0.52266347  0.24421563  1
  C  C94  1  0.83063260  0.31073405  0.24328240  1
  C  C95  1  0.47321493  0.16329897  0.24341982  1
  C  C96  1  0.64103473  0.50514391  0.92223976  1
  C  C97  1  0.85175777  0.35755243  0.92388679  1
  C  C98  1  0.49861702  0.14765199  0.92255856  1
  C  C99  1  0.64244757  0.14824223  0.42388679  1
  C  C100  1  0.49485609  0.35896527  0.42223976  1
  C  C101  1  0.85234801  0.50138298  0.42255856  1
  C  C102  1  0.35593195  0.50270140  0.07661640  1
  C  C103  1  0.14400253  0.64227160  0.07754963  1
  C  C104  1  0.50336703  0.86011907  0.07675382  1
  C  C105  1  0.35772840  0.85599747  0.57754963  1
  C  C106  1  0.49729860  0.64406805  0.57661640  1
  C  C107  1  0.13988093  0.49663297  0.57675382  1
  C  C108  1  0.30770073  0.83847791  0.25557376  1
  C  C109  1  0.51842377  0.69088643  0.25722079  1
  C  C110  1  0.16528302  0.48098599  0.25589256  1
  C  C111  1  0.30911357  0.48157623  0.75722079  1
  C  C112  1  0.16152209  0.69229927  0.75557376  1
  C  C113  1  0.51901401  0.83471698  0.75589256  1
