# generated using pymatgen
data_Cu4NiC8
_symmetry_space_group_name_H-M   'P 1'
_cell_length_a   5.96509834
_cell_length_b   5.92188690
_cell_length_c   5.93473018
_cell_angle_alpha   60.07153947
_cell_angle_beta   60.00985756
_cell_angle_gamma   60.24023981
_symmetry_Int_Tables_number   1
_chemical_formula_structural   Cu4NiC8
_chemical_formula_sum   'Cu4 Ni1 C8'
_cell_volume   148.59822338
_cell_formula_units_Z   1
loop_
 _symmetry_equiv_pos_site_id
 _symmetry_equiv_pos_as_xyz
  1  'x, y, z'
loop_
 _atom_site_type_symbol
 _atom_site_label
 _atom_site_symmetry_multiplicity
 _atom_site_fract_x
 _atom_site_fract_y
 _atom_site_fract_z
 _atom_site_occupancy
  Ni  Ni0  1  0.12267800  0.62867800  0.61994700  1
  Cu  Cu1  1  0.26078300  0.24799000  0.24323100  1
  Cu  Cu2  1  0.63158000  0.11212700  0.62496900  1
  Cu  Cu3  1  0.64468100  0.62998800  0.09535100  1
  Cu  Cu4  1  0.63156900  0.63133200  0.62497000  1
  C  C5  1  0.38884400  0.37737600  0.37535500  1
  C  C6  1  0.38314400  0.37913500  0.85858000  1
  C  C7  1  0.38884700  0.85841800  0.37534800  1
  C  C8  1  0.86933100  0.37799300  0.37469100  1
  C  C9  1  0.41974000  0.85822400  0.86382000  1
  C  C10  1  0.83807000  0.41539800  0.88113600  1
  C  C11  1  0.85041600  0.86549400  0.41860600  1
  C  C12  1  0.83808600  0.86539200  0.88112700  1
