# generated using pymatgen
data_Cu6NiC12
_symmetry_space_group_name_H-M   'P 1'
_cell_length_a   5.23648927
_cell_length_b   7.66203220
_cell_length_c   5.97344574
_cell_angle_alpha   95.44550993
_cell_angle_beta   100.57460998
_cell_angle_gamma   84.44733900
_symmetry_Int_Tables_number   1
_chemical_formula_structural   Cu6NiC12
_chemical_formula_sum   'Cu6 Ni1 C12'
_cell_volume   233.76166508
_cell_formula_units_Z   1
loop_
 _symmetry_equiv_pos_site_id
 _symmetry_equiv_pos_as_xyz
  1  'x, y, z'
loop_
 _atom_site_type_symbol
 _atom_site_label
 _atom_site_symmetry_multiplicity
 _atom_site_fract_x
 _atom_site_fract_y
 _atom_site_fract_z
 _atom_site_occupancy
  Ni  Ni0  1  0.47470386  0.81136567  0.81265338  1
  Cu  Cu1  1  0.60765723  0.03377061  0.43361800  1
  Cu  Cu2  1  0.47636593  0.61005260  0.24261070  1
  Cu  Cu3  1  0.47429820  0.33717975  0.82156628  1
  Cu  Cu4  1  0.97922689  0.66329010  0.67198002  1
  Cu  Cu5  1  0.01056967  0.32069940  0.31506504  1
  Cu  Cu6  1  0.00625513  0.99682713  0.99954496  1
  C  C7  1  0.91018868  0.08552406  0.28042135  1
  C  C8  1  0.63764837  0.76491088  0.53059140  1
  C  C9  1  0.68618356  0.40048218  0.11824793  1
  C  C10  1  0.31861526  0.57834428  0.84885350  1
  C  C11  1  0.35010255  0.25861232  0.50537427  1
  C  C12  1  0.10056710  0.89481563  0.72068178  1
  C  C13  1  0.84363207  0.42956997  0.62372865  1
  C  C14  1  0.82673579  0.77242558  0.00120098  1
  C  C15  1  0.62976620  0.07921677  0.82100676  1
  C  C16  1  0.38283906  0.88968258  0.13897672  1
  C  C17  1  0.12018279  0.57033934  0.34593479  1
  C  C18  1  0.17835066  0.21955915  0.99413347  1
