# generated using pymatgen
data_Cu8Ni8C25
_symmetry_space_group_name_H-M   'P 1'
_cell_length_a   5.63499882
_cell_length_b   11.16620681
_cell_length_c   11.14743622
_cell_angle_alpha   54.41389590
_cell_angle_beta   54.02327661
_cell_angle_gamma   54.09789498
_symmetry_Int_Tables_number   1
_chemical_formula_structural   Cu8Ni8C25
_chemical_formula_sum   'Cu8 Ni8 C25'
_cell_volume   428.56347548
_cell_formula_units_Z   1
loop_
 _symmetry_equiv_pos_site_id
 _symmetry_equiv_pos_as_xyz
  1  'x, y, z'
loop_
 _atom_site_type_symbol
 _atom_site_label
 _atom_site_symmetry_multiplicity
 _atom_site_fract_x
 _atom_site_fract_y
 _atom_site_fract_z
 _atom_site_occupancy
  C  C0  1  0.28840300  0.66139200  0.65959600  1
  Ni  Ni1  1  0.35494900  0.17497600  0.17032600  1
  Ni  Ni2  1  0.14003500  0.07722400  0.56917400  1
  Ni  Ni3  1  0.13662200  0.57210800  0.07814000  1
  Ni  Ni4  1  0.01646600  0.50529000  0.51730100  1
  Ni  Ni5  1  0.80898100  0.41840300  0.42512000  1
  Ni  Ni6  1  0.85956400  0.42229300  0.92209500  1
  Ni  Ni7  1  0.89878500  0.91852200  0.40677200  1
  Ni  Ni8  1  0.82566200  0.93770700  0.92994500  1
  Cu  Cu9  1  0.13788700  0.07321600  0.07177400  1
  Cu  Cu10  1  0.34976600  0.67701900  0.16648000  1
  Cu  Cu11  1  0.35849100  0.15863600  0.67895600  1
  Cu  Cu12  1  0.64196200  0.31763900  0.31604500  1
  Cu  Cu13  1  0.49956700  0.74246200  0.74331300  1
  Cu  Cu14  1  0.64538600  0.31995100  0.82804900  1
  Cu  Cu15  1  0.64983100  0.82946800  0.32032800  1
  Cu  Cu16  1  0.66219500  0.82871100  0.83592400  1
  C  C17  1  0.05358900  0.37571400  0.21180100  1
  C  C18  1  0.42288500  0.04553400  0.36989900  1
  C  C19  1  0.72065000  0.22510900  0.03161600  1
  C  C20  1  0.21710500  0.28559100  0.47460400  1
  C  C21  1  0.55321300  0.46972700  0.11097800  1
  C  C22  1  0.04793100  0.37397600  0.71879100  1
  C  C23  1  0.04402100  0.87053900  0.22796500  1
  C  C24  1  0.95350000  0.11451100  0.27849000  1
  C  C25  1  0.46793200  0.02509200  0.87328100  1
  C  C26  1  0.42730200  0.51578500  0.37736900  1
  C  C27  1  0.76156700  0.20922400  0.52696600  1
  C  C28  1  0.76061200  0.72096600  0.03623800  1
  C  C29  1  0.21914400  0.28831100  0.97058800  1
  C  C30  1  0.24174100  0.79605000  0.45196500  1
  C  C31  1  0.61423400  0.46235600  0.61121300  1
  C  C32  1  0.56767600  0.98166300  0.11392200  1
  C  C33  1  0.07721800  0.87493600  0.71245700  1
  C  C34  1  0.95462100  0.11146900  0.77834700  1
  C  C35  1  0.94823400  0.60672100  0.29123100  1
  C  C36  1  0.42022400  0.53546400  0.87690800  1
  C  C37  1  0.73626400  0.70869100  0.53254700  1
  C  C38  1  0.23510900  0.78129100  0.96168500  1
  C  C39  1  0.56795400  0.95454700  0.61363300  1
  C  C40  1  0.89132000  0.62100900  0.79746500  1
