# generated using pymatgen
data_CuNi3C16
_symmetry_space_group_name_H-M   'P 1'
_cell_length_a   9.18053061
_cell_length_b   9.06081092
_cell_length_c   22.11404843
_cell_angle_alpha   92.20894706
_cell_angle_beta   90.00000000
_cell_angle_gamma   120.43805059
_symmetry_Int_Tables_number   1
_chemical_formula_structural   CuNi3C16
_chemical_formula_sum   'Cu6 Ni18 C96'
_cell_volume   1584.40182951
_cell_formula_units_Z   6
loop_
 _symmetry_equiv_pos_site_id
 _symmetry_equiv_pos_as_xyz
  1  'x, y, z'
loop_
 _atom_site_type_symbol
 _atom_site_label
 _atom_site_symmetry_multiplicity
 _atom_site_fract_x
 _atom_site_fract_y
 _atom_site_fract_z
 _atom_site_occupancy
  Ni  Ni0  1  0.36337057  0.35750365  0.24838463  1
  Ni  Ni1  1  0.99424201  0.63731066  0.24482089  1
  Ni  Ni2  1  0.64306865  0.63731066  0.74482089  1
  Ni  Ni3  1  0.99413308  0.35750365  0.74838463  1
  Ni  Ni4  1  0.03003757  0.69083665  0.58171763  1
  Ni  Ni5  1  0.66090901  0.97064366  0.57815389  1
  Ni  Ni6  1  0.30973565  0.97064366  0.07815389  1
  Ni  Ni7  1  0.66080008  0.69083665  0.08171763  1
  Ni  Ni8  1  0.69670357  0.02417065  0.91505163  1
  Ni  Ni9  1  0.32757501  0.30397766  0.91148789  1
  Ni  Ni10  1  0.97640165  0.30397766  0.41148789  1
  Ni  Ni11  1  0.32746608  0.02417065  0.41505163  1
  Ni  Ni12  1  0.98382348  0.98421836  0.49965012  1
  Ni  Ni13  1  0.00039488  0.98421836  0.99965012  1
  Ni  Ni14  1  0.65049048  0.31755136  0.83298312  1
  Ni  Ni15  1  0.66706188  0.31755136  0.33298312  1
  Ni  Ni16  1  0.31715648  0.65088536  0.16631712  1
  Ni  Ni17  1  0.33372788  0.65088536  0.66631712  1
  Cu  Cu18  1  0.98865942  0.99483897  0.35118042  1
  Cu  Cu19  1  0.00617955  0.99483897  0.85118042  1
  Cu  Cu20  1  0.65532642  0.32817197  0.68451342  1
  Cu  Cu21  1  0.67284655  0.32817197  0.18451342  1
  Cu  Cu22  1  0.32199242  0.66150597  0.01784742  1
  Cu  Cu23  1  0.33951255  0.66150597  0.51784742  1
  C  C24  1  0.98494848  0.01992247  0.64882899  1
  C  C25  1  0.03497400  0.01992247  0.14882899  1
  C  C26  1  0.65161548  0.35325547  0.98216199  1
  C  C27  1  0.70164100  0.35325547  0.48216199  1
  C  C28  1  0.31828148  0.68658947  0.31549599  1
  C  C29  1  0.36830700  0.68658947  0.81549599  1
  C  C30  1  0.29068384  0.98884724  0.25182040  1
  C  C31  1  0.02197176  0.30712588  0.25297734  1
  C  C32  1  0.28515412  0.30712588  0.75297734  1
  C  C33  1  0.69816340  0.98884724  0.75182040  1
  C  C34  1  0.95735084  0.32218024  0.58515340  1
  C  C35  1  0.68863876  0.64045888  0.58631034  1
  C  C36  1  0.95182112  0.64045888  0.08631034  1
  C  C37  1  0.36483040  0.32218024  0.08515340  1
  C  C38  1  0.62401684  0.65551424  0.91848740  1
  C  C39  1  0.35530476  0.97379288  0.91964434  1
  C  C40  1  0.61848712  0.97379288  0.41964434  1
  C  C41  1  0.03149640  0.65551424  0.41848740  1
  C  C42  1  0.68799545  0.70817638  0.24652323  1
  C  C43  1  0.02018093  0.70817638  0.74652323  1
  C  C44  1  0.35466245  0.04150938  0.57985623  1
  C  C45  1  0.68684793  0.04150938  0.07985623  1
  C  C46  1  0.02132845  0.37484338  0.91319023  1
  C  C47  1  0.35351393  0.37484338  0.41319023  1
  C  C48  1  0.21421993  0.01255666  0.30945075  1
  C  C49  1  0.79200587  0.78401361  0.30093283  1
  C  C50  1  0.99790701  0.21791578  0.31167081  1
  C  C51  1  0.22000876  0.21791578  0.81167081  1
  C  C52  1  0.99200774  0.78401361  0.80093283  1
  C  C53  1  0.79833673  0.01255666  0.80945075  1
  C  C54  1  0.79002177  0.96232527  0.69483920  1
  C  C55  1  0.15557082  0.20001823  0.69873018  1
  C  C56  1  0.03210213  0.80609745  0.69224982  1
  C  C57  1  0.77399532  0.80609745  0.19224982  1
  C  C58  1  0.04444740  0.20001823  0.19873018  1
  C  C59  1  0.17230350  0.96232527  0.19483920  1
  C  C60  1  0.88088693  0.34588966  0.64278375  1
  C  C61  1  0.45867287  0.11734661  0.63426583  1
  C  C62  1  0.66457401  0.55124878  0.64500381  1
  C  C63  1  0.88667576  0.55124878  0.14500381  1
  C  C64  1  0.65867474  0.11734661  0.13426583  1
  C  C65  1  0.46500373  0.34588966  0.14278375  1
  C  C66  1  0.45668877  0.29565827  0.02817220  1
  C  C67  1  0.82223782  0.53335123  0.03206318  1
  C  C68  1  0.69876913  0.13943045  0.02558282  1
  C  C69  1  0.44066232  0.13943045  0.52558282  1
  C  C70  1  0.71111440  0.53335123  0.53206318  1
  C  C71  1  0.83897050  0.29565827  0.52817220  1
  C  C72  1  0.54755293  0.67922366  0.97611775  1
  C  C73  1  0.12533887  0.45068061  0.96759983  1
  C  C74  1  0.33124001  0.88458278  0.97833781  1
  C  C75  1  0.55334176  0.88458278  0.47833781  1
  C  C76  1  0.32534074  0.45068061  0.46759983  1
  C  C77  1  0.13166973  0.67922366  0.47611775  1
  C  C78  1  0.12335477  0.62899227  0.36150620  1
  C  C79  1  0.48890382  0.86668523  0.36539718  1
  C  C80  1  0.36543513  0.47276445  0.35891682  1
  C  C81  1  0.10732832  0.47276445  0.85891682  1
  C  C82  1  0.37778040  0.86668523  0.86539718  1
  C  C83  1  0.50563650  0.62899227  0.86150620  1
  C  C84  1  0.01037814  0.81107136  0.41258773  1
  C  C85  1  0.79987667  0.01206990  0.41102364  1
  C  C86  1  0.20332623  0.19706064  0.40933900  1
  C  C87  1  0.99373441  0.19706064  0.90933900  1
  C  C88  1  0.21219323  0.01206990  0.91102364  1
  C  C89  1  0.80069322  0.81107136  0.91258773  1
  C  C90  1  0.95975705  0.14874009  0.58871541  1
  C  C91  1  0.18562508  0.02820850  0.58531036  1
  C  C92  1  0.86107215  0.82197892  0.59096426  1
  C  C93  1  0.96090677  0.82197892  0.09096426  1
  C  C94  1  0.84258343  0.02820850  0.08531036  1
  C  C95  1  0.18898303  0.14874009  0.08871541  1
  C  C96  1  0.67704514  0.14440436  0.74592073  1
  C  C97  1  0.46654367  0.34540290  0.74435664  1
  C  C98  1  0.86999323  0.53039364  0.74267200  1
  C  C99  1  0.66040141  0.53039364  0.24267200  1
  C  C100  1  0.87886023  0.34540290  0.24435664  1
  C  C101  1  0.46736022  0.14440436  0.24592073  1
  C  C102  1  0.62642405  0.48207309  0.92204841  1
  C  C103  1  0.85229208  0.36154150  0.91864336  1
  C  C104  1  0.52773915  0.15531192  0.92429726  1
  C  C105  1  0.62757377  0.15531192  0.42429726  1
  C  C106  1  0.50925043  0.36154150  0.41864336  1
  C  C107  1  0.85565003  0.48207309  0.42204841  1
  C  C108  1  0.34371114  0.47773836  0.07925473  1
  C  C109  1  0.13320967  0.67873690  0.07769064  1
  C  C110  1  0.53665923  0.86372764  0.07600600  1
  C  C111  1  0.32706741  0.86372764  0.57600600  1
  C  C112  1  0.54552623  0.67873690  0.57769064  1
  C  C113  1  0.13402622  0.47773836  0.57925473  1
  C  C114  1  0.29309005  0.81540709  0.25538241  1
  C  C115  1  0.51895808  0.69487550  0.25197736  1
  C  C116  1  0.19440515  0.48864592  0.25763126  1
  C  C117  1  0.29423977  0.48864592  0.75763126  1
  C  C118  1  0.17591643  0.69487550  0.75197736  1
  C  C119  1  0.52231603  0.81540709  0.75538241  1
