# generated using pymatgen
data_Cu6Ni3C26
_symmetry_space_group_name_H-M   'P 1'
_cell_length_a   8.43909763
_cell_length_b   8.43909737
_cell_length_c   21.94699305
_cell_angle_alpha   90.00000000
_cell_angle_beta   90.00000000
_cell_angle_gamma   120.00000096
_symmetry_Int_Tables_number   1
_chemical_formula_structural   Cu6Ni3C26
_chemical_formula_sum   'Cu18 Ni9 C78'
_cell_volume   1353.62280587
_cell_formula_units_Z   3
loop_
 _symmetry_equiv_pos_site_id
 _symmetry_equiv_pos_as_xyz
  1  'x, y, z'
loop_
 _atom_site_type_symbol
 _atom_site_label
 _atom_site_symmetry_multiplicity
 _atom_site_fract_x
 _atom_site_fract_y
 _atom_site_fract_z
 _atom_site_occupancy
  C  C0  1  -0.00000000  -0.00000000  0.99770316  1
  C  C1  1  0.66666700  0.33333300  0.83388410  1
  C  C2  1  0.66666700  0.33333300  0.33311043  1
  C  C3  1  -0.00000000  -0.00000000  0.64446097  1
  C  C4  1  -0.00000000  -0.00000000  0.14554378  1
  C  C5  1  0.33333300  0.66666700  0.52203739  1
  Ni  Ni6  1  -0.00000000  -0.00000000  0.35436107  1
  Ni  Ni7  1  -0.00000000  -0.00000000  0.85340880  1
  Ni  Ni8  1  0.66666700  0.33333300  0.68815559  1
  Ni  Ni9  1  0.66666700  0.33333300  0.18587988  1
  Ni  Ni10  1  0.66666700  0.33333300  0.97893731  1
  Ni  Ni11  1  0.66666700  0.33333300  0.47846641  1
  Ni  Ni12  1  0.33333300  0.66666700  0.02058044  1
  Ni  Ni13  1  0.33333300  0.66666700  0.31221835  1
  Ni  Ni14  1  0.33333300  0.66666700  0.81306901  1
  Cu  Cu15  1  0.29363471  0.99923748  0.25265473  1
  Cu  Cu16  1  0.70560276  0.70636529  0.25265473  1
  Cu  Cu17  1  0.00076252  0.29439724  0.25265473  1
  Cu  Cu18  1  0.29291708  0.29442041  0.75257754  1
  Cu  Cu19  1  0.00150332  0.70708292  0.75257754  1
  Cu  Cu20  1  0.70557959  0.99849668  0.75257754  1
  Cu  Cu21  1  0.94275421  0.33341402  0.58334241  1
  Cu  Cu22  1  0.39066081  0.05724579  0.58334241  1
  Cu  Cu23  1  0.66658598  0.60933919  0.58334241  1
  Cu  Cu24  1  0.95426678  0.61058410  0.08166458  1
  Cu  Cu25  1  0.65631833  0.04573322  0.08166458  1
  Cu  Cu26  1  0.38941590  0.34368167  0.08166458  1
  Cu  Cu27  1  0.62003129  0.66667967  0.91664219  1
  Cu  Cu28  1  0.04664738  0.37996871  0.91664219  1
  Cu  Cu29  1  0.33332033  0.95335262  0.91664219  1
  Cu  Cu30  1  0.62728180  0.95935000  0.41401740  1
  Cu  Cu31  1  0.33206720  0.37271820  0.41401740  1
  Cu  Cu32  1  0.04065000  0.66793280  0.41401740  1
  C  C33  1  0.20607888  0.03896945  0.30759701  1
  C  C34  1  0.83289057  0.79392112  0.30759701  1
  C  C35  1  0.96103055  0.16710943  0.30759701  1
  C  C36  1  0.20615073  0.16710475  0.80777569  1
  C  C37  1  0.96095402  0.79384927  0.80777569  1
  C  C38  1  0.83289525  0.03904598  0.80777569  1
  C  C39  1  0.79303517  0.96659074  0.69502091  1
  C  C40  1  0.17355557  0.20696483  0.69502091  1
  C  C41  1  0.03340926  0.82644443  0.69502091  1
  C  C42  1  0.79303916  0.82668969  0.19505081  1
  C  C43  1  0.03365053  0.20696084  0.19505081  1
  C  C44  1  0.17331031  0.96634947  0.19505081  1
  C  C45  1  0.86627123  0.36981373  0.64127659  1
  C  C46  1  0.50354349  0.13372877  0.64127659  1
  C  C47  1  0.63018627  0.49645651  0.64127659  1
  C  C48  1  0.87091576  0.49999288  0.14037363  1
  C  C49  1  0.62907811  0.12908424  0.14037363  1
  C  C50  1  0.50000712  0.37092189  0.14037363  1
  C  C51  1  0.46518226  0.29641610  0.02515397  1
  C  C52  1  0.83123485  0.53481774  0.02515397  1
  C  C53  1  0.70358390  0.16876515  0.02515397  1
  C  C54  1  0.46707261  0.17027457  0.52538840  1
  C  C55  1  0.70320297  0.53292739  0.52538840  1
  C  C56  1  0.82972543  0.29679703  0.52538840  1
  C  C57  1  0.53891764  0.70410748  0.97421756  1
  C  C58  1  0.16518884  0.46108236  0.97421756  1
  C  C59  1  0.29589252  0.83481116  0.97421756  1
  C  C60  1  0.54041547  0.84029471  0.47170989  1
  C  C61  1  0.29987824  0.45958453  0.47170989  1
  C  C62  1  0.15970529  0.70012176  0.47170989  1
  C  C63  1  0.12735118  0.62770713  0.35904454  1
  C  C64  1  0.50035495  0.87264882  0.35904454  1
  C  C65  1  0.37229287  0.49964505  0.35904454  1
  C  C66  1  0.12799280  0.49863518  0.85921277  1
  C  C67  1  0.37064137  0.87200720  0.85921277  1
  C  C68  1  0.50136482  0.62935863  0.85921277  1
  C  C69  1  0.02458766  0.83859979  0.40670138  1
  C  C70  1  0.81401213  0.97541234  0.40670138  1
  C  C71  1  0.16140021  0.18598787  0.40670138  1
  C  C72  1  0.02552737  0.18732231  0.90885911  1
  C  C73  1  0.16179494  0.97447263  0.90885911  1
  C  C74  1  0.81267769  0.83820506  0.90885911  1
  C  C75  1  0.96978115  0.16794326  0.59096831  1
  C  C76  1  0.19816210  0.03021885  0.59096831  1
  C  C77  1  0.83205674  0.80183790  0.59096831  1
  C  C78  1  0.97338377  0.80322333  0.08966826  1
  C  C79  1  0.82983956  0.02661623  0.08966826  1
  C  C80  1  0.19677667  0.17016044  0.08966826  1
  C  C81  1  0.69099827  0.17199259  0.74272029  1
  C  C82  1  0.48099532  0.30900173  0.74272029  1
  C  C83  1  0.82800741  0.51900468  0.74272029  1
  C  C84  1  0.69080227  0.51842147  0.24235050  1
  C  C85  1  0.82762019  0.30919773  0.24235050  1
  C  C86  1  0.48157853  0.17237981  0.24235050  1
  C  C87  1  0.64119974  0.49548804  0.92426319  1
  C  C88  1  0.85428930  0.35880026  0.92426319  1
  C  C89  1  0.50451196  0.14571070  0.92426319  1
  C  C90  1  0.64250923  0.14784037  0.42395944  1
  C  C91  1  0.50533213  0.35749077  0.42395944  1
  C  C92  1  0.85215963  0.49466787  0.42395944  1
  C  C93  1  0.36099175  0.50654696  0.07353394  1
  C  C94  1  0.14555421  0.63900825  0.07353394  1
  C  C95  1  0.49345304  0.85444579  0.07353394  1
  C  C96  1  0.36352494  0.86480390  0.57571469  1
  C  C97  1  0.50127797  0.63647506  0.57571469  1
  C  C98  1  0.13519610  0.49872203  0.57571469  1
  C  C99  1  0.30865147  0.82799105  0.26007997  1
  C  C100  1  0.51933858  0.69134853  0.26007997  1
  C  C101  1  0.17200895  0.48066142  0.26007997  1
  C  C102  1  0.30871261  0.48086894  0.76007675  1
  C  C103  1  0.17215533  0.69128739  0.76007675  1
  C  C104  1  0.51913106  0.82784467  0.76007675  1
