# generated using pymatgen
data_Cu2NiC
_symmetry_space_group_name_H-M   'P 1'
_cell_length_a   9.12135690
_cell_length_b   9.12135690
_cell_length_c   9.12135649
_cell_angle_alpha   112.73643947
_cell_angle_beta   112.73643947
_cell_angle_gamma   112.73644079
_symmetry_Int_Tables_number   1
_chemical_formula_structural   Cu2NiC
_chemical_formula_sum   'Cu12 Ni6 C6'
_cell_volume   501.32898832
_cell_formula_units_Z   6
loop_
 _symmetry_equiv_pos_site_id
 _symmetry_equiv_pos_as_xyz
  1  'x, y, z'
loop_
 _atom_site_type_symbol
 _atom_site_label
 _atom_site_symmetry_multiplicity
 _atom_site_fract_x
 _atom_site_fract_y
 _atom_site_fract_z
 _atom_site_occupancy
  C  C0  1  0.25000000  0.46014200  0.03985800  1
  C  C1  1  0.03985800  0.25000000  0.46014200  1
  C  C2  1  0.46014200  0.03985800  0.25000000  1
  C  C3  1  0.75000000  0.53985800  0.96014200  1
  C  C4  1  0.96014200  0.75000000  0.53985800  1
  C  C5  1  0.53985800  0.96014200  0.75000000  1
  Ni  Ni6  1  0.75000000  0.96628100  0.53371900  1
  Ni  Ni7  1  0.25000000  0.03371900  0.46628100  1
  Ni  Ni8  1  0.46628100  0.25000000  0.03371900  1
  Ni  Ni9  1  0.03371900  0.46628100  0.25000000  1
  Ni  Ni10  1  0.53371900  0.75000000  0.96628100  1
  Ni  Ni11  1  0.96628100  0.53371900  0.75000000  1
  Cu  Cu12  1  0.84892400  0.41769000  0.55998800  1
  Cu  Cu13  1  0.41769000  0.55998800  0.84892400  1
  Cu  Cu14  1  0.94001200  0.08231000  0.65107600  1
  Cu  Cu15  1  0.55998800  0.84892400  0.41769000  1
  Cu  Cu16  1  0.08231000  0.65107600  0.94001200  1
  Cu  Cu17  1  0.65107600  0.94001200  0.08231000  1
  Cu  Cu18  1  0.15107600  0.58231000  0.44001200  1
  Cu  Cu19  1  0.58231000  0.44001200  0.15107600  1
  Cu  Cu20  1  0.44001200  0.15107600  0.58231000  1
  Cu  Cu21  1  0.91769000  0.34892400  0.05998800  1
  Cu  Cu22  1  0.34892400  0.05998800  0.91769000  1
  Cu  Cu23  1  0.05998800  0.91769000  0.34892400  1
