# generated using pymatgen
data_Cu5(NiC3)2
_symmetry_space_group_name_H-M   'P 1'
_cell_length_a   3.61499867
_cell_length_b   4.49752959
_cell_length_c   15.51202321
_cell_angle_alpha   98.33548088
_cell_angle_beta   96.69144854
_cell_angle_gamma   89.99999408
_symmetry_Int_Tables_number   1
_chemical_formula_structural   Cu5(NiC3)2
_chemical_formula_sum   'Cu5 Ni2 C6'
_cell_volume   247.80252682
_cell_formula_units_Z   1
loop_
 _symmetry_equiv_pos_site_id
 _symmetry_equiv_pos_as_xyz
  1  'x, y, z'
loop_
 _atom_site_type_symbol
 _atom_site_label
 _atom_site_symmetry_multiplicity
 _atom_site_fract_x
 _atom_site_fract_y
 _atom_site_fract_z
 _atom_site_occupancy
  C  C0  1  0.99964243  0.99964243  0.99928486  1
  C  C1  1  0.11594283  0.11594383  0.23188766  1
  C  C2  1  0.88331459  0.88331359  0.76662817  1
  C  C3  1  0.74478458  0.24478458  0.48956916  1
  C  C4  1  0.43677578  0.43677678  0.87355357  1
  C  C5  1  0.56228911  0.56229111  0.12458023  1
  Ni  Ni6  1  0.29873126  0.29873026  0.59746053  1
  Ni  Ni7  1  0.71125457  0.71125257  0.42250815  1
  Cu  Cu8  1  0.49950759  0.49950859  -0.00098382  1
  Cu  Cu9  1  0.43405351  0.93405451  0.86810602  1
  Cu  Cu10  1  0.90728184  0.40728184  0.81456369  1
  Cu  Cu11  1  0.09154400  0.59154400  0.18309001  1
  Cu  Cu12  1  0.56487489  0.06487689  0.12975178  1
