# generated using pymatgen
data_Cu2Ni3C35
_symmetry_space_group_name_H-M   'P 1'
_cell_length_a   15.83335783
_cell_length_b   9.13275357
_cell_length_c   9.15501542
_cell_angle_alpha   90.04191374
_cell_angle_beta   125.15129524
_cell_angle_gamma   89.96524276
_symmetry_Int_Tables_number   1
_chemical_formula_structural   Cu2Ni3C35
_chemical_formula_sum   'Cu4 Ni6 C70'
_cell_volume   1082.41295679
_cell_formula_units_Z   2
loop_
 _symmetry_equiv_pos_site_id
 _symmetry_equiv_pos_as_xyz
  1  'x, y, z'
loop_
 _atom_site_type_symbol
 _atom_site_label
 _atom_site_symmetry_multiplicity
 _atom_site_fract_x
 _atom_site_fract_y
 _atom_site_fract_z
 _atom_site_occupancy
  C  C0  1  0.25021710  0.75149927  0.99617068  1
  C  C1  1  0.74499209  0.75470394  0.48606186  1
  C  C2  1  0.75021710  0.25149927  0.99617068  1
  C  C3  1  0.24499209  0.25470394  0.48606186  1
  C  C4  1  0.49816819  0.09004878  0.73583849  1
  C  C5  1  0.50519019  0.88352429  0.24969954  1
  C  C6  1  0.99816819  0.59004878  0.73583849  1
  C  C7  1  0.00519019  0.38352429  0.24969954  1
  C  C8  1  0.19020517  0.93076196  0.29011787  1
  C  C9  1  0.80859349  0.07807453  0.71167767  1
  C  C10  1  0.69020517  0.43076196  0.29011787  1
  C  C11  1  0.30859349  0.57807453  0.71167767  1
  C  C12  1  0.89659930  0.74639290  0.94361276  1
  C  C13  1  0.39659930  0.24639290  0.94361276  1
  Ni  Ni14  1  0.10107178  0.75564840  0.55690720  1
  Ni  Ni15  1  0.89759664  0.24497319  0.44005052  1
  Ni  Ni16  1  0.10313020  0.25041232  0.05159016  1
  Ni  Ni17  1  0.60107178  0.25564840  0.55690720  1
  Ni  Ni18  1  0.39759664  0.74497319  0.44005052  1
  Ni  Ni19  1  0.60313020  0.75041232  0.05159016  1
  Cu  Cu20  1  0.35100107  0.90003075  0.75363840  1
  Cu  Cu21  1  0.65277586  0.10132676  0.25347566  1
  Cu  Cu22  1  0.85100107  0.40003075  0.75363840  1
  Cu  Cu23  1  0.15277586  0.60132676  0.25347566  1
  C  C24  1  0.00111531  0.94907698  0.75982014  1
  C  C25  1  0.99763850  0.04622856  0.24646176  1
  C  C26  1  0.50111531  0.44907698  0.75982014  1
  C  C27  1  0.49763850  0.54622856  0.24646176  1
  C  C28  1  0.64769363  0.89459791  0.73876334  1
  C  C29  1  0.35456804  0.10282545  0.25769908  1
  C  C30  1  0.14769363  0.39459791  0.73876334  1
  C  C31  1  0.85456804  0.60282545  0.25769908  1
  C  C32  1  0.15555149  0.56435601  0.74206501  1
  C  C33  1  0.84583063  0.58405073  0.77365207  1
  C  C34  1  0.85217647  0.43448642  0.23618648  1
  C  C35  1  0.15540650  0.42389826  0.24494563  1
  C  C36  1  0.65555149  0.06435601  0.74206501  1
  C  C37  1  0.34583063  0.08405073  0.77365207  1
  C  C38  1  0.35217647  0.93448642  0.23618648  1
  C  C39  1  0.65540650  0.92389826  0.24494563  1
  C  C40  1  0.43259283  0.54956383  0.59725804  1
  C  C41  1  0.57099107  0.53358008  0.93536420  1
  C  C42  1  0.55696716  0.45251667  0.41483263  1
  C  C43  1  0.43734879  0.44515354  0.07615294  1
  C  C44  1  0.93259283  0.04956383  0.59725804  1
  C  C45  1  0.07099107  0.03358008  0.93536420  1
  C  C46  1  0.05696716  0.95251667  0.41483263  1
  C  C47  1  0.93734879  0.94515354  0.07615294  1
  C  C48  1  0.25610234  0.82377164  0.74594659  1
  C  C49  1  0.74761203  0.83441080  0.76131977  1
  C  C50  1  0.73616833  0.19436722  0.24016150  1
  C  C51  1  0.25846258  0.15597758  0.24626946  1
  C  C52  1  0.75610234  0.32377164  0.74594659  1
  C  C53  1  0.24761203  0.33441080  0.76131977  1
  C  C54  1  0.23616833  0.69436722  0.24016150  1
  C  C55  1  0.75846258  0.65597758  0.24626946  1
  C  C56  1  0.35368807  0.88487203  0.57663907  1
  C  C57  1  0.64401101  0.85333790  0.89646640  1
  C  C58  1  0.65764464  0.14195512  0.43054000  1
  C  C59  1  0.35906405  0.16819465  0.10099844  1
  C  C60  1  0.85368807  0.38487203  0.57663907  1
  C  C61  1  0.14401101  0.35333790  0.89646640  1
  C  C62  1  0.15764464  0.64195512  0.43054000  1
  C  C63  1  0.85906405  0.66819465  0.10099844  1
  C  C64  1  0.45656253  0.84136013  0.93391383  1
  C  C65  1  0.55330651  0.83591839  0.55839013  1
  C  C66  1  0.53389021  0.16782924  0.08148946  1
  C  C67  1  0.45174621  0.15235489  0.43705861  1
  C  C68  1  0.95656253  0.34136013  0.93391383  1
  C  C69  1  0.05330651  0.33591839  0.55839013  1
  C  C70  1  0.03389021  0.66782924  0.08148946  1
  C  C71  1  0.95174621  0.65235489  0.43705861  1
  C  C72  1  0.06576126  0.83246618  0.74347203  1
  C  C73  1  0.91833628  0.85608396  0.76841407  1
  C  C74  1  0.91952765  0.15193806  0.24097782  1
  C  C75  1  0.08069480  0.13743068  0.24590071  1
  C  C76  1  0.56576126  0.33246618  0.74347203  1
  C  C77  1  0.41833628  0.35608396  0.76841407  1
  C  C78  1  0.41952765  0.65193806  0.24097782  1
  C  C79  1  0.58069480  0.63743068  0.24590071  1
