# generated using pymatgen
data_Cu2NiC5
_symmetry_space_group_name_H-M   'P 1'
_cell_length_a   3.43278638
_cell_length_b   3.43278638
_cell_length_c   11.22841409
_cell_angle_alpha   76.25927199
_cell_angle_beta   76.25927199
_cell_angle_gamma   55.68396583
_symmetry_Int_Tables_number   1
_chemical_formula_structural   Cu2NiC5
_chemical_formula_sum   'Cu2 Ni1 C5'
_cell_volume   105.26826381
_cell_formula_units_Z   1
loop_
 _symmetry_equiv_pos_site_id
 _symmetry_equiv_pos_as_xyz
  1  'x, y, z'
loop_
 _atom_site_type_symbol
 _atom_site_label
 _atom_site_symmetry_multiplicity
 _atom_site_fract_x
 _atom_site_fract_y
 _atom_site_fract_z
 _atom_site_occupancy
  C  C0  1  0.01244011  0.01244011  0.03352109  1
  Ni  Ni1  1  0.39848232  0.39848232  0.77420175  1
  Cu  Cu2  1  0.20666016  0.20666016  0.32407023  1
  Cu  Cu3  1  0.76102131  0.76102131  0.54904767  1
  C  C4  1  0.12757126  0.12757126  0.69759553  1
  C  C5  1  0.87272752  0.87272752  0.36508172  1
  C  C6  1  0.29050426  0.29050426  0.12616788  1
  C  C7  1  0.74130705  0.74130705  0.91602811  1
