# generated using pymatgen
data_CuNiC3
_symmetry_space_group_name_H-M   'P 1'
_cell_length_a   4.49742100
_cell_length_b   10.39580700
_cell_length_c   16.63770400
_cell_angle_alpha   90.00000000
_cell_angle_beta   90.00000000
_cell_angle_gamma   90.00000000
_symmetry_Int_Tables_number   1
_chemical_formula_structural   CuNiC3
_chemical_formula_sum   'Cu4 Ni4 C12'
_cell_volume   777.88454876
_cell_formula_units_Z   4
loop_
 _symmetry_equiv_pos_site_id
 _symmetry_equiv_pos_as_xyz
  1  'x, y, z'
loop_
 _atom_site_type_symbol
 _atom_site_label
 _atom_site_symmetry_multiplicity
 _atom_site_fract_x
 _atom_site_fract_y
 _atom_site_fract_z
 _atom_site_occupancy
  Ni  Ni0  1  0.25000000  0.45259700  0.17534600  1
  Ni  Ni1  1  0.75000000  0.54740300  0.82465400  1
  Ni  Ni2  1  0.25000000  0.95259700  0.32465400  1
  Ni  Ni3  1  0.75000000  0.04740300  0.67534600  1
  Cu  Cu4  1  0.25000000  0.16777100  0.94595300  1
  Cu  Cu5  1  0.75000000  0.83222900  0.05404700  1
  Cu  Cu6  1  0.25000000  0.66777100  0.55404700  1
  Cu  Cu7  1  0.75000000  0.33222900  0.44595300  1
  C  C8  1  0.75000000  0.48125700  0.60530000  1
  C  C9  1  0.25000000  0.51874300  0.39470000  1
  C  C10  1  0.75000000  0.98125700  0.89470000  1
  C  C11  1  0.25000000  0.01874300  0.10530000  1
  C  C12  1  0.75000000  0.33589300  0.01029500  1
  C  C13  1  0.25000000  0.66410700  0.98970500  1
  C  C14  1  0.75000000  0.83589300  0.48970500  1
  C  C15  1  0.25000000  0.16410700  0.51029500  1
  C  C16  1  0.75000000  0.21015200  0.28790600  1
  C  C17  1  0.25000000  0.78984800  0.71209400  1
  C  C18  1  0.75000000  0.71015200  0.21209400  1
  C  C19  1  0.25000000  0.28984800  0.78790600  1
