# generated using pymatgen
data_Cu2Ni10C7
_symmetry_space_group_name_H-M   'P 1'
_cell_length_a   10.96547049
_cell_length_b   6.71011554
_cell_length_c   2.98120013
_cell_angle_alpha   90.11865614
_cell_angle_beta   90.35964814
_cell_angle_gamma   108.03968086
_symmetry_Int_Tables_number   1
_chemical_formula_structural   Cu2Ni10C7
_chemical_formula_sum   'Cu2 Ni10 C7'
_cell_volume   208.56645278
_cell_formula_units_Z   1
loop_
 _symmetry_equiv_pos_site_id
 _symmetry_equiv_pos_as_xyz
  1  'x, y, z'
loop_
 _atom_site_type_symbol
 _atom_site_label
 _atom_site_symmetry_multiplicity
 _atom_site_fract_x
 _atom_site_fract_y
 _atom_site_fract_z
 _atom_site_occupancy
  C  C0  1  0.17255900  0.35696600  0.97477000  1
  C  C1  1  0.99792600  0.97822100  0.00508600  1
  C  C2  1  0.34532500  0.14640300  0.48076200  1
  C  C3  1  0.95970300  0.48228700  0.49158600  1
  C  C4  1  0.65202800  0.32099400  0.99286800  1
  C  C5  1  0.36666600  0.70332700  0.98287000  1
  C  C6  1  0.66109600  0.83064500  0.49560700  1
  Ni  Ni7  1  0.15434800  0.12604900  0.47597700  1
  Ni  Ni8  1  0.98639100  0.30172400  0.99096000  1
  Ni  Ni9  1  0.98817600  0.67647200  0.99483400  1
  Ni  Ni10  1  0.66919700  0.02420600  0.99567500  1
  Ni  Ni11  1  0.52972900  0.25906400  0.48840300  1
  Ni  Ni12  1  0.24021100  0.58417000  0.47973200  1
  Ni  Ni13  1  0.48002000  0.75991900  0.48661900  1
  Ni  Ni14  1  0.76963400  0.38708800  0.49553100  1
  Ni  Ni15  1  0.65729700  0.63904500  0.99398600  1
  Ni  Ni16  1  0.33123300  0.97025000  0.98046300  1
  Cu  Cu17  1  0.35858800  0.36942200  0.98081500  1
  Cu  Cu18  1  0.85487500  0.91708100  0.50512600  1
