# generated using pymatgen
data_Cu4Ni8C7
_symmetry_space_group_name_H-M   'P 1'
_cell_length_a   5.01043436
_cell_length_b   7.62332371
_cell_length_c   5.79858817
_cell_angle_alpha   100.21284085
_cell_angle_beta   101.13227158
_cell_angle_gamma   81.10015299
_symmetry_Int_Tables_number   1
_chemical_formula_structural   Cu4Ni8C7
_chemical_formula_sum   'Cu4 Ni8 C7'
_cell_volume   212.20216562
_cell_formula_units_Z   1
loop_
 _symmetry_equiv_pos_site_id
 _symmetry_equiv_pos_as_xyz
  1  'x, y, z'
loop_
 _atom_site_type_symbol
 _atom_site_label
 _atom_site_symmetry_multiplicity
 _atom_site_fract_x
 _atom_site_fract_y
 _atom_site_fract_z
 _atom_site_occupancy
  C  C0  1  0.47763462  0.01322450  0.98431794  1
  C  C1  1  0.54452128  0.00534099  0.47573794  1
  C  C2  1  0.57644188  0.36409714  0.77926807  1
  C  C3  1  0.48222055  0.64947469  0.18322960  1
  C  C4  1  0.99179658  0.64866626  0.66578551  1
  C  C5  1  0.98124620  0.31115043  0.34336866  1
  C  C6  1  0.98589611  0.99139590  0.01171066  1
  Ni  Ni7  1  0.81593585  0.43111003  0.61887673  1
  Ni  Ni8  1  0.79074231  0.09290109  0.26222287  1
  Ni  Ni9  1  0.70094184  0.76309507  0.46400902  1
  Ni  Ni10  1  0.69916560  0.10168629  0.79172779  1
  Ni  Ni11  1  0.70063886  0.43261880  0.12517292  1
  Ni  Ni12  1  0.29491912  0.56802782  0.87847096  1
  Ni  Ni13  1  0.32137395  0.22699175  0.52544004  1
  Ni  Ni14  1  0.31389764  0.89366899  0.20182504  1
  Cu  Cu15  1  0.76690093  0.77776734  0.94055895  1
  Cu  Cu16  1  0.18812290  0.21347465  0.04933661  1
  Cu  Cu17  1  0.18468070  0.90012976  0.73989353  1
  Cu  Cu18  1  0.18292110  0.55267950  0.38762117  1
