# generated using pymatgen
data_Cu2(NiC)3
_symmetry_space_group_name_H-M   'P 1'
_cell_length_a   13.25830400
_cell_length_b   5.82416200
_cell_length_c   5.70322300
_cell_angle_alpha   90.00000000
_cell_angle_beta   90.00000000
_cell_angle_gamma   90.00000000
_symmetry_Int_Tables_number   1
_chemical_formula_structural   Cu2(NiC)3
_chemical_formula_sum   'Cu8 Ni12 C12'
_cell_volume   440.39438420
_cell_formula_units_Z   4
loop_
 _symmetry_equiv_pos_site_id
 _symmetry_equiv_pos_as_xyz
  1  'x, y, z'
loop_
 _atom_site_type_symbol
 _atom_site_label
 _atom_site_symmetry_multiplicity
 _atom_site_fract_x
 _atom_site_fract_y
 _atom_site_fract_z
 _atom_site_occupancy
  C  C0  1  0.39231800  0.78906100  0.00000000  1
  C  C1  1  0.39231800  0.21093900  0.50000000  1
  C  C2  1  0.60768200  0.78906100  0.50000000  1
  C  C3  1  0.60768200  0.21093900  0.00000000  1
  C  C4  1  0.89231800  0.28906100  0.00000000  1
  C  C5  1  0.89231800  0.71093900  0.50000000  1
  C  C6  1  0.10768200  0.28906100  0.50000000  1
  C  C7  1  0.10768200  0.71093900  0.00000000  1
  C  C8  1  0.25000000  0.25000000  0.00000000  1
  C  C9  1  0.25000000  0.75000000  0.50000000  1
  C  C10  1  0.75000000  0.25000000  0.50000000  1
  C  C11  1  0.75000000  0.75000000  0.00000000  1
  Ni  Ni12  1  0.27932000  0.00000000  0.25000000  1
  Ni  Ni13  1  0.72068000  0.00000000  0.25000000  1
  Ni  Ni14  1  0.72068000  0.00000000  0.75000000  1
  Ni  Ni15  1  0.27932000  0.00000000  0.75000000  1
  Ni  Ni16  1  0.77932000  0.50000000  0.25000000  1
  Ni  Ni17  1  0.22068000  0.50000000  0.25000000  1
  Ni  Ni18  1  0.22068000  0.50000000  0.75000000  1
  Ni  Ni19  1  0.77932000  0.50000000  0.75000000  1
  Ni  Ni20  1  0.00000000  0.50000000  0.25000000  1
  Ni  Ni21  1  0.00000000  0.50000000  0.75000000  1
  Ni  Ni22  1  0.50000000  0.00000000  0.25000000  1
  Ni  Ni23  1  0.50000000  0.00000000  0.75000000  1
  Cu  Cu24  1  0.59282000  0.63240500  0.00000000  1
  Cu  Cu25  1  0.59282000  0.36759500  0.50000000  1
  Cu  Cu26  1  0.40718000  0.63240500  0.50000000  1
  Cu  Cu27  1  0.40718000  0.36759500  0.00000000  1
  Cu  Cu28  1  0.09282000  0.13240500  0.00000000  1
  Cu  Cu29  1  0.09282000  0.86759500  0.50000000  1
  Cu  Cu30  1  0.90718000  0.13240500  0.50000000  1
  Cu  Cu31  1  0.90718000  0.86759500  0.00000000  1
