# generated using pymatgen
data_CuNiC3
_symmetry_space_group_name_H-M   'P 1'
_cell_length_a   6.19318736
_cell_length_b   6.19318736
_cell_length_c   4.89407500
_cell_angle_alpha   90.00000000
_cell_angle_beta   90.00000000
_cell_angle_gamma   105.54520590
_symmetry_Int_Tables_number   1
_chemical_formula_structural   CuNiC3
_chemical_formula_sum   'Cu2 Ni2 C6'
_cell_volume   180.84828788
_cell_formula_units_Z   2
loop_
 _symmetry_equiv_pos_site_id
 _symmetry_equiv_pos_as_xyz
  1  'x, y, z'
loop_
 _atom_site_type_symbol
 _atom_site_label
 _atom_site_symmetry_multiplicity
 _atom_site_fract_x
 _atom_site_fract_y
 _atom_site_fract_z
 _atom_site_occupancy
  Ni  Ni0  1  0.68963700  0.31036300  0.00155700  1
  Ni  Ni1  1  0.31036300  0.68963700  0.50155700  1
  Cu  Cu2  1  0.86167000  0.13833000  0.09272700  1
  Cu  Cu3  1  0.13833000  0.86167000  0.59272700  1
  C  C4  1  0.67543200  0.32456800  0.72702200  1
  C  C5  1  0.32456800  0.67543200  0.22702200  1
  C  C6  1  0.77280900  0.51951500  0.10209700  1
  C  C7  1  0.22719100  0.48048500  0.60209700  1
  C  C8  1  0.48048500  0.22719100  0.10209700  1
  C  C9  1  0.51951500  0.77280900  0.60209700  1
