# generated using pymatgen
data_Cu3(NiC4)2
_symmetry_space_group_name_H-M   'P 1'
_cell_length_a   8.34598800
_cell_length_b   8.34598800
_cell_length_c   8.34598800
_cell_angle_alpha   90.00000000
_cell_angle_beta   90.00000000
_cell_angle_gamma   90.00000000
_symmetry_Int_Tables_number   1
_chemical_formula_structural   Cu3(NiC4)2
_chemical_formula_sum   'Cu12 Ni8 C32'
_cell_volume   581.34409813
_cell_formula_units_Z   4
loop_
 _symmetry_equiv_pos_site_id
 _symmetry_equiv_pos_as_xyz
  1  'x, y, z'
loop_
 _atom_site_type_symbol
 _atom_site_label
 _atom_site_symmetry_multiplicity
 _atom_site_fract_x
 _atom_site_fract_y
 _atom_site_fract_z
 _atom_site_occupancy
  Ni  Ni0  1  0.24831700  0.24831700  0.24831700  1
  Ni  Ni1  1  0.99831700  0.50168300  0.49831700  1
  Ni  Ni2  1  0.50168300  0.49831700  0.99831700  1
  Ni  Ni3  1  0.49831700  0.99831700  0.50168300  1
  Ni  Ni4  1  0.74831700  0.25168300  0.75168300  1
  Ni  Ni5  1  0.25168300  0.75168300  0.74831700  1
  Ni  Ni6  1  0.75168300  0.74831700  0.25168300  1
  Ni  Ni7  1  0.00168300  0.00168300  0.00168300  1
  Cu  Cu8  1  0.62500000  0.12926400  0.12073600  1
  Cu  Cu9  1  0.62073600  0.87500000  0.87073600  1
  Cu  Cu10  1  0.62926400  0.37926400  0.37500000  1
  Cu  Cu11  1  0.37073600  0.87926400  0.12500000  1
  Cu  Cu12  1  0.87926400  0.12500000  0.37073600  1
  Cu  Cu13  1  0.12073600  0.62500000  0.12926400  1
  Cu  Cu14  1  0.37926400  0.37500000  0.62926400  1
  Cu  Cu15  1  0.87073600  0.62073600  0.87500000  1
  Cu  Cu16  1  0.12926400  0.12073600  0.62500000  1
  Cu  Cu17  1  0.37500000  0.62926400  0.37926400  1
  Cu  Cu18  1  0.87500000  0.87073600  0.62073600  1
  Cu  Cu19  1  0.12500000  0.37073600  0.87926400  1
  C  C20  1  0.86170600  0.86170600  0.86170600  1
  C  C21  1  0.61170600  0.88829400  0.11170600  1
  C  C22  1  0.88829400  0.11170600  0.61170600  1
  C  C23  1  0.11170600  0.61170600  0.88829400  1
  C  C24  1  0.36170600  0.63829400  0.13829400  1
  C  C25  1  0.63829400  0.13829400  0.36170600  1
  C  C26  1  0.13829400  0.36170600  0.63829400  1
  C  C27  1  0.38829400  0.38829400  0.38829400  1
  C  C28  1  0.15145100  0.85438100  0.11039300  1
  C  C29  1  0.65145100  0.64561900  0.88960700  1
  C  C30  1  0.85438100  0.11039300  0.15145100  1
  C  C31  1  0.14561900  0.61039300  0.34854900  1
  C  C32  1  0.11039300  0.15145100  0.85438100  1
  C  C33  1  0.38960700  0.84854900  0.35438100  1
  C  C34  1  0.40145100  0.86039300  0.89561900  1
  C  C35  1  0.90145100  0.63960700  0.10438100  1
  C  C36  1  0.59854900  0.36039300  0.60438100  1
  C  C37  1  0.63960700  0.10438100  0.90145100  1
  C  C38  1  0.60438100  0.59854900  0.36039300  1
  C  C39  1  0.10438100  0.90145100  0.63960700  1
  C  C40  1  0.09854900  0.13960700  0.39561900  1
  C  C41  1  0.84854900  0.35438100  0.38960700  1
  C  C42  1  0.34854900  0.14561900  0.61039300  1
  C  C43  1  0.64561900  0.88960700  0.65145100  1
  C  C44  1  0.35438100  0.38960700  0.84854900  1
  C  C45  1  0.61039300  0.34854900  0.14561900  1
  C  C46  1  0.88960700  0.65145100  0.64561900  1
  C  C47  1  0.39561900  0.09854900  0.13960700  1
  C  C48  1  0.13960700  0.39561900  0.09854900  1
  C  C49  1  0.36039300  0.60438100  0.59854900  1
  C  C50  1  0.89561900  0.40145100  0.86039300  1
  C  C51  1  0.86039300  0.89561900  0.40145100  1
