# generated using pymatgen
data_CuNi3C4
_symmetry_space_group_name_H-M   'P 1'
_cell_length_a   12.09256400
_cell_length_b   12.77377000
_cell_length_c   13.10447800
_cell_angle_alpha   90.00000000
_cell_angle_beta   90.00000000
_cell_angle_gamma   90.00000000
_symmetry_Int_Tables_number   1
_chemical_formula_structural   CuNi3C4
_chemical_formula_sum   'Cu8 Ni24 C32'
_cell_volume   2024.21767538
_cell_formula_units_Z   8
loop_
 _symmetry_equiv_pos_site_id
 _symmetry_equiv_pos_as_xyz
  1  'x, y, z'
loop_
 _atom_site_type_symbol
 _atom_site_label
 _atom_site_symmetry_multiplicity
 _atom_site_fract_x
 _atom_site_fract_y
 _atom_site_fract_z
 _atom_site_occupancy
  Ni  Ni0  1  0.59543200  0.09137900  0.18296000  1
  Ni  Ni1  1  0.30982100  0.31459700  0.22796100  1
  Ni  Ni2  1  0.19017900  0.68540300  0.72796100  1
  Ni  Ni3  1  0.69017900  0.81459700  0.27203900  1
  Ni  Ni4  1  0.19017900  0.81459700  0.22796100  1
  Ni  Ni5  1  0.69017900  0.68540300  0.77203900  1
  Ni  Ni6  1  0.80982100  0.31459700  0.27203900  1
  Ni  Ni7  1  0.30982100  0.18540300  0.72796100  1
  Ni  Ni8  1  0.80982100  0.18540300  0.77203900  1
  Ni  Ni9  1  0.09543200  0.40862100  0.81704000  1
  Ni  Ni10  1  0.40456800  0.59137900  0.31704000  1
  Ni  Ni11  1  0.90456800  0.90862100  0.68296000  1
  Ni  Ni12  1  0.40456800  0.90862100  0.81704000  1
  Ni  Ni13  1  0.90456800  0.59137900  0.18296000  1
  Ni  Ni14  1  0.59543200  0.40862100  0.68296000  1
  Ni  Ni15  1  0.09543200  0.09137900  0.31704000  1
  Ni  Ni16  1  0.21878000  0.08099100  0.01474500  1
  Ni  Ni17  1  0.71878000  0.41900900  0.98525500  1
  Ni  Ni18  1  0.78122000  0.58099100  0.48525500  1
  Ni  Ni19  1  0.28122000  0.91900900  0.51474500  1
  Ni  Ni20  1  0.78122000  0.91900900  0.98525500  1
  Ni  Ni21  1  0.28122000  0.58099100  0.01474500  1
  Ni  Ni22  1  0.21878000  0.41900900  0.51474500  1
  Ni  Ni23  1  0.71878000  0.08099100  0.48525500  1
  Cu  Cu24  1  0.40198900  0.10273000  0.89867600  1
  Cu  Cu25  1  0.90198900  0.39727000  0.10132400  1
  Cu  Cu26  1  0.59801100  0.60273000  0.60132400  1
  Cu  Cu27  1  0.09801100  0.89727000  0.39867600  1
  Cu  Cu28  1  0.59801100  0.89727000  0.10132400  1
  Cu  Cu29  1  0.09801100  0.60273000  0.89867600  1
  Cu  Cu30  1  0.40198900  0.39727000  0.39867600  1
  Cu  Cu31  1  0.90198900  0.10273000  0.60132400  1
  C  C32  1  0.32262300  0.10493600  0.21863300  1
  C  C33  1  0.82262300  0.39506400  0.78136700  1
  C  C34  1  0.67737700  0.60493600  0.28136700  1
  C  C35  1  0.17737700  0.89506400  0.71863300  1
  C  C36  1  0.67737700  0.89506400  0.78136700  1
  C  C37  1  0.17737700  0.60493600  0.21863300  1
  C  C38  1  0.32262300  0.39506400  0.71863300  1
  C  C39  1  0.82262300  0.10493600  0.28136700  1
  C  C40  1  0.04479500  0.08049800  0.10419600  1
  C  C41  1  0.54479500  0.41950200  0.89580400  1
  C  C42  1  0.95520500  0.58049800  0.39580400  1
  C  C43  1  0.45520500  0.91950200  0.60419600  1
  C  C44  1  0.95520500  0.91950200  0.89580400  1
  C  C45  1  0.45520500  0.58049800  0.10419600  1
  C  C46  1  0.04479500  0.41950200  0.60419600  1
  C  C47  1  0.58247200  0.21777000  0.67919500  1
  C  C48  1  0.74697300  0.15807600  0.94775100  1
  C  C49  1  0.24697300  0.34192400  0.05224900  1
  C  C50  1  0.25302700  0.65807600  0.55224900  1
  C  C51  1  0.75302700  0.84192400  0.44775100  1
  C  C52  1  0.25302700  0.84192400  0.05224900  1
  C  C53  1  0.75302700  0.65807600  0.94775100  1
  C  C54  1  0.74697300  0.34192400  0.44775100  1
  C  C55  1  0.24697300  0.15807600  0.55224900  1
  C  C56  1  0.08247200  0.21777000  0.82080500  1
  C  C57  1  0.58247200  0.28223000  0.17919500  1
  C  C58  1  0.91752800  0.71777000  0.67919500  1
  C  C59  1  0.41752800  0.78223000  0.32080500  1
  C  C60  1  0.91752800  0.78223000  0.17919500  1
  C  C61  1  0.41752800  0.71777000  0.82080500  1
  C  C62  1  0.08247200  0.28223000  0.32080500  1
  C  C63  1  0.54479500  0.08049800  0.39580400  1
