# generated using pymatgen
data_Cu3Ni2C31
_symmetry_space_group_name_H-M   'P 1'
_cell_length_a   8.77576498
_cell_length_b   8.76050640
_cell_length_c   23.07683679
_cell_angle_alpha   89.38949155
_cell_angle_beta   90.12220971
_cell_angle_gamma   119.65483596
_symmetry_Int_Tables_number   1
_chemical_formula_structural   Cu3Ni2C31
_chemical_formula_sum   'Cu9 Ni6 C93'
_cell_volume   1541.67792611
_cell_formula_units_Z   3
loop_
 _symmetry_equiv_pos_site_id
 _symmetry_equiv_pos_as_xyz
  1  'x, y, z'
loop_
 _atom_site_type_symbol
 _atom_site_label
 _atom_site_symmetry_multiplicity
 _atom_site_fract_x
 _atom_site_fract_y
 _atom_site_fract_z
 _atom_site_occupancy
  C  C0  1  0.98234098  0.98719300  0.50561761  1
  C  C1  1  0.01956112  0.01733059  0.99972755  1
  C  C2  1  0.66846955  0.31914260  0.83519225  1
  C  C3  1  0.66414594  0.32346187  0.33485698  1
  C  C4  1  0.33521944  0.65984018  0.16472823  1
  C  C5  1  0.34994971  0.67256035  0.66926227  1
  C  C6  1  0.97811039  0.98309710  0.64765010  1
  C  C7  1  0.01041212  0.00840302  0.14388118  1
  C  C8  1  0.34315485  0.67963659  0.31620222  1
  Ni  Ni9  1  0.70765290  0.99519804  0.74837802  1
  Ni  Ni10  1  0.67405745  0.62681635  0.58350272  1
  Ni  Ni11  1  0.37059779  0.33408467  0.08180848  1
  Ni  Ni12  1  0.04091749  0.37676167  0.91590713  1
  Ni  Ni13  1  0.32779129  0.95486138  0.91698323  1
  Ni  Ni14  1  0.62325513  0.96198412  0.41418599  1
  Cu  Cu15  1  0.99042054  0.99760998  0.35134250  1
  Cu  Cu16  1  0.00245994  0.01392933  0.85320546  1
  Cu  Cu17  1  0.66647299  0.33332233  0.68768437  1
  Cu  Cu18  1  0.66024527  0.33502922  0.18119538  1
  Cu  Cu19  1  0.65629290  0.32037396  0.97744674  1
  Cu  Cu20  1  0.66711192  0.33088774  0.48330702  1
  Cu  Cu21  1  0.32313112  0.65458879  0.01607196  1
  Cu  Cu22  1  0.35308448  0.67263505  0.51979353  1
  Cu  Cu23  1  0.33279044  0.67750772  0.81554880  1
  C  C24  1  0.28827909  0.99665302  0.24952601  1
  C  C25  1  0.70791524  0.70788638  0.24811566  1
  C  C26  1  0.00134751  0.29627703  0.24785364  1
  C  C27  1  0.28926200  0.29143207  0.74797095  1
  C  C28  1  0.00033823  0.71226509  0.74902021  1
  C  C29  1  0.96444893  0.33427080  0.58287750  1
  C  C30  1  0.36834790  0.03932695  0.58410225  1
  C  C31  1  0.95745577  0.62719009  0.08358666  1
  C  C32  1  0.66800696  0.03785196  0.08432282  1
  C  C33  1  0.62654021  0.66801616  0.91643216  1
  C  C34  1  0.33169758  0.37533042  0.41439693  1
  C  C35  1  0.04638349  0.66582558  0.41535743  1
  C  C36  1  0.21344881  0.03293754  0.30435875  1
  C  C37  1  0.81692306  0.78070000  0.30281939  1
  C  C38  1  0.96479357  0.18706196  0.30300764  1
  C  C39  1  0.22014507  0.18571404  0.80238364  1
  C  C40  1  0.97260202  0.78585518  0.80289649  1
  C  C41  1  0.82199127  0.03237923  0.80832218  1
  C  C42  1  0.79249020  0.97040834  0.69188671  1
  C  C43  1  0.18670622  0.20970943  0.69649658  1
  C  C44  1  0.02931999  0.81852163  0.69708961  1
  C  C45  1  0.79504691  0.81774161  0.19764994  1
  C  C46  1  0.02287858  0.20904982  0.19788921  1
  C  C47  1  0.18131851  0.97767810  0.19901203  1
  C  C48  1  0.88616125  0.36863797  0.63425574  1
  C  C49  1  0.48476896  0.11344517  0.63474448  1
  C  C50  1  0.62829041  0.49479850  0.64000732  1
  C  C51  1  0.88527828  0.51266738  0.13805146  1
  C  C52  1  0.63456554  0.11627678  0.13812690  1
  C  C53  1  0.49271331  0.37924461  0.14193316  1
  C  C54  1  0.47071840  0.30698786  0.02704241  1
  C  C55  1  0.85090267  0.54475774  0.03209883  1
  C  C56  1  0.70300951  0.15078134  0.03250493  1
  C  C57  1  0.44751830  0.14349101  0.52951831  1
  C  C58  1  0.69826120  0.53565613  0.52373424  1
  C  C59  1  0.85475619  0.30078215  0.52947462  1
  C  C60  1  0.55247475  0.70039282  0.96970454  1
  C  C61  1  0.15652250  0.44819441  0.97457389  1
  C  C62  1  0.30065978  0.84324583  0.97751637  1
  C  C63  1  0.54852701  0.84796135  0.47447333  1
  C  C64  1  0.29491775  0.44369246  0.46857137  1
  C  C65  1  0.14731253  0.69214732  0.47006659  1
  C  C66  1  0.12444198  0.63876987  0.36406862  1
  C  C67  1  0.50980073  0.88015047  0.35820031  1
  C  C68  1  0.35496740  0.48137827  0.36311160  1
  C  C69  1  0.12579091  0.49155792  0.85679322  1
  C  C70  1  0.37385291  0.88170336  0.85965983  1
  C  C71  1  0.51791992  0.63381775  0.86413877  1
  C  C72  1  0.02970728  0.82935328  0.40993851  1
  C  C73  1  0.82463836  0.98423435  0.41088538  1
  C  C74  1  0.17575208  0.19329933  0.40917987  1
  C  C75  1  0.01683489  0.18093204  0.91295804  1
  C  C76  1  0.14856427  0.96593956  0.90922582  1
  C  C77  1  0.80129840  0.82368238  0.91055963  1
  C  C78  1  0.98952094  0.18365721  0.58941860  1
  C  C79  1  0.19909437  0.02806898  0.59107438  1
  C  C80  1  0.84438098  0.81512695  0.58555560  1
  C  C81  1  0.96800511  0.79662590  0.09234997  1
  C  C82  1  0.82151116  0.01810015  0.09313867  1
  C  C83  1  0.18371778  0.16280579  0.08926009  1
  C  C84  1  0.68345863  0.17510120  0.74418128  1
  C  C85  1  0.47000427  0.31248130  0.74501136  1
  C  C86  1  0.84007507  0.53323153  0.74498792  1
  C  C87  1  0.69577579  0.52845054  0.24541895  1
  C  C88  1  0.83548494  0.31218320  0.24270128  1
  C  C89  1  0.46986725  0.15844897  0.24572233  1
  C  C90  1  0.64487135  0.51015171  0.92271525  1
  C  C91  1  0.85110405  0.36784903  0.92405992  1
  C  C92  1  0.50052587  0.14975373  0.92028931  1
  C  C93  1  0.64872388  0.16222909  0.42376353  1
  C  C94  1  0.49180654  0.35855051  0.42116411  1
  C  C95  1  0.86679431  0.51048316  0.42125581  1
  C  C96  1  0.36342526  0.52020866  0.07851821  1
  C  C97  1  0.13492863  0.64520891  0.08033227  1
  C  C98  1  0.50586050  0.86665140  0.07871624  1
  C  C99  1  0.34879846  0.85975280  0.57734343  1
  C  C100  1  0.48553869  0.63085831  0.58025368  1
  C  C101  1  0.13580422  0.50171492  0.57410716  1
  C  C102  1  0.30492802  0.83968254  0.25662293  1
  C  C103  1  0.53272488  0.68578902  0.25593319  1
  C  C104  1  0.15456861  0.46935091  0.25683146  1
  C  C105  1  0.30699721  0.46817745  0.75483583  1
  C  C106  1  0.15594209  0.68623291  0.75331629  1
  C  C107  1  0.50950078  0.81875577  0.75514880  1
