# generated using pymatgen
data_Cu6Ni4C7
_symmetry_space_group_name_H-M   'P 1'
_cell_length_a   12.13177700
_cell_length_b   12.13177700
_cell_length_c   12.13177700
_cell_angle_alpha   90.00000000
_cell_angle_beta   90.00000000
_cell_angle_gamma   90.00000000
_symmetry_Int_Tables_number   1
_chemical_formula_structural   Cu6Ni4C7
_chemical_formula_sum   'Cu24 Ni16 C28'
_cell_volume   1785.55509873
_cell_formula_units_Z   4
loop_
 _symmetry_equiv_pos_site_id
 _symmetry_equiv_pos_as_xyz
  1  'x, y, z'
loop_
 _atom_site_type_symbol
 _atom_site_label
 _atom_site_symmetry_multiplicity
 _atom_site_fract_x
 _atom_site_fract_y
 _atom_site_fract_z
 _atom_site_occupancy
  C  C0  1  0.00000000  0.50000000  0.50000000  1
  C  C1  1  0.50000000  0.50000000  0.00000000  1
  C  C2  1  0.50000000  0.00000000  0.50000000  1
  C  C3  1  0.00000000  0.00000000  0.00000000  1
  C  C4  1  0.01519000  0.27469400  0.23210900  1
  C  C5  1  0.51519000  0.22530600  0.76789100  1
  C  C6  1  0.98481000  0.77469400  0.26789100  1
  C  C7  1  0.22530600  0.76789100  0.51519000  1
  C  C8  1  0.26789100  0.98481000  0.77469400  1
  C  C9  1  0.76789100  0.51519000  0.22530600  1
  C  C10  1  0.27469400  0.23210900  0.01519000  1
  C  C11  1  0.23210900  0.01519000  0.27469400  1
  C  C12  1  0.77469400  0.26789100  0.98481000  1
  C  C13  1  0.72530600  0.73210900  0.48481000  1
  C  C14  1  0.73210900  0.48481000  0.72530600  1
  C  C15  1  0.48481000  0.72530600  0.73210900  1
  C  C16  1  0.98481000  0.72530600  0.76789100  1
  C  C17  1  0.48481000  0.77469400  0.23210900  1
  C  C18  1  0.01519000  0.22530600  0.73210900  1
  C  C19  1  0.77469400  0.23210900  0.48481000  1
  C  C20  1  0.73210900  0.01519000  0.22530600  1
  C  C21  1  0.23210900  0.48481000  0.77469400  1
  C  C22  1  0.72530600  0.76789100  0.98481000  1
  C  C23  1  0.76789100  0.98481000  0.72530600  1
  C  C24  1  0.22530600  0.73210900  0.01519000  1
  C  C25  1  0.27469400  0.26789100  0.51519000  1
  C  C26  1  0.26789100  0.51519000  0.27469400  1
  C  C27  1  0.51519000  0.27469400  0.26789100  1
  Ni  Ni28  1  0.21320700  0.28679300  0.71320700  1
  Ni  Ni29  1  0.28679300  0.71320700  0.21320700  1
  Ni  Ni30  1  0.71320700  0.21320700  0.28679300  1
  Ni  Ni31  1  0.78679300  0.78679300  0.78679300  1
  Ni  Ni32  1  0.78679300  0.71320700  0.28679300  1
  Ni  Ni33  1  0.71320700  0.28679300  0.78679300  1
  Ni  Ni34  1  0.28679300  0.78679300  0.71320700  1
  Ni  Ni35  1  0.21320700  0.21320700  0.21320700  1
  Ni  Ni36  1  0.31773600  0.18226400  0.81773600  1
  Ni  Ni37  1  0.18226400  0.81773600  0.31773600  1
  Ni  Ni38  1  0.81773600  0.31773600  0.18226400  1
  Ni  Ni39  1  0.68226400  0.68226400  0.68226400  1
  Ni  Ni40  1  0.68226400  0.81773600  0.18226400  1
  Ni  Ni41  1  0.81773600  0.18226400  0.68226400  1
  Ni  Ni42  1  0.18226400  0.68226400  0.81773600  1
  Ni  Ni43  1  0.31773600  0.31773600  0.31773600  1
  Cu  Cu44  1  0.96244400  0.02122800  0.21780700  1
  Cu  Cu45  1  0.46244400  0.47877200  0.78219300  1
  Cu  Cu46  1  0.03755600  0.52122800  0.28219300  1
  Cu  Cu47  1  0.47877200  0.78219300  0.46244400  1
  Cu  Cu48  1  0.28219300  0.03755600  0.52122800  1
  Cu  Cu49  1  0.78219300  0.46244400  0.47877200  1
  Cu  Cu50  1  0.02122800  0.21780700  0.96244400  1
  Cu  Cu51  1  0.21780700  0.96244400  0.02122800  1
  Cu  Cu52  1  0.52122800  0.28219300  0.03755600  1
  Cu  Cu53  1  0.97877200  0.71780700  0.53755600  1
  Cu  Cu54  1  0.71780700  0.53755600  0.97877200  1
  Cu  Cu55  1  0.53755600  0.97877200  0.71780700  1
  Cu  Cu56  1  0.03755600  0.97877200  0.78219300  1
  Cu  Cu57  1  0.53755600  0.52122800  0.21780700  1
  Cu  Cu58  1  0.96244400  0.47877200  0.71780700  1
  Cu  Cu59  1  0.52122800  0.21780700  0.53755600  1
  Cu  Cu60  1  0.71780700  0.96244400  0.47877200  1
  Cu  Cu61  1  0.21780700  0.53755600  0.52122800  1
  Cu  Cu62  1  0.97877200  0.78219300  0.03755600  1
  Cu  Cu63  1  0.78219300  0.03755600  0.97877200  1
  Cu  Cu64  1  0.47877200  0.71780700  0.96244400  1
  Cu  Cu65  1  0.02122800  0.28219300  0.46244400  1
  Cu  Cu66  1  0.28219300  0.46244400  0.02122800  1
  Cu  Cu67  1  0.46244400  0.02122800  0.28219300  1
