# generated using pymatgen
data_CuNiC3
_symmetry_space_group_name_H-M   'P 1'
_cell_length_a   4.01588106
_cell_length_b   3.69941291
_cell_length_c   9.06230266
_cell_angle_alpha   78.74404197
_cell_angle_beta   76.99540044
_cell_angle_gamma   89.98565998
_symmetry_Int_Tables_number   1
_chemical_formula_structural   CuNiC3
_chemical_formula_sum   'Cu1 Ni1 C3'
_cell_volume   128.52245608
_cell_formula_units_Z   1
loop_
 _symmetry_equiv_pos_site_id
 _symmetry_equiv_pos_as_xyz
  1  'x, y, z'
loop_
 _atom_site_type_symbol
 _atom_site_label
 _atom_site_symmetry_multiplicity
 _atom_site_fract_x
 _atom_site_fract_y
 _atom_site_fract_z
 _atom_site_occupancy
  Ni  Ni0  1  0.24110000  0.23579700  0.51411600  1
  Cu  Cu1  1  0.00761800  0.96819300  0.99981700  1
  C  C2  1  0.66762200  0.16280700  0.65894200  1
  C  C3  1  0.32659000  0.81650400  0.34475900  1
  C  C4  1  0.00707000  0.48160200  0.97236600  1
