# generated using pymatgen
data_Cu2NiC8
_symmetry_space_group_name_H-M   'P 1'
_cell_length_a   5.90444644
_cell_length_b   5.90444600
_cell_length_c   5.90444593
_cell_angle_alpha   52.70646997
_cell_angle_beta   52.70647325
_cell_angle_gamma   52.70648103
_symmetry_Int_Tables_number   1
_chemical_formula_structural   Cu2NiC8
_chemical_formula_sum   'Cu2 Ni1 C8'
_cell_volume   120.64746731
_cell_formula_units_Z   1
loop_
 _symmetry_equiv_pos_site_id
 _symmetry_equiv_pos_as_xyz
  1  'x, y, z'
loop_
 _atom_site_type_symbol
 _atom_site_label
 _atom_site_symmetry_multiplicity
 _atom_site_fract_x
 _atom_site_fract_y
 _atom_site_fract_z
 _atom_site_occupancy
  Ni  Ni0  1  0.00000000  0.00000000  0.00000000  1
  Cu  Cu1  1  0.39733500  0.39733500  0.39733500  1
  Cu  Cu2  1  0.60266500  0.60266500  0.60266500  1
  C  C3  1  0.18161900  0.18161900  0.18161900  1
  C  C4  1  0.81838100  0.81838100  0.81838100  1
  C  C5  1  0.06368100  0.79320100  0.40595900  1
  C  C6  1  0.59404100  0.93631900  0.20679900  1
  C  C7  1  0.20679900  0.59404100  0.93631900  1
  C  C8  1  0.79320100  0.40595900  0.06368100  1
  C  C9  1  0.40595900  0.06368100  0.79320100  1
  C  C10  1  0.93631900  0.20679900  0.59404100  1
