# generated using pymatgen
data_Cu2NiC8
_symmetry_space_group_name_H-M   'P 1'
_cell_length_a   3.81318513
_cell_length_b   5.46525660
_cell_length_c   7.76675506
_cell_angle_alpha   90.00000000
_cell_angle_beta   90.00000000
_cell_angle_gamma   90.00000000
_symmetry_Int_Tables_number   1
_chemical_formula_structural   Cu2NiC8
_chemical_formula_sum   'Cu2 Ni1 C8'
_cell_volume   161.85944883
_cell_formula_units_Z   1
loop_
 _symmetry_equiv_pos_site_id
 _symmetry_equiv_pos_as_xyz
  1  'x, y, z'
loop_
 _atom_site_type_symbol
 _atom_site_label
 _atom_site_symmetry_multiplicity
 _atom_site_fract_x
 _atom_site_fract_y
 _atom_site_fract_z
 _atom_site_occupancy
  C  C0  1  -0.00000000  -0.00000000  0.50000000  1
  C  C1  1  -0.00000000  -0.00000000  0.00000000  1
  Ni  Ni2  1  -0.00000000  0.50000000  0.50000000  1
  Cu  Cu3  1  0.49999900  0.49999900  0.76955219  1
  Cu  Cu4  1  0.49999900  0.49999900  0.23044681  1
  C  C5  1  0.49999900  0.49999900  0.50000000  1
  C  C6  1  0.49999900  -0.00000000  0.78528855  1
  C  C7  1  0.00000000  0.49999900  0.74302249  1
  C  C8  1  0.49999900  -0.00000000  0.21471245  1
  C  C9  1  0.49999900  0.49999900  0.00000000  1
  C  C10  1  0.00000000  0.49999900  0.25697851  1
