# generated using pymatgen
data_Cu2NiC14
_symmetry_space_group_name_H-M   'P 1'
_cell_length_a   4.07782600
_cell_length_b   4.07828800
_cell_length_c   16.11412300
_cell_angle_alpha   90.00000000
_cell_angle_beta   90.00000000
_cell_angle_gamma   90.00000000
_symmetry_Int_Tables_number   1
_chemical_formula_structural   Cu2NiC14
_chemical_formula_sum   'Cu2 Ni1 C14'
_cell_volume   267.98670960
_cell_formula_units_Z   1
loop_
 _symmetry_equiv_pos_site_id
 _symmetry_equiv_pos_as_xyz
  1  'x, y, z'
loop_
 _atom_site_type_symbol
 _atom_site_label
 _atom_site_symmetry_multiplicity
 _atom_site_fract_x
 _atom_site_fract_y
 _atom_site_fract_z
 _atom_site_occupancy
  C  C0  1  0.75000000  0.75000000  0.17307100  1
  C  C1  1  0.25000000  0.25000000  0.82702600  1
  C  C2  1  0.75000000  0.75000000  0.37442800  1
  C  C3  1  0.25000000  0.25000000  0.62550100  1
  Ni  Ni4  1  0.25000000  0.75000000  0.49997400  1
  C  C5  1  0.25000000  0.25000000  0.29239300  1
  C  C6  1  0.75000000  0.75000000  0.70790200  1
  Cu  Cu7  1  0.75000000  0.25000000  0.99998700  1
  Cu  Cu8  1  0.25000000  0.75000000  0.99998300  1
  C  C9  1  0.25000000  0.25000000  0.08378600  1
  C  C10  1  0.75000000  0.75000000  0.91595600  1
  C  C11  1  0.75000000  0.25000000  0.27214800  1
  C  C12  1  0.25000000  0.75000000  0.28706900  1
  C  C13  1  0.25000000  0.75000000  0.71315800  1
  C  C14  1  0.75000000  0.25000000  0.72757700  1
  C  C15  1  0.25000000  0.25000000  0.45143800  1
  C  C16  1  0.75000000  0.75000000  0.54860200  1
