# generated using pymatgen
data_CuNi4C33
_symmetry_space_group_name_H-M   'P 1'
_cell_length_a   8.85409826
_cell_length_b   8.85216106
_cell_length_c   22.33410653
_cell_angle_alpha   90.06529225
_cell_angle_beta   89.95381714
_cell_angle_gamma   119.80655395
_symmetry_Int_Tables_number   1
_chemical_formula_structural   CuNi4C33
_chemical_formula_sum   'Cu3 Ni12 C99'
_cell_volume   1518.92325349
_cell_formula_units_Z   3
loop_
 _symmetry_equiv_pos_site_id
 _symmetry_equiv_pos_as_xyz
  1  'x, y, z'
loop_
 _atom_site_type_symbol
 _atom_site_label
 _atom_site_symmetry_multiplicity
 _atom_site_fract_x
 _atom_site_fract_y
 _atom_site_fract_z
 _atom_site_occupancy
  Ni  Ni0  1  0.64663266  0.01106632  0.24617510  1
  Ni  Ni1  1  0.36692842  0.35505217  0.24640069  1
  Ni  Ni2  1  0.98889060  0.63389665  0.24594048  1
  Ni  Ni3  1  0.99062385  0.36740086  0.74604012  1
  Ni  Ni4  1  0.37736268  0.00490736  0.74591831  1
  Ni  Ni5  1  0.71077454  0.67499004  0.41629664  1
  Ni  Ni6  1  0.01324773  0.01349033  0.49960467  1
  Ni  Ni7  1  0.00028154  0.00047163  0.00023317  1
  Ni  Ni8  1  0.66551910  0.34602558  0.83611377  1
  Ni  Ni9  1  0.66570818  0.32101399  0.33469474  1
  Ni  Ni10  1  0.33371426  0.66654117  0.16040112  1
  Ni  Ni11  1  0.34762055  0.66477427  0.66252848  1
  Cu  Cu12  1  0.00840390  0.00927834  0.35870299  1
  Cu  Cu13  1  0.66491780  0.34196680  0.68329016  1
  Cu  Cu14  1  0.66699477  0.33429434  0.17066547  1
  C  C15  1  0.99969995  0.99895100  0.85687597  1
  C  C16  1  0.99475724  0.99503557  0.64353635  1
  C  C17  1  0.00186518  0.00142081  0.14481310  1
  C  C18  1  0.66734268  0.33208143  0.98413863  1
  C  C19  1  0.66664039  0.32679791  0.48551904  1
  C  C20  1  0.33272565  0.66652473  0.01571819  1
  C  C21  1  0.33109258  0.66681245  0.52044409  1
  C  C22  1  0.33104098  0.66692412  0.31687994  1
  C  C23  1  0.33902785  0.66559780  0.81673718  1
  C  C24  1  0.29154531  0.99378009  0.24909794  1
  C  C25  1  0.70280825  0.70941957  0.25166584  1
  C  C26  1  0.00581872  0.29716895  0.24937277  1
  C  C27  1  0.27587408  0.28500424  0.75277801  1
  C  C28  1  0.00789797  0.72121899  0.75303297  1
  C  C29  1  0.71253178  0.98633947  0.75246077  1
  C  C30  1  0.96798679  0.33302525  0.58457129  1
  C  C31  1  0.36558638  0.03267343  0.58454017  1
  C  C32  1  0.66639302  0.63474668  0.58094546  1
  C  C33  1  0.97210741  0.63824654  0.08127556  1
  C  C34  1  0.66534988  0.02662941  0.08144657  1
  C  C35  1  0.36183549  0.33434894  0.08132804  1
  C  C36  1  0.62351592  0.66397905  0.91741681  1
  C  C37  1  0.04164575  0.37814340  0.91600224  1
  C  C38  1  0.33715707  0.95886850  0.91615185  1
  C  C39  1  0.60917850  0.95884874  0.41962764  1
  C  C40  1  0.34519271  0.38618645  0.42041627  1
  C  C41  1  0.03825148  0.65023031  0.41994258  1
  C  C42  1  0.21727087  0.02718757  0.30440448  1
  C  C43  1  0.80170011  0.77848864  0.30971642  1
  C  C44  1  0.96973269  0.18834619  0.30444727  1
  C  C45  1  0.17772463  0.17381662  0.80835574  1
  C  C46  1  0.99537180  0.81890129  0.80864551  1
  C  C47  1  0.82517155  0.00482465  0.80773427  1
  C  C48  1  0.80179553  0.96986471  0.69465002  1
  C  C49  1  0.16446572  0.19853710  0.69584047  1
  C  C50  1  0.02842150  0.83144525  0.69582797  1
  C  C51  1  0.80383354  0.83250370  0.19724564  1
  C  C52  1  0.03090425  0.20097810  0.19359858  1
  C  C53  1  0.17153006  0.97042191  0.19328741  1
  C  C54  1  0.91005764  0.37111851  0.64380244  1
  C  C55  1  0.46205940  0.08908941  0.64368344  1
  C  C56  1  0.62356472  0.53068063  0.63779469  1
  C  C57  1  0.92298706  0.54766773  0.14184655  1
  C  C58  1  0.62431132  0.07732384  0.14189909  1
  C  C59  1  0.45189643  0.37545675  0.14203214  1
  C  C60  1  0.47352209  0.31018265  0.03126995  1
  C  C61  1  0.83685735  0.52640518  0.03120352  1
  C  C62  1  0.68990458  0.16235409  0.03116998  1
  C  C63  1  0.47327621  0.16541325  0.53271102  1
  C  C64  1  0.69532547  0.53892058  0.52618816  1
  C  C65  1  0.83542185  0.30875415  0.53267481  1
  C  C66  1  0.53281143  0.69195353  0.97077850  1
  C  C67  1  0.16213810  0.47068289  0.96894268  1
  C  C68  1  0.30943250  0.83881305  0.96917659  1
  C  C69  1  0.50571194  0.84330541  0.47172362  1
  C  C70  1  0.33953104  0.49388949  0.47269046  1
  C  C71  1  0.15312928  0.66372445  0.47236576  1
  C  C72  1  0.13056100  0.63842594  0.35996256  1
  C  C73  1  0.50360605  0.86999265  0.35952900  1
  C  C74  1  0.36317085  0.49547860  0.36069692  1
  C  C75  1  0.12977974  0.49230822  0.85852421  1
  C  C76  1  0.36286466  0.87000146  0.85867411  1
  C  C77  1  0.50367723  0.63832035  0.86114928  1
  C  C78  1  0.01085434  0.80661202  0.42060609  1
  C  C79  1  0.78484524  0.96773393  0.41958996  1
  C  C80  1  0.18602583  0.20887758  0.42232834  1
  C  C81  1  0.02191546  0.19418885  0.90958796  1
  C  C82  1  0.17243425  0.97806835  0.90968066  1
  C  C83  1  0.80543535  0.82788824  0.90966474  1
  C  C84  1  0.97741408  0.16191439  0.58743478  1
  C  C85  1  0.18490783  0.02290104  0.58816812  1
  C  C86  1  0.83761294  0.81565544  0.58762659  1
  C  C87  1  0.98034316  0.81783599  0.08543355  1
  C  C88  1  0.83633241  0.01778065  0.08560216  1
  C  C89  1  0.18232652  0.16328283  0.08537908  1
  C  C90  1  0.69325758  0.14948042  0.75137119  1
  C  C91  1  0.45295817  0.29619481  0.75259352  1
  C  C92  1  0.85301990  0.53720521  0.75304893  1
  C  C93  1  0.67076544  0.52390609  0.24306046  1
  C  C94  1  0.85431453  0.33271386  0.24152497  1
  C  C95  1  0.47799808  0.14532994  0.24166585  1
  C  C96  1  0.63983242  0.49913652  0.92404641  1
  C  C97  1  0.85981134  0.36096019  0.92421225  1
  C  C98  1  0.50104096  0.14040211  0.92416748  1
  C  C99  1  0.62395845  0.14029797  0.42467434  1
  C  C100  1  0.51754878  0.37901564  0.42298933  1
  C  C101  1  0.85765010  0.48083725  0.42332494  1
  C  C102  1  0.33587263  0.48971404  0.06602794  1
  C  C103  1  0.15319094  0.66359721  0.06589220  1
  C  C104  1  0.50948994  0.84662822  0.06609353  1
  C  C105  1  0.33484796  0.84920674  0.57021845  1
  C  C106  1  0.51527499  0.67103017  0.56934409  1
  C  C107  1  0.15096445  0.48615656  0.57052499  1
  C  C108  1  0.29633475  0.81811126  0.25400732  1
  C  C109  1  0.52131672  0.70256330  0.25489597  1
  C  C110  1  0.18079576  0.47714533  0.25479445  1
  C  C111  1  0.28921505  0.46790572  0.75843418  1
  C  C112  1  0.18034411  0.71041720  0.75702213  1
  C  C113  1  0.52767272  0.82151969  0.75764561  1
