# generated using pymatgen
data_Cu5NiC33
_symmetry_space_group_name_H-M   'P 1'
_cell_length_a   8.96452620
_cell_length_b   8.94249300
_cell_length_c   22.39160926
_cell_angle_alpha   89.93139082
_cell_angle_beta   89.91476224
_cell_angle_gamma   120.12455193
_symmetry_Int_Tables_number   1
_chemical_formula_structural   Cu5NiC33
_chemical_formula_sum   'Cu15 Ni3 C99'
_cell_volume   1552.57958850
_cell_formula_units_Z   3
loop_
 _symmetry_equiv_pos_site_id
 _symmetry_equiv_pos_as_xyz
  1  'x, y, z'
loop_
 _atom_site_type_symbol
 _atom_site_label
 _atom_site_symmetry_multiplicity
 _atom_site_fract_x
 _atom_site_fract_y
 _atom_site_fract_z
 _atom_site_occupancy
  C  C0  1  0.99287572  0.62830746  0.24385270  1
  C  C1  1  0.63515903  0.62543492  0.74579529  1
  C  C2  1  0.99040774  0.36436949  0.74559587  1
  C  C3  1  0.37255802  0.00849275  0.74664117  1
  C  C4  1  0.31094896  0.97154816  0.08445941  1
  C  C5  1  0.66774361  0.69468486  0.08445790  1
  C  C6  1  0.96810122  0.29366770  0.41231558  1
  C  C7  1  0.32445115  0.03174410  0.41160996  1
  C  C8  1  0.70589958  0.67488654  0.41299048  1
  C  C9  1  0.99895123  0.99944945  0.50022957  1
  C  C10  1  0.99950330  0.01022318  0.99575673  1
  C  C11  1  0.66621385  0.33395924  0.83391364  1
  C  C12  1  0.65159549  0.32003350  0.32264208  1
  C  C13  1  0.33478804  0.65750601  0.16572474  1
  C  C14  1  0.33262841  0.66524438  0.66376851  1
  C  C15  1  0.00028212  0.99928146  0.85493054  1
  C  C16  1  0.99649522  0.99979321  0.64308956  1
  C  C17  1  0.00388034  0.00399665  0.14600232  1
  C  C18  1  0.66697065  0.33173695  0.97775690  1
  C  C19  1  0.67113583  0.33619953  0.48087733  1
  C  C20  1  0.32759914  0.66181959  0.02231828  1
  C  C21  1  0.33351309  0.66195343  0.52291253  1
  C  C22  1  0.33771672  0.67193301  0.31013405  1
  C  C23  1  0.33353434  0.66608616  0.81331237  1
  Ni  Ni24  1  0.00587061  0.00281893  0.35219866  1
  Ni  Ni25  1  0.66947707  0.33775218  0.68790359  1
  Ni  Ni26  1  0.65275841  0.32242367  0.18481079  1
  Cu  Cu27  1  0.29864592  0.01693761  0.25279000  1
  Cu  Cu28  1  0.29527937  0.28854381  0.74759709  1
  Cu  Cu29  1  0.99525300  0.70565466  0.74800642  1
  Cu  Cu30  1  0.71019086  0.00634414  0.74840112  1
  Cu  Cu31  1  0.95153171  0.33506998  0.58795174  1
  Cu  Cu32  1  0.66623631  0.61750482  0.58790272  1
  Cu  Cu33  1  0.94590422  0.60748550  0.09000343  1
  Cu  Cu34  1  0.66913622  0.05277826  0.08679844  1
  Cu  Cu35  1  0.38740623  0.33633176  0.08692228  1
  Cu  Cu36  1  0.62397768  0.66680573  0.91773048  1
  Cu  Cu37  1  0.04048657  0.37396341  0.91624961  1
  Cu  Cu38  1  0.33321975  0.95839222  0.91709571  1
  Cu  Cu39  1  0.62941211  0.95603671  0.41546981  1
  Cu  Cu40  1  0.32704314  0.37122014  0.41482341  1
  Cu  Cu41  1  0.04601492  0.67332570  0.41505066  1
  C  C42  1  0.71614074  0.71149794  0.25275252  1
  C  C43  1  0.99321681  0.28239021  0.25393765  1
  C  C44  1  0.38301496  0.04829217  0.58630852  1
  C  C45  1  0.19778387  0.02593846  0.31147734  1
  C  C46  1  0.82766720  0.80474079  0.30760194  1
  C  C47  1  0.97709496  0.17677852  0.30984211  1
  C  C48  1  0.20062142  0.16256317  0.80560598  1
  C  C49  1  0.96297866  0.80046463  0.80566433  1
  C  C50  1  0.83813589  0.04046049  0.80548395  1
  C  C51  1  0.80124153  0.96282483  0.69200078  1
  C  C52  1  0.16185312  0.19894074  0.69161671  1
  C  C53  1  0.03848656  0.83963879  0.69193189  1
  C  C54  1  0.79749724  0.82202874  0.19491424  1
  C  C55  1  0.01755461  0.19089639  0.19793186  1
  C  C56  1  0.16895412  0.97396428  0.19371781  1
  C  C57  1  0.85867683  0.35632588  0.64575285  1
  C  C58  1  0.49075459  0.13441153  0.64205590  1
  C  C59  1  0.63959064  0.50212034  0.64601290  1
  C  C60  1  0.85911116  0.49900190  0.14961045  1
  C  C61  1  0.62676234  0.13734319  0.14206184  1
  C  C62  1  0.51092411  0.37638641  0.14295851  1
  C  C63  1  0.46453312  0.29272227  0.02691479  1
  C  C64  1  0.82497466  0.52798980  0.03021025  1
  C  C65  1  0.69937549  0.16679775  0.02569692  1
  C  C66  1  0.47012437  0.15657135  0.52805947  1
  C  C67  1  0.68709572  0.52584654  0.52569176  1
  C  C68  1  0.83804538  0.30908277  0.52560045  1
  C  C69  1  0.53037260  0.69130904  0.97704081  1
  C  C70  1  0.16456509  0.47451077  0.97383544  1
  C  C71  1  0.30938807  0.84118790  0.97684370  1
  C  C72  1  0.53500280  0.82771893  0.47256095  1
  C  C73  1  0.29561516  0.46674214  0.47291850  1
  C  C74  1  0.17464361  0.70623029  0.47162347  1
  C  C75  1  0.13025919  0.62814834  0.35677763  1
  C  C76  1  0.49485162  0.86444895  0.35864256  1
  C  C77  1  0.37065480  0.50700256  0.35913132  1
  C  C78  1  0.13365167  0.49136828  0.85598555  1
  C  C79  1  0.35705163  0.86370952  0.85714485  1
  C  C80  1  0.50591539  0.64263353  0.85762932  1
  C  C81  1  0.01891140  0.83796077  0.40771507  1
  C  C82  1  0.81714815  0.97708270  0.40566883  1
  C  C83  1  0.15632632  0.18337154  0.40856827  1
  C  C84  1  0.02763078  0.18742718  0.91146606  1
  C  C85  1  0.15944150  0.97142700  0.91114334  1
  C  C86  1  0.81156158  0.84040161  0.91109109  1
  C  C87  1  0.97587701  0.16453177  0.58812986  1
  C  C88  1  0.20267475  0.03159316  0.58788452  1
  C  C89  1  0.84162050  0.80918831  0.58790676  1
  C  C90  1  0.97076864  0.80737274  0.09354391  1
  C  C91  1  0.83303865  0.01726595  0.09187716  1
  C  C92  1  0.19244477  0.16176973  0.09245654  1
  C  C93  1  0.68572847  0.17230445  0.74138288  1
  C  C94  1  0.48345943  0.30684472  0.74188262  1
  C  C95  1  0.82570808  0.51581712  0.74379156  1
  C  C96  1  0.70308025  0.53465723  0.24782227  1
  C  C97  1  0.84036223  0.31223677  0.24770430  1
  C  C98  1  0.48764378  0.18166137  0.24327908  1
  C  C99  1  0.63912564  0.49411766  0.92189044  1
  C  C100  1  0.85521509  0.36277882  0.92129958  1
  C  C101  1  0.50643277  0.14640513  0.92053951  1
  C  C102  1  0.64089418  0.14473072  0.42169962  1
  C  C103  1  0.49939920  0.35274541  0.42260556  1
  C  C104  1  0.85456907  0.49666334  0.42213930  1
  C  C105  1  0.36505391  0.50719715  0.07933354  1
  C  C106  1  0.14632705  0.64830333  0.08156788  1
  C  C107  1  0.49808248  0.85540582  0.07911505  1
  C  C108  1  0.36467462  0.86735329  0.57846086  1
  C  C109  1  0.49642791  0.64174171  0.57799153  1
  C  C110  1  0.14322563  0.50913596  0.57802211  1
  C  C111  1  0.30238913  0.82836884  0.25595441  1
  C  C112  1  0.53244626  0.69339888  0.25616193  1
  C  C113  1  0.16295028  0.46740234  0.25532705  1
  C  C114  1  0.31161996  0.48024242  0.75366747  1
  C  C115  1  0.17082329  0.69043792  0.75371105  1
  C  C116  1  0.51997161  0.82925305  0.75352467  1
