# generated using pymatgen
data_Cu4NiC20
_symmetry_space_group_name_H-M   'P 1'
_cell_length_a   7.04657416
_cell_length_b   7.79344415
_cell_length_c   7.54070722
_cell_angle_alpha   90.37262829
_cell_angle_beta   88.49206663
_cell_angle_gamma   97.30883962
_symmetry_Int_Tables_number   1
_chemical_formula_structural   Cu4NiC20
_chemical_formula_sum   'Cu4 Ni1 C20'
_cell_volume   410.60456728
_cell_formula_units_Z   1
loop_
 _symmetry_equiv_pos_site_id
 _symmetry_equiv_pos_as_xyz
  1  'x, y, z'
loop_
 _atom_site_type_symbol
 _atom_site_label
 _atom_site_symmetry_multiplicity
 _atom_site_fract_x
 _atom_site_fract_y
 _atom_site_fract_z
 _atom_site_occupancy
  Ni  Ni0  1  0.14243300  0.98064600  0.10302400  1
  Cu  Cu1  1  0.38375700  0.71699300  0.34831400  1
  Cu  Cu2  1  0.86918900  0.19552500  0.14667500  1
  Cu  Cu3  1  0.09795600  0.74886200  0.82799200  1
  Cu  Cu4  1  0.62234800  0.30338200  0.65801500  1
  C  C5  1  0.87991600  0.68175200  0.37454100  1
  C  C6  1  0.61570700  0.84352500  0.87316800  1
  C  C7  1  0.09660500  0.28751400  0.67414900  1
  C  C8  1  0.47024400  0.33009800  0.15132400  1
  C  C9  1  0.29370400  0.89787400  0.29973700  1
  C  C10  1  0.16789800  0.54980500  0.82279400  1
  C  C11  1  0.70718100  0.11979800  0.70112300  1
  C  C12  1  0.80037200  0.39533300  0.20177600  1
  C  C13  1  0.20178200  0.56278600  0.39475000  1
  C  C14  1  0.29411500  0.90648100  0.88972500  1
  C  C15  1  0.81659400  0.44187100  0.59324800  1
  C  C16  1  0.65449400  0.07815900  0.08504100  1
  C  C17  1  0.05152100  0.19830500  0.98163800  1
  C  C18  1  0.45812500  0.27773400  0.50309000  1
  C  C19  1  0.95370600  0.78106000  0.02000000  1
  C  C20  1  0.53561500  0.74487500  0.51294400  1
  C  C21  1  0.96508700  0.08020700  0.30301400  1
  C  C22  1  0.52115000  0.37844300  0.84027800  1
  C  C23  1  0.98346800  0.82040400  0.65524200  1
  C  C24  1  0.50962400  0.65078900  0.17172900  1
