# generated using pymatgen
data_Cu2NiC4
_symmetry_space_group_name_H-M   'P 1'
_cell_length_a   2.91667388
_cell_length_b   5.39009928
_cell_length_c   5.39009928
_cell_angle_alpha   106.25728061
_cell_angle_beta   90.00000000
_cell_angle_gamma   90.00000000
_symmetry_Int_Tables_number   1
_chemical_formula_structural   Cu2NiC4
_chemical_formula_sum   'Cu2 Ni1 C4'
_cell_volume   81.35028860
_cell_formula_units_Z   1
loop_
 _symmetry_equiv_pos_site_id
 _symmetry_equiv_pos_as_xyz
  1  'x, y, z'
loop_
 _atom_site_type_symbol
 _atom_site_label
 _atom_site_symmetry_multiplicity
 _atom_site_fract_x
 _atom_site_fract_y
 _atom_site_fract_z
 _atom_site_occupancy
  Ni  Ni0  1  0.00000000  0.69955544  0.30044456  1
  Cu  Cu1  1  0.50000000  0.41076438  0.58923562  1
  Cu  Cu2  1  0.00000000  0.02537905  0.97462095  1
  C  C3  1  0.50000000  0.19331347  0.80668653  1
  C  C4  1  0.50000000  0.84695040  0.15304960  1
  C  C5  1  0.00000000  0.32154790  0.30306665  1
  C  C6  1  0.00000000  0.69693335  0.67845210  1
