# generated using pymatgen
data_CuNi2C15
_symmetry_space_group_name_H-M   'P 1'
_cell_length_a   9.00209699
_cell_length_b   9.00628142
_cell_length_c   23.53922061
_cell_angle_alpha   89.74359499
_cell_angle_beta   90.00000000
_cell_angle_gamma   119.98463196
_symmetry_Int_Tables_number   1
_chemical_formula_structural   CuNi2C15
_chemical_formula_sum   'Cu6 Ni12 C90'
_cell_volume   1653.00188547
_cell_formula_units_Z   6
loop_
 _symmetry_equiv_pos_site_id
 _symmetry_equiv_pos_as_xyz
  1  'x, y, z'
loop_
 _atom_site_type_symbol
 _atom_site_label
 _atom_site_symmetry_multiplicity
 _atom_site_fract_x
 _atom_site_fract_y
 _atom_site_fract_z
 _atom_site_occupancy
  C  C0  1  0.97773502  0.98772307  0.50075950  1
  C  C1  1  0.00998805  0.98772307  0.00075950  1
  C  C2  1  0.64440202  0.32105607  0.83409250  1
  C  C3  1  0.67665505  0.32105607  0.33409250  1
  C  C4  1  0.31106802  0.65439007  0.16742650  1
  C  C5  1  0.34332105  0.65439007  0.66742650  1
  C  C6  1  0.99354963  0.00404946  0.64635657  1
  C  C7  1  0.01049983  0.00404946  0.14635657  1
  C  C8  1  0.66021663  0.33738246  0.97968957  1
  C  C9  1  0.67716683  0.33738246  0.47968957  1
  C  C10  1  0.32688263  0.67071646  0.31302357  1
  C  C11  1  0.34383283  0.67071646  0.81302357  1
  C  C12  1  0.00186859  0.00300498  0.35184465  1
  C  C13  1  0.00113639  0.00300498  0.85184465  1
  C  C14  1  0.66853559  0.33633798  0.68517765  1
  C  C15  1  0.66780339  0.33633798  0.18517765  1
  C  C16  1  0.33520159  0.66967198  0.01851165  1
  C  C17  1  0.33446939  0.66967198  0.51851165  1
  Ni  Ni18  1  0.30121561  0.01292334  0.25018054  1
  Ni  Ni19  1  0.98948957  0.28770074  0.24933089  1
  Ni  Ni20  1  0.29821116  0.28770074  0.74933089  1
  Ni  Ni21  1  0.71170773  0.01292334  0.75018054  1
  Ni  Ni22  1  0.96788261  0.34625634  0.58351354  1
  Ni  Ni23  1  0.65615657  0.62103374  0.58266389  1
  Ni  Ni24  1  0.96487816  0.62103374  0.08266389  1
  Ni  Ni25  1  0.37837473  0.34625634  0.08351354  1
  Ni  Ni26  1  0.63454861  0.67959034  0.91684754  1
  Ni  Ni27  1  0.32282257  0.95436774  0.91599789  1
  Ni  Ni28  1  0.63154416  0.95436774  0.41599789  1
  Ni  Ni29  1  0.04504073  0.67959034  0.41684754  1
  Cu  Cu30  1  0.71225573  0.70256615  0.25032085  1
  Cu  Cu31  1  0.99031042  0.70256615  0.75032085  1
  Cu  Cu32  1  0.37892273  0.03589915  0.58365385  1
  Cu  Cu33  1  0.65697742  0.03589915  0.08365385  1
  Cu  Cu34  1  0.04558873  0.36923315  0.91698785  1
  Cu  Cu35  1  0.32364342  0.36923315  0.41698785  1
  C  C36  1  0.20475149  0.02911377  0.30361243  1
  C  C37  1  0.81958705  0.78955007  0.30160688  1
  C  C38  1  0.96947493  0.17435291  0.30343019  1
  C  C39  1  0.20487798  0.17435291  0.80343019  1
  C  C40  1  0.96996302  0.78955007  0.80160688  1
  C  C41  1  0.82436227  0.02911377  0.80361243  1
  C  C42  1  0.79033862  0.98411123  0.69731027  1
  C  C43  1  0.19565812  0.20206054  0.69643640  1
  C  C44  1  0.01580312  0.80347915  0.69882080  1
  C  C45  1  0.78767603  0.80347915  0.19882080  1
  C  C46  1  0.00640242  0.20206054  0.19643640  1
  C  C47  1  0.19377261  0.98411123  0.19731027  1
  C  C48  1  0.87141849  0.36244677  0.63694543  1
  C  C49  1  0.48625405  0.12288307  0.63493988  1
  C  C50  1  0.63614193  0.50768591  0.63676319  1
  C  C51  1  0.87154498  0.50768591  0.13676319  1
  C  C52  1  0.63663002  0.12288307  0.13493988  1
  C  C53  1  0.49102927  0.36244677  0.13694543  1
  C  C54  1  0.45700562  0.31744423  0.03064327  1
  C  C55  1  0.86232512  0.53539354  0.02976940  1
  C  C56  1  0.68247012  0.13681215  0.03215380  1
  C  C57  1  0.45434303  0.13681215  0.53215380  1
  C  C58  1  0.67306942  0.53539354  0.52976940  1
  C  C59  1  0.86043961  0.31744423  0.53064327  1
  C  C60  1  0.53808449  0.69578077  0.97027943  1
  C  C61  1  0.15292005  0.45621707  0.96827388  1
  C  C62  1  0.30280793  0.84101991  0.97009719  1
  C  C63  1  0.53821098  0.84101991  0.47009719  1
  C  C64  1  0.30329602  0.45621707  0.46827388  1
  C  C65  1  0.15769527  0.69578077  0.47027943  1
  C  C66  1  0.12367162  0.65077823  0.36397727  1
  C  C67  1  0.52899112  0.86872754  0.36310340  1
  C  C68  1  0.34913612  0.47014615  0.36548780  1
  C  C69  1  0.12100903  0.47014615  0.86548780  1
  C  C70  1  0.33973542  0.86872754  0.86310340  1
  C  C71  1  0.52710561  0.65077823  0.86397727  1
  C  C72  1  0.03817594  0.84930623  0.41085896  1
  C  C73  1  0.81296068  0.96972263  0.41088952  1
  C  C74  1  0.16144320  0.19904578  0.41242595  1
  C  C75  1  0.03760258  0.19904578  0.91242595  1
  C  C76  1  0.15676195  0.96972263  0.91088952  1
  C  C77  1  0.81113029  0.84930623  0.91085896  1
  C  C78  1  -0.00025278  0.19472881  0.58809623  1
  C  C79  1  0.20441508  0.00645976  0.58989482  1
  C  C80  1  0.81417099  0.80010138  0.58782457  1
  C  C81  1  0.98593039  0.80010138  0.08782457  1
  C  C82  1  0.80204468  0.00645976  0.08989482  1
  C  C83  1  0.19498159  0.19472881  0.08809623  1
  C  C84  1  0.70484294  0.18263923  0.74419196  1
  C  C85  1  0.47962768  0.30305563  0.74422252  1
  C  C86  1  0.82811020  0.53237878  0.74575895  1
  C  C87  1  0.70426958  0.53237878  0.24575895  1
  C  C88  1  0.82342895  0.30305563  0.24422252  1
  C  C89  1  0.47779729  0.18263923  0.24419196  1
  C  C90  1  0.66641422  0.52806181  0.92142923  1
  C  C91  1  0.87108208  0.33979276  0.92322782  1
  C  C92  1  0.48083799  0.13343438  0.92115757  1
  C  C93  1  0.65259739  0.13343438  0.42115757  1
  C  C94  1  0.46871168  0.33979276  0.42322782  1
  C  C95  1  0.86164859  0.52806181  0.42142923  1
  C  C96  1  0.37150894  0.51597323  0.07752596  1
  C  C97  1  0.14629368  0.63638963  0.07755652  1
  C  C98  1  0.49477620  0.86571278  0.07909295  1
  C  C99  1  0.37093558  0.86571278  0.57909295  1
  C  C100  1  0.49009495  0.63638963  0.57755652  1
  C  C101  1  0.14446329  0.51597323  0.57752596  1
  C  C102  1  0.33308022  0.86139581  0.25476323  1
  C  C103  1  0.53774808  0.67312676  0.25656182  1
  C  C104  1  0.14750399  0.46676838  0.25449157  1
  C  C105  1  0.31926339  0.46676838  0.75449157  1
  C  C106  1  0.13537768  0.67312676  0.75656182  1
  C  C107  1  0.52831459  0.86139581  0.75476323  1
