# generated using pymatgen
data_Cu(NiC19)2
_symmetry_space_group_name_H-M   'P 1'
_cell_length_a   9.12404383
_cell_length_b   9.11057231
_cell_length_c   22.44795169
_cell_angle_alpha   90.12536160
_cell_angle_beta   89.70088138
_cell_angle_gamma   119.82725778
_symmetry_Int_Tables_number   1
_chemical_formula_structural   Cu(NiC19)2
_chemical_formula_sum   'Cu3 Ni6 C114'
_cell_volume   1618.77966081
_cell_formula_units_Z   3
loop_
 _symmetry_equiv_pos_site_id
 _symmetry_equiv_pos_as_xyz
  1  'x, y, z'
loop_
 _atom_site_type_symbol
 _atom_site_label
 _atom_site_symmetry_multiplicity
 _atom_site_fract_x
 _atom_site_fract_y
 _atom_site_fract_z
 _atom_site_occupancy
  C  C0  1  0.36822165  0.37186855  0.25264537  1
  C  C1  1  0.00251712  0.63073136  0.24991596  1
  C  C2  1  0.63651543  0.64610968  0.75084305  1
  C  C3  1  0.99704982  0.35899963  0.75537368  1
  C  C4  1  0.36318619  0.99321966  0.75069740  1
  C  C5  1  0.30513060  0.33029693  0.57805806  1
  C  C6  1  0.03523576  0.69630103  0.57913524  1
  C  C7  1  0.65680845  0.96718863  0.58417941  1
  C  C8  1  0.30452664  0.97057019  0.08380645  1
  C  C9  1  0.67221103  0.69576547  0.08264374  1
  C  C10  1  0.02968994  0.33952567  0.08528785  1
  C  C11  1  0.96284309  0.66608634  0.91961416  1
  C  C12  1  0.70386792  0.03580853  0.91449912  1
  C  C13  1  0.96544362  0.29510005  0.41306999  1
  C  C14  1  0.33169217  0.03581465  0.41675732  1
  C  C15  1  0.99381150  0.98706213  0.49666268  1
  C  C16  1  0.01073354  0.00747332  0.00506849  1
  C  C17  1  0.65495417  0.32808714  0.83264703  1
  C  C18  1  0.66656883  0.33286662  0.33208442  1
  C  C19  1  0.34058193  0.67829779  0.16760372  1
  C  C20  1  0.33982574  0.67574871  0.66637351  1
  C  C21  1  0.00644760  0.00808516  0.85457722  1
  C  C22  1  0.99878133  0.00002781  0.65351396  1
  C  C23  1  0.66276871  0.32450270  0.67869419  1
  C  C24  1  0.67037030  0.32763089  0.18492606  1
  C  C25  1  0.66238412  0.33756792  0.98411584  1
  C  C26  1  0.66427359  0.33963925  0.47740295  1
  Ni  Ni27  1  0.98944679  0.99186695  0.34978145  1
  Ni  Ni28  1  0.99545371  0.99225373  0.15386032  1
  Ni  Ni29  1  0.32909783  0.66432684  0.01756593  1
  Ni  Ni30  1  0.33944197  0.67338053  0.51172766  1
  Ni  Ni31  1  0.34462332  0.67547695  0.31593974  1
  Ni  Ni32  1  0.33751763  0.66799567  0.81819036  1
  Cu  Cu33  1  0.68459936  0.99230593  0.75419566  1
  Cu  Cu34  1  0.35807737  0.01661115  0.57802031  1
  Cu  Cu35  1  0.97986384  0.64721401  0.08428144  1
  C  C36  1  0.28058688  0.99253077  0.25422863  1
  C  C37  1  0.70679254  0.71770656  0.25211765  1
  C  C38  1  0.00720809  0.28793695  0.25331881  1
  C  C39  1  0.30514508  0.31377117  0.75094547  1
  C  C40  1  0.00632934  0.69389170  0.75382601  1
  C  C41  1  0.97974081  0.34266011  0.57832018  1
  C  C42  1  0.65839925  0.63728148  0.58184223  1
  C  C43  1  0.66800396  0.02323711  0.08131325  1
  C  C44  1  0.35557202  0.33226658  0.08697440  1
  C  C45  1  0.61279787  0.66367410  0.91753588  1
  C  C46  1  0.05241568  0.38671093  0.91820561  1
  C  C47  1  0.33515718  0.94735293  0.91800302  1
  C  C48  1  0.62814758  0.94820122  0.41336075  1
  C  C49  1  0.32439715  0.37772249  0.41214126  1
  C  C50  1  0.05446330  0.67590426  0.41132953  1
  C  C51  1  0.19512616  0.02085118  0.30972468  1
  C  C52  1  0.82585977  0.80336434  0.30494260  1
  C  C53  1  0.98607204  0.18307508  0.31003170  1
  C  C54  1  0.21911510  0.18752483  0.80147184  1
  C  C55  1  0.97821260  0.77889505  0.80830337  1
  C  C56  1  0.80938262  0.02762936  0.81047739  1
  C  C57  1  0.76406737  0.95885522  0.69353025  1
  C  C58  1  0.20409504  0.24137137  0.69265774  1
  C  C59  1  0.03821034  0.80342713  0.69735711  1
  C  C60  1  0.78420788  0.81626669  0.19328265  1
  C  C61  1  0.02670586  0.20014831  0.19660503  1
  C  C62  1  0.17295553  0.96526762  0.19720420  1
  C  C63  1  0.90481203  0.37573925  0.63564896  1
  C  C64  1  0.47061724  0.09388007  0.63873652  1
  C  C65  1  0.63052008  0.53791482  0.64055968  1
  C  C66  1  0.89718740  0.51929644  0.14118605  1
  C  C67  1  0.62298075  0.10533826  0.13306683  1
  C  C68  1  0.46810747  0.36895775  0.14255118  1
  C  C69  1  0.43559964  0.28815049  0.03424896  1
  C  C70  1  0.85562161  0.56882495  0.02641662  1
  C  C71  1  0.70452045  0.13338013  0.02480868  1
  C  C72  1  0.44756234  0.14447588  0.52222657  1
  C  C73  1  0.69679746  0.54890841  0.53135270  1
  C  C74  1  0.86422535  0.31350823  0.52494859  1
  C  C75  1  0.52420212  0.67876658  0.97410780  1
  C  C76  1  0.14997085  0.47282952  0.97536406  1
  C  C77  1  0.32080733  0.84569368  0.97478132  1
  C  C78  1  0.55076929  0.85021912  0.47223798  1
  C  C79  1  0.30509403  0.46444754  0.46934553  1
  C  C80  1  0.16076883  0.70201081  0.46868334  1
  C  C81  1  0.14103701  0.64869273  0.35606961  1
  C  C82  1  0.50832895  0.86213676  0.36083761  1
  C  C83  1  0.34492592  0.48365143  0.35592465  1
  C  C84  1  0.13886672  0.48872855  0.86097011  1
  C  C85  1  0.34990753  0.86140061  0.86047777  1
  C  C86  1  0.51650290  0.65166170  0.85979398  1
  C  C87  1  0.03774441  0.83856794  0.40766981  1
  C  C88  1  0.81062354  0.97379114  0.40792038  1
  C  C89  1  0.16074751  0.19777809  0.41108455  1
  C  C90  1  0.02446770  0.20511051  0.91855985  1
  C  C91  1  0.17248807  0.96010543  0.91798508  1
  C  C92  1  0.79185525  0.82572938  0.91800345  1
  C  C93  1  0.99513824  0.18209831  0.58419435  1
  C  C94  1  0.16929687  0.99408392  0.58306925  1
  C  C95  1  0.81233458  0.81751640  0.58475350  1
  C  C96  1  0.99666739  0.83551004  0.09399235  1
  C  C97  1  0.83122187  0.01358663  0.09228523  1
  C  C98  1  0.17578711  0.17626330  0.09464230  1
  C  C99  1  0.66578720  0.16173279  0.75078945  1
  C  C100  1  0.48638557  0.34277861  0.74684506  1
  C  C101  1  0.84631417  0.51870808  0.74790204  1
  C  C102  1  0.68766126  0.53690155  0.24892564  1
  C  C103  1  0.85327174  0.31698090  0.25100480  1
  C  C104  1  0.45516582  0.15566745  0.24993228  1
  C  C105  1  0.64086913  0.50934660  0.91755579  1
  C  C106  1  0.87342313  0.37096184  0.91822347  1
  C  C107  1  0.49753069  0.12322941  0.91877478  1
  C  C108  1  0.64898529  0.12950064  0.41562160  1
  C  C109  1  0.47769415  0.34850043  0.41346045  1
  C  C110  1  0.88014595  0.51302099  0.41442085  1
  C  C111  1  0.34329695  0.49456664  0.07672364  1
  C  C112  1  0.16902930  0.66613822  0.07619928  1
  C  C113  1  0.51312437  0.84234986  0.07504603  1
  C  C114  1  0.34709958  0.83130107  0.57106515  1
  C  C115  1  0.49300227  0.64324055  0.57236370  1
  C  C116  1  0.15721227  0.50074444  0.57099523  1
  C  C117  1  0.29706117  0.82973583  0.25821089  1
  C  C118  1  0.52407535  0.69148004  0.25793296  1
  C  C119  1  0.17074927  0.46810659  0.25478234  1
  C  C120  1  0.31121642  0.48530809  0.75983435  1
  C  C121  1  0.16449493  0.67331527  0.75928173  1
  C  C122  1  0.49790252  0.82026320  0.75945833  1
