# generated using pymatgen
data_Cu5NiC28
_symmetry_space_group_name_H-M   'P 1'
_cell_length_a   9.10420021
_cell_length_b   9.12874253
_cell_length_c   23.50729819
_cell_angle_alpha   90.16208514
_cell_angle_beta   90.09058254
_cell_angle_gamma   119.92232859
_symmetry_Int_Tables_number   1
_chemical_formula_structural   Cu5NiC28
_chemical_formula_sum   'Cu15 Ni3 C84'
_cell_volume   1693.25028340
_cell_formula_units_Z   3
loop_
 _symmetry_equiv_pos_site_id
 _symmetry_equiv_pos_as_xyz
  1  'x, y, z'
loop_
 _atom_site_type_symbol
 _atom_site_label
 _atom_site_symmetry_multiplicity
 _atom_site_fract_x
 _atom_site_fract_y
 _atom_site_fract_z
 _atom_site_occupancy
  C  C0  1  0.99428867  0.00166929  0.36108977  1
  C  C1  1  0.00135956  0.00131541  0.85846764  1
  C  C2  1  0.67783871  0.33659182  0.68516887  1
  C  C3  1  0.65859560  0.33555524  0.18543037  1
  C  C4  1  0.65547880  0.33013483  0.98215231  1
  C  C5  1  0.33186233  0.66527706  0.80767956  1
  C  C6  1  0.99955746  0.00700775  0.64151077  1
  C  C7  1  0.00731999  0.00770240  0.14596067  1
  C  C8  1  0.67596197  0.32397568  0.47786283  1
  C  C9  1  0.33321287  0.66080607  0.02273165  1
  C  C10  1  0.33789124  0.66839479  0.52241745  1
  C  C11  1  0.34055271  0.67486999  0.31342456  1
  Ni  Ni12  1  0.96174938  0.33616009  0.58183294  1
  Ni  Ni13  1  0.36866488  0.33293768  0.08351552  1
  Ni  Ni14  1  0.61192254  0.95216990  0.41844288  1
  Cu  Cu15  1  0.28323107  0.99025957  0.25063799  1
  Cu  Cu16  1  0.70845887  0.71519720  0.25065119  1
  Cu  Cu17  1  0.00706210  0.29214707  0.25010668  1
  Cu  Cu18  1  0.28297585  0.28156579  0.74792858  1
  Cu  Cu19  1  0.99936453  0.71857552  0.74830213  1
  Cu  Cu20  1  0.71698691  0.99889046  0.74831368  1
  Cu  Cu21  1  0.37298809  0.04166830  0.58171073  1
  Cu  Cu22  1  0.66828985  0.62625931  0.58207680  1
  Cu  Cu23  1  0.96684654  0.63448136  0.08365452  1
  Cu  Cu24  1  0.66785525  0.03329227  0.08346631  1
  Cu  Cu25  1  0.61723529  0.66764815  0.91787290  1
  Cu  Cu26  1  0.04884351  0.38410322  0.91815726  1
  Cu  Cu27  1  0.33443433  0.94946451  0.91781319  1
  Cu  Cu28  1  0.34407892  0.39191431  0.41799956  1
  Cu  Cu29  1  0.04901695  0.65880772  0.41776305  1
  C  C30  1  0.20739531  0.01874421  0.30098501  1
  C  C31  1  0.81337010  0.79447063  0.30107095  1
  C  C32  1  0.98048541  0.18743442  0.30035653  1
  C  C33  1  0.20506326  0.18244765  0.79972661  1
  C  C34  1  0.97991594  0.79815705  0.80045623  1
  C  C35  1  0.81815588  0.02305321  0.80010224  1
  C  C36  1  0.80585594  0.97903433  0.69775348  1
  C  C37  1  0.17328503  0.19165438  0.69735031  1
  C  C38  1  0.01893626  0.82424599  0.69769222  1
  C  C39  1  0.78712534  0.82143317  0.19946715  1
  C  C40  1  0.03054650  0.20469069  0.19911237  1
  C  C41  1  0.17348862  0.96577140  0.19946361  1
  C  C42  1  0.88159808  0.36999289  0.63762632  1
  C  C43  1  0.47641628  0.11186136  0.63306005  1
  C  C44  1  0.63201720  0.52183824  0.63316700  1
  C  C45  1  0.89669506  0.52427347  0.13352885  1
  C  C46  1  0.63349456  0.10708505  0.13372491  1
  C  C47  1  0.48715646  0.37080865  0.13880226  1
  C  C48  1  0.44762796  0.29395546  0.02820241  1
  C  C49  1  0.85968018  0.56108002  0.03324531  1
  C  C50  1  0.70736564  0.14225724  0.03348741  1
  C  C51  1  0.45257628  0.15478079  0.53215251  1
  C  C52  1  0.69669341  0.54598588  0.53196227  1
  C  C53  1  0.83216358  0.30400121  0.52744314  1
  C  C54  1  0.52848671  0.68780910  0.96833363  1
  C  C55  1  0.15850258  0.47406369  0.96860539  1
  C  C56  1  0.31459011  0.84378924  0.96842406  1
  C  C57  1  0.51257402  0.83277872  0.47195982  1
  C  C58  1  0.31409867  0.47134624  0.46822528  1
  C  C59  1  0.15472078  0.68147665  0.46802284  1
  C  C60  1  0.12614249  0.62909300  0.36564203  1
  C  C61  1  0.49155213  0.85566164  0.36114299  1
  C  C62  1  0.36355723  0.49532491  0.36588514  1
  C  C63  1  0.12738710  0.48371845  0.86650324  1
  C  C64  1  0.35355061  0.86893825  0.86590524  1
  C  C65  1  0.51550527  0.64358662  0.86624730  1
  C  C66  1  0.03382879  0.80969361  0.41015765  1
  C  C67  1  0.79631690  0.97450160  0.41040049  1
  C  C68  1  0.19625943  0.22325538  0.41013365  1
  C  C69  1  0.03743225  0.21759647  0.91350226  1
  C  C70  1  0.18148463  0.96586742  0.91296746  1
  C  C71  1  0.78377324  0.82269507  0.91340517  1
  C  C72  1  0.98040604  0.16684471  0.59473789  1
  C  C73  1  0.20098462  0.02052432  0.59178463  1
  C  C74  1  0.82058263  0.79647413  0.59275234  1
  C  C75  1  0.98531127  0.80363615  0.09639522  1
  C  C76  1  0.81403486  0.00632958  0.09599983  1
  C  C77  1  0.17941639  0.16928462  0.09879143  1
  C  C78  1  0.69432844  0.14593165  0.74132243  1
  C  C79  1  0.45105774  0.30120964  0.73975803  1
  C  C80  1  0.84779436  0.55069598  0.74268491  1
  C  C81  1  0.68816221  0.54643520  0.24294262  1
  C  C82  1  0.86084024  0.31415021  0.23956460  1
  C  C83  1  0.45432200  0.13240952  0.24110728  1
  C  C84  1  0.63953626  0.52044287  0.92520715  1
  C  C85  1  0.88099690  0.36463206  0.92670468  1
  C  C86  1  0.48645864  0.11684967  0.92380093  1
  C  C87  1  0.62423026  0.13719225  0.42809703  1
  C  C88  1  0.49825098  0.38007677  0.42717661  1
  C  C89  1  0.87728617  0.50891168  0.42601530  1
  C  C90  1  0.34205705  0.49545859  0.06903761  1
  C  C91  1  0.14006937  0.66185754  0.07160688  1
  C  C92  1  0.51743932  0.86401163  0.07127651  1
  C  C93  1  0.34873240  0.87092297  0.57062285  1
  C  C94  1  0.52138346  0.65209899  0.57188994  1
  C  C95  1  0.14717310  0.49283219  0.56613405  1
  C  C96  1  0.29337233  0.83152275  0.25808459  1
  C  C97  1  0.53521174  0.69571027  0.25941537  1
  C  C98  1  0.16235959  0.46020156  0.25831052  1
  C  C99  1  0.29483221  0.44828671  0.75283099  1
  C  C100  1  0.15233988  0.70202006  0.75342999  1
  C  C101  1  0.55023356  0.84394953  0.75297261  1
