# generated using pymatgen
data_CuNiC16
_symmetry_space_group_name_H-M   'P 1'
_cell_length_a   9.14929788
_cell_length_b   9.14929756
_cell_length_c   24.08599330
_cell_angle_alpha   90.00000000
_cell_angle_beta   90.00000000
_cell_angle_gamma   120.00000116
_symmetry_Int_Tables_number   1
_chemical_formula_structural   CuNiC16
_chemical_formula_sum   'Cu6 Ni6 C96'
_cell_volume   1746.10641334
_cell_formula_units_Z   6
loop_
 _symmetry_equiv_pos_site_id
 _symmetry_equiv_pos_as_xyz
  1  'x, y, z'
loop_
 _atom_site_type_symbol
 _atom_site_label
 _atom_site_symmetry_multiplicity
 _atom_site_fract_x
 _atom_site_fract_y
 _atom_site_fract_z
 _atom_site_occupancy
  Ni  Ni0  1  0.00000000  -0.00000000  0.48794987  1
  Ni  Ni1  1  0.00000000  -0.00000000  0.98794987  1
  Ni  Ni2  1  0.66666700  0.33333300  0.82128287  1
  Ni  Ni3  1  0.66666700  0.33333300  0.32128287  1
  Ni  Ni4  1  0.33333300  0.66666700  0.15461687  1
  Ni  Ni5  1  0.33333300  0.66666700  0.65461687  1
  Cu  Cu6  1  0.00000000  -0.00000000  0.64689771  1
  Cu  Cu7  1  0.00000000  -0.00000000  0.14689771  1
  Cu  Cu8  1  0.66666700  0.33333300  0.98023071  1
  Cu  Cu9  1  0.66666700  0.33333300  0.48023071  1
  Cu  Cu10  1  0.33333300  0.66666700  0.31356471  1
  Cu  Cu11  1  0.33333300  0.66666700  0.81356471  1
  C  C12  1  0.00000000  -0.00000000  0.34885878  1
  C  C13  1  0.00000000  -0.00000000  0.84885878  1
  C  C14  1  0.66666700  0.33333300  0.68219178  1
  C  C15  1  0.66666700  0.33333300  0.18219178  1
  C  C16  1  0.33333300  0.66666700  0.01552578  1
  C  C17  1  0.33333300  0.66666700  0.51552578  1
  C  C18  1  0.31055267  0.02512675  0.25200876  1
  C  C19  1  0.71457408  0.68944733  0.25200876  1
  C  C20  1  0.97487325  0.28542592  0.25200876  1
  C  C21  1  0.31055267  0.28542592  0.75200876  1
  C  C22  1  0.97487325  0.68944733  0.75200876  1
  C  C23  1  0.71457408  0.02512675  0.75200876  1
  C  C24  1  0.97721967  0.35845975  0.58534176  1
  C  C25  1  0.38124108  0.02278033  0.58534176  1
  C  C26  1  0.64154025  0.61875892  0.58534176  1
  C  C27  1  0.97721967  0.61875892  0.08534176  1
  C  C28  1  0.64154025  0.02278033  0.08534176  1
  C  C29  1  0.38124108  0.35845975  0.08534176  1
  C  C30  1  0.64388567  0.69179375  0.91867576  1
  C  C31  1  0.04790708  0.35611433  0.91867576  1
  C  C32  1  0.30820625  0.95209292  0.91867576  1
  C  C33  1  0.64388567  0.95209292  0.41867576  1
  C  C34  1  0.30820625  0.35611433  0.41867576  1
  C  C35  1  0.04790708  0.69179375  0.41867576  1
  C  C36  1  0.21761580  0.03228478  0.30125958  1
  C  C37  1  0.81466898  0.78238420  0.30125958  1
  C  C38  1  0.96771522  0.18533102  0.30125958  1
  C  C39  1  0.21761580  0.18533102  0.80125958  1
  C  C40  1  0.96771522  0.78238420  0.80125958  1
  C  C41  1  0.81466898  0.03228478  0.80125958  1
  C  C42  1  0.79035268  0.00269081  0.70047954  1
  C  C43  1  0.21233813  0.20964732  0.70047954  1
  C  C44  1  0.99730919  0.78766187  0.70047954  1
  C  C45  1  0.79035268  0.78766187  0.20047954  1
  C  C46  1  0.99730919  0.20964732  0.20047954  1
  C  C47  1  0.21233813  0.00269081  0.20047954  1
  C  C48  1  0.88428280  0.36561778  0.63459258  1
  C  C49  1  0.48133598  0.11571720  0.63459258  1
  C  C50  1  0.63438222  0.51866402  0.63459258  1
  C  C51  1  0.88428280  0.51866402  0.13459258  1
  C  C52  1  0.63438222  0.11571720  0.13459258  1
  C  C53  1  0.48133598  0.36561778  0.13459258  1
  C  C54  1  0.45701968  0.33602381  0.03381254  1
  C  C55  1  0.87900513  0.54298032  0.03381254  1
  C  C56  1  0.66397619  0.12099487  0.03381254  1
  C  C57  1  0.45701968  0.12099487  0.53381254  1
  C  C58  1  0.66397619  0.54298032  0.53381254  1
  C  C59  1  0.87900513  0.33602381  0.53381254  1
  C  C60  1  0.55094880  0.69895178  0.96792658  1
  C  C61  1  0.14800198  0.44905120  0.96792658  1
  C  C62  1  0.30104822  0.85199802  0.96792658  1
  C  C63  1  0.55094880  0.85199802  0.46792658  1
  C  C64  1  0.30104822  0.44905120  0.46792658  1
  C  C65  1  0.14800198  0.69895178  0.46792658  1
  C  C66  1  0.12368568  0.66935781  0.36714654  1
  C  C67  1  0.54567113  0.87631432  0.36714654  1
  C  C68  1  0.33064219  0.45432887  0.36714654  1
  C  C69  1  0.12368568  0.45432887  0.86714654  1
  C  C70  1  0.33064219  0.87631432  0.86714654  1
  C  C71  1  0.54567113  0.66935781  0.86714654  1
  C  C72  1  0.03687904  0.84760783  0.41392990  1
  C  C73  1  0.81072880  0.96312096  0.41392990  1
  C  C74  1  0.15239217  0.18927120  0.41392990  1
  C  C75  1  0.03687904  0.18927120  0.91392990  1
  C  C76  1  0.15239217  0.96312096  0.91392990  1
  C  C77  1  0.81072880  0.84760783  0.91392990  1
  C  C78  1  0.00282763  0.20909889  0.58775344  1
  C  C79  1  0.20627126  0.99717237  0.58775344  1
  C  C80  1  0.79090111  0.79372874  0.58775344  1
  C  C81  1  0.00282763  0.79372874  0.08775344  1
  C  C82  1  0.79090111  0.99717237  0.08775344  1
  C  C83  1  0.20627126  0.20909889  0.08775344  1
  C  C84  1  0.70354604  0.18094083  0.74726290  1
  C  C85  1  0.47739580  0.29645396  0.74726290  1
  C  C86  1  0.81905917  0.52260420  0.74726290  1
  C  C87  1  0.70354604  0.52260420  0.24726290  1
  C  C88  1  0.81905917  0.29645396  0.24726290  1
  C  C89  1  0.47739580  0.18094083  0.24726290  1
  C  C90  1  0.66949463  0.54243189  0.92108644  1
  C  C91  1  0.87293826  0.33050537  0.92108644  1
  C  C92  1  0.45756811  0.12706174  0.92108644  1
  C  C93  1  0.66949463  0.12706174  0.42108644  1
  C  C94  1  0.45756811  0.33050537  0.42108644  1
  C  C95  1  0.87293826  0.54243189  0.42108644  1
  C  C96  1  0.37021204  0.51427483  0.08059690  1
  C  C97  1  0.14406180  0.62978796  0.08059690  1
  C  C98  1  0.48572517  0.85593820  0.08059690  1
  C  C99  1  0.37021204  0.85593820  0.58059690  1
  C  C100  1  0.48572517  0.62978796  0.58059690  1
  C  C101  1  0.14406180  0.51427483  0.58059690  1
  C  C102  1  0.33616063  0.87576589  0.25442044  1
  C  C103  1  0.53960426  0.66383937  0.25442044  1
  C  C104  1  0.12423411  0.46039574  0.25442044  1
  C  C105  1  0.33616063  0.46039574  0.75442044  1
  C  C106  1  0.12423411  0.66383937  0.75442044  1
  C  C107  1  0.53960426  0.87576589  0.75442044  1
