# generated using pymatgen
data_Cu2NiC12
_symmetry_space_group_name_H-M   'P 1'
_cell_length_a   7.17370476
_cell_length_b   6.86837665
_cell_length_c   6.87210400
_cell_angle_alpha   120.01429134
_cell_angle_beta   118.59760574
_cell_angle_gamma   89.94376579
_symmetry_Int_Tables_number   1
_chemical_formula_structural   Cu2NiC12
_chemical_formula_sum   'Cu2 Ni1 C12'
_cell_volume   244.43615909
_cell_formula_units_Z   1
loop_
 _symmetry_equiv_pos_site_id
 _symmetry_equiv_pos_as_xyz
  1  'x, y, z'
loop_
 _atom_site_type_symbol
 _atom_site_label
 _atom_site_symmetry_multiplicity
 _atom_site_fract_x
 _atom_site_fract_y
 _atom_site_fract_z
 _atom_site_occupancy
  Ni  Ni0  1  0.00000000  0.50000000  0.50000000  1
  Cu  Cu1  1  0.44618900  0.64883300  0.79778300  1
  Cu  Cu2  1  0.55381100  0.35116700  0.20221700  1
  C  C3  1  0.00000000  0.00000000  0.50000000  1
  C  C4  1  0.00000000  0.50000000  0.00000000  1
  C  C5  1  0.50000000  0.00000000  0.50000000  1
  C  C6  1  0.00000000  0.00000000  0.00000000  1
  C  C7  1  0.75864000  0.77629600  0.51749800  1
  C  C8  1  0.75867200  0.24110300  0.98219000  1
  C  C9  1  0.17566100  0.22486400  0.95016400  1
  C  C10  1  0.24136000  0.22370400  0.48250200  1
  C  C11  1  0.24119600  0.75865200  0.48238400  1
  C  C12  1  0.24132800  0.75889700  0.01781000  1
  C  C13  1  0.75880400  0.24134800  0.51761600  1
  C  C14  1  0.82433900  0.77513600  0.04983600  1
