# generated using pymatgen
data_Cu6Ni3C2
_symmetry_space_group_name_H-M   'P 1'
_cell_length_a   6.84927238
_cell_length_b   6.84927238
_cell_length_c   6.84927290
_cell_angle_alpha   72.37387779
_cell_angle_beta   72.37387779
_cell_angle_gamma   72.37387718
_symmetry_Int_Tables_number   1
_chemical_formula_structural   Cu6Ni3C2
_chemical_formula_sum   'Cu12 Ni6 C4'
_cell_volume   283.86237943
_cell_formula_units_Z   2
loop_
 _symmetry_equiv_pos_site_id
 _symmetry_equiv_pos_as_xyz
  1  'x, y, z'
loop_
 _atom_site_type_symbol
 _atom_site_label
 _atom_site_symmetry_multiplicity
 _atom_site_fract_x
 _atom_site_fract_y
 _atom_site_fract_z
 _atom_site_occupancy
  C  C0  1  0.73409700  0.73409700  0.73409700  1
  C  C1  1  0.26590300  0.26590300  0.26590300  1
  C  C2  1  0.50000000  0.50000000  0.50000000  1
  C  C3  1  0.00000000  0.00000000  0.00000000  1
  Ni  Ni4  1  0.17337600  0.79907000  0.79907000  1
  Ni  Ni5  1  0.79907000  0.79907000  0.17337600  1
  Ni  Ni6  1  0.79907000  0.17337600  0.79907000  1
  Ni  Ni7  1  0.20093000  0.82662400  0.20093000  1
  Ni  Ni8  1  0.82662400  0.20093000  0.20093000  1
  Ni  Ni9  1  0.20093000  0.20093000  0.82662400  1
  Cu  Cu10  1  0.28223900  0.91244900  0.28223900  1
  Cu  Cu11  1  0.71776100  0.08755100  0.71776100  1
  Cu  Cu12  1  0.71776100  0.71776100  0.08755100  1
  Cu  Cu13  1  0.08755100  0.71776100  0.71776100  1
  Cu  Cu14  1  0.62923700  0.24098000  0.24098000  1
  Cu  Cu15  1  0.24098000  0.24098000  0.62923700  1
  Cu  Cu16  1  0.24098000  0.62923700  0.24098000  1
  Cu  Cu17  1  0.75902000  0.37076300  0.75902000  1
  Cu  Cu18  1  0.37076300  0.75902000  0.75902000  1
  Cu  Cu19  1  0.75902000  0.75902000  0.37076300  1
  Cu  Cu20  1  0.91244900  0.28223900  0.28223900  1
  Cu  Cu21  1  0.28223900  0.28223900  0.91244900  1
