# generated using pymatgen
data_CuNiC18
_symmetry_space_group_name_H-M   'P 1'
_cell_length_a   8.70047373
_cell_length_b   8.70047345
_cell_length_c   21.70930783
_cell_angle_alpha   88.72890638
_cell_angle_beta   91.27109369
_cell_angle_gamma   119.32568083
_symmetry_Int_Tables_number   1
_chemical_formula_structural   CuNiC18
_chemical_formula_sum   'Cu6 Ni6 C108'
_cell_volume   1432.28668573
_cell_formula_units_Z   6
loop_
 _symmetry_equiv_pos_site_id
 _symmetry_equiv_pos_as_xyz
  1  'x, y, z'
loop_
 _atom_site_type_symbol
 _atom_site_label
 _atom_site_symmetry_multiplicity
 _atom_site_fract_x
 _atom_site_fract_y
 _atom_site_fract_z
 _atom_site_occupancy
  C  C0  1  0.63211437  0.00126568  0.24561173  1
  C  C1  1  -0.00022621  0.63917712  0.24803810  1
  C  C2  1  0.99873432  0.36788563  0.74561173  1
  C  C3  1  0.36082288  0.00022621  0.74803810  1
  C  C4  1  0.29878137  0.33459868  0.57894473  1
  C  C5  1  0.66644079  0.97251012  0.58137110  1
  C  C6  1  0.66540132  0.70121863  0.07894473  1
  C  C7  1  0.02748988  0.33355921  0.08137110  1
  C  C8  1  0.96544737  0.66793268  0.91227873  1
  C  C9  1  0.33310679  0.30584412  0.91470510  1
  C  C10  1  0.33206732  0.03455263  0.41227873  1
  C  C11  1  0.69415588  0.66689321  0.41470510  1
  C  C12  1  0.00295514  0.01365379  0.49780354  1
  C  C13  1  0.98634621  0.99704486  0.99780354  1
  C  C14  1  0.66962214  0.34698679  0.83113654  1
  C  C15  1  0.65301321  0.33037786  0.33113654  1
  C  C16  1  0.33628814  0.68032079  0.16447054  1
  C  C17  1  0.31967921  0.66371186  0.66447054  1
  Ni  Ni18  1  0.00331726  0.00417325  0.35375822  1
  Ni  Ni19  1  0.99582675  0.99668274  0.85375822  1
  Ni  Ni20  1  0.66998426  0.33750625  0.68709122  1
  Ni  Ni21  1  0.66249375  0.33001574  0.18709122  1
  Ni  Ni22  1  0.33665026  0.67084025  0.02042522  1
  Ni  Ni23  1  0.32915975  0.66334974  0.52042522  1
  C  C24  1  0.28883605  0.00677995  0.25283574  1
  C  C25  1  0.70930233  0.70194443  0.25238515  1
  C  C26  1  0.29805557  0.29069767  0.75238515  1
  C  C27  1  0.99322005  0.71116395  0.75283574  1
  C  C28  1  0.95550305  0.34011295  0.58616874  1
  C  C29  1  0.37596933  0.03527743  0.58571815  1
  C  C30  1  0.96472257  0.62403067  0.08571815  1
  C  C31  1  0.65988705  0.04449695  0.08616874  1
  C  C32  1  0.62216905  0.67344695  0.91950274  1
  C  C33  1  0.04263533  0.36861143  0.91905215  1
  C  C34  1  0.63138857  0.95736467  0.41905215  1
  C  C35  1  0.32655305  0.37783095  0.41950274  1
  Cu  Cu36  1  0.03133566  0.01925220  0.64719073  1
  Cu  Cu37  1  0.98074780  0.96866434  0.14719073  1
  Cu  Cu38  1  0.69800266  0.35258520  0.98052373  1
  Cu  Cu39  1  0.64741480  0.30199734  0.48052373  1
  Cu  Cu40  1  0.36466866  0.68591920  0.31385773  1
  Cu  Cu41  1  0.31408080  0.63533134  0.81385773  1
  C  C42  1  0.00563815  0.29018471  0.25007050  1
  C  C43  1  0.70981529  0.99436185  0.75007050  1
  C  C44  1  0.67230515  0.62351771  0.58340350  1
  C  C45  1  0.37648229  0.32769485  0.08340350  1
  C  C46  1  0.33897115  0.95685171  0.91673750  1
  C  C47  1  0.04314829  0.66102885  0.41673750  1
  C  C48  1  0.19704957  0.02766409  0.31315034  1
  C  C49  1  0.83634031  0.79904190  0.31097013  1
  C  C50  1  0.97392350  0.17367601  0.30425541  1
  C  C51  1  0.20095810  0.16365969  0.81097013  1
  C  C52  1  0.97233591  0.80295043  0.81315034  1
  C  C53  1  0.82632399  0.02607650  0.80425541  1
  C  C54  1  0.78423729  0.96597381  0.69295847  1
  C  C55  1  0.16795292  0.21761449  0.68967347  1
  C  C56  1  0.04046212  0.84553554  0.69132121  1
  C  C57  1  0.78238551  0.83204708  0.18967347  1
  C  C58  1  0.03402619  0.21576271  0.19295847  1
  C  C59  1  0.15446446  0.95953788  0.19132121  1
  C  C60  1  0.86371657  0.36099709  0.64648334  1
  C  C61  1  0.50300731  0.13237490  0.64430313  1
  C  C62  1  0.64059050  0.50700901  0.63758841  1
  C  C63  1  0.86762510  0.49699269  0.14430313  1
  C  C64  1  0.63900291  0.13628343  0.14648334  1
  C  C65  1  0.49299099  0.35940950  0.13758841  1
  C  C66  1  0.45090429  0.29930681  0.02629147  1
  C  C67  1  0.83461992  0.55094749  0.02300647  1
  C  C68  1  0.70712912  0.17886854  0.02465421  1
  C  C69  1  0.44905251  0.16538008  0.52300647  1
  C  C70  1  0.70069319  0.54909571  0.52629147  1
  C  C71  1  0.82113146  0.29287088  0.52465421  1
  C  C72  1  0.53038257  0.69433109  0.97981734  1
  C  C73  1  0.16967331  0.46570890  0.97763713  1
  C  C74  1  0.30725650  0.84034301  0.97092241  1
  C  C75  1  0.53429110  0.83032669  0.47763713  1
  C  C76  1  0.30566891  0.46961743  0.47981734  1
  C  C77  1  0.15965699  0.69274350  0.47092241  1
  C  C78  1  0.11757029  0.63264081  0.35962547  1
  C  C79  1  0.50128592  0.88428149  0.35634047  1
  C  C80  1  0.37379512  0.51220254  0.35798821  1
  C  C81  1  0.11571851  0.49871408  0.85634047  1
  C  C82  1  0.36735919  0.88242971  0.85962547  1
  C  C83  1  0.48779746  0.62620488  0.85798821  1
  C  C84  1  0.02681739  0.82458739  0.41295895  1
  C  C85  1  0.82110970  0.97011371  0.40864108  1
  C  C86  1  0.16497979  0.17902561  0.41039372  1
  C  C87  1  0.02988629  0.17889030  0.90864108  1
  C  C88  1  0.17541261  0.97318261  0.91295895  1
  C  C89  1  0.82097439  0.83502021  0.91039372  1
  C  C90  1  0.96469840  0.14733544  0.59081305  1
  C  C91  1  0.18097914  0.02642348  0.58775699  1
  C  C92  1  0.82436214  0.80276241  0.58941348  1
  C  C93  1  0.97357652  0.81902086  0.08775699  1
  C  C94  1  0.85266456  0.03530160  0.09081305  1
  C  C95  1  0.19723759  0.17563786  0.08941348  1
  C  C96  1  0.69348439  0.15792039  0.74629195  1
  C  C97  1  0.48777670  0.30344671  0.74197408  1
  C  C98  1  0.83164679  0.51235861  0.74372672  1
  C  C99  1  0.69655329  0.51222330  0.24197408  1
  C  C100  1  0.84207961  0.30651561  0.24629195  1
  C  C101  1  0.48764139  0.16835321  0.24372672  1
  C  C102  1  0.63136540  0.48066844  0.92414605  1
  C  C103  1  0.84764614  0.35975648  0.92108999  1
  C  C104  1  0.49102914  0.13609541  0.92274648  1
  C  C105  1  0.64024352  0.15235386  0.42108999  1
  C  C106  1  0.51933156  0.36863460  0.42414605  1
  C  C107  1  0.86390459  0.50897086  0.42274648  1
  C  C108  1  0.36015039  0.49125439  0.07962595  1
  C  C109  1  0.15444270  0.63678071  0.07530808  1
  C  C110  1  0.49831279  0.84569261  0.07706072  1
  C  C111  1  0.36321929  0.84555730  0.57530808  1
  C  C112  1  0.50874561  0.63984961  0.57962595  1
  C  C113  1  0.15430739  0.50168721  0.57706072  1
  C  C114  1  0.29803140  0.81400244  0.25748005  1
  C  C115  1  0.51431214  0.69309048  0.25442399  1
  C  C116  1  0.15769514  0.46942941  0.25608048  1
  C  C117  1  0.30690952  0.48568786  0.75442399  1
  C  C118  1  0.18599756  0.70196860  0.75748005  1
  C  C119  1  0.53057059  0.84230486  0.75608048  1
