# generated using pymatgen
data_Cu4Ni2C
_symmetry_space_group_name_H-M   'P 1'
_cell_length_a   7.67224775
_cell_length_b   7.67224775
_cell_length_c   7.67224775
_cell_angle_alpha   107.59292959
_cell_angle_beta   107.59292959
_cell_angle_gamma   113.29687910
_symmetry_Int_Tables_number   1
_chemical_formula_structural   Cu4Ni2C
_chemical_formula_sum   'Cu8 Ni4 C2'
_cell_volume   346.48231199
_cell_formula_units_Z   2
loop_
 _symmetry_equiv_pos_site_id
 _symmetry_equiv_pos_as_xyz
  1  'x, y, z'
loop_
 _atom_site_type_symbol
 _atom_site_label
 _atom_site_symmetry_multiplicity
 _atom_site_fract_x
 _atom_site_fract_y
 _atom_site_fract_z
 _atom_site_occupancy
  C  C0  1  0.75000000  0.75000000  0.00000000  1
  C  C1  1  0.25000000  0.25000000  0.00000000  1
  Ni  Ni2  1  0.85859700  0.35859700  0.21719400  1
  Ni  Ni3  1  0.35859700  0.14140300  0.50000000  1
  Ni  Ni4  1  0.64140300  0.85859700  0.50000000  1
  Ni  Ni5  1  0.14140300  0.64140300  0.78280600  1
  Cu  Cu6  1  0.68263700  0.48715500  0.50000000  1
  Cu  Cu7  1  0.48715500  0.98715500  0.80451900  1
  Cu  Cu8  1  0.98715500  0.18263700  0.50000000  1
  Cu  Cu9  1  0.18263700  0.68263700  0.19548100  1
  Cu  Cu10  1  0.51284500  0.01284500  0.19548100  1
  Cu  Cu11  1  0.01284500  0.81736300  0.50000000  1
  Cu  Cu12  1  0.31736300  0.51284500  0.50000000  1
  Cu  Cu13  1  0.81736300  0.31736300  0.80451900  1
