# generated using pymatgen
data_CuNi3C4
_symmetry_space_group_name_H-M   'P 1'
_cell_length_a   8.00041100
_cell_length_b   8.11172600
_cell_length_c   9.41484600
_cell_angle_alpha   90.00000000
_cell_angle_beta   90.00000000
_cell_angle_gamma   90.00000000
_symmetry_Int_Tables_number   1
_chemical_formula_structural   CuNi3C4
_chemical_formula_sum   'Cu8 Ni24 C32'
_cell_volume   610.99659701
_cell_formula_units_Z   8
loop_
 _symmetry_equiv_pos_site_id
 _symmetry_equiv_pos_as_xyz
  1  'x, y, z'
loop_
 _atom_site_type_symbol
 _atom_site_label
 _atom_site_symmetry_multiplicity
 _atom_site_fract_x
 _atom_site_fract_y
 _atom_site_fract_z
 _atom_site_occupancy
  C  C0  1  0.89642500  0.16132700  0.33075100  1
  C  C1  1  0.39642500  0.83867300  0.16924900  1
  C  C2  1  0.60357500  0.66132700  0.66924900  1
  C  C3  1  0.10357500  0.33867300  0.83075100  1
  C  C4  1  0.10357500  0.83867300  0.66924900  1
  C  C5  1  0.60357500  0.16132700  0.83075100  1
  C  C6  1  0.39642500  0.33867300  0.33075100  1
  C  C7  1  0.89642500  0.66132700  0.16924900  1
  Ni  Ni8  1  0.79408900  0.02569400  0.51188500  1
  Ni  Ni9  1  0.29408900  0.97430600  0.98811500  1
  Ni  Ni10  1  0.70591100  0.52569400  0.48811500  1
  Ni  Ni11  1  0.20591100  0.47430600  0.01188500  1
  Ni  Ni12  1  0.20591100  0.97430600  0.48811500  1
  Ni  Ni13  1  0.70591100  0.02569400  0.01188500  1
  Ni  Ni14  1  0.29408900  0.47430600  0.51188500  1
  Ni  Ni15  1  0.79408900  0.52569400  0.98811500  1
  Ni  Ni16  1  0.75336400  0.93559200  0.35802000  1
  Ni  Ni17  1  0.25336400  0.06440800  0.14198000  1
  Ni  Ni18  1  0.74663600  0.43559200  0.64198000  1
  Ni  Ni19  1  0.24663600  0.56440800  0.85802000  1
  Ni  Ni20  1  0.24663600  0.06440800  0.64198000  1
  Ni  Ni21  1  0.74663600  0.93559200  0.85802000  1
  Ni  Ni22  1  0.25336400  0.56440800  0.35802000  1
  Ni  Ni23  1  0.75336400  0.43559200  0.14198000  1
  Ni  Ni24  1  0.64454500  0.09980900  0.40771700  1
  Ni  Ni25  1  0.14454500  0.90019100  0.09228300  1
  Ni  Ni26  1  0.85545500  0.59980900  0.59228300  1
  Ni  Ni27  1  0.35545500  0.40019100  0.90771700  1
  Ni  Ni28  1  0.35545500  0.90019100  0.59228300  1
  Ni  Ni29  1  0.85545500  0.09980900  0.90771700  1
  Ni  Ni30  1  0.14454500  0.40019100  0.40771700  1
  Ni  Ni31  1  0.64454500  0.59980900  0.09228300  1
  Cu  Cu32  1  0.76241900  0.04829000  0.40778300  1
  Cu  Cu33  1  0.26241900  0.95171000  0.09221700  1
  Cu  Cu34  1  0.73758100  0.54829000  0.59221700  1
  Cu  Cu35  1  0.23758100  0.45171000  0.90778300  1
  Cu  Cu36  1  0.23758100  0.95171000  0.59221700  1
  Cu  Cu37  1  0.73758100  0.04829000  0.90778300  1
  Cu  Cu38  1  0.26241900  0.45171000  0.40778300  1
  Cu  Cu39  1  0.76241900  0.54829000  0.09221700  1
  C  C40  1  0.04893900  0.07395200  0.32654200  1
  C  C41  1  0.54893900  0.92604800  0.17345800  1
  C  C42  1  0.45106100  0.57395200  0.67345800  1
  C  C43  1  0.95106100  0.42604800  0.82654200  1
  C  C44  1  0.95106100  0.92604800  0.67345800  1
  C  C45  1  0.45106100  0.07395200  0.82654200  1
  C  C46  1  0.54893900  0.42604800  0.32654200  1
  C  C47  1  0.04893900  0.57395200  0.17345800  1
  C  C48  1  0.83872500  0.19735000  0.19292400  1
  C  C49  1  0.33872500  0.80265000  0.30707600  1
  C  C50  1  0.66127500  0.69735000  0.80707600  1
  C  C51  1  0.16127500  0.30265000  0.69292400  1
  C  C52  1  0.16127500  0.80265000  0.80707600  1
  C  C53  1  0.66127500  0.19735000  0.69292400  1
  C  C54  1  0.33872500  0.30265000  0.19292400  1
  C  C55  1  0.83872500  0.69735000  0.30707600  1
  C  C56  1  0.91713300  0.30808000  0.40978700  1
  C  C57  1  0.41713300  0.69192000  0.09021300  1
  C  C58  1  0.58286700  0.80808000  0.59021300  1
  C  C59  1  0.08286700  0.19192000  0.90978700  1
  C  C60  1  0.08286700  0.69192000  0.59021300  1
  C  C61  1  0.58286700  0.30808000  0.90978700  1
  C  C62  1  0.41713300  0.19192000  0.40978700  1
  C  C63  1  0.91713300  0.80808000  0.09021300  1
