# generated using pymatgen
data_Cu7(NiC5)2
_symmetry_space_group_name_H-M   'P 1'
_cell_length_a   13.58181600
_cell_length_b   13.58181600
_cell_length_c   13.58181600
_cell_angle_alpha   90.00000000
_cell_angle_beta   90.00000000
_cell_angle_gamma   90.00000000
_symmetry_Int_Tables_number   1
_chemical_formula_structural   Cu7(NiC5)2
_chemical_formula_sum   'Cu28 Ni8 C40'
_cell_volume   2505.37954691
_cell_formula_units_Z   4
loop_
 _symmetry_equiv_pos_site_id
 _symmetry_equiv_pos_as_xyz
  1  'x, y, z'
loop_
 _atom_site_type_symbol
 _atom_site_label
 _atom_site_symmetry_multiplicity
 _atom_site_fract_x
 _atom_site_fract_y
 _atom_site_fract_z
 _atom_site_occupancy
  Ni  Ni0  1  0.22063000  0.22063000  0.22063000  1
  Ni  Ni1  1  0.27937000  0.77937000  0.72063000  1
  Ni  Ni2  1  0.72063000  0.27937000  0.77937000  1
  Ni  Ni3  1  0.77937000  0.72063000  0.27937000  1
  Ni  Ni4  1  0.77937000  0.77937000  0.77937000  1
  Ni  Ni5  1  0.72063000  0.22063000  0.27937000  1
  Ni  Ni6  1  0.27937000  0.72063000  0.22063000  1
  Ni  Ni7  1  0.22063000  0.27937000  0.72063000  1
  Cu  Cu8  1  0.21054200  0.41901600  0.44739200  1
  Cu  Cu9  1  0.44739200  0.21054200  0.41901600  1
  Cu  Cu10  1  0.41901600  0.44739200  0.21054200  1
  Cu  Cu11  1  0.08098400  0.55260800  0.71054200  1
  Cu  Cu12  1  0.94739200  0.28945800  0.58098400  1
  Cu  Cu13  1  0.58098400  0.94739200  0.28945800  1
  Cu  Cu14  1  0.05260800  0.78945800  0.91901600  1
  Cu  Cu15  1  0.55260800  0.71054200  0.08098400  1
  Cu  Cu16  1  0.91901600  0.05260800  0.78945800  1
  Cu  Cu17  1  0.71054200  0.08098400  0.55260800  1
  Cu  Cu18  1  0.78945800  0.91901600  0.05260800  1
  Cu  Cu19  1  0.28945800  0.58098400  0.94739200  1
  Cu  Cu20  1  0.78945800  0.58098400  0.55260800  1
  Cu  Cu21  1  0.55260800  0.78945800  0.58098400  1
  Cu  Cu22  1  0.58098400  0.55260800  0.78945800  1
  Cu  Cu23  1  0.91901600  0.44739200  0.28945800  1
  Cu  Cu24  1  0.05260800  0.71054200  0.41901600  1
  Cu  Cu25  1  0.41901600  0.05260800  0.71054200  1
  Cu  Cu26  1  0.94739200  0.21054200  0.08098400  1
  Cu  Cu27  1  0.44739200  0.28945800  0.91901600  1
  Cu  Cu28  1  0.08098400  0.94739200  0.21054200  1
  Cu  Cu29  1  0.28945800  0.91901600  0.44739200  1
  Cu  Cu30  1  0.21054200  0.08098400  0.94739200  1
  Cu  Cu31  1  0.71054200  0.41901600  0.05260800  1
  Cu  Cu32  1  0.50000000  0.50000000  0.50000000  1
  Cu  Cu33  1  0.00000000  0.50000000  0.00000000  1
  Cu  Cu34  1  0.00000000  0.00000000  0.50000000  1
  Cu  Cu35  1  0.50000000  0.00000000  0.00000000  1
  C  C36  1  0.05235000  0.05235000  0.05235000  1
  C  C37  1  0.44765000  0.94765000  0.55235000  1
  C  C38  1  0.55235000  0.44765000  0.94765000  1
  C  C39  1  0.94765000  0.55235000  0.44765000  1
  C  C40  1  0.94765000  0.94765000  0.94765000  1
  C  C41  1  0.55235000  0.05235000  0.44765000  1
  C  C42  1  0.44765000  0.55235000  0.05235000  1
  C  C43  1  0.05235000  0.44765000  0.55235000  1
  C  C44  1  0.39037200  0.39037200  0.39037200  1
  C  C45  1  0.10962800  0.60962800  0.89037200  1
  C  C46  1  0.89037200  0.10962800  0.60962800  1
  C  C47  1  0.60962800  0.89037200  0.10962800  1
  C  C48  1  0.60962800  0.60962800  0.60962800  1
  C  C49  1  0.89037200  0.39037200  0.10962800  1
  C  C50  1  0.10962800  0.89037200  0.39037200  1
  C  C51  1  0.39037200  0.10962800  0.89037200  1
  C  C52  1  0.16400900  0.55742500  0.25382700  1
  C  C53  1  0.25382700  0.16400900  0.55742500  1
  C  C54  1  0.55742500  0.25382700  0.16400900  1
  C  C55  1  0.94257500  0.74617300  0.66400900  1
  C  C56  1  0.75382700  0.33599100  0.44257500  1
  C  C57  1  0.44257500  0.75382700  0.33599100  1
  C  C58  1  0.24617300  0.83599100  0.05742500  1
  C  C59  1  0.74617300  0.66400900  0.94257500  1
  C  C60  1  0.05742500  0.24617300  0.83599100  1
  C  C61  1  0.66400900  0.94257500  0.74617300  1
  C  C62  1  0.83599100  0.05742500  0.24617300  1
  C  C63  1  0.33599100  0.44257500  0.75382700  1
  C  C64  1  0.83599100  0.44257500  0.74617300  1
  C  C65  1  0.74617300  0.83599100  0.44257500  1
  C  C66  1  0.44257500  0.74617300  0.83599100  1
  C  C67  1  0.05742500  0.25382700  0.33599100  1
  C  C68  1  0.24617300  0.66400900  0.55742500  1
  C  C69  1  0.55742500  0.24617300  0.66400900  1
  C  C70  1  0.75382700  0.16400900  0.94257500  1
  C  C71  1  0.25382700  0.33599100  0.05742500  1
  C  C72  1  0.94257500  0.75382700  0.16400900  1
  C  C73  1  0.33599100  0.05742500  0.25382700  1
  C  C74  1  0.16400900  0.94257500  0.75382700  1
  C  C75  1  0.66400900  0.55742500  0.24617300  1
