# generated using pymatgen
data_CuNiC8
_symmetry_space_group_name_H-M   'P 1'
_cell_length_a   5.83501200
_cell_length_b   5.80304200
_cell_length_c   10.06315564
_cell_angle_alpha   54.67494573
_cell_angle_beta   90.00000000
_cell_angle_gamma   90.00000000
_symmetry_Int_Tables_number   1
_chemical_formula_structural   CuNiC8
_chemical_formula_sum   'Cu2 Ni2 C16'
_cell_volume   278.01006146
_cell_formula_units_Z   2
loop_
 _symmetry_equiv_pos_site_id
 _symmetry_equiv_pos_as_xyz
  1  'x, y, z'
loop_
 _atom_site_type_symbol
 _atom_site_label
 _atom_site_symmetry_multiplicity
 _atom_site_fract_x
 _atom_site_fract_y
 _atom_site_fract_z
 _atom_site_occupancy
  C  C0  1  0.03272500  0.74308600  0.25008600  1
  C  C1  1  0.53272500  0.25691400  0.24991400  1
  C  C2  1  0.96727500  0.25691400  0.74991400  1
  C  C3  1  0.46727500  0.74308600  0.75008600  1
  Ni  Ni4  1  0.50000000  0.50000000  0.50000000  1
  Ni  Ni5  1  0.00000000  0.50000000  0.00000000  1
  Cu  Cu6  1  0.00000000  0.00000000  0.50000000  1
  Cu  Cu7  1  0.50000000  0.00000000  0.00000000  1
  C  C8  1  0.72360800  0.75789800  0.54088400  1
  C  C9  1  0.70368200  0.31444400  0.96172400  1
  C  C10  1  0.47995400  0.83547700  0.23945000  1
  C  C11  1  0.27639200  0.24210200  0.45911600  1
  C  C12  1  0.29631800  0.68555600  0.03827600  1
  C  C13  1  0.97995400  0.16452300  0.26055000  1
  C  C14  1  0.52004600  0.16452300  0.76055000  1
  C  C15  1  0.02004600  0.83547700  0.73945000  1
  C  C16  1  0.77639200  0.75789800  0.04088400  1
  C  C17  1  0.79631800  0.31444400  0.46172400  1
  C  C18  1  0.22360800  0.24210200  0.95911600  1
  C  C19  1  0.20368200  0.68555600  0.53827600  1
