# generated using pymatgen
data_CuNi7C
_symmetry_space_group_name_H-M   'P 1'
_cell_length_a   8.06140000
_cell_length_b   8.56557100
_cell_length_c   13.85305400
_cell_angle_alpha   90.00000000
_cell_angle_beta   90.00000000
_cell_angle_gamma   90.00000000
_symmetry_Int_Tables_number   1
_chemical_formula_structural   CuNi7C
_chemical_formula_sum   'Cu4 Ni28 C4'
_cell_volume   956.56022293
_cell_formula_units_Z   4
loop_
 _symmetry_equiv_pos_site_id
 _symmetry_equiv_pos_as_xyz
  1  'x, y, z'
loop_
 _atom_site_type_symbol
 _atom_site_label
 _atom_site_symmetry_multiplicity
 _atom_site_fract_x
 _atom_site_fract_y
 _atom_site_fract_z
 _atom_site_occupancy
  C  C0  1  0.20844300  0.37312400  0.25000000  1
  C  C1  1  0.70844200  0.12687600  0.75000000  1
  C  C2  1  0.29155800  0.87312400  0.25000000  1
  C  C3  1  0.79155800  0.62687600  0.75000000  1
  Ni  Ni4  1  0.77994000  0.11990500  0.25000000  1
  Ni  Ni5  1  0.27994000  0.38009500  0.75000000  1
  Ni  Ni6  1  0.72006000  0.61990500  0.25000000  1
  Ni  Ni7  1  0.22006000  0.88009500  0.75000000  1
  Ni  Ni8  1  0.25622400  0.16744000  0.14259700  1
  Ni  Ni9  1  0.75622400  0.33256000  0.85740300  1
  Ni  Ni10  1  0.24377600  0.66744000  0.35740300  1
  Ni  Ni11  1  0.74377600  0.83256000  0.64259700  1
  Ni  Ni12  1  0.74377600  0.83256000  0.85740300  1
  Ni  Ni13  1  0.24377600  0.66744000  0.14259700  1
  Ni  Ni14  1  0.75622400  0.33256000  0.64259700  1
  Ni  Ni15  1  0.25622400  0.16744000  0.35740300  1
  Ni  Ni16  1  0.48891200  0.21529700  0.08785000  1
  Ni  Ni17  1  0.98891200  0.28470300  0.91215000  1
  Ni  Ni18  1  0.01108800  0.71529700  0.41215000  1
  Ni  Ni19  1  0.51108800  0.78470300  0.58785000  1
  Ni  Ni20  1  0.51108800  0.78470300  0.91215000  1
  Ni  Ni21  1  0.01108800  0.71529700  0.08785000  1
  Ni  Ni22  1  0.98891200  0.28470300  0.58785000  1
  Ni  Ni23  1  0.48891200  0.21529700  0.41215000  1
  Ni  Ni24  1  0.65526500  0.04271800  0.12946300  1
  Ni  Ni25  1  0.15526500  0.45728200  0.87053700  1
  Ni  Ni26  1  0.84473500  0.54271800  0.37053700  1
  Ni  Ni27  1  0.34473500  0.95728200  0.62946300  1
  Ni  Ni28  1  0.34473500  0.95728200  0.87053700  1
  Ni  Ni29  1  0.84473500  0.54271800  0.12946300  1
  Ni  Ni30  1  0.15526500  0.45728200  0.62946300  1
  Ni  Ni31  1  0.65526500  0.04271800  0.37053700  1
  Cu  Cu32  1  0.22547100  0.25443600  0.25000000  1
  Cu  Cu33  1  0.72547100  0.24556400  0.75000000  1
  Cu  Cu34  1  0.27452900  0.75443600  0.25000000  1
  Cu  Cu35  1  0.77452900  0.74556400  0.75000000  1
