# generated using pymatgen
data_Cu3NiC2
_symmetry_space_group_name_H-M   'P 1'
_cell_length_a   8.55729200
_cell_length_b   8.77385200
_cell_length_c   22.00823500
_cell_angle_alpha   90.00000000
_cell_angle_beta   90.00000000
_cell_angle_gamma   90.00000000
_symmetry_Int_Tables_number   1
_chemical_formula_structural   Cu3NiC2
_chemical_formula_sum   'Cu24 Ni8 C16'
_cell_volume   1652.38738484
_cell_formula_units_Z   8
loop_
 _symmetry_equiv_pos_site_id
 _symmetry_equiv_pos_as_xyz
  1  'x, y, z'
loop_
 _atom_site_type_symbol
 _atom_site_label
 _atom_site_symmetry_multiplicity
 _atom_site_fract_x
 _atom_site_fract_y
 _atom_site_fract_z
 _atom_site_occupancy
  C  C0  1  0.77011900  0.54610000  0.50706500  1
  C  C1  1  0.27011900  0.95390000  0.99293500  1
  C  C2  1  0.72988100  0.04610000  0.49293500  1
  C  C3  1  0.22988100  0.45390000  0.00706500  1
  C  C4  1  0.22988100  0.45390000  0.49293500  1
  C  C5  1  0.72988100  0.04610000  0.00706500  1
  C  C6  1  0.27011900  0.95390000  0.50706500  1
  C  C7  1  0.77011900  0.54610000  0.99293500  1
  C  C8  1  0.82209100  0.47906300  0.66822100  1
  C  C9  1  0.32209100  0.02093700  0.83177900  1
  C  C10  1  0.67790900  0.97906300  0.33177900  1
  C  C11  1  0.17790900  0.52093700  0.16822100  1
  C  C12  1  0.17790900  0.52093700  0.33177900  1
  C  C13  1  0.67790900  0.97906300  0.16822100  1
  C  C14  1  0.32209100  0.02093700  0.66822100  1
  C  C15  1  0.82209100  0.47906300  0.83177900  1
  Ni  Ni16  1  0.82638500  0.98522500  0.83127200  1
  Ni  Ni17  1  0.82638500  0.98522500  0.66872800  1
  Ni  Ni18  1  0.32638500  0.51477500  0.83127200  1
  Ni  Ni19  1  0.67361500  0.48522500  0.33127200  1
  Ni  Ni20  1  0.17361500  0.01477500  0.16872800  1
  Ni  Ni21  1  0.17361500  0.01477500  0.33127200  1
  Ni  Ni22  1  0.67361500  0.48522500  0.16872800  1
  Ni  Ni23  1  0.32638500  0.51477500  0.66872800  1
  Cu  Cu24  1  0.48519000  0.33849100  0.59325000  1
  Cu  Cu25  1  0.98519000  0.16150900  0.90675000  1
  Cu  Cu26  1  0.01481000  0.83849100  0.40675000  1
  Cu  Cu27  1  0.51481000  0.66150900  0.09325000  1
  Cu  Cu28  1  0.51481000  0.66150900  0.40675000  1
  Cu  Cu29  1  0.01481000  0.83849100  0.09325000  1
  Cu  Cu30  1  0.98519000  0.16150900  0.59325000  1
  Cu  Cu31  1  0.48519000  0.33849100  0.90675000  1
  Cu  Cu32  1  0.62577400  0.81251300  0.61000400  1
  Cu  Cu33  1  0.62577400  0.81251300  0.88999600  1
  Cu  Cu34  1  0.12577400  0.68748700  0.61000400  1
  Cu  Cu35  1  0.87422600  0.31251300  0.11000400  1
  Cu  Cu36  1  0.37422600  0.18748700  0.38999600  1
  Cu  Cu37  1  0.37422600  0.18748700  0.11000400  1
  Cu  Cu38  1  0.87422600  0.31251300  0.38999600  1
  Cu  Cu39  1  0.12577400  0.68748700  0.88999600  1
  Cu  Cu40  1  0.99737100  0.82560400  0.75000000  1
  Cu  Cu41  1  0.49737100  0.67439600  0.75000000  1
  Cu  Cu42  1  0.50262900  0.32560400  0.25000000  1
  Cu  Cu43  1  0.00262900  0.17439600  0.25000000  1
  Cu  Cu44  1  0.66820500  0.15516900  0.75000000  1
  Cu  Cu45  1  0.16820500  0.34483100  0.75000000  1
  Cu  Cu46  1  0.83179500  0.65516900  0.25000000  1
  Cu  Cu47  1  0.33179500  0.84483100  0.25000000  1
