# generated using pymatgen
data_Cu2NiC18
_symmetry_space_group_name_H-M   'P 1'
_cell_length_a   9.36667706
_cell_length_b   9.37222980
_cell_length_c   22.87666808
_cell_angle_alpha   90.08835892
_cell_angle_beta   90.00000000
_cell_angle_gamma   119.98040327
_symmetry_Int_Tables_number   1
_chemical_formula_structural   Cu2NiC18
_chemical_formula_sum   'Cu12 Ni6 C108'
_cell_volume   1739.55000022
_cell_formula_units_Z   6
loop_
 _symmetry_equiv_pos_site_id
 _symmetry_equiv_pos_as_xyz
  1  'x, y, z'
loop_
 _atom_site_type_symbol
 _atom_site_label
 _atom_site_symmetry_multiplicity
 _atom_site_fract_x
 _atom_site_fract_y
 _atom_site_fract_z
 _atom_site_occupancy
  C  C0  1  0.63946912  0.01505265  0.24739766  1
  C  C1  1  0.36929100  0.35145520  0.24921864  1
  C  C2  1  0.98972813  0.62833155  0.24182293  1
  C  C3  1  0.63860342  0.62833155  0.74182293  1
  C  C4  1  0.98216419  0.35145520  0.74921864  1
  C  C5  1  0.37558353  0.01505265  0.74739766  1
  C  C6  1  0.31436237  0.35150010  0.58247371  1
  C  C7  1  0.03307704  0.69168032  0.57917324  1
  C  C8  1  0.65026135  0.95416994  0.57647760  1
  C  C9  1  0.30390958  0.95416994  0.07647760  1
  C  C10  1  0.65860429  0.69168032  0.07917324  1
  C  C11  1  0.03713873  0.35150010  0.08247371  1
  C  C12  1  0.98380731  0.68645345  0.91684869  1
  C  C13  1  0.70294487  0.02757406  0.90877064  1
  C  C14  1  0.31990412  0.28979895  0.91285308  1
  C  C15  1  0.96989383  0.28979895  0.41285308  1
  C  C16  1  0.32462819  0.02757406  0.40877064  1
  C  C17  1  0.70264514  0.68645345  0.41684869  1
  C  C18  1  0.99043045  0.99751779  0.49516023  1
  C  C19  1  0.00708733  0.99751779  0.99516023  1
  C  C20  1  0.66351031  0.32186832  0.82877446  1
  C  C21  1  0.65835901  0.32186832  0.32877446  1
  C  C22  1  0.32248753  0.66720418  0.16203306  1
  C  C23  1  0.34471565  0.66720418  0.66203306  1
  C  C24  1  0.00085578  -0.00007165  0.34833887  1
  C  C25  1  0.99907257  -0.00007165  0.84833887  1
  C  C26  1  0.66540007  0.33246687  0.68165738  1
  C  C27  1  0.66706780  0.33246687  0.18165738  1
  C  C28  1  0.33191226  0.66893220  0.01502850  1
  C  C29  1  0.33701894  0.66893220  0.51502850  1
  C  C30  1  0.99035427  0.99433939  0.64994847  1
  C  C31  1  0.00398512  0.99433939  0.14994847  1
  C  C32  1  0.66798340  0.33414884  0.98335821  1
  C  C33  1  0.66616644  0.33414884  0.48335821  1
  C  C34  1  0.33685333  0.67593295  0.31665405  1
  C  C35  1  0.33907862  0.67593295  0.81665405  1
  Ni  Ni36  1  0.30055459  0.99594157  0.25305344  1
  Ni  Ni37  1  0.69538698  0.99594157  0.75305344  1
  Ni  Ni38  1  0.67004438  0.63595936  0.58586153  1
  Ni  Ni39  1  0.96591598  0.63595936  0.08586153  1
  Ni  Ni40  1  0.33818732  0.97294477  0.91946407  1
  Ni  Ni41  1  0.63475646  0.97294477  0.41946407  1
  Cu  Cu42  1  0.69704680  0.70367298  0.25122882  1
  Cu  Cu43  1  0.00709322  0.30124924  0.25092184  1
  Cu  Cu44  1  0.29415603  0.30124924  0.75092184  1
  Cu  Cu45  1  0.00662618  0.70367298  0.75122882  1
  Cu  Cu46  1  0.96237220  0.32734252  0.58466743  1
  Cu  Cu47  1  0.36281573  0.03778164  0.58442943  1
  Cu  Cu48  1  0.67496691  0.03778164  0.08442943  1
  Cu  Cu49  1  0.36497132  0.32734252  0.08466743  1
  Cu  Cu50  1  0.62847033  0.65908895  0.91820391  1
  Cu  Cu51  1  0.03260403  0.37171044  0.91771557  1
  Cu  Cu52  1  0.33910542  0.37171044  0.41771557  1
  Cu  Cu53  1  0.03061762  0.65908895  0.41820391  1
  C  C54  1  0.22427509  0.02316214  0.31141081  1
  C  C55  1  0.79608934  0.77916188  0.30650049  1
  C  C56  1  0.98053923  0.20113540  0.30619778  1
  C  C57  1  0.22059617  0.20113540  0.80619778  1
  C  C58  1  0.98307254  0.77916188  0.80650049  1
  C  C59  1  0.79888705  0.02316214  0.81141081  1
  C  C60  1  0.79724051  0.97217128  0.69569676  1
  C  C61  1  0.18166582  0.20798406  0.69639540  1
  C  C62  1  0.03041400  0.81894280  0.69690915  1
  C  C63  1  0.78852881  0.81894280  0.19690915  1
  C  C64  1  0.02631824  0.20798406  0.19639540  1
  C  C65  1  0.17493077  0.97217128  0.19569676  1
  C  C66  1  0.88778520  0.35056978  0.64019443  1
  C  C67  1  0.46442152  0.10900707  0.63960734  1
  C  C68  1  0.64685519  0.53408988  0.64433490  1
  C  C69  1  0.88723569  0.53408988  0.14433490  1
  C  C70  1  0.64458655  0.10900707  0.13960734  1
  C  C71  1  0.46278559  0.35056978  0.14019443  1
  C  C72  1  0.45673328  0.30355763  0.03042622  1
  C  C73  1  0.84182800  0.53672101  0.02815907  1
  C  C74  1  0.69332672  0.15249881  0.03043865  1
  C  C75  1  0.45917309  0.15249881  0.53043865  1
  C  C76  1  0.69489401  0.53672101  0.52815907  1
  C  C77  1  0.84682535  0.30355763  0.53042622  1
  C  C78  1  0.55427850  0.68260551  0.97379735  1
  C  C79  1  0.13262792  0.44521974  0.97306984  1
  C  C80  1  0.31055231  0.86732386  0.97727741  1
  C  C81  1  0.55677055  0.86732386  0.47727741  1
  C  C82  1  0.31259082  0.44521974  0.47306984  1
  C  C83  1  0.12832601  0.68260551  0.47379735  1
  C  C84  1  0.12410506  0.63725954  0.36412299  1
  C  C85  1  0.50897621  0.87056513  0.36179618  1
  C  C86  1  0.36083597  0.48447457  0.36328030  1
  C  C87  1  0.12363760  0.48447457  0.86328030  1
  C  C88  1  0.36158792  0.87056513  0.86179618  1
  C  C89  1  0.51315348  0.63725954  0.86412299  1
  C  C90  1  0.00335220  0.80665375  0.41165182  1
  C  C91  1  0.81937824  0.00082535  0.41377106  1
  C  C92  1  0.19251081  0.19603362  0.41189507  1
  C  C93  1  0.00352281  0.19603362  0.91189507  1
  C  C94  1  0.18144711  0.00082535  0.91377106  1
  C  C95  1  0.80330155  0.80665375  0.91165182  1
  C  C96  1  0.97371792  0.16494997  0.58743709  1
  C  C97  1  0.19450893  0.03644261  0.58734615  1
  C  C98  1  0.84822893  0.81860032  0.58752009  1
  C  C99  1  0.97037138  0.81860032  0.08752009  1
  C  C100  1  0.84193367  0.03644261  0.08734615  1
  C  C101  1  0.19123206  0.16494997  0.08743709  1
  C  C102  1  0.66455169  0.15038869  0.74708819  1
  C  C103  1  0.46976790  0.32887443  0.74525061  1
  C  C104  1  0.85849294  0.52924530  0.74475209  1
  C  C105  1  0.67075336  0.52924530  0.24475209  1
  C  C106  1  0.85910753  0.32887443  0.24525061  1
  C  C107  1  0.48583800  0.15038869  0.24708819  1
  C  C108  1  0.63545446  0.49431037  0.92057106  1
  C  C109  1  0.86067849  0.36547734  0.92124402  1
  C  C110  1  0.51469664  0.15391650  0.92096428  1
  C  C111  1  0.63922086  0.15391650  0.42096428  1
  C  C112  1  0.50479985  0.36547734  0.42124402  1
  C  C113  1  0.85885690  0.49431037  0.42057106  1
  C  C114  1  0.34143795  0.47704345  0.07764049  1
  C  C115  1  0.15064684  0.66330659  0.08162323  1
  C  C116  1  0.53107795  0.86090209  0.07750543  1
  C  C117  1  0.32982314  0.86090209  0.57750543  1
  C  C118  1  0.51265875  0.66330659  0.58162323  1
  C  C119  1  0.13560450  0.47704345  0.57764049  1
  C  C120  1  0.30242395  0.81710363  0.25423306  1
  C  C121  1  0.52382497  0.69369007  0.25420030  1
  C  C122  1  0.17240026  0.47173920  0.25415547  1
  C  C123  1  0.29933794  0.47173920  0.75415547  1
  C  C124  1  0.16986410  0.69369007  0.75420030  1
  C  C125  1  0.51467869  0.81710363  0.75423306  1
