# generated using pymatgen
data_Cu3Ni3C31
_symmetry_space_group_name_H-M   'P 1'
_cell_length_a   8.89387452
_cell_length_b   8.90837979
_cell_length_c   23.02328788
_cell_angle_alpha   89.71516806
_cell_angle_beta   90.25178190
_cell_angle_gamma   120.16335448
_symmetry_Int_Tables_number   1
_chemical_formula_structural   Cu3Ni3C31
_chemical_formula_sum   'Cu9 Ni9 C93'
_cell_volume   1577.11750484
_cell_formula_units_Z   3
loop_
 _symmetry_equiv_pos_site_id
 _symmetry_equiv_pos_as_xyz
  1  'x, y, z'
loop_
 _atom_site_type_symbol
 _atom_site_label
 _atom_site_symmetry_multiplicity
 _atom_site_fract_x
 _atom_site_fract_y
 _atom_site_fract_z
 _atom_site_occupancy
  C  C0  1  0.35762185  0.35934959  0.24402789  1
  C  C1  1  0.63444656  0.62236642  0.75477857  1
  C  C2  1  0.96831978  0.28894314  0.41741022  1
  C  C3  1  0.99626020  0.00741499  0.49739434  1
  C  C4  1  0.00007838  0.99046133  0.00437624  1
  C  C5  1  0.66151842  0.34128909  0.83158685  1
  C  C6  1  0.66668610  0.31968052  0.33133026  1
  C  C7  1  0.31376861  0.65483690  0.16237218  1
  C  C8  1  0.30029729  0.64589920  0.66746564  1
  C  C9  1  0.99346737  0.00963205  0.35525471  1
  C  C10  1  0.68120729  0.34094658  0.68753252  1
  C  C11  1  0.68919653  0.34776893  0.18181522  1
  Ni  Ni12  1  0.99618128  0.29613461  0.25207631  1
  Ni  Ni13  1  0.29306133  0.28995024  0.75201768  1
  Ni  Ni14  1  0.00587460  0.71463813  0.74883491  1
  Ni  Ni15  1  0.96162852  0.33273063  0.58263933  1
  Ni  Ni16  1  0.96886472  0.63624495  0.08260578  1
  Ni  Ni17  1  0.37430816  0.33129829  0.08646833  1
  Ni  Ni18  1  0.62724887  0.67330843  0.91505520  1
  Ni  Ni19  1  0.61755839  0.95087662  0.41760228  1
  Ni  Ni20  1  0.34018067  0.37149328  0.41678317  1
  Cu  Cu21  1  0.00115286  0.99052725  0.85205239  1
  Cu  Cu22  1  0.01306690  0.01578788  0.64837125  1
  Cu  Cu23  1  0.01116393  0.01099299  0.14624611  1
  Cu  Cu24  1  0.66245787  0.35852654  0.98434598  1
  Cu  Cu25  1  0.66121380  0.31815407  0.48102412  1
  Cu  Cu26  1  0.33925032  0.65930631  0.02192575  1
  Cu  Cu27  1  0.33100420  0.65347230  0.51810968  1
  Cu  Cu28  1  0.33745968  0.66209490  0.31634756  1
  Cu  Cu29  1  0.32224235  0.65426135  0.81412476  1
  C  C30  1  0.29016833  0.99327065  0.25169079  1
  C  C31  1  0.71090191  0.71207736  0.25018509  1
  C  C32  1  0.70803607  0.00019394  0.75060600  1
  C  C33  1  0.37145463  0.03566046  0.58397278  1
  C  C34  1  0.66989905  0.62834824  0.58420981  1
  C  C35  1  0.66693695  0.04619997  0.08167237  1
  C  C36  1  0.03159703  0.36729384  0.91759277  1
  C  C37  1  0.33917947  0.95932293  0.91775602  1
  C  C38  1  0.04138899  0.66849669  0.41732834  1
  C  C39  1  0.20280555  0.01316488  0.30231222  1
  C  C40  1  0.81335861  0.79237594  0.30171619  1
  C  C41  1  0.98120566  0.18949294  0.31108122  1
  C  C42  1  0.20252026  0.17767660  0.81114878  1
  C  C43  1  0.94998041  0.78534369  0.80574384  1
  C  C44  1  0.81538127  0.03108956  0.80351049  1
  C  C45  1  0.78327614  0.96297582  0.69862780  1
  C  C46  1  0.17206584  0.21879918  0.69402424  1
  C  C47  1  0.03185101  0.82949504  0.69001750  1
  C  C48  1  0.79140570  0.81470391  0.19647227  1
  C  C49  1  0.04352180  0.20809296  0.19642966  1
  C  C50  1  0.18471259  0.96152964  0.19737512  1
  C  C51  1  0.86589990  0.35534929  0.63783601  1
  C  C52  1  0.47419730  0.12075507  0.63526196  1
  C  C53  1  0.64376705  0.52476600  0.63695706  1
  C  C54  1  0.88813718  0.51242193  0.13856117  1
  C  C55  1  0.64381692  0.12536639  0.13340633  1
  C  C56  1  0.48105856  0.35280301  0.14567073  1
  C  C57  1  0.44785440  0.28776997  0.02682973  1
  C  C58  1  0.85872786  0.55700258  0.02208330  1
  C  C59  1  0.69500522  0.15055081  0.02764512  1
  C  C60  1  0.44519666  0.14228051  0.52989836  1
  C  C61  1  0.69042812  0.54531129  0.53135279  1
  C  C62  1  0.85494495  0.30911854  0.52097038  1
  C  C63  1  0.53522757  0.70284729  0.97110989  1
  C  C64  1  0.14114786  0.45028583  0.96899268  1
  C  C65  1  0.30866374  0.84979809  0.96946382  1
  C  C66  1  0.52888689  0.84148068  0.47695300  1
  C  C67  1  0.28216042  0.45008745  0.47095610  1
  C  C68  1  0.14789549  0.69912538  0.47039880  1
  C  C69  1  0.11634742  0.62959722  0.36536986  1
  C  C70  1  0.49570070  0.87324661  0.35952587  1
  C  C71  1  0.37521618  0.48300692  0.35605489  1
  C  C72  1  0.10408920  0.47653089  0.86414977  1
  C  C73  1  0.35757802  0.87797559  0.86385834  1
  C  C74  1  0.51549881  0.64600218  0.85502340  1
  C  C75  1  0.02097116  0.81850493  0.40905359  1
  C  C76  1  0.80944745  0.97135156  0.41388402  1
  C  C77  1  0.16925434  0.17985901  0.41181054  1
  C  C78  1  0.02170508  0.19723109  0.91092902  1
  C  C79  1  0.18372795  0.98210298  0.91359653  1
  C  C80  1  0.82160667  0.85111035  0.91219665  1
  C  C81  1  0.97650940  0.15371205  0.58607680  1
  C  C82  1  0.19265549  0.01247689  0.58613477  1
  C  C83  1  0.82790734  0.80391538  0.58824235  1
  C  C84  1  0.97142740  0.82046233  0.09141006  1
  C  C85  1  0.82036350  0.02138188  0.08717774  1
  C  C86  1  0.17623156  0.16357139  0.08588051  1
  C  C87  1  0.68635051  0.15070748  0.74360217  1
  C  C88  1  0.48501594  0.31359020  0.74529384  1
  C  C89  1  0.83438505  0.52284524  0.74363648  1
  C  C90  1  0.68098818  0.53275684  0.24589136  1
  C  C91  1  0.82478289  0.31307315  0.24675981  1
  C  C92  1  0.46107042  0.15387992  0.24601340  1
  C  C93  1  0.64319080  0.49594566  0.91775405  1
  C  C94  1  0.85387314  0.34161075  0.92380970  1
  C  C95  1  0.50094547  0.13148878  0.92240060  1
  C  C96  1  0.65421407  0.15295413  0.42005318  1
  C  C97  1  0.52137964  0.36991745  0.42643946  1
  C  C98  1  0.86860055  0.50678556  0.42342375  1
  C  C99  1  0.36567105  0.51110180  0.08069751  1
  C  C100  1  0.16546406  0.66489602  0.07426552  1
  C  C101  1  0.50772242  0.87228863  0.07676845  1
  C  C102  1  0.35763177  0.86320334  0.57820392  1
  C  C103  1  0.51274188  0.64809662  0.57983341  1
  C  C104  1  0.15540296  0.51289452  0.57884731  1
  C  C105  1  0.31152594  0.83755903  0.25591375  1
  C  C106  1  0.53316001  0.69593359  0.25249497  1
  C  C107  1  0.18254785  0.49066321  0.25500225  1
  C  C108  1  0.32413364  0.49048079  0.75530055  1
  C  C109  1  0.18442041  0.70575241  0.75744194  1
  C  C110  1  0.53512648  0.83979073  0.75664916  1
