# generated using pymatgen
data_CuNiC4
_symmetry_space_group_name_H-M   'P 1'
_cell_length_a   3.68067700
_cell_length_b   9.21101200
_cell_length_c   10.01033500
_cell_angle_alpha   90.00000000
_cell_angle_beta   90.00000000
_cell_angle_gamma   90.00000000
_symmetry_Int_Tables_number   1
_chemical_formula_structural   CuNiC4
_chemical_formula_sum   'Cu4 Ni4 C16'
_cell_volume   339.37798518
_cell_formula_units_Z   4
loop_
 _symmetry_equiv_pos_site_id
 _symmetry_equiv_pos_as_xyz
  1  'x, y, z'
loop_
 _atom_site_type_symbol
 _atom_site_label
 _atom_site_symmetry_multiplicity
 _atom_site_fract_x
 _atom_site_fract_y
 _atom_site_fract_z
 _atom_site_occupancy
  C  C0  1  0.25000000  0.67660800  0.52433300  1
  C  C1  1  0.75000000  0.32339200  0.47566700  1
  C  C2  1  0.25000000  0.17660800  0.97566700  1
  C  C3  1  0.75000000  0.82339200  0.02433300  1
  C  C4  1  0.25000000  0.52732900  0.15587000  1
  C  C5  1  0.75000000  0.47267100  0.84413000  1
  C  C6  1  0.25000000  0.02732900  0.34413000  1
  C  C7  1  0.75000000  0.97267100  0.65587000  1
  Ni  Ni8  1  0.25000000  0.73445200  0.82350700  1
  Ni  Ni9  1  0.75000000  0.26554800  0.17649300  1
  Ni  Ni10  1  0.25000000  0.23445200  0.67649300  1
  Ni  Ni11  1  0.75000000  0.76554800  0.32350700  1
  Cu  Cu12  1  0.25000000  0.95903400  0.10256700  1
  Cu  Cu13  1  0.75000000  0.04096600  0.89743300  1
  Cu  Cu14  1  0.25000000  0.45903400  0.39743300  1
  Cu  Cu15  1  0.75000000  0.54096600  0.60256700  1
  C  C16  1  0.75000000  0.67906100  0.21689600  1
  C  C17  1  0.25000000  0.32093900  0.78310400  1
  C  C18  1  0.75000000  0.17906100  0.28310400  1
  C  C19  1  0.25000000  0.82093900  0.71689600  1
  C  C20  1  0.75000000  0.84756700  0.43569700  1
  C  C21  1  0.25000000  0.15243300  0.56430300  1
  C  C22  1  0.75000000  0.34756700  0.06430300  1
  C  C23  1  0.25000000  0.65243300  0.93569700  1
