# generated using pymatgen
data_Cu12Ni3C2
_symmetry_space_group_name_H-M   'P 1'
_cell_length_a   9.28783642
_cell_length_b   9.28783609
_cell_length_c   23.78846544
_cell_angle_alpha   90.00000000
_cell_angle_beta   90.00000000
_cell_angle_gamma   120.00000119
_symmetry_Int_Tables_number   1
_chemical_formula_structural   Cu12Ni3C2
_chemical_formula_sum   'Cu72 Ni18 C12'
_cell_volume   1777.15846215
_cell_formula_units_Z   6
loop_
 _symmetry_equiv_pos_site_id
 _symmetry_equiv_pos_as_xyz
  1  'x, y, z'
loop_
 _atom_site_type_symbol
 _atom_site_label
 _atom_site_symmetry_multiplicity
 _atom_site_fract_x
 _atom_site_fract_y
 _atom_site_fract_z
 _atom_site_occupancy
  C  C0  1  -0.00000000  -0.00000000  0.35487550  1
  C  C1  1  -0.00000000  -0.00000000  0.85487550  1
  C  C2  1  -0.00000000  -0.00000000  0.64512450  1
  C  C3  1  -0.00000000  -0.00000000  0.14512450  1
  C  C4  1  0.66666700  0.33333300  0.68820850  1
  C  C5  1  0.66666700  0.33333300  0.18820850  1
  C  C6  1  0.66666700  0.33333300  0.97845750  1
  C  C7  1  0.66666700  0.33333300  0.47845750  1
  C  C8  1  0.33333300  0.66666700  0.02154250  1
  C  C9  1  0.33333300  0.66666700  0.52154250  1
  C  C10  1  0.33333300  0.66666700  0.31179150  1
  C  C11  1  0.33333300  0.66666700  0.81179150  1
  Ni  Ni12  1  0.29070132  -0.00000000  0.25000000  1
  Ni  Ni13  1  0.70929868  0.70929868  0.25000000  1
  Ni  Ni14  1  0.00000000  0.29070132  0.25000000  1
  Ni  Ni15  1  0.29070132  0.29070132  0.75000000  1
  Ni  Ni16  1  1.00000000  0.70929868  0.75000000  1
  Ni  Ni17  1  0.70929868  -0.00000000  0.75000000  1
  Ni  Ni18  1  0.95736832  0.33333300  0.58333300  1
  Ni  Ni19  1  0.37596568  0.04263168  0.58333300  1
  Ni  Ni20  1  0.66666700  0.62403432  0.58333300  1
  Ni  Ni21  1  0.95736832  0.62403432  0.08333300  1
  Ni  Ni22  1  0.66666700  0.04263168  0.08333300  1
  Ni  Ni23  1  0.37596568  0.33333300  0.08333300  1
  Ni  Ni24  1  0.62403432  0.66666700  0.91666700  1
  Ni  Ni25  1  0.04263168  0.37596568  0.91666700  1
  Ni  Ni26  1  0.33333300  0.95736832  0.91666700  1
  Ni  Ni27  1  0.62403432  0.95736832  0.41666700  1
  Ni  Ni28  1  0.33333300  0.37596568  0.41666700  1
  Ni  Ni29  1  0.04263168  0.66666700  0.41666700  1
  Cu  Cu30  1  0.21245328  0.02640275  0.30027614  1
  Cu  Cu31  1  0.81394947  0.78754672  0.30027614  1
  Cu  Cu32  1  0.97359725  0.18605053  0.30027614  1
  Cu  Cu33  1  0.21245328  0.18605053  0.80027614  1
  Cu  Cu34  1  0.97359725  0.78754672  0.80027614  1
  Cu  Cu35  1  0.81394947  0.02640275  0.80027614  1
  Cu  Cu36  1  0.78754672  0.97359725  0.69972386  1
  Cu  Cu37  1  0.18605053  0.21245328  0.69972386  1
  Cu  Cu38  1  0.02640275  0.81394947  0.69972386  1
  Cu  Cu39  1  0.78754672  0.81394947  0.19972386  1
  Cu  Cu40  1  0.02640275  0.21245328  0.19972386  1
  Cu  Cu41  1  0.18605053  0.97359725  0.19972386  1
  Cu  Cu42  1  0.87912028  0.35973575  0.63360914  1
  Cu  Cu43  1  0.48061647  0.12087972  0.63360914  1
  Cu  Cu44  1  0.64026425  0.51938353  0.63360914  1
  Cu  Cu45  1  0.87912028  0.51938353  0.13360914  1
  Cu  Cu46  1  0.64026425  0.12087972  0.13360914  1
  Cu  Cu47  1  0.48061647  0.35973575  0.13360914  1
  Cu  Cu48  1  0.45421372  0.30693025  0.03305686  1
  Cu  Cu49  1  0.85271753  0.54578628  0.03305686  1
  Cu  Cu50  1  0.69306975  0.14728247  0.03305686  1
  Cu  Cu51  1  0.45421372  0.14728247  0.53305686  1
  Cu  Cu52  1  0.69306975  0.54578628  0.53305686  1
  Cu  Cu53  1  0.85271753  0.30693025  0.53305686  1
  Cu  Cu54  1  0.54578628  0.69306975  0.96694314  1
  Cu  Cu55  1  0.14728247  0.45421372  0.96694314  1
  Cu  Cu56  1  0.30693025  0.85271753  0.96694314  1
  Cu  Cu57  1  0.54578628  0.85271753  0.46694314  1
  Cu  Cu58  1  0.30693025  0.45421372  0.46694314  1
  Cu  Cu59  1  0.14728247  0.69306975  0.46694314  1
  Cu  Cu60  1  0.12087972  0.64026425  0.36639086  1
  Cu  Cu61  1  0.51938353  0.87912028  0.36639086  1
  Cu  Cu62  1  0.35973575  0.48061647  0.36639086  1
  Cu  Cu63  1  0.12087972  0.48061647  0.86639086  1
  Cu  Cu64  1  0.35973575  0.87912028  0.86639086  1
  Cu  Cu65  1  0.51938353  0.64026425  0.86639086  1
  Cu  Cu66  1  0.02415021  0.81459585  0.40843845  1
  Cu  Cu67  1  0.79044564  0.97584979  0.40843845  1
  Cu  Cu68  1  0.18540415  0.20955436  0.40843845  1
  Cu  Cu69  1  0.02415021  0.20955436  0.90843845  1
  Cu  Cu70  1  0.18540415  0.97584979  0.90843845  1
  Cu  Cu71  1  0.79044564  0.81459585  0.90843845  1
  Cu  Cu72  1  0.97584979  0.18540415  0.59156155  1
  Cu  Cu73  1  0.20955436  0.02415021  0.59156155  1
  Cu  Cu74  1  0.81459585  0.79044564  0.59156155  1
  Cu  Cu75  1  0.97584979  0.79044564  0.09156155  1
  Cu  Cu76  1  0.81459585  0.02415021  0.09156155  1
  Cu  Cu77  1  0.20955436  0.18540415  0.09156155  1
  Cu  Cu78  1  0.69081721  0.14792885  0.74177145  1
  Cu  Cu79  1  0.45711264  0.30918279  0.74177145  1
  Cu  Cu80  1  0.85207115  0.54288736  0.74177145  1
  Cu  Cu81  1  0.69081721  0.54288736  0.24177145  1
  Cu  Cu82  1  0.85207115  0.30918279  0.24177145  1
  Cu  Cu83  1  0.45711264  0.14792885  0.24177145  1
  Cu  Cu84  1  0.64251679  0.51873715  0.92489455  1
  Cu  Cu85  1  0.87622136  0.35748321  0.92489455  1
  Cu  Cu86  1  0.48126285  0.12377864  0.92489455  1
  Cu  Cu87  1  0.64251679  0.12377864  0.42489455  1
  Cu  Cu88  1  0.48126285  0.35748321  0.42489455  1
  Cu  Cu89  1  0.87622136  0.51873715  0.42489455  1
  Cu  Cu90  1  0.35748321  0.48126285  0.07510545  1
  Cu  Cu91  1  0.12377864  0.64251679  0.07510545  1
  Cu  Cu92  1  0.51873715  0.87622136  0.07510545  1
  Cu  Cu93  1  0.35748321  0.87622136  0.57510545  1
  Cu  Cu94  1  0.51873715  0.64251679  0.57510545  1
  Cu  Cu95  1  0.12377864  0.48126285  0.57510545  1
  Cu  Cu96  1  0.30918279  0.85207115  0.25822855  1
  Cu  Cu97  1  0.54288736  0.69081721  0.25822855  1
  Cu  Cu98  1  0.14792885  0.45711264  0.25822855  1
  Cu  Cu99  1  0.30918279  0.45711264  0.75822855  1
  Cu  Cu100  1  0.14792885  0.69081721  0.75822855  1
  Cu  Cu101  1  0.54288736  0.85207115  0.75822855  1
