# generated using pymatgen
data_Cu7Ni7C3
_symmetry_space_group_name_H-M   'P 1'
_cell_length_a   9.97513721
_cell_length_b   9.97513721
_cell_length_c   26.02257900
_cell_angle_alpha   90.00000000
_cell_angle_beta   90.00000000
_cell_angle_gamma   119.99999475
_symmetry_Int_Tables_number   1
_chemical_formula_structural   Cu7Ni7C3
_chemical_formula_sum   'Cu28 Ni28 C12'
_cell_volume   2242.42923405
_cell_formula_units_Z   4
loop_
 _symmetry_equiv_pos_site_id
 _symmetry_equiv_pos_as_xyz
  1  'x, y, z'
loop_
 _atom_site_type_symbol
 _atom_site_label
 _atom_site_symmetry_multiplicity
 _atom_site_fract_x
 _atom_site_fract_y
 _atom_site_fract_z
 _atom_site_occupancy
  C  C0  1  0.63262300  0.47154100  0.66918400  1
  C  C1  1  0.52845900  0.16108100  0.66918400  1
  C  C2  1  0.83891900  0.36737700  0.66918400  1
  C  C3  1  0.47154100  0.63262300  0.16918400  1
  C  C4  1  0.16108100  0.52845900  0.16918400  1
  C  C5  1  0.36737700  0.83891900  0.16918400  1
  C  C6  1  0.85749300  0.02738900  0.42505800  1
  C  C7  1  0.97261100  0.83010400  0.42505800  1
  C  C8  1  0.16989600  0.14250700  0.42505800  1
  C  C9  1  0.02738900  0.85749300  0.92505800  1
  C  C10  1  0.83010400  0.97261100  0.92505800  1
  C  C11  1  0.14250700  0.16989600  0.92505800  1
  Ni  Ni12  1  0.03212200  0.19748900  0.36131100  1
  Ni  Ni13  1  0.35695100  0.27220300  0.66287200  1
  Ni  Ni14  1  0.72779700  0.08474800  0.66287200  1
  Ni  Ni15  1  0.91525200  0.64304900  0.66287200  1
  Ni  Ni16  1  0.27220300  0.35695100  0.16287200  1
  Ni  Ni17  1  0.08474800  0.72779700  0.16287200  1
  Ni  Ni18  1  0.64304900  0.91525200  0.16287200  1
  Ni  Ni19  1  0.46678600  0.29381100  0.73288200  1
  Ni  Ni20  1  0.70618900  0.17297500  0.73288200  1
  Ni  Ni21  1  0.82702500  0.53321400  0.73288200  1
  Ni  Ni22  1  0.29381100  0.46678600  0.23288200  1
  Ni  Ni23  1  0.17297500  0.70618900  0.23288200  1
  Ni  Ni24  1  0.00000000  0.00000000  0.99233700  1
  Ni  Ni25  1  0.00000000  0.00000000  0.49233700  1
  Ni  Ni26  1  0.19748900  0.03212200  0.86131100  1
  Ni  Ni27  1  0.96787800  0.16536700  0.86131100  1
  Ni  Ni28  1  0.83463300  0.80251100  0.86131100  1
  Ni  Ni29  1  0.53321400  0.82702500  0.23288200  1
  Ni  Ni30  1  0.16536700  0.96787800  0.36131100  1
  Ni  Ni31  1  0.80251100  0.83463300  0.36131100  1
  Ni  Ni32  1  0.30573300  0.04957300  0.93130600  1
  Ni  Ni33  1  0.95042700  0.25616000  0.93130600  1
  Ni  Ni34  1  0.74384000  0.69426700  0.93130600  1
  Ni  Ni35  1  0.04957300  0.30573300  0.43130600  1
  Ni  Ni36  1  0.25616000  0.95042700  0.43130600  1
  Ni  Ni37  1  0.69426700  0.74384000  0.43130600  1
  Ni  Ni38  1  0.33333300  0.66666700  0.10170100  1
  Ni  Ni39  1  0.66666700  0.33333300  0.60170100  1
  Cu  Cu40  1  0.98294500  0.38682600  0.09364200  1
  Cu  Cu41  1  0.61317400  0.59612000  0.09364200  1
  Cu  Cu42  1  0.01705500  0.40388000  0.59364200  1
  Cu  Cu43  1  0.38682600  0.98294500  0.59364200  1
  Cu  Cu44  1  0.59612000  0.61317400  0.59364200  1
  Cu  Cu45  1  0.41640200  0.07898100  0.22050200  1
  Cu  Cu46  1  0.92101900  0.33742100  0.22050200  1
  Cu  Cu47  1  0.66257900  0.58359800  0.22050200  1
  Cu  Cu48  1  0.07898100  0.41640200  0.72050200  1
  Cu  Cu49  1  0.33742100  0.92101900  0.72050200  1
  Cu  Cu50  1  0.58359800  0.66257900  0.72050200  1
  Cu  Cu51  1  0.33333300  0.66666700  0.31504800  1
  Cu  Cu52  1  0.33599600  0.41081500  0.87505100  1
  Cu  Cu53  1  0.58918500  0.92518100  0.87505100  1
  Cu  Cu54  1  0.07481900  0.66400400  0.87505100  1
  Cu  Cu55  1  0.41081500  0.33599600  0.37505100  1
  Cu  Cu56  1  0.92518100  0.58918500  0.37505100  1
  Cu  Cu57  1  0.66400400  0.07481900  0.37505100  1
  Cu  Cu58  1  0.29367100  0.33893400  0.00161100  1
  Cu  Cu59  1  0.66106600  0.95473600  0.00161100  1
  Cu  Cu60  1  0.04526400  0.70632900  0.00161100  1
  Cu  Cu61  1  0.33893400  0.29367100  0.50161100  1
  Cu  Cu62  1  0.95473600  0.66106600  0.50161100  1
  Cu  Cu63  1  0.70632900  0.04526400  0.50161100  1
  Cu  Cu64  1  0.00000000  0.00000000  0.77888600  1
  Cu  Cu65  1  0.00000000  0.00000000  0.27888600  1
  Cu  Cu66  1  0.40388000  0.01705500  0.09364200  1
  Cu  Cu67  1  0.66666700  0.33333300  0.81504800  1
