# generated using pymatgen
data_Cu4Ni4C5
_symmetry_space_group_name_H-M   'P 1'
_cell_length_a   5.14212072
_cell_length_b   9.72556095
_cell_length_c   3.07716979
_cell_angle_alpha   90.00000000
_cell_angle_beta   90.00000000
_cell_angle_gamma   85.98515246
_symmetry_Int_Tables_number   1
_chemical_formula_structural   Cu4Ni4C5
_chemical_formula_sum   'Cu4 Ni4 C5'
_cell_volume   153.51163365
_cell_formula_units_Z   1
loop_
 _symmetry_equiv_pos_site_id
 _symmetry_equiv_pos_as_xyz
  1  'x, y, z'
loop_
 _atom_site_type_symbol
 _atom_site_label
 _atom_site_symmetry_multiplicity
 _atom_site_fract_x
 _atom_site_fract_y
 _atom_site_fract_z
 _atom_site_occupancy
  C  C0  1  0.50000000  0.00000000  0.00000000  1
  C  C1  1  -0.00000000  0.00000000  0.00000000  1
  C  C2  1  -0.00000000  0.50000000  0.00000000  1
  C  C3  1  0.57466912  0.27587468  0.50000000  1
  C  C4  1  0.42533088  0.72412532  0.50000000  1
  Ni  Ni5  1  0.26168790  0.92555096  0.50000000  1
  Ni  Ni6  1  0.25938879  0.65588553  -0.00000000  1
  Ni  Ni7  1  0.74061121  0.34411447  0.00000000  1
  Ni  Ni8  1  0.73831210  0.07444904  0.50000000  1
  Cu  Cu9  1  0.24695695  0.40341107  0.50000000  1
  Cu  Cu10  1  0.31725297  0.18068055  -0.00000000  1
  Cu  Cu11  1  0.68274703  0.81931945  0.00000000  1
  Cu  Cu12  1  0.75304305  0.59658893  0.50000000  1
