# generated using pymatgen
data_Cu6Ni6C7
_symmetry_space_group_name_H-M   'P 1'
_cell_length_a   4.87591765
_cell_length_b   4.88431576
_cell_length_c   9.09780753
_cell_angle_alpha   91.22530460
_cell_angle_beta   91.66834437
_cell_angle_gamma   86.95838494
_symmetry_Int_Tables_number   1
_chemical_formula_structural   Cu6Ni6C7
_chemical_formula_sum   'Cu6 Ni6 C7'
_cell_volume   216.22936067
_cell_formula_units_Z   1
loop_
 _symmetry_equiv_pos_site_id
 _symmetry_equiv_pos_as_xyz
  1  'x, y, z'
loop_
 _atom_site_type_symbol
 _atom_site_label
 _atom_site_symmetry_multiplicity
 _atom_site_fract_x
 _atom_site_fract_y
 _atom_site_fract_z
 _atom_site_occupancy
  C  C0  1  0.55946237  0.99851751  0.47586319  1
  C  C1  1  0.94670050  0.91782470  0.99715677  1
  C  C2  1  0.05294242  0.02075772  0.30825879  1
  C  C3  1  0.06518908  0.02026875  0.68654000  1
  C  C4  1  0.54078042  0.45297070  0.16522842  1
  C  C5  1  0.47282932  0.49812835  0.83801177  1
  C  C6  1  0.17127380  0.47811393  0.49463564  1
  Ni  Ni7  1  0.19732274  0.78952268  0.83580234  1
  Ni  Ni8  1  0.19162017  0.85875005  0.49036216  1
  Ni  Ni9  1  0.33731882  0.26427737  0.33289365  1
  Ni  Ni10  1  0.30801272  0.30177924  0.67578047  1
  Ni  Ni11  1  0.68401291  0.67737485  0.98744106  1
  Ni  Ni12  1  0.85880201  0.17183784  0.15707468  1
  Cu  Cu13  1  0.20900624  0.74503588  0.15486533  1
  Cu  Cu14  1  0.33767581  0.26683890  0.99522945  1
  Cu  Cu15  1  0.73128136  0.80589207  0.64566043  1
  Cu  Cu16  1  0.73851923  0.75208129  0.32690590  1
  Cu  Cu17  1  0.81185851  0.20693858  0.84100179  1
  Cu  Cu18  1  0.82705957  0.27308660  0.50557315  1
