# generated using pymatgen
data_CuNi3C8
_symmetry_space_group_name_H-M   'P 1'
_cell_length_a   5.02602900
_cell_length_b   7.01487549
_cell_length_c   11.81086559
_cell_angle_alpha   77.62404628
_cell_angle_beta   78.60706810
_cell_angle_gamma   69.40146029
_symmetry_Int_Tables_number   1
_chemical_formula_structural   CuNi3C8
_chemical_formula_sum   'Cu2 Ni6 C16'
_cell_volume   377.32330398
_cell_formula_units_Z   2
loop_
 _symmetry_equiv_pos_site_id
 _symmetry_equiv_pos_as_xyz
  1  'x, y, z'
loop_
 _atom_site_type_symbol
 _atom_site_label
 _atom_site_symmetry_multiplicity
 _atom_site_fract_x
 _atom_site_fract_y
 _atom_site_fract_z
 _atom_site_occupancy
  Ni  Ni0  1  0.48807200  0.74540900  0.57154500  1
  Ni  Ni1  1  0.51192800  0.25459100  0.42845500  1
  Ni  Ni2  1  0.11060200  0.46488100  0.80591700  1
  Ni  Ni3  1  0.88939800  0.53511900  0.19408300  1
  Ni  Ni4  1  0.85795200  0.13792600  0.69640200  1
  Ni  Ni5  1  0.14204800  0.86207400  0.30359800  1
  Cu  Cu6  1  0.34793500  0.82526400  0.90460600  1
  Cu  Cu7  1  0.65206500  0.17473600  0.09539400  1
  C  C8  1  0.50797000  0.29791000  0.80293900  1
  C  C9  1  0.49203000  0.70209000  0.19706100  1
  C  C10  1  0.17839500  0.63841300  0.92774000  1
  C  C11  1  0.82160500  0.36158700  0.07226000  1
  C  C12  1  0.58884800  0.77507700  0.78052700  1
  C  C13  1  0.41115200  0.22492300  0.21947300  1
  C  C14  1  0.64678400  0.30777200  0.55716900  1
  C  C15  1  0.35321600  0.69222800  0.44283100  1
  C  C16  1  0.74558300  0.96895700  0.43500900  1
  C  C17  1  0.25441700  0.03104300  0.56499100  1
  C  C18  1  0.99315700  0.63667000  0.32821900  1
  C  C19  1  0.00684300  0.36333000  0.67178100  1
  C  C20  1  0.84138900  0.31636000  0.32081900  1
  C  C21  1  0.15861100  0.68364000  0.67918100  1
  C  C22  1  0.92245100  0.94845200  0.14360900  1
  C  C23  1  0.07754900  0.05154800  0.85639100  1
