# generated using pymatgen
data_Cu3NiC6
_symmetry_space_group_name_H-M   'P 1'
_cell_length_a   6.07160600
_cell_length_b   8.28710990
_cell_length_c   10.61324471
_cell_angle_alpha   90.43256108
_cell_angle_beta   101.66374192
_cell_angle_gamma   97.79991023
_symmetry_Int_Tables_number   1
_chemical_formula_structural   Cu3NiC6
_chemical_formula_sum   'Cu6 Ni2 C12'
_cell_volume   517.81415738
_cell_formula_units_Z   2
loop_
 _symmetry_equiv_pos_site_id
 _symmetry_equiv_pos_as_xyz
  1  'x, y, z'
loop_
 _atom_site_type_symbol
 _atom_site_label
 _atom_site_symmetry_multiplicity
 _atom_site_fract_x
 _atom_site_fract_y
 _atom_site_fract_z
 _atom_site_occupancy
  Ni  Ni0  1  0.55317600  0.77589600  0.80589900  1
  Ni  Ni1  1  0.44682400  0.22410400  0.19410100  1
  Cu  Cu2  1  0.77681000  0.76876800  0.46364400  1
  Cu  Cu3  1  0.22319000  0.23123200  0.53635600  1
  Cu  Cu4  1  0.09913300  0.61900800  0.17293600  1
  Cu  Cu5  1  0.90086700  0.38099200  0.82706400  1
  Cu  Cu6  1  0.81420500  0.82508700  0.21747400  1
  Cu  Cu7  1  0.18579500  0.17491300  0.78252600  1
  C  C8  1  0.33663100  0.67974200  0.68203800  1
  C  C9  1  0.66336900  0.32025800  0.31796200  1
  C  C10  1  0.52750000  0.96823200  0.73441700  1
  C  C11  1  0.47250000  0.03176800  0.26558300  1
  C  C12  1  0.35644800  0.80824300  0.90127700  1
  C  C13  1  0.64355200  0.19175700  0.09872300  1
  C  C14  1  0.59015300  0.58268300  0.87600600  1
  C  C15  1  0.40984700  0.41731700  0.12399400  1
  C  C16  1  0.23946000  0.25595300  0.28865000  1
  C  C17  1  0.76054000  0.74404700  0.71135000  1
  C  C18  1  0.22027700  0.12940600  0.07193400  1
  C  C19  1  0.77972300  0.87059400  0.92806600  1
