# generated using pymatgen
data_Cu2Ni5C9
_symmetry_space_group_name_H-M   'P 1'
_cell_length_a   6.85870500
_cell_length_b   7.18769100
_cell_length_c   16.43042600
_cell_angle_alpha   90.00000000
_cell_angle_beta   90.00000000
_cell_angle_gamma   90.00000000
_symmetry_Int_Tables_number   1
_chemical_formula_structural   Cu2Ni5C9
_chemical_formula_sum   'Cu8 Ni20 C36'
_cell_volume   809.99128470
_cell_formula_units_Z   4
loop_
 _symmetry_equiv_pos_site_id
 _symmetry_equiv_pos_as_xyz
  1  'x, y, z'
loop_
 _atom_site_type_symbol
 _atom_site_label
 _atom_site_symmetry_multiplicity
 _atom_site_fract_x
 _atom_site_fract_y
 _atom_site_fract_z
 _atom_site_occupancy
  C  C0  1  0.37238700  0.61910500  0.78533200  1
  C  C1  1  0.87238700  0.88089500  0.21466800  1
  C  C2  1  0.62761300  0.11910500  0.71466800  1
  C  C3  1  0.12761300  0.38089500  0.28533200  1
  Ni  Ni4  1  0.05846300  0.24345700  0.60461900  1
  Ni  Ni5  1  0.55846300  0.25654300  0.39538100  1
  Ni  Ni6  1  0.94153700  0.74345700  0.89538100  1
  Ni  Ni7  1  0.44153700  0.75654300  0.10461900  1
  Ni  Ni8  1  0.17686600  0.41669300  0.57509800  1
  Ni  Ni9  1  0.67686600  0.08330700  0.42490200  1
  Ni  Ni10  1  0.82313400  0.91669300  0.92490200  1
  Ni  Ni11  1  0.32313400  0.58330700  0.07509800  1
  Ni  Ni12  1  0.40096600  0.77119500  0.96306000  1
  Ni  Ni13  1  0.90096600  0.72880500  0.03694000  1
  Ni  Ni14  1  0.59903400  0.27119500  0.53694000  1
  Ni  Ni15  1  0.09903400  0.22880500  0.46306000  1
  Ni  Ni16  1  0.48202400  0.92968400  0.90095800  1
  Ni  Ni17  1  0.98202400  0.57031600  0.09904200  1
  Ni  Ni18  1  0.51797600  0.42968400  0.59904200  1
  Ni  Ni19  1  0.01797600  0.07031600  0.40095800  1
  Ni  Ni20  1  0.70248200  0.17591200  0.04718900  1
  Ni  Ni21  1  0.20248200  0.32408800  0.95281100  1
  Ni  Ni22  1  0.29751800  0.67591200  0.45281100  1
  Ni  Ni23  1  0.79751800  0.82408800  0.54718900  1
  Cu  Cu24  1  0.63195500  0.31864100  0.92429600  1
  Cu  Cu25  1  0.13195500  0.18135900  0.07570400  1
  Cu  Cu26  1  0.36804500  0.81864100  0.57570400  1
  Cu  Cu27  1  0.86804500  0.68135900  0.42429600  1
  Cu  Cu28  1  0.84124000  0.62101000  0.72870000  1
  Cu  Cu29  1  0.34124000  0.87899000  0.27130000  1
  Cu  Cu30  1  0.15876000  0.12101000  0.77130000  1
  Cu  Cu31  1  0.65876000  0.37899000  0.22870000  1
  C  C32  1  0.09163600  0.31672400  0.55583400  1
  C  C33  1  0.59163600  0.18327600  0.44416600  1
  C  C34  1  0.90836400  0.81672400  0.94416600  1
  C  C35  1  0.40836400  0.68327600  0.05583400  1
  C  C36  1  0.39904100  0.81724500  0.90521500  1
  C  C37  1  0.89904100  0.68275500  0.09478500  1
  C  C38  1  0.60095900  0.31724500  0.59478500  1
  C  C39  1  0.10095900  0.18275500  0.40521500  1
  C  C40  1  0.57506500  0.21567200  0.02136200  1
  C  C41  1  0.07506500  0.28432800  0.97863800  1
  C  C42  1  0.42493500  0.71567200  0.47863800  1
  C  C43  1  0.92493500  0.78432800  0.52136200  1
  C  C44  1  0.63988000  0.11782200  0.86649500  1
  C  C45  1  0.13988000  0.38217800  0.13350500  1
  C  C46  1  0.36012000  0.61782200  0.63350500  1
  C  C47  1  0.86012000  0.88217800  0.36649500  1
  C  C48  1  0.40451600  0.40634700  0.90534900  1
  C  C49  1  0.90451600  0.09365300  0.09465100  1
  C  C50  1  0.59548400  0.90634700  0.59465100  1
  C  C51  1  0.09548400  0.59365300  0.40534900  1
  C  C52  1  0.68758800  0.44330700  0.76280800  1
  C  C53  1  0.18758800  0.05669300  0.23719200  1
  C  C54  1  0.31241200  0.94330700  0.73719200  1
  C  C55  1  0.81241200  0.55669300  0.26280800  1
  C  C56  1  0.02370100  0.62297900  0.80020200  1
  C  C57  1  0.52370100  0.87702100  0.19979800  1
  C  C58  1  0.97629900  0.12297900  0.69979800  1
  C  C59  1  0.47629900  0.37702100  0.30020200  1
  C  C60  1  0.68970500  0.79747000  0.76275800  1
  C  C61  1  0.18970500  0.70253000  0.23724200  1
  C  C62  1  0.31029500  0.29747000  0.73724200  1
  C  C63  1  0.81029500  0.20253000  0.26275800  1
