# generated using pymatgen
data_Cu3NiC9
_symmetry_space_group_name_H-M   'P 1'
_cell_length_a   3.78774400
_cell_length_b   3.90943200
_cell_length_c   10.04691600
_cell_angle_alpha   90.00000000
_cell_angle_beta   90.00000000
_cell_angle_gamma   90.00000000
_symmetry_Int_Tables_number   1
_chemical_formula_structural   Cu3NiC9
_chemical_formula_sum   'Cu3 Ni1 C9'
_cell_volume   148.77400475
_cell_formula_units_Z   1
loop_
 _symmetry_equiv_pos_site_id
 _symmetry_equiv_pos_as_xyz
  1  'x, y, z'
loop_
 _atom_site_type_symbol
 _atom_site_label
 _atom_site_symmetry_multiplicity
 _atom_site_fract_x
 _atom_site_fract_y
 _atom_site_fract_z
 _atom_site_occupancy
  Ni  Ni0  1  0.00000000  0.00000000  0.45886100  1
  Cu  Cu1  1  0.00000000  0.00000000  0.00132400  1
  Cu  Cu2  1  0.00000000  0.50000000  0.22613500  1
  Cu  Cu3  1  0.50000000  0.00000000  0.76303500  1
  C  C4  1  0.50000000  0.49999900  0.53258100  1
  C  C5  1  0.00000000  0.00000000  0.20009400  1
  C  C6  1  0.50000000  0.50000000  0.72968000  1
  C  C7  1  0.00000000  0.50000000  0.43585900  1
  C  C8  1  0.50000000  0.00000000  0.95859700  1
  C  C9  1  0.50000000  0.00000000  0.54803600  1
  C  C10  1  0.00000000  0.50000000  0.03021400  1
  C  C11  1  0.50000000  0.50000000  0.25437100  1
  C  C12  1  0.00000000  0.00000000  0.79871200  1
