# generated using pymatgen
data_Cu3(NiC15)2
_symmetry_space_group_name_H-M   'P 1'
_cell_length_a   8.86157229
_cell_length_b   8.88727593
_cell_length_c   23.32755695
_cell_angle_alpha   90.31048589
_cell_angle_beta   89.65675229
_cell_angle_gamma   120.05012695
_symmetry_Int_Tables_number   1
_chemical_formula_structural   Cu3(NiC15)2
_chemical_formula_sum   'Cu9 Ni6 C90'
_cell_volume   1590.19454866
_cell_formula_units_Z   3
loop_
 _symmetry_equiv_pos_site_id
 _symmetry_equiv_pos_as_xyz
  1  'x, y, z'
loop_
 _atom_site_type_symbol
 _atom_site_label
 _atom_site_symmetry_multiplicity
 _atom_site_fract_x
 _atom_site_fract_y
 _atom_site_fract_z
 _atom_site_occupancy
  C  C0  1  0.68132253  0.33526610  0.83395087  1
  C  C1  1  0.66169257  0.34181079  0.33047495  1
  C  C2  1  0.34779634  0.67617573  0.17112210  1
  C  C3  1  0.00686228  0.99313455  0.35547915  1
  C  C4  1  0.99336639  0.00152915  0.85596703  1
  C  C5  1  0.99440409  0.99277407  0.64919040  1
  C  C6  1  0.99899407  0.99925609  0.14597239  1
  C  C7  1  0.33326389  0.66011137  0.02019295  1
  C  C8  1  0.32715803  0.66146254  0.51606475  1
  Ni  Ni9  1  0.67349955  0.33411403  0.68790971  1
  Ni  Ni10  1  0.65108530  0.32748459  0.18602076  1
  Ni  Ni11  1  0.66757771  0.32442882  0.98566324  1
  Ni  Ni12  1  0.66507816  0.33835074  0.48045155  1
  Ni  Ni13  1  0.33559534  0.66662504  0.31257713  1
  Ni  Ni14  1  0.32562264  0.66774989  0.81008228  1
  Cu  Cu15  1  0.28932689  0.99736692  0.24981315  1
  Cu  Cu16  1  0.71237003  0.71031251  0.25029082  1
  Cu  Cu17  1  0.99669921  0.71149685  0.75134413  1
  Cu  Cu18  1  0.70917557  0.99916194  0.75139702  1
  Cu  Cu19  1  0.66521802  0.03865044  0.08433177  1
  Cu  Cu20  1  0.37408505  0.33312409  0.08299110  1
  Cu  Cu21  1  0.04079752  0.38004962  0.91503650  1
  Cu  Cu22  1  0.33326484  0.37583281  0.41474701  1
  Cu  Cu23  1  0.04163531  0.66231179  0.41539864  1
  C  C24  1  0.99780227  0.28680897  0.25023470  1
  C  C25  1  0.28791300  0.28549114  0.75028112  1
  C  C26  1  0.96004584  0.33195008  0.58300622  1
  C  C27  1  0.37528792  0.04102404  0.58371299  1
  C  C28  1  0.66416548  0.62583792  0.58411017  1
  C  C29  1  0.96080035  0.62687368  0.08386321  1
  C  C30  1  0.62200938  0.66211161  0.91538668  1
  C  C31  1  0.33431773  0.95961464  0.91570732  1
  C  C32  1  0.62608302  0.95958374  0.41676686  1
  C  C33  1  0.19646481  0.01676187  0.30421343  1
  C  C34  1  0.82068955  0.80636464  0.30444709  1
  C  C35  1  0.98009198  0.18347464  0.30220552  1
  C  C36  1  0.20285078  0.17736259  0.80164468  1
  C  C37  1  0.97675451  0.80637328  0.80424058  1
  C  C38  1  0.82804738  0.02653298  0.80388610  1
  C  C39  1  0.80428595  0.98442549  0.69670192  1
  C  C40  1  0.18255550  0.19898274  0.69791703  1
  C  C41  1  0.01472771  0.82187766  0.69674714  1
  C  C42  1  0.80420031  0.82058297  0.19667828  1
  C  C43  1  0.01628359  0.20032390  0.19810954  1
  C  C44  1  0.18092293  0.98368034  0.19653596  1
  C  C45  1  0.88789539  0.37081364  0.63444166  1
  C  C46  1  0.48500341  0.11650286  0.63505412  1
  C  C47  1  0.62793572  0.51581718  0.63513257  1
  C  C48  1  0.88894769  0.51696830  0.13471984  1
  C  C49  1  0.62578513  0.11457334  0.13756781  1
  C  C50  1  0.49043411  0.38131024  0.13575909  1
  C  C51  1  0.44972042  0.30210530  0.02799984  1
  C  C52  1  0.85730963  0.55604867  0.03152255  1
  C  C53  1  0.70494007  0.14601989  0.02965870  1
  C  C54  1  0.44941719  0.15062836  0.53256131  1
  C  C55  1  0.70400502  0.55437317  0.53299472  1
  C  C56  1  0.84938320  0.29520024  0.53225998  1
  C  C57  1  0.53970345  0.69036987  0.96721990  1
  C  C58  1  0.15563506  0.46958240  0.96854194  1
  C  C59  1  0.31030645  0.85237888  0.96719752  1
  C  C60  1  0.53961249  0.84921379  0.46879021  1
  C  C61  1  0.31195344  0.46809349  0.46975536  1
  C  C62  1  0.15667332  0.68925255  0.46993199  1
  C  C63  1  0.12284352  0.63290846  0.36223681  1
  C  C64  1  0.51887001  0.88609681  0.36544623  1
  C  C65  1  0.37039108  0.49044518  0.36249279  1
  C  C66  1  0.12279791  0.48872499  0.86119376  1
  C  C67  1  0.36770670  0.88449392  0.86402389  1
  C  C68  1  0.51714674  0.63570236  0.86388189  1
  C  C69  1  0.02643429  0.82740077  0.40948154  1
  C  C70  1  0.79725394  0.97305170  0.41038978  1
  C  C71  1  0.16499897  0.19934260  0.40766459  1
  C  C72  1  0.02790699  0.19990058  0.90664646  1
  C  C73  1  0.17365517  0.97108234  0.90788868  1
  C  C74  1  0.79612527  0.82300395  0.90912165  1
  C  C75  1  0.98410036  0.18062388  0.59357234  1
  C  C76  1  0.19968794  0.02012001  0.59397831  1
  C  C77  1  0.81962456  0.80176253  0.59381455  1
  C  C78  1  0.98410200  0.80167583  0.09267158  1
  C  C79  1  0.82177974  0.01246119  0.09560383  1
  C  C80  1  0.19303737  0.17504060  0.09447134  1
  C  C81  1  0.69390622  0.16419077  0.74666185  1
  C  C82  1  0.46048968  0.29856525  0.74510740  1
  C  C83  1  0.82739588  0.53304654  0.74685373  1
  C  C84  1  0.70315233  0.53236536  0.24719014  1
  C  C85  1  0.84040788  0.30311020  0.24601526  1
  C  C86  1  0.47024317  0.16288362  0.24918162  1
  C  C87  1  0.64630710  0.51140542  0.92298750  1
  C  C88  1  0.85679788  0.35541877  0.92211348  1
  C  C89  1  0.48527072  0.13735997  0.92158209  1
  C  C90  1  0.64748257  0.13395705  0.42546755  1
  C  C91  1  0.48969478  0.34777839  0.42338133  1
  C  C92  1  0.86010489  0.50196308  0.42376594  1
  C  C93  1  0.34804354  0.49440906  0.07313842  1
  C  C94  1  0.14040085  0.65102026  0.07467549  1
  C  C95  1  0.50153558  0.85413522  0.07322429  1
  C  C96  1  0.35414465  0.86639898  0.57322803  1
  C  C97  1  0.51272264  0.64979784  0.57343752  1
  C  C98  1  0.13569322  0.48716710  0.57292570  1
  C  C99  1  0.30084198  0.83018795  0.25279463  1
  C  C100  1  0.53031467  0.69391036  0.25279494  1
  C  C101  1  0.15777178  0.45977151  0.25224845  1
  C  C102  1  0.30282785  0.45617723  0.75466705  1
  C  C103  1  0.16011619  0.69791369  0.75403383  1
  C  C104  1  0.53568592  0.83269011  0.75730169  1
