# generated using pymatgen
data_Cu3(NiC4)2
_symmetry_space_group_name_H-M   'P 1'
_cell_length_a   15.91830300
_cell_length_b   7.30031100
_cell_length_c   14.79394167
_cell_angle_alpha   81.79237804
_cell_angle_beta   90.00000000
_cell_angle_gamma   90.00000000
_symmetry_Int_Tables_number   1
_chemical_formula_structural   Cu3(NiC4)2
_chemical_formula_sum   'Cu12 Ni8 C32'
_cell_volume   1701.57353373
_cell_formula_units_Z   4
loop_
 _symmetry_equiv_pos_site_id
 _symmetry_equiv_pos_as_xyz
  1  'x, y, z'
loop_
 _atom_site_type_symbol
 _atom_site_label
 _atom_site_symmetry_multiplicity
 _atom_site_fract_x
 _atom_site_fract_y
 _atom_site_fract_z
 _atom_site_occupancy
  Ni  Ni0  1  0.68334400  0.39821000  0.09248600  1
  Ni  Ni1  1  0.39993600  0.19472800  0.27897300  1
  Ni  Ni2  1  0.89993600  0.80527200  0.22102700  1
  Ni  Ni3  1  0.60006400  0.80527200  0.72102700  1
  Ni  Ni4  1  0.10006400  0.19472800  0.77897300  1
  Ni  Ni5  1  0.81665600  0.39821000  0.59248600  1
  Ni  Ni6  1  0.31665600  0.60179000  0.90751400  1
  Ni  Ni7  1  0.18334400  0.60179000  0.40751400  1
  Cu  Cu8  1  0.52868100  0.63059700  0.30184300  1
  Cu  Cu9  1  0.02868100  0.36940300  0.19815700  1
  Cu  Cu10  1  0.47131900  0.36940300  0.69815700  1
  Cu  Cu11  1  0.97131900  0.63059700  0.80184300  1
  Cu  Cu12  1  0.75945300  0.98358600  0.46963400  1
  Cu  Cu13  1  0.25945300  0.01641400  0.03036600  1
  Cu  Cu14  1  0.24054700  0.01641400  0.53036600  1
  Cu  Cu15  1  0.74054700  0.98358600  0.96963400  1
  Cu  Cu16  1  0.63992400  0.80926500  0.39104100  1
  Cu  Cu17  1  0.13992400  0.19073500  0.10895900  1
  Cu  Cu18  1  0.36007600  0.19073500  0.60895900  1
  Cu  Cu19  1  0.86007600  0.80926500  0.89104100  1
  C  C20  1  0.41594500  0.48087900  0.20723900  1
  C  C21  1  0.91594500  0.51912100  0.29276100  1
  C  C22  1  0.58405500  0.51912100  0.79276100  1
  C  C23  1  0.08405500  0.48087900  0.70723900  1
  C  C24  1  0.47634900  0.17345200  0.39995300  1
  C  C25  1  0.06225300  0.00671200  0.68812300  1
  C  C26  1  0.56225300  0.99328800  0.81187700  1
  C  C27  1  0.93774700  0.99328800  0.31187700  1
  C  C28  1  0.67156400  0.32729600  0.23747500  1
  C  C29  1  0.17156400  0.67270400  0.26252500  1
  C  C30  1  0.32843600  0.67270400  0.76252500  1
  C  C31  1  0.82843600  0.32729600  0.73747500  1
  C  C32  1  0.81132600  0.40505700  0.04451000  1
  C  C33  1  0.31132600  0.59494300  0.45549000  1
  C  C34  1  0.18867400  0.59494300  0.95549000  1
  C  C35  1  0.68867400  0.40505700  0.54451000  1
  C  C36  1  0.62114000  0.17461100  0.02835900  1
  C  C37  1  0.12114000  0.82538900  0.47164100  1
  C  C38  1  0.37886000  0.82538900  0.97164100  1
  C  C39  1  0.87886000  0.17461100  0.52835900  1
  C  C40  1  0.61469200  0.64517500  0.04383800  1
  C  C41  1  0.11469200  0.35482500  0.45616200  1
  C  C42  1  0.38530800  0.35482500  0.95616200  1
  C  C43  1  0.88530800  0.64517500  0.54383800  1
  C  C44  1  0.43774700  0.00671200  0.18812300  1
  C  C45  1  0.02365100  0.17345200  0.89995300  1
  C  C46  1  0.52365100  0.82654800  0.60004700  1
  C  C47  1  0.97634900  0.82654800  0.10004700  1
  C  C48  1  0.23125400  0.15787800  0.80999300  1
  C  C49  1  0.73125400  0.84212200  0.69000700  1
  C  C50  1  0.76874600  0.84212200  0.19000700  1
  C  C51  1  0.26874600  0.15787800  0.30999300  1
