# generated using pymatgen
data_CuNiC5
_symmetry_space_group_name_H-M   'P 1'
_cell_length_a   8.71469600
_cell_length_b   10.09586500
_cell_length_c   19.79915800
_cell_angle_alpha   90.00000000
_cell_angle_beta   90.00000000
_cell_angle_gamma   90.00000000
_symmetry_Int_Tables_number   1
_chemical_formula_structural   CuNiC5
_chemical_formula_sum   'Cu16 Ni16 C80'
_cell_volume   1741.97732660
_cell_formula_units_Z   16
loop_
 _symmetry_equiv_pos_site_id
 _symmetry_equiv_pos_as_xyz
  1  'x, y, z'
loop_
 _atom_site_type_symbol
 _atom_site_label
 _atom_site_symmetry_multiplicity
 _atom_site_fract_x
 _atom_site_fract_y
 _atom_site_fract_z
 _atom_site_occupancy
  C  C0  1  0.36715300  0.68264600  0.38185200  1
  C  C1  1  0.86715300  0.81735400  0.61814800  1
  C  C2  1  0.63284700  0.18264600  0.11814800  1
  C  C3  1  0.13284700  0.31735400  0.88185200  1
  C  C4  1  0.63284700  0.31735400  0.61814800  1
  C  C5  1  0.13284700  0.18264600  0.38185200  1
  C  C6  1  0.36715300  0.81735400  0.88185200  1
  C  C7  1  0.86715300  0.68264600  0.11814800  1
  C  C8  1  0.62390700  0.32206500  0.37441600  1
  C  C9  1  0.12390700  0.17793500  0.62558400  1
  C  C10  1  0.37609300  0.82206500  0.12558400  1
  C  C11  1  0.87609300  0.67793500  0.87441600  1
  C  C12  1  0.37609300  0.67793500  0.62558400  1
  C  C13  1  0.87609300  0.82206500  0.37441600  1
  C  C14  1  0.62390700  0.17793500  0.87441600  1
  C  C15  1  0.12390700  0.32206500  0.12558400  1
  Ni  Ni16  1  0.02044600  0.47872800  0.29330800  1
  Ni  Ni17  1  0.52044600  0.02127200  0.70669200  1
  Ni  Ni18  1  0.97955400  0.97872800  0.20669200  1
  Ni  Ni19  1  0.47955400  0.52127200  0.79330800  1
  Ni  Ni20  1  0.97955400  0.52127200  0.70669200  1
  Ni  Ni21  1  0.47955400  0.97872800  0.29330800  1
  Ni  Ni22  1  0.02044600  0.02127200  0.79330800  1
  Ni  Ni23  1  0.52044600  0.47872800  0.20669200  1
  Ni  Ni24  1  0.74510800  0.07605100  0.49561900  1
  Ni  Ni25  1  0.24510800  0.42394900  0.50438100  1
  Ni  Ni26  1  0.25489200  0.57605100  0.00438100  1
  Ni  Ni27  1  0.75489200  0.92394900  0.99561900  1
  Ni  Ni28  1  0.25489200  0.92394900  0.50438100  1
  Ni  Ni29  1  0.75489200  0.57605100  0.49561900  1
  Ni  Ni30  1  0.74510800  0.42394900  0.99561900  1
  Ni  Ni31  1  0.24510800  0.07605100  0.00438100  1
  Cu  Cu32  1  0.28656600  0.42450000  0.28001900  1
  Cu  Cu33  1  0.78656600  0.07550000  0.71998100  1
  Cu  Cu34  1  0.71343400  0.92450000  0.21998100  1
  Cu  Cu35  1  0.21343400  0.57550000  0.78001900  1
  Cu  Cu36  1  0.71343400  0.57550000  0.71998100  1
  Cu  Cu37  1  0.21343400  0.92450000  0.28001900  1
  Cu  Cu38  1  0.28656600  0.07550000  0.78001900  1
  Cu  Cu39  1  0.78656600  0.42450000  0.21998100  1
  Cu  Cu40  1  0.58305400  0.88418900  0.49981300  1
  Cu  Cu41  1  0.08305400  0.61581100  0.50018700  1
  Cu  Cu42  1  0.41694600  0.38418900  0.00018700  1
  Cu  Cu43  1  0.91694600  0.11581100  0.99981300  1
  Cu  Cu44  1  0.41694600  0.11581100  0.50018700  1
  Cu  Cu45  1  0.91694600  0.38418900  0.49981300  1
  Cu  Cu46  1  0.58305400  0.61581100  0.99981300  1
  Cu  Cu47  1  0.08305400  0.88418900  0.00018700  1
  C  C48  1  0.91809100  0.37877200  0.34550000  1
  C  C49  1  0.41809100  0.12122800  0.65450000  1
  C  C50  1  0.08190900  0.87877200  0.15450000  1
  C  C51  1  0.58190900  0.62122800  0.84550000  1
  C  C52  1  0.08190900  0.62122800  0.65450000  1
  C  C53  1  0.58190900  0.87877200  0.34550000  1
  C  C54  1  0.91809100  0.12122800  0.84550000  1
  C  C55  1  0.41809100  0.37877200  0.15450000  1
  C  C56  1  0.93762300  0.49408500  0.21436300  1
  C  C57  1  0.43762300  0.00591500  0.78563700  1
  C  C58  1  0.06237700  0.99408500  0.28563700  1
  C  C59  1  0.56237700  0.50591500  0.71436300  1
  C  C60  1  0.06237700  0.50591500  0.78563700  1
  C  C61  1  0.56237700  0.99408500  0.21436300  1
  C  C62  1  0.93762300  0.00591500  0.71436300  1
  C  C63  1  0.43762300  0.49408500  0.28563700  1
  C  C64  1  0.18215700  0.37454100  0.27506100  1
  C  C65  1  0.68215700  0.12545900  0.72493900  1
  C  C66  1  0.81784300  0.87454100  0.22493900  1
  C  C67  1  0.31784300  0.62545900  0.77506100  1
  C  C68  1  0.81784300  0.62545900  0.72493900  1
  C  C69  1  0.31784300  0.87454100  0.27506100  1
  C  C70  1  0.18215700  0.12545900  0.77506100  1
  C  C71  1  0.68215700  0.37454100  0.22493900  1
  C  C72  1  0.07595600  0.62640200  0.32624900  1
  C  C73  1  0.57595600  0.87359800  0.67375100  1
  C  C74  1  0.92404400  0.12640200  0.17375100  1
  C  C75  1  0.42404400  0.37359800  0.82624900  1
  C  C76  1  0.92404400  0.37359800  0.67375100  1
  C  C77  1  0.42404400  0.12640200  0.32624900  1
  C  C78  1  0.07595600  0.87359800  0.82624900  1
  C  C79  1  0.57595600  0.62640200  0.17375100  1
  C  C80  1  0.70040100  0.90300600  0.49871000  1
  C  C81  1  0.20040100  0.59699400  0.50129000  1
  C  C82  1  0.29959900  0.40300600  0.00129000  1
  C  C83  1  0.79959900  0.09699400  0.99871000  1
  C  C84  1  0.29959900  0.09699400  0.50129000  1
  C  C85  1  0.79959900  0.40300600  0.49871000  1
  C  C86  1  0.70040100  0.59699400  0.99871000  1
  C  C87  1  0.20040100  0.90300600  0.00129000  1
  C  C88  1  0.84290100  0.10217100  0.56910800  1
  C  C89  1  0.34290100  0.39782900  0.43089200  1
  C  C90  1  0.15709900  0.60217100  0.93089200  1
  C  C91  1  0.65709900  0.89782900  0.06910800  1
  C  C92  1  0.15709900  0.89782900  0.43089200  1
  C  C93  1  0.65709900  0.60217100  0.56910800  1
  C  C94  1  0.84290100  0.39782900  0.06910800  1
  C  C95  1  0.34290100  0.10217100  0.93089200  1
  C  C96  1  0.84378600  0.09526200  0.42180500  1
  C  C97  1  0.34378600  0.40473800  0.57819500  1
  C  C98  1  0.15621400  0.59526200  0.07819500  1
  C  C99  1  0.65621400  0.90473800  0.92180500  1
  C  C100  1  0.15621400  0.90473800  0.57819500  1
  C  C101  1  0.65621400  0.59526200  0.42180500  1
  C  C102  1  0.84378600  0.40473800  0.92180500  1
  C  C103  1  0.34378600  0.09526200  0.07819500  1
  C  C104  1  0.58004200  0.16863800  0.49443800  1
  C  C105  1  0.08004200  0.33136200  0.50556200  1
  C  C106  1  0.41995800  0.66863800  0.00556200  1
  C  C107  1  0.91995800  0.83136200  0.99443800  1
  C  C108  1  0.41995800  0.83136200  0.50556200  1
  C  C109  1  0.91995800  0.66863800  0.49443800  1
  C  C110  1  0.58004200  0.33136200  0.99443800  1
  C  C111  1  0.08004200  0.16863800  0.00556200  1
