# generated using pymatgen
data_CuNi5C4
_symmetry_space_group_name_H-M   'P 1'
_cell_length_a   9.01400100
_cell_length_b   6.03921600
_cell_length_c   14.00126933
_cell_angle_alpha   65.55688343
_cell_angle_beta   90.00000000
_cell_angle_gamma   90.00000000
_symmetry_Int_Tables_number   1
_chemical_formula_structural   CuNi5C4
_chemical_formula_sum   'Cu4 Ni20 C16'
_cell_volume   693.88055937
_cell_formula_units_Z   4
loop_
 _symmetry_equiv_pos_site_id
 _symmetry_equiv_pos_as_xyz
  1  'x, y, z'
loop_
 _atom_site_type_symbol
 _atom_site_label
 _atom_site_symmetry_multiplicity
 _atom_site_fract_x
 _atom_site_fract_y
 _atom_site_fract_z
 _atom_site_occupancy
  Ni  Ni0  1  0.72959800  0.87787400  0.87513900  1
  Ni  Ni1  1  0.77040200  0.87787400  0.37513900  1
  Ni  Ni2  1  0.50000000  0.00000000  0.00000000  1
  Ni  Ni3  1  0.00000000  0.00000000  0.50000000  1
  Ni  Ni4  1  0.13864300  0.61727500  0.35278600  1
  Ni  Ni5  1  0.63864300  0.38272500  0.14721400  1
  Ni  Ni6  1  0.86135700  0.38272500  0.64721400  1
  Ni  Ni7  1  0.36135700  0.61727500  0.85278600  1
  Ni  Ni8  1  0.99234200  0.71454400  0.75392800  1
  Ni  Ni9  1  0.49234200  0.28545600  0.74607200  1
  Ni  Ni10  1  0.00765800  0.28545600  0.24607200  1
  Ni  Ni11  1  0.50765800  0.71454400  0.25392800  1
  Ni  Ni12  1  0.00000000  0.50000000  0.00000000  1
  Ni  Ni13  1  0.50000000  0.50000000  0.50000000  1
  Ni  Ni14  1  0.26801100  0.61486500  0.12570800  1
  Ni  Ni15  1  0.76801100  0.38513500  0.37429200  1
  Ni  Ni16  1  0.73198900  0.38513500  0.87429200  1
  Ni  Ni17  1  0.23198900  0.61486500  0.62570800  1
  Ni  Ni18  1  0.27040200  0.12212600  0.12486100  1
  Ni  Ni19  1  0.22959800  0.12212600  0.62486100  1
  Cu  Cu20  1  0.37928500  0.09452300  0.37771800  1
  Cu  Cu21  1  0.87928500  0.90547700  0.12228200  1
  Cu  Cu22  1  0.62071500  0.90547700  0.62228200  1
  Cu  Cu23  1  0.12071500  0.09452300  0.87771800  1
  C  C24  1  0.36232600  0.03099400  0.87161300  1
  C  C25  1  0.86232600  0.96900600  0.62838700  1
  C  C26  1  0.63767400  0.96900600  0.12838700  1
  C  C27  1  0.13767400  0.03099400  0.37161300  1
  C  C28  1  0.90492500  0.69745100  0.30492000  1
  C  C29  1  0.40492500  0.30254900  0.19508000  1
  C  C30  1  0.13572600  0.93090400  0.06019100  1
  C  C31  1  0.63572600  0.06909600  0.43980900  1
  C  C32  1  0.86427400  0.06909600  0.93980900  1
  C  C33  1  0.36427400  0.93090400  0.56019100  1
  C  C34  1  0.13516700  0.45682400  0.87918700  1
  C  C35  1  0.63516700  0.54317600  0.62081300  1
  C  C36  1  0.86483300  0.54317600  0.12081300  1
  C  C37  1  0.36483300  0.45682400  0.37918700  1
  C  C38  1  0.09507500  0.30254900  0.69508000  1
  C  C39  1  0.59507500  0.69745100  0.80492000  1
