# generated using pymatgen
data_CuNiC
_symmetry_space_group_name_H-M   'P 1'
_cell_length_a   3.45339000
_cell_length_b   5.88194700
_cell_length_c   6.67331100
_cell_angle_alpha   90.00000000
_cell_angle_beta   90.00000000
_cell_angle_gamma   90.00000000
_symmetry_Int_Tables_number   1
_chemical_formula_structural   CuNiC
_chemical_formula_sum   'Cu4 Ni4 C4'
_cell_volume   135.55267707
_cell_formula_units_Z   4
loop_
 _symmetry_equiv_pos_site_id
 _symmetry_equiv_pos_as_xyz
  1  'x, y, z'
loop_
 _atom_site_type_symbol
 _atom_site_label
 _atom_site_symmetry_multiplicity
 _atom_site_fract_x
 _atom_site_fract_y
 _atom_site_fract_z
 _atom_site_occupancy
  Ni  Ni0  1  0.75000000  0.02792100  0.66763500  1
  Ni  Ni1  1  0.25000000  0.97207900  0.33236500  1
  Ni  Ni2  1  0.75000000  0.52792100  0.83236500  1
  Ni  Ni3  1  0.25000000  0.47207900  0.16763500  1
  Cu  Cu4  1  0.25000000  0.35768000  0.56521300  1
  Cu  Cu5  1  0.75000000  0.64232000  0.43478700  1
  Cu  Cu6  1  0.25000000  0.85768000  0.93478700  1
  Cu  Cu7  1  0.75000000  0.14232000  0.06521300  1
  C  C8  1  0.25000000  0.73379400  0.62593700  1
  C  C9  1  0.75000000  0.26620600  0.37406300  1
  C  C10  1  0.25000000  0.23379400  0.87406300  1
  C  C11  1  0.75000000  0.76620600  0.12593700  1
