# generated using pymatgen
data_Cu3(NiC14)5
_symmetry_space_group_name_H-M   'P 1'
_cell_length_a   17.65121198
_cell_length_b   8.82848857
_cell_length_c   22.06238516
_cell_angle_alpha   89.96017960
_cell_angle_beta   90.01626248
_cell_angle_gamma   120.04043140
_symmetry_Int_Tables_number   1
_chemical_formula_structural   Cu3(NiC14)5
_chemical_formula_sum   'Cu9 Ni15 C210'
_cell_volume   2976.23209304
_cell_formula_units_Z   3
loop_
 _symmetry_equiv_pos_site_id
 _symmetry_equiv_pos_as_xyz
  1  'x, y, z'
loop_
 _atom_site_type_symbol
 _atom_site_label
 _atom_site_symmetry_multiplicity
 _atom_site_fract_x
 _atom_site_fract_y
 _atom_site_fract_z
 _atom_site_occupancy
  C  C0  1  0.31921834  0.00972382  0.24936967  1
  C  C1  1  0.68665701  0.36238431  0.24910289  1
  C  C2  1  0.31590582  0.62446355  0.74873658  1
  C  C3  1  0.81572245  0.62393964  0.74897945  1
  C  C4  1  0.15329925  0.34410946  0.57970788  1
  C  C5  1  0.65312506  0.34321427  0.57903050  1
  C  C6  1  0.01793219  0.69294765  0.58009420  1
  C  C7  1  0.51790725  0.69313359  0.57981503  1
  C  C8  1  0.32762268  0.96120945  0.58023263  1
  C  C9  1  0.82819107  0.96417235  0.57994178  1
  C  C10  1  0.15310695  0.96273830  0.07982514  1
  C  C11  1  0.65370038  0.96418633  0.07982567  1
  C  C12  1  0.32801589  0.69304736  0.07995881  1
  C  C13  1  0.82819892  0.69369445  0.07964851  1
  C  C14  1  0.01785933  0.34354085  0.07965994  1
  C  C15  1  0.51819089  0.34332018  0.08047863  1
  C  C16  1  0.66263575  0.02757653  0.41332635  1
  C  C17  1  0.35140769  0.67432846  0.41270774  1
  C  C18  1  0.99993675  0.99950112  0.49448479  1
  C  C19  1  0.49955415  0.01347342  0.49274751  1
  C  C20  1  0.99983976  0.99926186  0.99544895  1
  C  C21  1  0.49986899  0.99954481  0.99585475  1
  C  C22  1  0.33377165  0.32170434  0.83088674  1
  C  C23  1  0.83361246  0.32193404  0.83086057  1
  C  C24  1  0.33440085  0.33837984  0.32729075  1
  C  C25  1  0.84334580  0.34029531  0.32811338  1
  C  C26  1  0.16215784  0.65518428  0.16606581  1
  C  C27  1  0.66605319  0.67689257  0.16601355  1
  C  C28  1  0.16189149  0.66759476  0.66705220  1
  C  C29  1  0.66169019  0.66797493  0.66713010  1
  Ni  Ni30  1  0.00016901  0.99913904  0.35226502  1
  Ni  Ni31  1  0.00008197  0.00145796  0.85414271  1
  Ni  Ni32  1  0.50014168  0.00181421  0.85404632  1
  Ni  Ni33  1  0.00129179  0.00249741  0.65023833  1
  Ni  Ni34  1  0.50123859  0.00097446  0.64979838  1
  Ni  Ni35  1  -0.00009681  0.00075289  0.14973147  1
  Ni  Ni36  1  0.50005984  0.99759505  0.15158844  1
  Ni  Ni37  1  0.33319549  0.33535346  0.97797687  1
  Ni  Ni38  1  0.83364782  0.33459041  0.97802117  1
  Ni  Ni39  1  0.33219015  0.32202787  0.47874457  1
  Ni  Ni40  1  0.83662541  0.34182557  0.47772479  1
  Ni  Ni41  1  0.16362415  0.66059491  0.31426896  1
  Ni  Ni42  1  0.66534175  0.66933716  0.31531889  1
  Ni  Ni43  1  0.16385125  0.66775496  0.81714373  1
  Ni  Ni44  1  0.66362579  0.66716961  0.81721426  1
  Cu  Cu45  1  0.49957567  0.00546965  0.34952817  1
  Cu  Cu46  1  0.33366931  0.32655754  0.68745295  1
  Cu  Cu47  1  0.83368078  0.32582312  0.68729483  1
  Cu  Cu48  1  0.33333084  0.34076628  0.18480397  1
  Cu  Cu49  1  0.83723089  0.33123482  0.18610087  1
  Cu  Cu50  1  0.16670835  0.66728684  0.01088816  1
  Cu  Cu51  1  0.66670660  0.66704844  0.01081037  1
  Cu  Cu52  1  0.16323248  0.66218524  0.51163631  1
  Cu  Cu53  1  0.66920294  0.66810188  0.51214981  1
  C  C54  1  0.14325842  0.99499151  0.25122902  1
  C  C55  1  0.64694314  0.99661552  0.25243988  1
  C  C56  1  0.35180976  0.70333573  0.25310670  1
  C  C57  1  0.85445024  0.71254736  0.25145362  1
  C  C58  1  0.00129822  0.28986101  0.25158434  1
  C  C59  1  0.50063643  0.29660195  0.25071375  1
  C  C60  1  0.14384836  0.29195139  0.75183187  1
  C  C61  1  0.64373491  0.29166710  0.75162978  1
  C  C62  1  0.00310220  0.71360815  0.75144467  1
  C  C63  1  0.50306328  0.71343565  0.75157240  1
  C  C64  1  0.35458488  -0.00007862  0.75159545  1
  C  C65  1  0.85447275  -0.00017372  0.75167229  1
  C  C66  1  0.47822492  0.33294180  0.58501865  1
  C  C67  1  0.97792798  0.33300972  0.58440746  1
  C  C68  1  0.18759492  0.04286365  0.58492834  1
  C  C69  1  0.68807073  0.04402068  0.58339645  1
  C  C70  1  0.33397769  0.62469873  0.58484681  1
  C  C71  1  0.83427989  0.62534080  0.58613926  1
  C  C72  1  0.47846013  0.62421101  0.08350678  1
  C  C73  1  0.97811128  0.62392947  0.08409735  1
  C  C74  1  0.33384285  0.04308403  0.08508879  1
  C  C75  1  0.83383222  0.04378464  0.08351334  1
  C  C76  1  0.18747543  0.33181388  0.08343136  1
  C  C77  1  0.68790879  0.33220927  0.08522146  1
  C  C78  1  0.31385795  0.66639118  0.91666713  1
  C  C79  1  0.81381279  0.66599457  0.91665944  1
  C  C80  1  0.01907609  0.37203882  0.91787741  1
  C  C81  1  0.51896156  0.37179511  0.91803383  1
  C  C82  1  0.16680635  0.96228060  0.91780477  1
  C  C83  1  0.66672002  0.96230362  0.91774420  1
  C  C84  1  0.31170868  0.95885754  0.41755820  1
  C  C85  1  0.81540358  0.96179888  0.41766489  1
  C  C86  1  0.16540054  0.36984215  0.41775420  1
  C  C87  1  0.66783892  0.37521272  0.41812047  1
  C  C88  1  0.02036155  0.66872030  0.41740583  1
  C  C89  1  0.51901765  0.66154094  0.41878392  1
  C  C90  1  0.09343709  0.01215314  0.30550560  1
  C  C91  1  0.60632550  0.02468840  0.30908229  1
  C  C92  1  0.40292319  0.78679119  0.31062037  1
  C  C93  1  0.91294833  0.81295315  0.30567189  1
  C  C94  1  0.48552228  0.18134574  0.30523497  1
  C  C95  1  0.99396046  0.17327208  0.30583773  1
  C  C96  1  0.09350109  0.17412856  0.80564587  1
  C  C97  1  0.59346316  0.17418207  0.80561723  1
  C  C98  1  0.49236681  0.81329113  0.80506993  1
  C  C99  1  0.99241771  0.81352617  0.80496760  1
  C  C100  1  0.41264358  0.01255465  0.80596938  1
  C  C101  1  0.91264580  0.01264491  0.80595037  1
  C  C102  1  0.39953530  0.97078586  0.69300250  1
  C  C103  1  0.89964117  0.97105552  0.69296790  1
  C  C104  1  0.08770240  0.20177356  0.69235669  1
  C  C105  1  0.58767519  0.20167987  0.69225279  1
  C  C106  1  0.01482735  0.82691157  0.69204228  1
  C  C107  1  0.51484357  0.82635093  0.69212829  1
  C  C108  1  0.40046500  0.83036818  0.19587835  1
  C  C109  1  0.89927401  0.82488968  0.19239699  1
  C  C110  1  0.01374856  0.20169179  0.19239907  1
  C  C111  1  0.51619104  0.20443312  0.19247291  1
  C  C112  1  0.08761304  0.97392352  0.19217363  1
  C  C113  1  0.58627547  0.97179243  0.19451893  1
  C  C114  1  0.43905018  0.36842071  0.64008495  1
  C  C115  1  0.93947153  0.36903545  0.63985667  1
  C  C116  1  0.24387004  0.12254205  0.64019634  1
  C  C117  1  0.74499562  0.12532066  0.63835423  1
  C  C118  1  0.31902988  0.51753046  0.64227608  1
  C  C119  1  0.81913083  0.51948356  0.64376613  1
  C  C120  1  0.43970653  0.51066788  0.13894098  1
  C  C121  1  0.93903745  0.51263457  0.14013499  1
  C  C122  1  0.31762475  0.11597331  0.14328338  1
  C  C123  1  0.81624041  0.12067358  0.13929107  1
  C  C124  1  0.24295763  0.36380975  0.13932282  1
  C  C125  1  0.74098472  0.36451460  0.14321881  1
  C  C126  1  0.23246180  0.30135593  0.02662027  1
  C  C127  1  0.73527134  0.30341930  0.02954291  1
  C  C128  1  0.41765567  0.53480232  0.02666871  1
  C  C129  1  0.91787893  0.53411065  0.02721962  1
  C  C130  1  0.34862989  0.16730470  0.02972085  1
  C  C131  1  0.85006451  0.16544055  0.02691301  1
  C  C132  1  0.23281731  0.16337286  0.52768391  1
  C  C133  1  0.72973808  0.15856809  0.52475291  1
  C  C134  1  0.34892777  0.53651345  0.52764101  1
  C  C135  1  0.84855928  0.53032542  0.53023673  1
  C  C136  1  0.41689511  0.30026948  0.52791244  1
  C  C137  1  0.91769491  0.30217156  0.52732663  1
  C  C138  1  0.27852315  0.69936412  0.97523585  1
  C  C139  1  0.77855999  0.69931252  0.97518179  1
  C  C140  1  0.07018868  0.44038501  0.97675801  1
  C  C141  1  0.57022539  0.44020044  0.97685914  1
  C  C142  1  0.14934519  0.85939748  0.97664022  1
  C  C143  1  0.64947488  0.85956459  0.97655472  1
  C  C144  1  0.27236279  0.85088236  0.47520559  1
  C  C145  1  0.78146605  0.86401496  0.47733585  1
  C  C146  1  0.14940583  0.43795253  0.47699272  1
  C  C147  1  0.65636710  0.45196143  0.47668831  1
  C  C148  1  0.06939644  0.70097840  0.47698475  1
  C  C149  1  0.57291165  0.69422770  0.47637488  1
  C  C150  1  0.06903849  0.64071109  0.36307953  1
  C  C151  1  0.56889327  0.64039565  0.36290903  1
  C  C152  1  0.25347660  0.86728084  0.36024638  1
  C  C153  1  0.75008840  0.86264287  0.36415109  1
  C  C154  1  0.18102801  0.49963054  0.36393593  1
  C  C155  1  0.67949737  0.49166178  0.36094642  1
  C  C156  1  0.06969776  0.49745120  0.86323101  1
  C  C157  1  0.56948964  0.49746737  0.86335084  1
  C  C158  1  0.17897338  0.86098335  0.86317268  1
  C  C159  1  0.67914682  0.86128030  0.86314711  1
  C  C160  1  0.25407344  0.64117492  0.86034491  1
  C  C161  1  0.75407325  0.64101722  0.86032594  1
  C  C162  1  0.00653480  0.82632543  0.40632826  1
  C  C163  1  0.50630880  0.82071854  0.41175416  1
  C  C164  1  0.40320599  0.98183024  0.41185580  1
  C  C165  1  0.90732825  0.98766466  0.40652731  1
  C  C166  1  0.08701236  0.18505404  0.40678649  1
  C  C167  1  0.59143723  0.18748061  0.41203324  1
  C  C168  1  0.00681016  0.18727170  0.90655819  1
  C  C169  1  0.50682357  0.18725415  0.90660236  1
  C  C170  1  0.08680648  0.98687915  0.90622102  1
  C  C171  1  0.58673477  0.98685709  0.90617804  1
  C  C172  1  0.40707542  0.82666481  0.90663487  1
  C  C173  1  0.90709738  0.82649398  0.90656784  1
  C  C174  1  0.48376212  0.15955851  0.58899871  1
  C  C175  1  0.98391254  0.15992369  0.58901157  1
  C  C176  1  0.09537667  0.03258420  0.58847957  1
  C  C177  1  0.59511815  0.03132603  0.58868617  1
  C  C178  1  0.42015665  0.81095023  0.58898017  1
  C  C179  1  0.92073081  0.81014444  0.58852267  1
  C  C180  1  0.48395921  0.80877590  0.08889924  1
  C  C181  1  0.98425906  0.80921352  0.08852788  1
  C  C182  1  0.42001361  0.03008067  0.08893405  1
  C  C183  1  0.92035849  0.03139621  0.08857331  1
  C  C184  1  0.09469705  0.15871986  0.08810635  1
  C  C185  1  0.59558422  0.15866542  0.08863962  1
  C  C186  1  0.34582068  0.16028983  0.74835873  1
  C  C187  1  0.84580260  0.16024300  0.74824807  1
  C  C188  1  0.23527498  0.31603783  0.74867974  1
  C  C189  1  0.73520780  0.31571362  0.74864935  1
  C  C190  1  0.41984103  0.53630335  0.74810149  1
  C  C191  1  0.91995392  0.53649029  0.74797786  1
  C  C192  1  0.33849543  0.52231811  0.24497842  1
  C  C193  1  0.84243959  0.52958989  0.24884703  1
  C  C194  1  0.42050065  0.31590923  0.24296795  1
  C  C195  1  0.92095616  0.30835910  0.24854792  1
  C  C196  1  0.23535414  0.15184553  0.24892506  1
  C  C197  1  0.73641209  0.15967624  0.24426853  1
  C  C198  1  0.32143022  0.49754112  0.92150217  1
  C  C199  1  0.82139048  0.49733821  0.92164200  1
  C  C200  1  0.42746671  0.35681560  0.92165837  1
  C  C201  1  0.92770176  0.35778123  0.92135432  1
  C  C202  1  0.25137354  0.14424293  0.92151189  1
  C  C203  1  0.75102727  0.14490046  0.92168325  1
  C  C204  1  0.31772240  0.14290556  0.42306372  1
  C  C205  1  0.81930442  0.14358323  0.42076113  1
  C  C206  1  0.25273684  0.36412609  0.42145472  1
  C  C207  1  0.75429985  0.36113683  0.42220822  1
  C  C208  1  0.42636173  0.49317039  0.42226053  1
  C  C209  1  0.92818953  0.49836583  0.42190999  1
  C  C210  1  0.17267160  0.48863274  0.07654672  1
  C  C211  1  0.67349648  0.48929732  0.07722757  1
  C  C212  1  0.07136660  0.65366040  0.07698071  1
  C  C213  1  0.57197790  0.65561345  0.07611856  1
  C  C214  1  0.25513192  0.85706147  0.07713596  1
  C  C215  1  0.75581942  0.85698829  0.07614115  1
  C  C216  1  0.17209392  0.85635128  0.57783323  1
  C  C217  1  0.67236081  0.85642594  0.57741800  1
  C  C218  1  0.25519832  0.65342730  0.57808217  1
  C  C219  1  0.75574216  0.65376839  0.57863064  1
  C  C220  1  0.07148566  0.48897269  0.57697128  1
  C  C221  1  0.57137840  0.48827600  0.57719232  1
  C  C222  1  0.14983019  0.82475793  0.25621189  1
  C  C223  1  0.65254910  0.82557837  0.25631560  1
  C  C224  1  0.26151686  0.70212123  0.25490481  1
  C  C225  1  0.76247058  0.69670696  0.25689061  1
  C  C226  1  0.08688976  0.47155400  0.25776161  1
  C  C227  1  0.58861023  0.47612336  0.25485529  1
  C  C228  1  0.15137690  0.47565503  0.75612930  1
  C  C229  1  0.65141809  0.47564688  0.75623975  1
  C  C230  1  0.08719912  0.70045299  0.75698135  1
  C  C231  1  0.58714078  0.70013228  0.75713790  1
  C  C232  1  0.26469860  0.82517914  0.75608570  1
  C  C233  1  0.76472327  0.82516537  0.75596485  1
