# generated using pymatgen
data_Cu2NiC17
_symmetry_space_group_name_H-M   'P 1'
_cell_length_a   15.93738283
_cell_length_b   9.13668585
_cell_length_c   9.19180931
_cell_angle_alpha   90.37076825
_cell_angle_beta   125.06433452
_cell_angle_gamma   89.88591127
_symmetry_Int_Tables_number   1
_chemical_formula_structural   Cu2NiC17
_chemical_formula_sum   'Cu8 Ni4 C68'
_cell_volume   1095.51745425
_cell_formula_units_Z   4
loop_
 _symmetry_equiv_pos_site_id
 _symmetry_equiv_pos_as_xyz
  1  'x, y, z'
loop_
 _atom_site_type_symbol
 _atom_site_label
 _atom_site_symmetry_multiplicity
 _atom_site_fract_x
 _atom_site_fract_y
 _atom_site_fract_z
 _atom_site_occupancy
  C  C0  1  0.25161287  0.74568555  0.00143080  1
  C  C1  1  0.74828804  0.74582414  0.48804609  1
  C  C2  1  0.75161287  0.24568555  0.00143080  1
  C  C3  1  0.24828804  0.24582414  0.48804609  1
  C  C4  1  0.51153743  0.09332863  0.76681718  1
  C  C5  1  0.49825512  0.88998667  0.23631774  1
  C  C6  1  0.01153743  0.59332863  0.76681718  1
  C  C7  1  0.99825512  0.38998667  0.23631774  1
  C  C8  1  0.79919883  0.92435991  0.21406939  1
  C  C9  1  0.18234734  0.07842697  0.80093940  1
  C  C10  1  0.29919883  0.42435991  0.21406939  1
  C  C11  1  0.68234734  0.57842697  0.80093940  1
  C  C12  1  0.10098847  0.24149488  0.05989155  1
  C  C13  1  0.60098847  0.74149488  0.05989155  1
  C  C14  1  0.10505123  0.74691596  0.55508470  1
  C  C15  1  0.89538063  0.75564280  0.93773247  1
  C  C16  1  0.89677006  0.25323536  0.44514954  1
  C  C17  1  0.60505123  0.24691596  0.55508470  1
  C  C18  1  0.39538063  0.25564280  0.93773247  1
  C  C19  1  0.39677006  0.75323536  0.44514954  1
  Ni  Ni20  1  0.65238482  0.89988976  0.74970276  1
  Ni  Ni21  1  0.35675122  0.09610274  0.25266533  1
  Ni  Ni22  1  0.15238482  0.39988976  0.74970276  1
  Ni  Ni23  1  0.85675122  0.59610274  0.25266533  1
  Cu  Cu24  1  0.99492313  0.94772176  0.73759041  1
  Cu  Cu25  1  0.99673018  0.04377809  0.26026205  1
  Cu  Cu26  1  0.49492313  0.44772176  0.73759041  1
  Cu  Cu27  1  0.49673018  0.54377809  0.26026205  1
  Cu  Cu28  1  0.35278926  0.90351663  0.76028633  1
  Cu  Cu29  1  0.64697196  0.11560275  0.24294061  1
  Cu  Cu30  1  0.85278926  0.40351663  0.76028633  1
  Cu  Cu31  1  0.14697196  0.61560275  0.24294061  1
  C  C32  1  0.16066983  0.57746952  0.72851541  1
  C  C33  1  0.85455100  0.57477670  0.75333475  1
  C  C34  1  0.85269298  0.41439027  0.25819338  1
  C  C35  1  0.15393990  0.44843688  0.25990765  1
  C  C36  1  0.66066983  0.07746952  0.72851541  1
  C  C37  1  0.35455100  0.07477670  0.75333475  1
  C  C38  1  0.35269298  0.91439027  0.25819338  1
  C  C39  1  0.65393990  0.94843688  0.25990765  1
  C  C40  1  0.42908956  0.54447631  0.56888163  1
  C  C41  1  0.56765467  0.54047992  0.90136387  1
  C  C42  1  0.55392293  0.44733410  0.42619451  1
  C  C43  1  0.44135117  0.43951345  0.09336612  1
  C  C44  1  0.92908956  0.04447631  0.56888163  1
  C  C45  1  0.06765467  0.04047992  0.90136387  1
  C  C46  1  0.05392293  0.94733410  0.42619451  1
  C  C47  1  0.94135117  0.93951345  0.09336612  1
  C  C48  1  0.24941669  0.85813092  0.72814343  1
  C  C49  1  0.74545087  0.81221344  0.75681463  1
  C  C50  1  0.74066538  0.17587702  0.24972233  1
  C  C51  1  0.27232203  0.18202027  0.26300180  1
  C  C52  1  0.74941669  0.35813092  0.72814343  1
  C  C53  1  0.24545087  0.31221344  0.75681463  1
  C  C54  1  0.24066538  0.67587702  0.24972233  1
  C  C55  1  0.77232203  0.68202027  0.26300180  1
  C  C56  1  0.36235175  0.84855726  0.60783921  1
  C  C57  1  0.65555164  0.87976783  0.92701574  1
  C  C58  1  0.64842638  0.18110430  0.39906913  1
  C  C59  1  0.35429464  0.13631499  0.07234037  1
  C  C60  1  0.86235175  0.34855726  0.60783921  1
  C  C61  1  0.15555164  0.37976783  0.92701574  1
  C  C62  1  0.14842638  0.68110430  0.39906913  1
  C  C63  1  0.85429464  0.63631499  0.07234037  1
  C  C64  1  0.44158130  0.84806694  0.94025378  1
  C  C65  1  0.54177722  0.82703933  0.57937829  1
  C  C66  1  0.54631010  0.16609238  0.06672783  1
  C  C67  1  0.47217526  0.14445452  0.41868588  1
  C  C68  1  0.94158130  0.34806694  0.94025378  1
  C  C69  1  0.04177722  0.32703933  0.57937829  1
  C  C70  1  0.04631010  0.66609238  0.06672783  1
  C  C71  1  0.97217526  0.64445452  0.41868588  1
  C  C72  1  0.06700209  0.84272578  0.71971419  1
  C  C73  1  0.92289908  0.84735264  0.75505193  1
  C  C74  1  0.90806411  0.12664765  0.25488448  1
  C  C75  1  0.06785883  0.15524499  0.26267332  1
  C  C76  1  0.56700209  0.34272578  0.71971419  1
  C  C77  1  0.42289908  0.34735264  0.75505193  1
  C  C78  1  0.40806411  0.62664765  0.25488448  1
  C  C79  1  0.56785883  0.65524499  0.26267332  1
