# generated using pymatgen
data_Cu(NiC4)2
_symmetry_space_group_name_H-M   'P 1'
_cell_length_a   6.23952432
_cell_length_b   6.23952438
_cell_length_c   6.06125900
_cell_angle_alpha   60.94067826
_cell_angle_beta   60.94067793
_cell_angle_gamma   56.06899706
_symmetry_Int_Tables_number   1
_chemical_formula_structural   Cu(NiC4)2
_chemical_formula_sum   'Cu1 Ni2 C8'
_cell_volume   163.48114298
_cell_formula_units_Z   1
loop_
 _symmetry_equiv_pos_site_id
 _symmetry_equiv_pos_as_xyz
  1  'x, y, z'
loop_
 _atom_site_type_symbol
 _atom_site_label
 _atom_site_symmetry_multiplicity
 _atom_site_fract_x
 _atom_site_fract_y
 _atom_site_fract_z
 _atom_site_occupancy
  Ni  Ni0  1  0.69082100  0.69082100  0.80917900  1
  Ni  Ni1  1  0.30917900  0.30917900  0.19082100  1
  Cu  Cu2  1  0.50000000  0.50000000  0.50000000  1
  C  C3  1  0.00000000  0.00000000  0.50000000  1
  C  C4  1  0.00000000  0.00000000  0.00000000  1
  C  C5  1  0.23193400  0.76806600  0.74166400  1
  C  C6  1  0.23193400  0.76806600  0.25833600  1
  C  C7  1  0.76806600  0.23193400  0.74166400  1
  C  C8  1  0.23829200  0.23829200  0.76170800  1
  C  C9  1  0.76806600  0.23193400  0.25833600  1
  C  C10  1  0.76170800  0.76170800  0.23829200  1
