# generated using pymatgen
data_Cu4NiC20
_symmetry_space_group_name_H-M   'P 1'
_cell_length_a   4.87141024
_cell_length_b   5.30644042
_cell_length_c   11.04639402
_cell_angle_alpha   89.70536859
_cell_angle_beta   90.27239265
_cell_angle_gamma   87.48922443
_symmetry_Int_Tables_number   1
_chemical_formula_structural   Cu4NiC20
_chemical_formula_sum   'Cu4 Ni1 C20'
_cell_volume   285.26616770
_cell_formula_units_Z   1
loop_
 _symmetry_equiv_pos_site_id
 _symmetry_equiv_pos_as_xyz
  1  'x, y, z'
loop_
 _atom_site_type_symbol
 _atom_site_label
 _atom_site_symmetry_multiplicity
 _atom_site_fract_x
 _atom_site_fract_y
 _atom_site_fract_z
 _atom_site_occupancy
  Ni  Ni0  1  0.48063400  0.03585200  0.61561800  1
  Cu  Cu1  1  0.96971000  0.71155500  0.54644200  1
  Cu  Cu2  1  0.55366300  0.75003800  0.06514300  1
  Cu  Cu3  1  0.57995200  0.24633900  0.93583000  1
  Cu  Cu4  1  0.91891700  0.20395300  0.41324500  1
  C  C5  1  0.03107500  0.70954800  0.84243100  1
  C  C6  1  0.58140600  0.49861900  0.71309300  1
  C  C7  1  0.46144000  0.67497300  0.33050200  1
  C  C8  1  0.10917900  0.28755600  0.14411000  1
  C  C9  1  0.11212100  0.08968600  0.27259900  1
  C  C10  1  0.18897500  0.55089400  0.42496700  1
  C  C11  1  0.31708600  0.09183500  0.04012200  1
  C  C12  1  0.13880600  0.05137900  0.52416600  1
  C  C13  1  0.27370600  0.57522900  0.17997900  1
  C  C14  1  0.42067100  0.22041500  0.77130800  1
  C  C15  1  0.25677900  0.69922400  0.69942600  1
  C  C16  1  0.33063100  0.60696500  0.93801300  1
  C  C17  1  0.79445700  0.40248600  0.06901000  1
  C  C18  1  0.68773400  0.40288600  0.32827200  1
  C  C19  1  0.64099300  0.85312100  0.21015500  1
  C  C20  1  0.85720800  0.42002000  0.82809400  1
  C  C21  1  0.66434600  0.88328100  0.44859300  1
  C  C22  1  0.80896100  0.89967800  0.94662900  1
  C  C23  1  0.70910700  0.38317900  0.57176900  1
  C  C24  1  0.76869100  0.80684200  0.70159500  1
