# generated using pymatgen
data_Cu3Ni2C13
_symmetry_space_group_name_H-M   'P 1'
_cell_length_a   8.46156400
_cell_length_b   8.46262857
_cell_length_c   9.12874751
_cell_angle_alpha   65.63018686
_cell_angle_beta   68.89062140
_cell_angle_gamma   68.02033113
_symmetry_Int_Tables_number   1
_chemical_formula_structural   Cu3Ni2C13
_chemical_formula_sum   'Cu6 Ni4 C26'
_cell_volume   535.53737738
_cell_formula_units_Z   2
loop_
 _symmetry_equiv_pos_site_id
 _symmetry_equiv_pos_as_xyz
  1  'x, y, z'
loop_
 _atom_site_type_symbol
 _atom_site_label
 _atom_site_symmetry_multiplicity
 _atom_site_fract_x
 _atom_site_fract_y
 _atom_site_fract_z
 _atom_site_occupancy
  C  C0  1  0.82795400  0.69696700  0.42240900  1
  C  C1  1  0.17204600  0.30303300  0.57759100  1
  C  C2  1  0.00000000  0.00000000  0.00000000  1
  C  C3  1  0.50000000  0.50000000  0.50000000  1
  C  C4  1  0.96379200  0.34256800  0.20054800  1
  C  C5  1  0.03620800  0.65743200  0.79945200  1
  Ni  Ni6  1  0.19039000  0.04664500  0.39838700  1
  Ni  Ni7  1  0.80961000  0.95335500  0.60161300  1
  Ni  Ni8  1  0.12648200  0.96921500  0.30198200  1
  Ni  Ni9  1  0.87351800  0.03078500  0.69801800  1
  Cu  Cu10  1  0.33511400  0.21861800  0.89937300  1
  Cu  Cu11  1  0.66488600  0.78138200  0.10062700  1
  Cu  Cu12  1  0.67006300  0.16272000  0.31114600  1
  Cu  Cu13  1  0.32993700  0.83728000  0.68885400  1
  Cu  Cu14  1  0.79163400  0.42513800  0.78027400  1
  Cu  Cu15  1  0.20836600  0.57486200  0.21972600  1
  C  C16  1  0.14538300  0.07741700  0.30006700  1
  C  C17  1  0.85461700  0.92258300  0.69993300  1
  C  C18  1  0.25039700  0.04653200  0.94608100  1
  C  C19  1  0.74960300  0.95346800  0.05391900  1
  C  C20  1  0.35856200  0.30581900  0.68443100  1
  C  C21  1  0.64143800  0.69418100  0.31556900  1
  C  C22  1  0.15641400  0.38715500  0.96021200  1
  C  C23  1  0.84358600  0.61284500  0.03978800  1
  C  C24  1  0.31925400  0.49386800  0.37244700  1
  C  C25  1  0.68074600  0.50613200  0.62755300  1
  C  C26  1  0.05573200  0.44488500  0.33536300  1
  C  C27  1  0.94426800  0.55511500  0.66463700  1
  C  C28  1  0.06332400  0.77719900  0.24101700  1
  C  C29  1  0.93667600  0.22280100  0.75898300  1
  C  C30  1  0.29422100  0.70008800  0.61185500  1
  C  C31  1  0.70577900  0.29991200  0.38814500  1
  C  C32  1  0.14645300  0.81790500  0.85715200  1
  C  C33  1  0.85354700  0.18209500  0.14284800  1
  C  C34  1  0.26630100  0.04716700  0.54878800  1
  C  C35  1  0.73369900  0.95283300  0.45121200  1
