# generated using pymatgen
data_Cu6Ni4C5
_symmetry_space_group_name_H-M   'P 1'
_cell_length_a   5.03311205
_cell_length_b   6.14287919
_cell_length_c   7.91201512
_cell_angle_alpha   106.92651289
_cell_angle_beta   69.23239338
_cell_angle_gamma   69.20000625
_symmetry_Int_Tables_number   1
_chemical_formula_structural   Cu6Ni4C5
_chemical_formula_sum   'Cu6 Ni4 C5'
_cell_volume   187.91211809
_cell_formula_units_Z   1
loop_
 _symmetry_equiv_pos_site_id
 _symmetry_equiv_pos_as_xyz
  1  'x, y, z'
loop_
 _atom_site_type_symbol
 _atom_site_label
 _atom_site_symmetry_multiplicity
 _atom_site_fract_x
 _atom_site_fract_y
 _atom_site_fract_z
 _atom_site_occupancy
  C  C0  1  0.86652721  0.98614799  0.40955968  1
  C  C1  1  0.34402950  0.97278248  0.86236212  1
  C  C2  1  0.80357781  0.47878978  0.35821092  1
  C  C3  1  0.18183880  0.49474940  0.62102722  1
  C  C4  1  0.65748060  0.01344638  0.10601130  1
  Ni  Ni5  1  0.75034554  0.75287334  0.85721154  1
  Ni  Ni6  1  0.41165087  0.69219356  0.63158191  1
  Ni  Ni7  1  0.59393771  0.26312894  0.35427573  1
  Ni  Ni8  1  0.25090458  0.22779178  0.11709909  1
  Cu  Cu9  1  0.01208858  0.68250550  0.45291020  1
  Cu  Cu10  1  0.89047824  0.18128184  0.94582075  1
  Cu  Cu11  1  0.64284387  0.78526449  0.29027404  1
  Cu  Cu12  1  0.44910200  0.18624036  0.68529970  1
  Cu  Cu13  1  0.10475299  0.82486625  0.07370372  1
  Cu  Cu14  1  0.02265770  0.24808392  0.50067709  1
