# generated using pymatgen
data_Cu2NiC16
_symmetry_space_group_name_H-M   'P 1'
_cell_length_a   5.34286700
_cell_length_b   5.34286700
_cell_length_c   10.39293000
_cell_angle_alpha   90.00000000
_cell_angle_beta   90.00000000
_cell_angle_gamma   90.00000000
_symmetry_Int_Tables_number   1
_chemical_formula_structural   Cu2NiC16
_chemical_formula_sum   'Cu2 Ni1 C16'
_cell_volume   296.67894708
_cell_formula_units_Z   1
loop_
 _symmetry_equiv_pos_site_id
 _symmetry_equiv_pos_as_xyz
  1  'x, y, z'
loop_
 _atom_site_type_symbol
 _atom_site_label
 _atom_site_symmetry_multiplicity
 _atom_site_fract_x
 _atom_site_fract_y
 _atom_site_fract_z
 _atom_site_occupancy
  Ni  Ni0  1  0.50000000  0.50000000  0.00000000  1
  Cu  Cu1  1  0.00000000  0.00000000  0.50000000  1
  Cu  Cu2  1  0.50000000  0.50000000  0.50000000  1
  C  C3  1  0.00000000  0.50000000  0.26965300  1
  C  C4  1  0.50000000  0.00000000  0.73034700  1
  C  C5  1  0.50000000  0.00000000  0.21926700  1
  C  C6  1  0.00000000  0.50000000  0.78073300  1
  C  C7  1  0.35876900  0.23570700  0.11139000  1
  C  C8  1  0.23570700  0.64123100  0.88861000  1
  C  C9  1  0.64123100  0.76429300  0.11139000  1
  C  C10  1  0.76429300  0.35876900  0.88861000  1
  C  C11  1  0.26530600  0.78748500  0.30637200  1
  C  C12  1  0.21251500  0.26530600  0.69362800  1
  C  C13  1  0.73469400  0.21251500  0.30637200  1
  C  C14  1  0.78748500  0.73469400  0.69362800  1
  C  C15  1  0.19889700  0.30678900  0.38747700  1
  C  C16  1  0.30678900  0.80110300  0.61252300  1
  C  C17  1  0.80110300  0.69321100  0.38747700  1
  C  C18  1  0.69321100  0.19889700  0.61252300  1
