# generated using pymatgen
data_Cu2NiC18
_symmetry_space_group_name_H-M   'P 1'
_cell_length_a   9.07446138
_cell_length_b   9.07446107
_cell_length_c   22.07740284
_cell_angle_alpha   90.00000000
_cell_angle_beta   90.00000000
_cell_angle_gamma   120.00000114
_symmetry_Int_Tables_number   1
_chemical_formula_structural   Cu2NiC18
_chemical_formula_sum   'Cu12 Ni6 C108'
_cell_volume   1574.41894599
_cell_formula_units_Z   6
loop_
 _symmetry_equiv_pos_site_id
 _symmetry_equiv_pos_as_xyz
  1  'x, y, z'
loop_
 _atom_site_type_symbol
 _atom_site_label
 _atom_site_symmetry_multiplicity
 _atom_site_fract_x
 _atom_site_fract_y
 _atom_site_fract_z
 _atom_site_occupancy
  C  C0  1  0.64524166  0.00991488  0.24518683  1
  C  C1  1  0.36467321  0.35475834  0.24518683  1
  C  C2  1  0.99008512  0.63532679  0.24518683  1
  C  C3  1  0.64524166  0.63532679  0.74518683  1
  C  C4  1  0.99008512  0.35475834  0.74518683  1
  C  C5  1  0.36467321  0.00991488  0.74518683  1
  C  C6  1  0.29412008  0.33611501  0.58161419  1
  C  C7  1  0.04199594  0.70587992  0.58161419  1
  C  C8  1  0.66388499  0.95800406  0.58161419  1
  C  C9  1  0.29412008  0.95800406  0.08161419  1
  C  C10  1  0.66388499  0.70587992  0.08161419  1
  C  C11  1  0.04199594  0.33611501  0.08161419  1
  C  C12  1  0.97722444  0.68727292  0.91457978  1
  C  C13  1  0.71004748  0.02277556  0.91457978  1
  C  C14  1  0.31272708  0.28995252  0.91457978  1
  C  C15  1  0.97722444  0.28995252  0.41457978  1
  C  C16  1  0.31272708  0.02277556  0.41457978  1
  C  C17  1  0.71004748  0.68727292  0.41457978  1
  C  C18  1  -0.00000000  -0.00000000  0.49556433  1
  C  C19  1  -0.00000000  -0.00000000  0.99556433  1
  C  C20  1  0.66666700  0.33333300  0.82789315  1
  C  C21  1  0.66666700  0.33333300  0.32789315  1
  C  C22  1  0.33333300  0.66666700  0.16085739  1
  C  C23  1  0.33333300  0.66666700  0.66085739  1
  C  C24  1  -0.00000000  -0.00000000  0.35106213  1
  C  C25  1  -0.00000000  -0.00000000  0.85106213  1
  C  C26  1  -0.00000000  -0.00000000  0.64935625  1
  C  C27  1  -0.00000000  -0.00000000  0.14935625  1
  C  C28  1  0.66666700  0.33333300  0.68334267  1
  C  C29  1  0.66666700  0.33333300  0.18334267  1
  C  C30  1  0.33333300  0.66666700  0.01693413  1
  C  C31  1  0.33333300  0.66666700  0.51693413  1
  C  C32  1  0.66666700  0.33333300  0.97897404  1
  C  C33  1  0.66666700  0.33333300  0.47897404  1
  C  C34  1  0.33333300  0.66666700  0.31750247  1
  C  C35  1  0.33333300  0.66666700  0.81750247  1
  Ni  Ni36  1  0.62937638  0.67037212  0.92093406  1
  Ni  Ni37  1  0.04099475  0.37062362  0.92093406  1
  Ni  Ni38  1  0.32962788  0.95900525  0.92093406  1
  Ni  Ni39  1  0.62937638  0.95900525  0.42093406  1
  Ni  Ni40  1  0.32962788  0.37062362  0.42093406  1
  Ni  Ni41  1  0.04099475  0.67037212  0.42093406  1
  Cu  Cu42  1  0.29453793  0.99891179  0.24962333  1
  Cu  Cu43  1  0.70437387  0.70546207  0.24962333  1
  Cu  Cu44  1  0.00108821  0.29562613  0.24962333  1
  Cu  Cu45  1  0.29453793  0.29562613  0.74962333  1
  Cu  Cu46  1  0.00108821  0.70546207  0.74962333  1
  Cu  Cu47  1  0.70437387  0.99891179  0.74962333  1
  Cu  Cu48  1  0.96064512  0.33371773  0.58608478  1
  Cu  Cu49  1  0.37307360  0.03935488  0.58608478  1
  Cu  Cu50  1  0.66628227  0.62692640  0.58608478  1
  Cu  Cu51  1  0.96064512  0.62692640  0.08608478  1
  Cu  Cu52  1  0.66628227  0.03935488  0.08608478  1
  Cu  Cu53  1  0.37307360  0.33371773  0.08608478  1
  C  C54  1  0.21241878  0.02255734  0.30631418  1
  C  C55  1  0.81013856  0.78758122  0.30631418  1
  C  C56  1  0.97744266  0.18986144  0.30631418  1
  C  C57  1  0.21241878  0.18986144  0.80631418  1
  C  C58  1  0.97744266  0.78758122  0.80631418  1
  C  C59  1  0.81013856  0.02255734  0.80631418  1
  C  C60  1  0.78059800  0.96526605  0.69270290  1
  C  C61  1  0.18466805  0.21940200  0.69270290  1
  C  C62  1  0.03473395  0.81533195  0.69270290  1
  C  C63  1  0.78059800  0.81533195  0.19270290  1
  C  C64  1  0.03473395  0.21940200  0.19270290  1
  C  C65  1  0.18466805  0.96526605  0.19270290  1
  C  C66  1  0.87405892  0.35574852  0.64170982  1
  C  C67  1  0.48169059  0.12594108  0.64170982  1
  C  C68  1  0.64425148  0.51830941  0.64170982  1
  C  C69  1  0.87405892  0.51830941  0.14170982  1
  C  C70  1  0.64425148  0.12594108  0.14170982  1
  C  C71  1  0.48169059  0.35574852  0.14170982  1
  C  C72  1  0.47164478  0.31519327  0.02864445  1
  C  C73  1  0.84354949  0.52835522  0.02864445  1
  C  C74  1  0.68480673  0.15645051  0.02864445  1
  C  C75  1  0.47164478  0.15645051  0.52864445  1
  C  C76  1  0.68480673  0.52835522  0.52864445  1
  C  C77  1  0.84354949  0.31519327  0.52864445  1
  C  C78  1  0.54602957  0.70053242  0.97906132  1
  C  C79  1  0.15450185  0.45397043  0.97906132  1
  C  C80  1  0.29946758  0.84549815  0.97906132  1
  C  C81  1  0.54602957  0.84549815  0.47906132  1
  C  C82  1  0.29946758  0.45397043  0.47906132  1
  C  C83  1  0.15450185  0.70053242  0.47906132  1
  C  C84  1  0.13384210  0.63214331  0.36047628  1
  C  C85  1  0.49830021  0.86615790  0.36047628  1
  C  C86  1  0.36785669  0.50169979  0.36047628  1
  C  C87  1  0.13384210  0.50169979  0.86047628  1
  C  C88  1  0.36785669  0.86615790  0.86047628  1
  C  C89  1  0.49830021  0.63214331  0.86047628  1
  C  C90  1  0.00888184  0.82547489  0.40940212  1
  C  C91  1  0.81659305  0.99111816  0.40940212  1
  C  C92  1  0.17452511  0.18340695  0.40940212  1
  C  C93  1  0.00888184  0.18340695  0.90940212  1
  C  C94  1  0.17452511  0.99111816  0.90940212  1
  C  C95  1  0.81659305  0.82547489  0.90940212  1
  C  C96  1  0.97020148  0.16853428  0.58542160  1
  C  C97  1  0.19833280  0.02979852  0.58542160  1
  C  C98  1  0.83146572  0.80166720  0.58542160  1
  C  C99  1  0.97020148  0.80166720  0.08542160  1
  C  C100  1  0.83146572  0.02979852  0.08542160  1
  C  C101  1  0.19833280  0.16853428  0.08542160  1
  C  C102  1  0.67655803  0.15390031  0.74522145  1
  C  C103  1  0.47734327  0.32344197  0.74522145  1
  C  C104  1  0.84609969  0.52265673  0.74522145  1
  C  C105  1  0.67655803  0.52265673  0.24522145  1
  C  C106  1  0.84609969  0.32344197  0.24522145  1
  C  C107  1  0.47734327  0.15390031  0.24522145  1
  C  C108  1  0.63575289  0.48872904  0.92302247  1
  C  C109  1  0.85297716  0.36424711  0.92302247  1
  C  C110  1  0.51127096  0.14702284  0.92302247  1
  C  C111  1  0.63575289  0.14702284  0.42302247  1
  C  C112  1  0.51127096  0.36424711  0.42302247  1
  C  C113  1  0.85297716  0.48872904  0.42302247  1
  C  C114  1  0.35562804  0.49327976  0.08079408  1
  C  C115  1  0.13765072  0.64437196  0.08079408  1
  C  C116  1  0.50672024  0.86234928  0.08079408  1
  C  C117  1  0.35562804  0.86234928  0.58079408  1
  C  C118  1  0.50672024  0.64437196  0.58079408  1
  C  C119  1  0.13765072  0.49327976  0.58079408  1
  C  C120  1  0.31290180  0.83265930  0.25537748  1
  C  C121  1  0.51975650  0.68709820  0.25537748  1
  C  C122  1  0.16734070  0.48024350  0.25537748  1
  C  C123  1  0.31290180  0.48024350  0.75537748  1
  C  C124  1  0.16734070  0.68709820  0.75537748  1
  C  C125  1  0.51975650  0.83265930  0.75537748  1
