# generated using pymatgen
data_Cu12Ni2C3
_symmetry_space_group_name_H-M   'P 1'
_cell_length_a   8.96894526
_cell_length_b   8.96822308
_cell_length_c   23.09148996
_cell_angle_alpha   90.01154060
_cell_angle_beta   90.00000000
_cell_angle_gamma   120.00266381
_symmetry_Int_Tables_number   1
_chemical_formula_structural   Cu12Ni2C3
_chemical_formula_sum   'Cu72 Ni12 C18'
_cell_volume   1608.49121934
_cell_formula_units_Z   6
loop_
 _symmetry_equiv_pos_site_id
 _symmetry_equiv_pos_as_xyz
  1  'x, y, z'
loop_
 _atom_site_type_symbol
 _atom_site_label
 _atom_site_symmetry_multiplicity
 _atom_site_fract_x
 _atom_site_fract_y
 _atom_site_fract_z
 _atom_site_occupancy
  C  C0  1  0.98963126  0.00919386  0.35616288  1
  C  C1  1  0.01956260  0.00919386  0.85616288  1
  C  C2  1  0.00760580  0.01898615  0.64402796  1
  C  C3  1  0.01138036  0.01898615  0.14402796  1
  C  C4  1  0.67126413  0.33690334  0.68923051  1
  C  C5  1  0.66564020  0.33690334  0.18923051  1
  C  C6  1  0.64800707  0.32422940  0.97705399  1
  C  C7  1  0.67622333  0.32422940  0.47705399  1
  C  C8  1  0.32921552  0.66747666  0.02284454  1
  C  C9  1  0.33826013  0.66747666  0.52284454  1
  C  C10  1  0.33483773  0.67045297  0.31066694  1
  C  C11  1  0.33561424  0.67045297  0.81066694  1
  C  C12  1  0.00001776  0.29345054  0.24992575  1
  C  C13  1  0.29343278  0.29345054  0.74992575  1
  C  C14  1  0.95801010  0.33761288  0.58391673  1
  C  C15  1  0.37960378  0.33761288  0.08391673  1
  C  C16  1  0.33357892  0.95154947  0.91669908  1
  C  C17  1  0.61796954  0.95154947  0.41669908  1
  Ni  Ni18  1  0.28720773  0.99967988  0.25014864  1
  Ni  Ni19  1  0.71315531  0.71276212  0.24990718  1
  Ni  Ni20  1  0.99960680  0.71276212  0.74990718  1
  Ni  Ni21  1  0.71247215  0.99967988  0.75014864  1
  Ni  Ni22  1  0.37881851  0.04553799  0.58331572  1
  Ni  Ni23  1  0.66831197  0.62136156  0.58331503  1
  Ni  Ni24  1  0.95305059  0.62136156  0.08331503  1
  Ni  Ni25  1  0.66672048  0.04553799  0.08331572  1
  Ni  Ni26  1  0.62211506  0.66889799  0.91655610  1
  Ni  Ni27  1  0.04432673  0.37964482  0.91675771  1
  Ni  Ni28  1  0.33531709  0.37964482  0.41675771  1
  Ni  Ni29  1  0.04678193  0.66889799  0.41655610  1
  Cu  Cu30  1  0.20893938  0.02661970  0.30209325  1
  Cu  Cu31  1  0.82206241  0.79051905  0.30196224  1
  Cu  Cu32  1  0.97199959  0.16810604  0.30556561  1
  Cu  Cu33  1  0.19610645  0.16810604  0.80556561  1
  Cu  Cu34  1  0.96845664  0.79051905  0.80196224  1
  Cu  Cu35  1  0.81768032  0.02661970  0.80209325  1
  Cu  Cu36  1  0.79033153  0.96849003  0.69810062  1
  Cu  Cu37  1  0.16800312  0.19581556  0.69435464  1
  Cu  Cu38  1  0.02660567  0.81764649  0.69789897  1
  Cu  Cu39  1  0.79104082  0.81764649  0.19789897  1
  Cu  Cu40  1  0.02781244  0.19581556  0.19435464  1
  Cu  Cu41  1  0.17815850  0.96849003  0.19810062  1
  Cu  Cu42  1  0.86169534  0.36196213  0.63973886  1
  Cu  Cu43  1  0.48660045  0.12498197  0.63500467  1
  Cu  Cu44  1  0.63672523  0.51149443  0.63532464  1
  Cu  Cu45  1  0.87477020  0.51149443  0.13532464  1
  Cu  Cu46  1  0.63838252  0.12498197  0.13500467  1
  Cu  Cu47  1  0.50026779  0.36196213  0.13973886  1
  Cu  Cu48  1  0.47243213  0.30660220  0.02771386  1
  Cu  Cu49  1  0.84894502  0.54092042  0.03117787  1
  Cu  Cu50  1  0.69973376  0.15514453  0.03150899  1
  Cu  Cu51  1  0.45541177  0.15514453  0.53150899  1
  Cu  Cu52  1  0.69197640  0.54092042  0.53117787  1
  Cu  Cu53  1  0.83417106  0.30660220  0.52771386  1
  Cu  Cu54  1  0.54046702  0.69390571  0.96844998  1
  Cu  Cu55  1  0.15480951  0.45658777  0.96849922  1
  Cu  Cu56  1  0.30626423  0.83231465  0.97310818  1
  Cu  Cu57  1  0.52604943  0.83231465  0.47310818  1
  Cu  Cu58  1  0.30177726  0.45658777  0.46849922  1
  Cu  Cu59  1  0.15343770  0.69390571  0.46844998  1
  Cu  Cu60  1  0.12351842  0.63526594  0.36477791  1
  Cu  Cu61  1  0.49902681  0.85961401  0.36023665  1
  Cu  Cu62  1  0.36051143  0.48655165  0.36494114  1
  Cu  Cu63  1  0.12603922  0.48655165  0.86494114  1
  Cu  Cu64  1  0.36058620  0.85961401  0.86023665  1
  Cu  Cu65  1  0.51174651  0.63526594  0.86477791  1
  Cu  Cu66  1  0.02944331  0.82171147  0.40698889  1
  Cu  Cu67  1  0.80783505  0.97144799  0.40776793  1
  Cu  Cu68  1  0.18371469  0.20519209  0.40791243  1
  Cu  Cu69  1  0.02147740  0.20519209  0.90791243  1
  Cu  Cu70  1  0.16361294  0.97144799  0.90776793  1
  Cu  Cu71  1  0.79226817  0.82171147  0.90698889  1
  Cu  Cu72  1  0.97167480  0.16386396  0.59236933  1
  Cu  Cu73  1  0.20407098  0.02096006  0.59202052  1
  Cu  Cu74  1  0.81996513  0.79223587  0.59330832  1
  Cu  Cu75  1  0.97227074  0.79223587  0.09330832  1
  Cu  Cu76  1  0.81688908  0.02096006  0.09202052  1
  Cu  Cu77  1  0.19218916  0.16386396  0.09236933  1
  Cu  Cu78  1  0.69112961  0.15142272  0.74094336  1
  Cu  Cu79  1  0.47929161  0.31052458  0.73777827  1
  Cu  Cu80  1  0.84613059  0.53933764  0.74229653  1
  Cu  Cu81  1  0.69320804  0.53933764  0.24229653  1
  Cu  Cu82  1  0.83123397  0.31052458  0.23777827  1
  Cu  Cu83  1  0.46029412  0.15142272  0.24094336  1
  Cu  Cu84  1  0.64514105  0.51726917  0.92530931  1
  Cu  Cu85  1  0.87439618  0.36259391  0.92628257  1
  Cu  Cu86  1  0.50334705  0.14140748  0.92567234  1
  Cu  Cu87  1  0.63806143  0.14140748  0.42567234  1
  Cu  Cu88  1  0.48819873  0.36259391  0.42628257  1
  Cu  Cu89  1  0.87212912  0.51726917  0.42530931  1
  Cu  Cu90  1  0.35623901  0.50230598  0.07140196  1
  Cu  Cu91  1  0.12618273  0.63955255  0.07549443  1
  Cu  Cu92  1  0.51376354  0.87334413  0.07465118  1
  Cu  Cu93  1  0.35957959  0.87334413  0.57465118  1
  Cu  Cu94  1  0.51336883  0.63955255  0.57549443  1
  Cu  Cu95  1  0.14606598  0.50230598  0.57140196  1
  Cu  Cu96  1  0.30680013  0.84610475  0.25777662  1
  Cu  Cu97  1  0.53989241  0.69113871  0.25894359  1
  Cu  Cu98  1  0.16851174  0.47930503  0.26209638  1
  Cu  Cu99  1  0.31079229  0.47930503  0.76209638  1
  Cu  Cu100  1  0.15124530  0.69113871  0.75894359  1
  Cu  Cu101  1  0.53930362  0.84610475  0.75777662  1
