# generated using pymatgen
data_CuNi6C67
_symmetry_space_group_name_H-M   'P 1'
_cell_length_a   17.02531663
_cell_length_b   8.50363975
_cell_length_c   21.86208530
_cell_angle_alpha   90.04552708
_cell_angle_beta   89.93103939
_cell_angle_gamma   119.95864371
_symmetry_Int_Tables_number   1
_chemical_formula_structural   CuNi6C67
_chemical_formula_sum   'Cu3 Ni18 C201'
_cell_volume   2742.22304182
_cell_formula_units_Z   3
loop_
 _symmetry_equiv_pos_site_id
 _symmetry_equiv_pos_as_xyz
  1  'x, y, z'
loop_
 _atom_site_type_symbol
 _atom_site_label
 _atom_site_symmetry_multiplicity
 _atom_site_fract_x
 _atom_site_fract_y
 _atom_site_fract_z
 _atom_site_occupancy
  Ni  Ni0  1  0.68546384  0.36749064  0.24802368  1
  Ni  Ni1  1  0.99783401  0.62918600  0.24804159  1
  Ni  Ni2  1  0.99506764  0.36515227  0.74596921  1
  Ni  Ni3  1  0.49515502  0.36536820  0.74584503  1
  Ni  Ni4  1  0.18755558  0.00626195  0.74595607  1
  Ni  Ni5  1  0.68764644  0.00636624  0.74606255  1
  Ni  Ni6  1  0.99973952  0.99980656  0.49936372  1
  Ni  Ni7  1  0.50029097  0.00006038  0.49912297  1
  Ni  Ni8  1  -0.00001038  0.00027061  0.00046756  1
  Ni  Ni9  1  0.49986401  0.99952984  0.00100091  1
  Ni  Ni10  1  0.33272405  0.34208745  0.83439919  1
  Ni  Ni11  1  0.83275284  0.34194761  0.83483668  1
  Ni  Ni12  1  0.33336255  0.33449722  0.33429625  1
  Ni  Ni13  1  0.83280479  0.32184100  0.33459877  1
  Ni  Ni14  1  0.16946196  0.66565526  0.16530344  1
  Ni  Ni15  1  0.66871074  0.67912526  0.16433416  1
  Ni  Ni16  1  0.17137572  0.66491478  0.66076245  1
  Ni  Ni17  1  0.67141305  0.66498869  0.66076408  1
  Cu  Cu18  1  0.33307136  0.34035622  0.68108393  1
  Cu  Cu19  1  0.83312862  0.34046387  0.68112629  1
  Cu  Cu20  1  0.83305053  0.32416595  0.18323708  1
  C  C21  1  0.00379203  0.00463159  0.35622978  1
  C  C22  1  0.49540676  0.99498305  0.35483171  1
  C  C23  1  0.99954222  0.99898470  0.85761103  1
  C  C24  1  0.49967549  0.99900199  0.85758378  1
  C  C25  1  0.99873023  0.99779938  0.64295270  1
  C  C26  1  0.49886214  0.99798628  0.64292620  1
  C  C27  1  0.99926153  0.00217587  0.14525862  1
  C  C28  1  0.49984030  0.99815839  0.14595011  1
  C  C29  1  0.33348797  0.33560674  0.18583253  1
  C  C30  1  0.33336289  0.33295858  0.98104393  1
  C  C31  1  0.83355804  0.33321820  0.98248160  1
  C  C32  1  0.33366048  0.33427054  0.48196788  1
  C  C33  1  0.83323620  0.33370111  0.48170095  1
  C  C34  1  0.16862358  0.66886712  0.01938217  1
  C  C35  1  0.66542448  0.66445781  0.01777384  1
  C  C36  1  0.16670850  0.66675874  0.51579819  1
  C  C37  1  0.66659804  0.66724514  0.51563234  1
  C  C38  1  0.17095823  0.66612933  0.31413897  1
  C  C39  1  0.66532581  0.67245611  0.31582273  1
  C  C40  1  0.16854401  0.66575254  0.81621653  1
  C  C41  1  0.66907822  0.66571085  0.81615803  1
  C  C42  1  0.14555475  0.00438814  0.24984929  1
  C  C43  1  0.63648645  0.98685908  0.25362077  1
  C  C44  1  0.35692285  0.71351202  0.24959312  1
  C  C45  1  0.85639873  0.72758023  0.25347558  1
  C  C46  1  0.00597870  0.28690655  0.25371758  1
  C  C47  1  0.49714906  0.28423284  0.25016225  1
  C  C48  1  0.13951714  0.28675340  0.75402354  1
  C  C49  1  0.63958439  0.28688905  0.75398790  1
  C  C50  1  0.00207773  0.72084287  0.75412407  1
  C  C51  1  0.50208891  0.72086759  0.75415970  1
  C  C52  1  0.35668303  0.98553346  0.75332419  1
  C  C53  1  0.85668041  0.98571779  0.75322578  1
  C  C54  1  0.48467554  0.33642978  0.58146327  1
  C  C55  1  0.98459955  0.33648250  0.58149620  1
  C  C56  1  0.18371435  0.03124614  0.58161591  1
  C  C57  1  0.68372599  0.03133057  0.58169854  1
  C  C58  1  0.33155541  0.63260196  0.58005128  1
  C  C59  1  0.83139757  0.63216108  0.57996366  1
  C  C60  1  0.47628958  0.61993133  0.08319976  1
  C  C61  1  0.98489894  0.63396930  0.08179322  1
  C  C62  1  0.33365639  0.04746968  0.08351580  1
  C  C63  1  0.83188040  0.03049687  0.08003310  1
  C  C64  1  0.19049221  0.33479086  0.08321005  1
  C  C65  1  0.68267944  0.33323475  0.08193293  1
  C  C66  1  0.31075200  0.66553535  0.91812009  1
  C  C67  1  0.81110104  0.66435993  0.91731916  1
  C  C68  1  0.02224486  0.37895174  0.91756971  1
  C  C69  1  0.52111701  0.37807476  0.91665825  1
  C  C70  1  0.16793093  0.95723541  0.91702437  1
  C  C71  1  0.66720671  0.95625729  0.91728319  1
  C  C72  1  0.31030617  0.95645345  0.41578656  1
  C  C73  1  0.81170246  0.95783791  0.41650473  1
  C  C74  1  0.16833357  0.37836178  0.41662725  1
  C  C75  1  0.66651870  0.37693558  0.41519682  1
  C  C76  1  0.02219927  0.66504587  0.41516002  1
  C  C77  1  0.52081148  0.66471963  0.41661653  1
  C  C78  1  0.10584437  0.03805211  0.30832066  1
  C  C79  1  0.59138639  0.02451449  0.30914876  1
  C  C80  1  0.41385461  0.79078559  0.30801423  1
  C  C81  1  0.91984745  0.81337939  0.30904719  1
  C  C82  1  0.47892952  0.16667831  0.30780997  1
  C  C83  1  0.99177881  0.17034224  0.31062086  1
  C  C84  1  0.09506251  0.16735888  0.81099771  1
  C  C85  1  0.59508083  0.16753120  0.81103222  1
  C  C86  1  0.48925788  0.80887448  0.81172491  1
  C  C87  1  0.98969361  0.80940190  0.81161884  1
  C  C88  1  0.41654304  0.02322884  0.81044508  1
  C  C89  1  0.91663534  0.02345634  0.81024558  1
  C  C90  1  0.39795699  0.95815110  0.69384343  1
  C  C91  1  0.89793749  0.95812689  0.69374002  1
  C  C92  1  0.08030285  0.20691221  0.69531714  1
  C  C93  1  0.58021463  0.20689094  0.69531944  1
  C  C94  1  0.02167874  0.83884245  0.69529303  1
  C  C95  1  0.52156735  0.83883908  0.69538286  1
  C  C96  1  0.39710360  0.83330923  0.19207843  1
  C  C97  1  0.89748960  0.83667954  0.19351849  1
  C  C98  1  0.02076069  0.20571652  0.19374203  1
  C  C99  1  0.52024489  0.20488372  0.19316845  1
  C  C100  1  0.08222944  0.95765414  0.19329076  1
  C  C101  1  0.58139330  0.95751384  0.19351481  1
  C  C102  1  0.45840172  0.37821152  0.64263618  1
  C  C103  1  0.95843680  0.37813578  0.64267526  1
  C  C104  1  0.23107007  0.08325330  0.64266675  1
  C  C105  1  0.73106702  0.08369458  0.64269826  1
  C  C106  1  0.30850541  0.53383456  0.63952347  1
  C  C107  1  0.80852437  0.53372825  0.63940017  1
  C  C108  1  0.43584395  0.50002179  0.14079100  1
  C  C109  1  0.95748103  0.53730307  0.14219291  1
  C  C110  1  0.31444006  0.12964669  0.14087008  1
  C  C111  1  0.80874796  0.08448042  0.13897134  1
  C  C112  1  0.25021174  0.37318330  0.14072263  1
  C  C113  1  0.73129113  0.37684726  0.14226850  1
  C  C114  1  0.23066468  0.29468127  0.02557053  1
  C  C115  1  0.72956097  0.29608467  0.02648397  1
  C  C116  1  0.41620900  0.53853660  0.02559581  1
  C  C117  1  0.91964441  0.54098268  0.02643515  1
  C  C118  1  0.35269058  0.16631310  0.02551580  1
  C  C119  1  0.85180298  0.15992937  0.02386739  1
  C  C120  1  0.23065696  0.16417297  0.52693332  1
  C  C121  1  0.73043398  0.16424162  0.52696834  1
  C  C122  1  0.35179915  0.54226146  0.52442176  1
  C  C123  1  0.85185031  0.54199686  0.52420977  1
  C  C124  1  0.41814475  0.29743212  0.52691419  1
  C  C125  1  0.91826680  0.29786846  0.52688910  1
  C  C126  1  0.26939259  0.70488555  0.97471114  1
  C  C127  1  0.76812083  0.70220033  0.97249503  1
  C  C128  1  0.08491600  0.46426462  0.97290160  1
  C  C129  1  0.58229411  0.46443984  0.97214643  1
  C  C130  1  0.15051723  0.83462840  0.97246804  1
  C  C131  1  0.64720701  0.83137753  0.97270762  1
  C  C132  1  0.26927583  0.83491042  0.47163201  1
  C  C133  1  0.76898317  0.83547872  0.47211636  1
  C  C134  1  0.14877392  0.46182754  0.47230552  1
  C  C135  1  0.64856358  0.46340893  0.47078890  1
  C  C136  1  0.08321546  0.70287501  0.47084893  1
  C  C137  1  0.58209400  0.70350352  0.47229094  1
  C  C138  1  0.06280861  0.63069402  0.35582537  1
  C  C139  1  0.56149032  0.62551943  0.35886403  1
  C  C140  1  0.25136027  0.87493354  0.35764021  1
  C  C141  1  0.75151291  0.87680047  0.35867686  1
  C  C142  1  0.18689386  0.49641127  0.35857685  1
  C  C143  1  0.68458988  0.49386255  0.35581849  1
  C  C144  1  0.06185640  0.49463637  0.85801853  1
  C  C145  1  0.56125592  0.49395111  0.85752522  1
  C  C146  1  0.18573276  0.87783426  0.85739583  1
  C  C147  1  0.68513493  0.87649783  0.85773281  1
  C  C148  1  0.25123760  0.62723234  0.86020245  1
  C  C149  1  0.75192080  0.62604132  0.85894872  1
  C  C150  1  0.01347173  0.83811335  0.40902425  1
  C  C151  1  0.51109226  0.83584978  0.40988348  1
  C  C152  1  0.40532464  0.97315810  0.40909339  1
  C  C153  1  0.90665786  0.97624067  0.41001237  1
  C  C154  1  0.08243621  0.18768116  0.41081141  1
  C  C155  1  0.58005828  0.18767710  0.40855092  1
  C  C156  1  0.01221831  0.18805304  0.91115532  1
  C  C157  1  0.51171634  0.18771403  0.91117668  1
  C  C158  1  0.08221414  0.97579118  0.91142287  1
  C  C159  1  0.58143578  0.97511038  0.91142532  1
  C  C160  1  0.40551494  0.83704711  0.91172567  1
  C  C161  1  0.90607657  0.83632098  0.91100270  1
  C  C162  1  0.49065588  0.15945790  0.58634089  1
  C  C163  1  0.99079897  0.15965494  0.58637611  1
  C  C164  1  0.08933858  0.01959087  0.58670967  1
  C  C165  1  0.58930209  0.01968568  0.58676574  1
  C  C166  1  0.42038179  0.82102400  0.58580962  1
  C  C167  1  0.92032754  0.82076805  0.58575141  1
  C  C168  1  0.48455833  0.80924505  0.09071727  1
  C  C169  1  0.99291187  0.82465138  0.08641535  1
  C  C170  1  0.41861507  0.02762823  0.09122859  1
  C  C171  1  0.92117248  0.02013280  0.08552283  1
  C  C172  1  0.09570188  0.16515203  0.09110180  1
  C  C173  1  0.58798587  0.15496493  0.08654285  1
  C  C174  1  0.34405789  0.15045876  0.75192872  1
  C  C175  1  0.84397758  0.15045639  0.75185732  1
  C  C176  1  0.23183667  0.30504135  0.75310297  1
  C  C177  1  0.73177230  0.30509924  0.75310282  1
  C  C178  1  0.42315238  0.53076726  0.75372555  1
  C  C179  1  0.92326008  0.53088716  0.75375160  1
  C  C180  1  0.34678804  0.52230777  0.24186981  1
  C  C181  1  0.84437220  0.53789299  0.25213309  1
  C  C182  1  0.41287278  0.30564386  0.24201068  1
  C  C183  1  0.92581281  0.31688962  0.25370712  1
  C  C184  1  0.24000534  0.17463565  0.24172147  1
  C  C185  1  0.72908513  0.15472533  0.25333293  1
  C  C186  1  0.31981956  0.49431481  0.92496843  1
  C  C187  1  0.82066184  0.49343606  0.92458843  1
  C  C188  1  0.42667741  0.36075665  0.92375706  1
  C  C189  1  0.92770013  0.36168990  0.92419263  1
  C  C190  1  0.25359044  0.14683302  0.92383740  1
  C  C191  1  0.75278869  0.14529575  0.92420323  1
  C  C192  1  0.32067571  0.14659548  0.42368389  1
  C  C193  1  0.82065015  0.14767725  0.42443304  1
  C  C194  1  0.25342100  0.35867282  0.42390735  1
  C  C195  1  0.75223941  0.35895929  0.42302426  1
  C  C196  1  0.42637828  0.49223059  0.42379842  1
  C  C197  1  0.92749064  0.49466227  0.42302859  1
  C  C198  1  0.18133804  0.50638196  0.07523616  1
  C  C199  1  0.67057424  0.49907516  0.06969697  1
  C  C200  1  0.07953386  0.65265351  0.07030252  1
  C  C201  1  0.57119176  0.64127589  0.07501976  1
  C  C202  1  0.24882332  0.85745656  0.07558094  1
  C  C203  1  0.74764693  0.84017963  0.06876287  1
  C  C204  1  0.17191921  0.84250924  0.56889310  1
  C  C205  1  0.67197358  0.84249770  0.56925224  1
  C  C206  1  0.24939641  0.65821405  0.56807488  1
  C  C207  1  0.74910215  0.65733712  0.56796230  1
  C  C208  1  0.07879617  0.50235698  0.56904649  1
  C  C209  1  0.57888037  0.50175456  0.56890518  1
  C  C210  1  0.15314304  0.82876446  0.25660550  1
  C  C211  1  0.64305622  0.81202600  0.25903195  1
  C  C212  1  0.26235943  0.69709665  0.25683559  1
  C  C213  1  0.75977285  0.70606782  0.25842123  1
  C  C214  1  0.09393658  0.48079406  0.25760285  1
  C  C215  1  0.58522210  0.47259837  0.25748822  1
  C  C216  1  0.14506009  0.47567811  0.75943481  1
  C  C217  1  0.64486688  0.47559144  0.75934246  1
  C  C218  1  0.09207813  0.70775048  0.75860250  1
  C  C219  1  0.59200916  0.70783791  0.75867710  1
  C  C220  1  0.26077466  0.81258334  0.75854684  1
  C  C221  1  0.76070156  0.81291033  0.75835634  1
