# generated using pymatgen
data_Cu3NiC16
_symmetry_space_group_name_H-M   'P 1'
_cell_length_a   15.30176184
_cell_length_b   8.79478446
_cell_length_c   8.85877168
_cell_angle_alpha   90.10127945
_cell_angle_beta   124.79781841
_cell_angle_gamma   89.95672433
_symmetry_Int_Tables_number   1
_chemical_formula_structural   Cu3NiC16
_chemical_formula_sum   'Cu12 Ni4 C64'
_cell_volume   978.97819700
_cell_formula_units_Z   4
loop_
 _symmetry_equiv_pos_site_id
 _symmetry_equiv_pos_as_xyz
  1  'x, y, z'
loop_
 _atom_site_type_symbol
 _atom_site_label
 _atom_site_symmetry_multiplicity
 _atom_site_fract_x
 _atom_site_fract_y
 _atom_site_fract_z
 _atom_site_occupancy
  C  C0  1  0.24275029  0.77166715  0.99436388  1
  C  C1  1  0.74871717  0.72384516  0.50261274  1
  C  C2  1  0.74979796  0.27221553  0.00374791  1
  C  C3  1  0.24278135  0.22419260  0.49429922  1
  C  C4  1  0.50339467  0.09998684  0.75253680  1
  C  C5  1  0.50329184  0.89980988  0.24805074  1
  C  C6  1  0.00385837  0.61327581  0.74992193  1
  C  C7  1  0.00215624  0.38598740  0.24797324  1
  C  C8  1  0.81595063  0.93325906  0.22411947  1
  C  C9  1  0.81247313  0.06980169  0.71711911  1
  C  C10  1  0.30519689  0.43324087  0.20584498  1
  C  C11  1  0.30958008  0.56447200  0.72074792  1
  C  C12  1  0.10447427  0.75976081  0.55750602  1
  C  C13  1  0.60391668  0.25832351  0.55972647  1
  C  C14  1  0.39531162  0.75043557  0.43796468  1
  C  C15  1  0.60623628  0.74196918  0.06003620  1
  Ni  Ni16  1  0.89838206  0.74882892  0.94210935  1
  Ni  Ni17  1  0.89898873  0.25123245  0.44314988  1
  Ni  Ni18  1  0.10148374  0.24506481  0.05290189  1
  Ni  Ni19  1  0.39595742  0.25091020  0.93958982  1
  Cu  Cu20  1  0.99829697  0.96542473  0.75093530  1
  Cu  Cu21  1  0.99873862  0.04659193  0.23911328  1
  Cu  Cu22  1  0.49442001  0.44502682  0.74905671  1
  Cu  Cu23  1  0.49578278  0.54322655  0.23766966  1
  Cu  Cu24  1  0.35690501  0.90494194  0.76518233  1
  Cu  Cu25  1  0.65626922  0.88757200  0.74837791  1
  Cu  Cu26  1  0.65157384  0.11464450  0.24551714  1
  Cu  Cu27  1  0.35052579  0.10881558  0.24455792  1
  Cu  Cu28  1  0.86316139  0.39978023  0.75628659  1
  Cu  Cu29  1  0.14599103  0.38355991  0.74826228  1
  Cu  Cu30  1  0.14258811  0.60186715  0.23594560  1
  Cu  Cu31  1  0.85937406  0.59827028  0.25481747  1
  C  C32  1  0.15487570  0.56104846  0.74263313  1
  C  C33  1  0.85864866  0.57608318  0.76668670  1
  C  C34  1  0.85698557  0.42229243  0.26596279  1
  C  C35  1  0.14881848  0.42464849  0.22301775  1
  C  C36  1  0.66460194  0.06415849  0.74265161  1
  C  C37  1  0.35155962  0.08025267  0.77194648  1
  C  C38  1  0.34612486  0.93327288  0.24456292  1
  C  C39  1  0.66181364  0.93787813  0.24044169  1
  C  C40  1  0.42600435  0.53904459  0.57008029  1
  C  C41  1  0.55541770  0.55123433  0.91436634  1
  C  C42  1  0.55515298  0.44575431  0.41220714  1
  C  C43  1  0.43180375  0.44186427  0.06386511  1
  C  C44  1  0.92743754  0.06049720  0.57200574  1
  C  C45  1  0.06067330  0.07001506  0.91793606  1
  C  C46  1  0.06850482  0.95097384  0.41351703  1
  C  C47  1  0.92719311  0.94134363  0.07113739  1
  C  C48  1  0.26339573  0.82317744  0.75093032  1
  C  C49  1  0.75326811  0.81427268  0.76462525  1
  C  C50  1  0.75009481  0.18494395  0.26268068  1
  C  C51  1  0.25133874  0.18201355  0.22335195  1
  C  C52  1  0.76685045  0.32651362  0.74349417  1
  C  C53  1  0.24515412  0.31777986  0.76441589  1
  C  C54  1  0.23736974  0.67076884  0.24179837  1
  C  C55  1  0.76394204  0.67311791  0.24207789  1
  C  C56  1  0.36025072  0.86615628  0.59762776  1
  C  C57  1  0.65529342  0.85672898  0.91859294  1
  C  C58  1  0.65285927  0.14341341  0.41911834  1
  C  C59  1  0.36271317  0.15707709  0.08946032  1
  C  C60  1  0.86502995  0.36065620  0.58749150  1
  C  C61  1  0.14391265  0.35231910  0.91823801  1
  C  C62  1  0.15172998  0.62999860  0.41688511  1
  C  C63  1  0.86447012  0.64022921  0.09034837  1
  C  C64  1  0.45942878  0.84640673  0.94132572  1
  C  C65  1  0.55212579  0.83201467  0.57048460  1
  C  C66  1  0.54577345  0.17198961  0.07151986  1
  C  C67  1  0.44973015  0.16361694  0.43145522  1
  C  C68  1  0.96438795  0.33597443  0.93233401  1
  C  C69  1  0.04308310  0.32416450  0.56997032  1
  C  C70  1  0.03826816  0.66880164  0.06947283  1
  C  C71  1  0.95842873  0.66168550  0.43460612  1
  C  C72  1  0.07575418  0.85713467  0.74374269  1
  C  C73  1  0.92072189  0.86026245  0.76637374  1
  C  C74  1  0.92101521  0.14703546  0.25985424  1
  C  C75  1  0.07240838  0.15489476  0.22132936  1
  C  C76  1  0.57533402  0.33724550  0.75212947  1
  C  C77  1  0.41302288  0.34610184  0.75900677  1
  C  C78  1  0.41142428  0.64372284  0.23664609  1
  C  C79  1  0.57747776  0.65141870  0.24554946  1
