# generated using pymatgen
data_CuNiC15
_symmetry_space_group_name_H-M   'P 1'
_cell_length_a   8.70953170
_cell_length_b   8.74590711
_cell_length_c   22.55346523
_cell_angle_alpha   89.50682921
_cell_angle_beta   90.00000000
_cell_angle_gamma   119.86251203
_symmetry_Int_Tables_number   1
_chemical_formula_structural   CuNiC15
_chemical_formula_sum   'Cu6 Ni6 C90'
_cell_volume   1489.78019787
_cell_formula_units_Z   6
loop_
 _symmetry_equiv_pos_site_id
 _symmetry_equiv_pos_as_xyz
  1  'x, y, z'
loop_
 _atom_site_type_symbol
 _atom_site_label
 _atom_site_symmetry_multiplicity
 _atom_site_fract_x
 _atom_site_fract_y
 _atom_site_fract_z
 _atom_site_occupancy
  C  C0  1  0.00775590  0.01858211  0.64203855  1
  C  C1  1  0.01082621  0.01858211  0.14203855  1
  C  C2  1  0.64990934  0.32474852  0.97514511  1
  C  C3  1  0.67484018  0.32474852  0.47514511  1
  C  C4  1  0.33661902  0.67035254  0.30873973  1
  C  C5  1  0.33373253  0.67035254  0.80873973  1
  Ni  Ni6  1  0.98372210  0.00971611  0.35471246  1
  Ni  Ni7  1  0.02599401  0.00971611  0.85471246  1
  Ni  Ni8  1  0.67081022  0.33963702  0.68666274  1
  Ni  Ni9  1  0.66882780  0.33963702  0.18666274  1
  Ni  Ni10  1  0.32725627  0.66480729  0.02151600  1
  Ni  Ni11  1  0.33755002  0.66480729  0.52151600  1
  Cu  Cu12  1  0.98537394  0.28767421  0.25091490  1
  Cu  Cu13  1  0.30230027  0.28767421  0.75091490  1
  Cu  Cu14  1  0.96340816  0.35455891  0.58594450  1
  Cu  Cu15  1  0.39115174  0.35455891  0.08594450  1
  Cu  Cu16  1  0.31874072  0.93955553  0.91911484  1
  Cu  Cu17  1  0.62081382  0.93955553  0.41911484  1
  C  C18  1  0.28771556  0.00622826  0.25153340  1
  C  C19  1  0.71809480  0.70957159  0.25071459  1
  C  C20  1  0.99147679  0.70957159  0.75071459  1
  C  C21  1  0.71851270  0.00622826  0.75153340  1
  C  C22  1  0.38229874  0.04148694  0.58387551  1
  C  C23  1  0.66347529  0.61990595  0.58370565  1
  C  C24  1  0.95643166  0.61990595  0.08370565  1
  C  C25  1  0.65918920  0.04148694  0.08387551  1
  C  C26  1  0.62781092  0.67721051  0.91628808  1
  C  C27  1  0.04633666  0.37438821  0.91736735  1
  C  C28  1  0.32805055  0.37438821  0.41736735  1
  C  C29  1  0.04939859  0.67721051  0.41628808  1
  C  C30  1  0.20437067  0.02641164  0.30468718  1
  C  C31  1  0.82379474  0.78699119  0.30388811  1
  C  C32  1  0.96797735  0.16744506  0.30643377  1
  C  C33  1  0.19946772  0.16744506  0.80643377  1
  C  C34  1  0.96319645  0.78699119  0.80388811  1
  C  C35  1  0.82204097  0.02641164  0.80468718  1
  C  C36  1  0.79376036  0.96715234  0.69728219  1
  C  C37  1  0.16492885  0.19357583  0.69222239  1
  C  C38  1  0.02983437  0.82247726  0.69692611  1
  C  C39  1  0.79264289  0.82247726  0.19692611  1
  C  C40  1  0.02864698  0.19357583  0.19222239  1
  C  C41  1  0.17339198  0.96715234  0.19728219  1
  C  C42  1  0.86035424  0.36535211  0.64265459  1
  C  C43  1  0.48729974  0.12169626  0.63661706  1
  C  C44  1  0.63280247  0.51124061  0.63709443  1
  C  C45  1  0.87843915  0.51124061  0.13709443  1
  C  C46  1  0.63439751  0.12169626  0.13661706  1
  C  C47  1  0.50499887  0.36535211  0.14265459  1
  C  C48  1  0.47566184  0.30614442  0.02670626  1
  C  C49  1  0.84430611  0.54035413  0.03024684  1
  C  C50  1  0.70234894  0.15887170  0.02998641  1
  C  C51  1  0.45652376  0.15887170  0.52998641  1
  C  C52  1  0.69604901  0.54035413  0.53024684  1
  C  C53  1  0.83048358  0.30614442  0.52670626  1
  C  C54  1  0.54711725  0.69913268  0.96963192  1
  C  C55  1  0.15572400  0.45114931  0.96981952  1
  C  C56  1  0.30545398  0.82659249  0.97667916  1
  C  C57  1  0.52113752  0.82659249  0.47667916  1
  C  C58  1  0.29542432  0.45114931  0.46981952  1
  C  C59  1  0.15201443  0.69913268  0.46963192  1
  C  C60  1  0.12370295  0.63348254  0.36303134  1
  C  C61  1  0.49326171  0.85678254  0.35986959  1
  C  C62  1  0.36238506  0.49075744  0.36354632  1
  C  C63  1  0.12837137  0.49075744  0.86354632  1
  C  C64  1  0.36351983  0.85678254  0.85986959  1
  C  C65  1  0.50977860  0.63348254  0.86303134  1
  C  C66  1  0.02817100  0.82938793  0.40505806  1
  C  C67  1  0.81472477  0.97048357  0.40980885  1
  C  C68  1  0.17988199  0.19729497  0.40771145  1
  C  C69  1  0.01741297  0.19729497  0.90771145  1
  C  C70  1  0.15575880  0.97048357  0.90980885  1
  C  C71  1  0.80121693  0.82938793  0.90505806  1
  C  C72  1  0.96940996  0.16568488  0.59275643  1
  C  C73  1  0.19991853  0.02268935  0.59088341  1
  C  C74  1  0.82647027  0.79663579  0.59242121  1
  C  C75  1  0.97016552  0.79663579  0.09242121  1
  C  C76  1  0.82277081  0.02268935  0.09088341  1
  C  C77  1  0.19627492  0.16568488  0.09275643  1
  C  C78  1  0.69171759  0.15552515  0.74224337  1
  C  C79  1  0.49110126  0.31163084  0.73569089  1
  C  C80  1  0.84271184  0.53275987  0.74308419  1
  C  C81  1  0.69004903  0.53275987  0.24308419  1
  C  C82  1  0.82053059  0.31163084  0.23569089  1
  C  C83  1  0.46380856  0.15552515  0.24224337  1
  C  C84  1  0.64732387  0.51437404  0.92399595  1
  C  C85  1  0.87101281  0.36512811  0.92515240  1
  C  C86  1  0.50436181  0.13939538  0.92695441  1
  C  C87  1  0.63503456  0.13939538  0.42695441  1
  C  C88  1  0.49411629  0.36512811  0.42515240  1
  C  C89  1  0.86705117  0.51437404  0.42399595  1
  C  C90  1  0.35569941  0.51112951  0.07006484  1
  C  C91  1  0.13301189  0.64265353  0.07590772  1
  C  C92  1  0.50909986  0.86676125  0.07516510  1
  C  C93  1  0.35766039  0.86676125  0.57516510  1
  C  C94  1  0.50964064  0.64265353  0.57590772  1
  C  C95  1  0.15542911  0.51112951  0.57006484  1
  C  C96  1  0.30206798  0.84054877  0.25767438  1
  C  C97  1  0.53620328  0.69340171  0.25821826  1
  C  C98  1  0.16819564  0.48048208  0.26161247  1
  C  C99  1  0.31228543  0.48048208  0.76161247  1
  C  C100  1  0.15719743  0.69340171  0.75821826  1
  C  C101  1  0.53847979  0.84054877  0.75767438  1
