# generated using pymatgen
data_Cu5Ni7C66
_symmetry_space_group_name_H-M   'P 1'
_cell_length_a   17.52789712
_cell_length_b   8.73449014
_cell_length_c   21.88472179
_cell_angle_alpha   90.10210455
_cell_angle_beta   90.35301634
_cell_angle_gamma   119.93165819
_symmetry_Int_Tables_number   1
_chemical_formula_structural   Cu5Ni7C66
_chemical_formula_sum   'Cu15 Ni21 C198'
_cell_volume   2903.50542601
_cell_formula_units_Z   3
loop_
 _symmetry_equiv_pos_site_id
 _symmetry_equiv_pos_as_xyz
  1  'x, y, z'
loop_
 _atom_site_type_symbol
 _atom_site_label
 _atom_site_symmetry_multiplicity
 _atom_site_fract_x
 _atom_site_fract_y
 _atom_site_fract_z
 _atom_site_occupancy
  C  C0  1  0.31943316  0.00137630  0.24545214  1
  C  C1  1  0.81461049  0.00241991  0.24775860  1
  C  C2  1  0.18549777  0.36658502  0.24530246  1
  C  C3  1  0.31474671  0.62683521  0.74840584  1
  C  C4  1  0.81866967  0.63633711  0.74521981  1
  C  C5  1  0.68434745  0.00310060  0.74585654  1
  C  C6  1  0.15839179  0.33487865  0.58377054  1
  C  C7  1  0.65438258  0.33310800  0.57803654  1
  C  C8  1  0.01793000  0.69944181  0.57395100  1
  C  C9  1  0.15621699  0.97816899  0.08106220  1
  C  C10  1  0.65737935  0.98027516  0.08350671  1
  C  C11  1  0.51728544  0.33511512  0.07314047  1
  C  C12  1  0.85131816  0.02892864  0.92083975  1
  C  C13  1  0.66570060  0.31174830  0.91985814  1
  C  C14  1  0.48591481  0.29822994  0.42021198  1
  C  C15  1  0.16734980  0.02139992  0.42037563  1
  C  C16  1  0.66729372  0.05002557  0.41624869  1
  C  C17  1  0.84810868  0.65943498  0.41663802  1
  C  C18  1  0.99622859  0.99641413  0.49697913  1
  C  C19  1  0.48692058  0.97626789  0.49475023  1
  C  C20  1  0.99902104  0.99925580  0.99495343  1
  C  C21  1  0.48742695  0.99489861  0.99443578  1
  C  C22  1  0.33461772  0.32814708  0.83336528  1
  C  C23  1  0.84230854  0.34486274  0.83260083  1
  C  C24  1  0.33727079  0.35127413  0.33291373  1
  C  C25  1  0.83606308  0.34214348  0.33144462  1
  C  C26  1  0.16594952  0.65168017  0.16034110  1
  C  C27  1  0.67401119  0.66915567  0.16469858  1
  C  C28  1  0.17522835  0.67976747  0.66519858  1
  C  C29  1  0.66581943  0.68019488  0.66070148  1
  C  C30  1  0.00052411  0.00638830  0.64793204  1
  C  C31  1  0.50257897  0.98766144  0.64098205  1
  C  C32  1  0.00295980  0.01698290  0.14053121  1
  C  C33  1  0.49937872  0.99286494  0.14737480  1
  C  C34  1  0.16394692  0.67539744  0.31177469  1
  C  C35  1  0.66232858  0.64838612  0.81241438  1
  C  C36  1  0.00320682  0.00098357  0.34960585  1
  C  C37  1  0.50074704  0.99493470  0.35505883  1
  C  C38  1  0.99933060  0.00610160  0.85132414  1
  C  C39  1  0.49797445  0.00590323  0.84985533  1
  C  C40  1  0.32131800  0.33998117  0.68867759  1
  C  C41  1  0.82061463  0.31215454  0.68488355  1
  C  C42  1  0.32145715  0.32786415  0.18531978  1
  C  C43  1  0.82095582  0.30261328  0.18852402  1
  C  C44  1  0.33171452  0.31204424  0.97995650  1
  C  C45  1  0.83067192  0.34007116  0.98655441  1
  C  C46  1  0.32744134  0.32426659  0.48559710  1
  C  C47  1  0.82939997  0.35057329  0.47869531  1
  C  C48  1  0.17515788  0.66908790  0.02083871  1
  C  C49  1  0.68279681  0.65422079  0.01911600  1
  C  C50  1  0.18236733  0.70895572  0.52081493  1
  C  C51  1  0.67077859  0.66432228  0.52200829  1
  C  C52  1  0.66434541  0.66549882  0.31543546  1
  C  C53  1  0.16497837  0.65723628  0.81641041  1
  Ni  Ni54  1  0.14423481  0.00374067  0.25000337  1
  Ni  Ni55  1  0.64483201  0.99250030  0.25730923  1
  Ni  Ni56  1  0.36070921  0.70257220  0.25448831  1
  Ni  Ni57  1  0.99310557  0.28624731  0.25412524  1
  Ni  Ni58  1  0.14528000  0.29450454  0.75753989  1
  Ni  Ni59  1  0.64329576  0.28196681  0.75046763  1
  Ni  Ni60  1  0.49292623  0.70031095  0.75484390  1
  Ni  Ni61  1  0.85855769  0.01791967  0.75441298  1
  Ni  Ni62  1  0.19584396  0.04653430  0.58534662  1
  Ni  Ni63  1  0.69489915  0.03815885  0.57785308  1
  Ni  Ni64  1  0.32790237  0.61382819  0.57927793  1
  Ni  Ni65  1  0.83120764  0.61679863  0.58492581  1
  Ni  Ni66  1  0.33089901  0.04582478  0.08399248  1
  Ni  Ni67  1  0.82824020  0.04155740  0.07813731  1
  Ni  Ni68  1  0.19632165  0.34824455  0.07799703  1
  Ni  Ni69  1  0.69599463  0.34443036  0.08550100  1
  Ni  Ni70  1  0.82377505  0.66940857  0.91753371  1
  Ni  Ni71  1  0.51364503  0.36792048  0.92169491  1
  Ni  Ni72  1  0.31914210  0.96967842  0.41815557  1
  Ni  Ni73  1  0.66485656  0.38234716  0.41589146  1
  Ni  Ni74  1  0.01784307  0.66123927  0.42161335  1
  Cu  Cu75  1  0.85532821  0.70665418  0.25175100  1
  Cu  Cu76  1  0.50406142  0.29982735  0.25164504  1
  Cu  Cu77  1  0.00500722  0.71226971  0.75298404  1
  Cu  Cu78  1  0.35418663  0.00348117  0.75242685  1
  Cu  Cu79  1  0.47480042  0.33828252  0.58365299  1
  Cu  Cu80  1  0.97174724  0.33101196  0.58264700  1
  Cu  Cu81  1  0.47192071  0.61240794  0.08258367  1
  Cu  Cu82  1  0.97629629  0.61312860  0.08306281  1
  Cu  Cu83  1  0.31023697  0.66770149  0.91638992  1
  Cu  Cu84  1  0.02682676  0.38767373  0.91773653  1
  Cu  Cu85  1  0.16534137  0.94544853  0.91591503  1
  Cu  Cu86  1  0.66317425  0.95428124  0.91849136  1
  Cu  Cu87  1  0.81222732  0.95597353  0.41657620  1
  Cu  Cu88  1  0.16520665  0.37401547  0.41845816  1
  Cu  Cu89  1  0.52353809  0.66547250  0.41742823  1
  C  C90  1  0.09983646  0.03524833  0.30956889  1
  C  C91  1  0.59779072  0.02181579  0.31527693  1
  C  C92  1  0.42022093  0.80935634  0.31131848  1
  C  C93  1  0.90787582  0.79027096  0.30859551  1
  C  C94  1  0.48796044  0.18564103  0.30515972  1
  C  C95  1  0.97579552  0.15050070  0.30954029  1
  C  C96  1  0.09364228  0.15966407  0.81163503  1
  C  C97  1  0.59840523  0.16111491  0.80958389  1
  C  C98  1  0.47552544  0.80227784  0.80985356  1
  C  C99  1  0.98607901  0.79652483  0.80464473  1
  C  C100  1  0.40928480  0.02818992  0.80728901  1
  C  C101  1  0.91425587  0.03468624  0.81498176  1
  C  C102  1  0.39254343  0.96225582  0.69742421  1
  C  C103  1  0.90114094  0.96342753  0.69625692  1
  C  C104  1  0.08512927  0.20760641  0.69285444  1
  C  C105  1  0.58383208  0.19823581  0.68844031  1
  C  C106  1  0.01969456  0.81962883  0.69522250  1
  C  C107  1  0.51365665  0.83091936  0.69303833  1
  C  C108  1  0.39951078  0.83571918  0.19416903  1
  C  C109  1  0.89752887  0.82475813  0.19775675  1
  C  C110  1  0.01308150  0.19560579  0.19260945  1
  C  C111  1  0.51774255  0.21643711  0.19503483  1
  C  C112  1  0.08453081  0.97042649  0.18829121  1
  C  C113  1  0.58373290  0.96148979  0.19380573  1
  C  C114  1  0.43358022  0.35890437  0.63777999  1
  C  C115  1  0.93204272  0.35642422  0.63789054  1
  C  C116  1  0.25582062  0.14625045  0.64340928  1
  C  C117  1  0.74397337  0.11846353  0.64293725  1
  C  C118  1  0.31265026  0.50577041  0.64306384  1
  C  C119  1  0.82039011  0.49871458  0.64561078  1
  C  C120  1  0.43174117  0.50678774  0.13761568  1
  C  C121  1  0.93866051  0.51214081  0.13825493  1
  C  C122  1  0.31735025  0.13471143  0.14610105  1
  C  C123  1  0.81353899  0.12376094  0.14089123  1
  C  C124  1  0.24376658  0.36596823  0.14383297  1
  C  C125  1  0.75637173  0.36751266  0.14372382  1
  C  C126  1  0.24005816  0.29881440  0.02230615  1
  C  C127  1  0.73026047  0.29665189  0.02298937  1
  C  C128  1  0.41988946  0.53986973  0.02684791  1
  C  C129  1  0.92218945  0.53546783  0.02731436  1
  C  C130  1  0.35772536  0.17727144  0.02659466  1
  C  C131  1  0.84850600  0.16755948  0.01825988  1
  C  C132  1  0.22859661  0.15965609  0.52218947  1
  C  C133  1  0.73797858  0.17091805  0.52053897  1
  C  C134  1  0.34904081  0.52430953  0.52200203  1
  C  C135  1  0.85503711  0.54210242  0.52437485  1
  C  C136  1  0.42403442  0.31027411  0.52586349  1
  C  C137  1  0.91921101  0.30126925  0.52708809  1
  C  C138  1  0.26727911  0.69672879  0.97004110  1
  C  C139  1  0.77538309  0.71317004  0.97221433  1
  C  C140  1  0.08061787  0.47878464  0.97195563  1
  C  C141  1  0.58423632  0.46731638  0.97848816  1
  C  C142  1  0.15412338  0.84085341  0.97265484  1
  C  C143  1  0.65269147  0.84785996  0.97274469  1
  C  C144  1  0.27146848  0.84406890  0.47488508  1
  C  C145  1  0.76956863  0.83890790  0.46952416  1
  C  C146  1  0.15278981  0.45709774  0.47265620  1
  C  C147  1  0.64693259  0.46987384  0.47710288  1
  C  C148  1  0.08556553  0.70334442  0.47903027  1
  C  C149  1  0.58039019  0.69475526  0.47130392  1
  C  C150  1  0.06781524  0.63915019  0.36055374  1
  C  C151  1  0.56415983  0.63862517  0.36147798  1
  C  C152  1  0.25247687  0.88026401  0.35708467  1
  C  C153  1  0.75776706  0.87925295  0.35983033  1
  C  C154  1  0.17719002  0.48001731  0.36206099  1
  C  C155  1  0.68279294  0.51714888  0.35924156  1
  C  C156  1  0.06777142  0.49271204  0.86173468  1
  C  C157  1  0.56691477  0.49439928  0.86106419  1
  C  C158  1  0.17614087  0.85347351  0.86197725  1
  C  C159  1  0.67791047  0.87202296  0.86277362  1
  C  C160  1  0.25682240  0.64665254  0.85986776  1
  C  C161  1  0.75588416  0.63009345  0.85664288  1
  C  C162  1  0.00779853  0.84032025  0.40959859  1
  C  C163  1  0.51480895  0.82555512  0.41335549  1
  C  C164  1  0.41532794  0.99379329  0.40690655  1
  C  C165  1  0.89969865  0.96676400  0.41124164  1
  C  C166  1  0.08537525  0.19320141  0.41242449  1
  C  C167  1  0.57883010  0.18336815  0.40968694  1
  C  C168  1  0.01858651  0.20889739  0.91474265  1
  C  C169  1  0.50973699  0.17669789  0.90924464  1
  C  C170  1  0.08594485  0.96220335  0.91003569  1
  C  C171  1  0.58503108  0.97626073  0.91253253  1
  C  C172  1  0.39823977  0.82919088  0.91167905  1
  C  C173  1  0.91861936  0.84902553  0.90767445  1
  C  C174  1  0.48582892  0.17664160  0.58714973  1
  C  C175  1  0.98308464  0.16793667  0.58741023  1
  C  C176  1  0.09390526  0.02675438  0.59194616  1
  C  C177  1  0.59421130  0.02732263  0.58459934  1
  C  C178  1  0.41316418  0.81834665  0.58728857  1
  C  C179  1  0.92106407  0.81441194  0.59162710  1
  C  C180  1  0.48402159  0.79862981  0.08761609  1
  C  C181  1  0.98596810  0.79586822  0.08687122  1
  C  C182  1  0.42003620  0.02557332  0.09155271  1
  C  C183  1  0.91373395  0.00923506  0.08657303  1
  C  C184  1  0.09463611  0.15877778  0.08431620  1
  C  C185  1  0.59422828  0.16170620  0.09219590  1
  C  C186  1  0.34729176  0.16057732  0.74501074  1
  C  C187  1  0.84811374  0.18821458  0.74199074  1
  C  C188  1  0.24167992  0.31497191  0.74805590  1
  C  C189  1  0.74297860  0.31318453  0.74513680  1
  C  C190  1  0.41045565  0.50784835  0.74154839  1
  C  C191  1  0.92648744  0.53688850  0.74458518  1
  C  C192  1  0.34856578  0.50947981  0.24237854  1
  C  C193  1  0.84810862  0.53477988  0.24503077  1
  C  C194  1  0.42474303  0.31527361  0.24322763  1
  C  C195  1  0.91015147  0.31259098  0.24136073  1
  C  C196  1  0.24343534  0.17285791  0.24548479  1
  C  C197  1  0.74147660  0.16573821  0.24736096  1
  C  C198  1  0.31697937  0.50777762  0.92187780  1
  C  C199  1  0.82522595  0.48467276  0.92554814  1
  C  C200  1  0.41885727  0.35799913  0.92447239  1
  C  C201  1  0.93667024  0.36300756  0.92033945  1
  C  C202  1  0.24592166  0.12191314  0.91973422  1
  C  C203  1  0.74471106  0.13312089  0.92000928  1
  C  C204  1  0.32715792  0.16737200  0.42506963  1
  C  C205  1  0.82190192  0.13218324  0.42324295  1
  C  C206  1  0.24440069  0.35283824  0.42072979  1
  C  C207  1  0.75286596  0.36036951  0.42105598  1
  C  C208  1  0.43605055  0.50422412  0.42176103  1
  C  C209  1  0.92131103  0.48666931  0.42495655  1
  C  C210  1  0.17578360  0.50771970  0.07073538  1
  C  C211  1  0.67492066  0.50536949  0.08010890  1
  C  C212  1  0.06740090  0.64493037  0.07464873  1
  C  C213  1  0.56261259  0.64246273  0.07881839  1
  C  C214  1  0.24184337  0.85380537  0.07400876  1
  C  C215  1  0.73831798  0.84849931  0.07083067  1
  C  C216  1  0.17331054  0.84230034  0.58170071  1
  C  C217  1  0.67503591  0.83880943  0.56910177  1
  C  C218  1  0.23810452  0.62749078  0.57189615  1
  C  C219  1  0.74258232  0.63165156  0.57781053  1
  C  C220  1  0.06240064  0.48202435  0.57846336  1
  C  C221  1  0.56532122  0.49305199  0.57835683  1
  C  C222  1  0.15582680  0.82735902  0.25160587  1
  C  C223  1  0.65945261  0.81964596  0.26189996  1
  C  C224  1  0.26035695  0.67929165  0.25993397  1
  C  C225  1  0.76766930  0.69588721  0.25623010  1
  C  C226  1  0.08727515  0.47058844  0.25818030  1
  C  C227  1  0.58388561  0.47475793  0.25694559  1
  C  C228  1  0.15852301  0.49554133  0.76195117  1
  C  C229  1  0.65554018  0.48216690  0.75225843  1
  C  C230  1  0.08525758  0.69948416  0.76064450  1
  C  C231  1  0.58701691  0.70298681  0.75918955  1
  C  C232  1  0.26534044  0.84059653  0.75981898  1
  C  C233  1  0.75911780  0.83996586  0.75931816  1
