# generated using pymatgen
data_Cu4Ni4C9
_symmetry_space_group_name_H-M   'P 1'
_cell_length_a   3.06107281
_cell_length_b   3.06107281
_cell_length_c   26.71018301
_cell_angle_alpha   91.01322883
_cell_angle_beta   88.98677117
_cell_angle_gamma   120.65306465
_symmetry_Int_Tables_number   1
_chemical_formula_structural   Cu4Ni4C9
_chemical_formula_sum   'Cu4 Ni4 C9'
_cell_volume   215.26285774
_cell_formula_units_Z   1
loop_
 _symmetry_equiv_pos_site_id
 _symmetry_equiv_pos_as_xyz
  1  'x, y, z'
loop_
 _atom_site_type_symbol
 _atom_site_label
 _atom_site_symmetry_multiplicity
 _atom_site_fract_x
 _atom_site_fract_y
 _atom_site_fract_z
 _atom_site_occupancy
  C  C0  1  0.00344846  0.99655154  0.81478761  1
  Ni  Ni1  1  0.33265209  0.66734791  0.13568627  1
  Ni  Ni2  1  0.66956931  0.33043069  0.90906027  1
  Ni  Ni3  1  0.66646216  0.33353784  0.60190173  1
  Ni  Ni4  1  0.33231898  0.66768102  0.36819120  1
  Cu  Cu5  1  -0.00778187  0.00778187  0.01991979  1
  Cu  Cu6  1  0.00075256  0.99924744  0.48504078  1
  Cu  Cu7  1  0.66975924  0.33024076  0.25135986  1
  Cu  Cu8  1  0.33707738  0.66292262  0.72252792  1
  C  C9  1  -0.01646603  0.01646603  0.09872694  1
  C  C10  1  0.99855923  0.00144077  0.94037161  1
  C  C11  1  0.00022935  -0.00022935  0.56362359  1
  C  C12  1  0.00003835  0.99996165  0.40603477  1
  C  C13  1  0.68150767  0.31849233  0.17258551  1
  C  C14  1  0.33147926  0.66852074  0.84818404  1
  C  C15  1  0.33543683  0.66456317  0.63924043  1
  C  C16  1  0.66495704  0.33504296  0.33004967  1
