# generated using pymatgen
data_Cu9Ni3C25
_symmetry_space_group_name_H-M   'P 1'
_cell_length_a   14.33583201
_cell_length_b   14.33583201
_cell_length_c   14.33583201
_cell_angle_alpha   90.00000000
_cell_angle_beta   90.00000000
_cell_angle_gamma   90.00000000
_symmetry_Int_Tables_number   1
_chemical_formula_structural   Cu9Ni3C25
_chemical_formula_sum   'Cu72 Ni24 C200'
_cell_volume   2946.24398990
_cell_formula_units_Z   8
loop_
 _symmetry_equiv_pos_site_id
 _symmetry_equiv_pos_as_xyz
  1  'x, y, z'
loop_
 _atom_site_type_symbol
 _atom_site_label
 _atom_site_symmetry_multiplicity
 _atom_site_fract_x
 _atom_site_fract_y
 _atom_site_fract_z
 _atom_site_occupancy
  C  C0  1  0.00000000  -0.00000000  0.50000000  1
  C  C1  1  0.00000000  0.50000000  -0.00000000  1
  C  C2  1  0.50000000  -0.00000000  -0.00000000  1
  C  C3  1  0.50000000  0.50000000  0.50000000  1
  C  C4  1  0.50000000  0.50000000  -0.00000000  1
  C  C5  1  0.50000000  -0.00000000  0.50000000  1
  C  C6  1  0.00000000  0.50000000  0.50000000  1
  C  C7  1  0.00000000  -0.00000000  -0.00000000  1
  C  C8  1  0.46972260  0.75702699  0.39216711  1
  C  C9  1  0.53027740  0.25702699  0.10783289  1
  C  C10  1  0.03027740  0.24297301  0.89216711  1
  C  C11  1  0.96972260  0.74297301  0.60783289  1
  C  C12  1  0.39216711  0.46972260  0.75702699  1
  C  C13  1  0.10783289  0.53027740  0.25702699  1
  C  C14  1  0.89216711  0.03027740  0.24297301  1
  C  C15  1  0.60783289  0.96972260  0.74297301  1
  C  C16  1  0.75702699  0.39216711  0.46972260  1
  C  C17  1  0.25702699  0.10783289  0.53027740  1
  C  C18  1  0.24297301  0.89216711  0.03027740  1
  C  C19  1  0.74297301  0.60783289  0.96972260  1
  C  C20  1  0.53027740  0.24297301  0.60783289  1
  C  C21  1  0.46972260  0.74297301  0.89216711  1
  C  C22  1  0.96972260  0.75702699  0.10783289  1
  C  C23  1  0.03027740  0.25702699  0.39216711  1
  C  C24  1  0.60783289  0.53027740  0.24297301  1
  C  C25  1  0.89216711  0.46972260  0.74297301  1
  C  C26  1  0.10783289  0.96972260  0.75702699  1
  C  C27  1  0.39216711  0.03027740  0.25702699  1
  C  C28  1  0.24297301  0.60783289  0.53027740  1
  C  C29  1  0.74297301  0.89216711  0.46972260  1
  C  C30  1  0.75702699  0.10783289  0.96972260  1
  C  C31  1  0.25702699  0.39216711  0.03027740  1
  C  C32  1  0.47475223  0.64722068  0.33796002  1
  C  C33  1  0.52524777  0.14722068  0.16203998  1
  C  C34  1  0.02524777  0.35277932  0.83796002  1
  C  C35  1  0.97475223  0.85277932  0.66203998  1
  C  C36  1  0.33796002  0.47475223  0.64722068  1
  C  C37  1  0.16203998  0.52524777  0.14722068  1
  C  C38  1  0.83796002  0.02524777  0.35277932  1
  C  C39  1  0.66203998  0.97475223  0.85277932  1
  C  C40  1  0.64722068  0.33796002  0.47475223  1
  C  C41  1  0.14722068  0.16203998  0.52524777  1
  C  C42  1  0.35277932  0.83796002  0.02524777  1
  C  C43  1  0.85277932  0.66203998  0.97475223  1
  C  C44  1  0.52524777  0.35277932  0.66203998  1
  C  C45  1  0.47475223  0.85277932  0.83796002  1
  C  C46  1  0.97475223  0.64722068  0.16203998  1
  C  C47  1  0.02524777  0.14722068  0.33796002  1
  C  C48  1  0.66203998  0.52524777  0.35277932  1
  C  C49  1  0.83796002  0.47475223  0.85277932  1
  C  C50  1  0.16203998  0.97475223  0.64722068  1
  C  C51  1  0.33796002  0.02524777  0.14722068  1
  C  C52  1  0.35277932  0.66203998  0.52524777  1
  C  C53  1  0.85277932  0.83796002  0.47475223  1
  C  C54  1  0.64722068  0.16203998  0.97475223  1
  C  C55  1  0.14722068  0.33796002  0.02524777  1
  C  C56  1  0.49463053  0.64623351  0.16614082  1
  C  C57  1  0.50536947  0.14623351  0.33385918  1
  C  C58  1  0.00536947  0.35376649  0.66614082  1
  C  C59  1  0.99463053  0.85376649  0.83385918  1
  C  C60  1  0.16614082  0.49463053  0.64623351  1
  C  C61  1  0.33385918  0.50536947  0.14623351  1
  C  C62  1  0.66614082  0.00536947  0.35376649  1
  C  C63  1  0.83385918  0.99463053  0.85376649  1
  C  C64  1  0.64623351  0.16614082  0.49463053  1
  C  C65  1  0.14623351  0.33385918  0.50536947  1
  C  C66  1  0.35376649  0.66614082  0.00536947  1
  C  C67  1  0.85376649  0.83385918  0.99463053  1
  C  C68  1  0.50536947  0.35376649  0.83385918  1
  C  C69  1  0.49463053  0.85376649  0.66614082  1
  C  C70  1  0.99463053  0.64623351  0.33385918  1
  C  C71  1  0.00536947  0.14623351  0.16614082  1
  C  C72  1  0.83385918  0.50536947  0.35376649  1
  C  C73  1  0.66614082  0.49463053  0.85376649  1
  C  C74  1  0.33385918  0.99463053  0.64623351  1
  C  C75  1  0.16614082  0.00536947  0.14623351  1
  C  C76  1  0.35376649  0.83385918  0.50536947  1
  C  C77  1  0.85376649  0.66614082  0.49463053  1
  C  C78  1  0.64623351  0.33385918  0.99463053  1
  C  C79  1  0.14623351  0.16614082  0.00536947  1
  C  C80  1  0.50313167  0.75573186  0.11263719  1
  C  C81  1  0.49686833  0.25573186  0.38736281  1
  C  C82  1  0.99686833  0.24426814  0.61263719  1
  C  C83  1  0.00313167  0.74426814  0.88736281  1
  C  C84  1  0.11263719  0.50313167  0.75573186  1
  C  C85  1  0.38736281  0.49686833  0.25573186  1
  C  C86  1  0.61263719  0.99686833  0.24426814  1
  C  C87  1  0.88736281  0.00313167  0.74426814  1
  C  C88  1  0.75573186  0.11263719  0.50313167  1
  C  C89  1  0.25573186  0.38736281  0.49686833  1
  C  C90  1  0.24426814  0.61263719  0.99686833  1
  C  C91  1  0.74426814  0.88736281  0.00313167  1
  C  C92  1  0.49686833  0.24426814  0.88736281  1
  C  C93  1  0.50313167  0.74426814  0.61263719  1
  C  C94  1  0.00313167  0.75573186  0.38736281  1
  C  C95  1  0.99686833  0.25573186  0.11263719  1
  C  C96  1  0.88736281  0.49686833  0.24426814  1
  C  C97  1  0.61263719  0.50313167  0.74426814  1
  C  C98  1  0.38736281  0.00313167  0.75573186  1
  C  C99  1  0.11263719  0.99686833  0.25573186  1
  C  C100  1  0.24426814  0.88736281  0.49686833  1
  C  C101  1  0.74426814  0.61263719  0.50313167  1
  C  C102  1  0.75573186  0.38736281  0.00313167  1
  C  C103  1  0.25573186  0.11263719  0.99686833  1
  C  C104  1  0.48988373  0.89282851  0.18999889  1
  C  C105  1  0.51011627  0.39282851  0.31000111  1
  C  C106  1  0.01011627  0.10717149  0.68999889  1
  C  C107  1  0.98988373  0.60717149  0.81000111  1
  C  C108  1  0.18999889  0.48988373  0.89282851  1
  C  C109  1  0.31000111  0.51011627  0.39282851  1
  C  C110  1  0.68999889  0.01011627  0.10717149  1
  C  C111  1  0.81000111  0.98988373  0.60717149  1
  C  C112  1  0.89282851  0.18999889  0.48988373  1
  C  C113  1  0.39282851  0.31000111  0.51011627  1
  C  C114  1  0.10717149  0.68999889  0.01011627  1
  C  C115  1  0.60717149  0.81000111  0.98988373  1
  C  C116  1  0.51011627  0.10717149  0.81000111  1
  C  C117  1  0.48988373  0.60717149  0.68999889  1
  C  C118  1  0.98988373  0.89282851  0.31000111  1
  C  C119  1  0.01011627  0.39282851  0.18999889  1
  C  C120  1  0.81000111  0.51011627  0.10717149  1
  C  C121  1  0.68999889  0.48988373  0.60717149  1
  C  C122  1  0.31000111  0.98988373  0.89282851  1
  C  C123  1  0.18999889  0.01011627  0.39282851  1
  C  C124  1  0.10717149  0.81000111  0.51011627  1
  C  C125  1  0.60717149  0.68999889  0.48988373  1
  C  C126  1  0.89282851  0.31000111  0.98988373  1
  C  C127  1  0.39282851  0.18999889  0.01011627  1
  C  C128  1  0.48448411  0.89357290  0.31180054  1
  C  C129  1  0.51551589  0.39357290  0.18819946  1
  C  C130  1  0.01551589  0.10642710  0.81180054  1
  C  C131  1  0.98448411  0.60642710  0.68819946  1
  C  C132  1  0.31180054  0.48448411  0.89357290  1
  C  C133  1  0.18819946  0.51551589  0.39357290  1
  C  C134  1  0.81180054  0.01551589  0.10642710  1
  C  C135  1  0.68819946  0.98448411  0.60642710  1
  C  C136  1  0.89357290  0.31180054  0.48448411  1
  C  C137  1  0.39357290  0.18819946  0.51551589  1
  C  C138  1  0.10642710  0.81180054  0.01551589  1
  C  C139  1  0.60642710  0.68819946  0.98448411  1
  C  C140  1  0.51551589  0.10642710  0.68819946  1
  C  C141  1  0.48448411  0.60642710  0.81180054  1
  C  C142  1  0.98448411  0.89357290  0.18819946  1
  C  C143  1  0.01551589  0.39357290  0.31180054  1
  C  C144  1  0.68819946  0.51551589  0.10642710  1
  C  C145  1  0.81180054  0.48448411  0.60642710  1
  C  C146  1  0.18819946  0.98448411  0.89357290  1
  C  C147  1  0.31180054  0.01551589  0.39357290  1
  C  C148  1  0.10642710  0.68819946  0.51551589  1
  C  C149  1  0.60642710  0.81180054  0.48448411  1
  C  C150  1  0.89357290  0.18819946  0.98448411  1
  C  C151  1  0.39357290  0.31180054  0.01551589  1
  Ni  Ni152  1  0.48235222  0.76331061  0.25177991  1
  Ni  Ni153  1  0.51764778  0.26331061  0.24822009  1
  Ni  Ni154  1  0.01764778  0.23668939  0.75177991  1
  Ni  Ni155  1  0.98235222  0.73668939  0.74822009  1
  Ni  Ni156  1  0.25177991  0.48235222  0.76331061  1
  Ni  Ni157  1  0.24822009  0.51764778  0.26331061  1
  Ni  Ni158  1  0.75177991  0.01764778  0.23668939  1
  Ni  Ni159  1  0.74822009  0.98235222  0.73668939  1
  Ni  Ni160  1  0.76331061  0.25177991  0.48235222  1
  Ni  Ni161  1  0.26331061  0.24822009  0.51764778  1
  Ni  Ni162  1  0.23668939  0.75177991  0.01764778  1
  Ni  Ni163  1  0.73668939  0.74822009  0.98235222  1
  Ni  Ni164  1  0.51764778  0.23668939  0.74822009  1
  Ni  Ni165  1  0.48235222  0.73668939  0.75177991  1
  Ni  Ni166  1  0.98235222  0.76331061  0.24822009  1
  Ni  Ni167  1  0.01764778  0.26331061  0.25177991  1
  Ni  Ni168  1  0.74822009  0.51764778  0.23668939  1
  Ni  Ni169  1  0.75177991  0.48235222  0.73668939  1
  Ni  Ni170  1  0.24822009  0.98235222  0.76331061  1
  Ni  Ni171  1  0.25177991  0.01764778  0.26331061  1
  Ni  Ni172  1  0.23668939  0.74822009  0.51764778  1
  Ni  Ni173  1  0.73668939  0.75177991  0.48235222  1
  Ni  Ni174  1  0.76331061  0.24822009  0.98235222  1
  Ni  Ni175  1  0.26331061  0.25177991  0.01764778  1
  Cu  Cu176  1  0.47056328  0.71837097  0.33247422  1
  Cu  Cu177  1  0.52943672  0.21837097  0.16752578  1
  Cu  Cu178  1  0.02943672  0.28162903  0.83247422  1
  Cu  Cu179  1  0.97056328  0.78162903  0.66752578  1
  Cu  Cu180  1  0.33247422  0.47056328  0.71837097  1
  Cu  Cu181  1  0.16752578  0.52943672  0.21837097  1
  Cu  Cu182  1  0.83247422  0.02943672  0.28162903  1
  Cu  Cu183  1  0.66752578  0.97056328  0.78162903  1
  Cu  Cu184  1  0.71837097  0.33247422  0.47056328  1
  Cu  Cu185  1  0.21837097  0.16752578  0.52943672  1
  Cu  Cu186  1  0.28162903  0.83247422  0.02943672  1
  Cu  Cu187  1  0.78162903  0.66752578  0.97056328  1
  Cu  Cu188  1  0.52943672  0.28162903  0.66752578  1
  Cu  Cu189  1  0.47056328  0.78162903  0.83247422  1
  Cu  Cu190  1  0.97056328  0.71837097  0.16752578  1
  Cu  Cu191  1  0.02943672  0.21837097  0.33247422  1
  Cu  Cu192  1  0.66752578  0.52943672  0.28162903  1
  Cu  Cu193  1  0.83247422  0.47056328  0.78162903  1
  Cu  Cu194  1  0.16752578  0.97056328  0.71837097  1
  Cu  Cu195  1  0.33247422  0.02943672  0.21837097  1
  Cu  Cu196  1  0.28162903  0.66752578  0.52943672  1
  Cu  Cu197  1  0.78162903  0.83247422  0.47056328  1
  Cu  Cu198  1  0.71837097  0.16752578  0.97056328  1
  Cu  Cu199  1  0.21837097  0.33247422  0.02943672  1
  Cu  Cu200  1  0.48430021  0.85673557  0.25103200  1
  Cu  Cu201  1  0.51569979  0.35673557  0.24896800  1
  Cu  Cu202  1  0.01569979  0.14326443  0.75103200  1
  Cu  Cu203  1  0.98430021  0.64326443  0.74896800  1
  Cu  Cu204  1  0.25103200  0.48430021  0.85673557  1
  Cu  Cu205  1  0.24896800  0.51569979  0.35673557  1
  Cu  Cu206  1  0.75103200  0.01569979  0.14326443  1
  Cu  Cu207  1  0.74896800  0.98430021  0.64326443  1
  Cu  Cu208  1  0.85673557  0.25103200  0.48430021  1
  Cu  Cu209  1  0.35673557  0.24896800  0.51569979  1
  Cu  Cu210  1  0.14326443  0.75103200  0.01569979  1
  Cu  Cu211  1  0.64326443  0.74896800  0.98430021  1
  Cu  Cu212  1  0.51569979  0.14326443  0.74896800  1
  Cu  Cu213  1  0.48430021  0.64326443  0.75103200  1
  Cu  Cu214  1  0.98430021  0.85673557  0.24896800  1
  Cu  Cu215  1  0.01569979  0.35673557  0.25103200  1
  Cu  Cu216  1  0.74896800  0.51569979  0.14326443  1
  Cu  Cu217  1  0.75103200  0.48430021  0.64326443  1
  Cu  Cu218  1  0.24896800  0.98430021  0.85673557  1
  Cu  Cu219  1  0.25103200  0.01569979  0.35673557  1
  Cu  Cu220  1  0.14326443  0.74896800  0.51569979  1
  Cu  Cu221  1  0.64326443  0.75103200  0.48430021  1
  Cu  Cu222  1  0.85673557  0.24896800  0.98430021  1
  Cu  Cu223  1  0.35673557  0.25103200  0.01569979  1
  Cu  Cu224  1  0.49077301  0.71739831  0.17101292  1
  Cu  Cu225  1  0.50922699  0.21739831  0.32898708  1
  Cu  Cu226  1  0.00922699  0.28260169  0.67101292  1
  Cu  Cu227  1  0.99077301  0.78260169  0.82898708  1
  Cu  Cu228  1  0.17101292  0.49077301  0.71739831  1
  Cu  Cu229  1  0.32898708  0.50922699  0.21739831  1
  Cu  Cu230  1  0.67101292  0.00922699  0.28260169  1
  Cu  Cu231  1  0.82898708  0.99077301  0.78260169  1
  Cu  Cu232  1  0.71739831  0.17101292  0.49077301  1
  Cu  Cu233  1  0.21739831  0.32898708  0.50922699  1
  Cu  Cu234  1  0.28260169  0.67101292  0.00922699  1
  Cu  Cu235  1  0.78260169  0.82898708  0.99077301  1
  Cu  Cu236  1  0.50922699  0.28260169  0.82898708  1
  Cu  Cu237  1  0.49077301  0.78260169  0.67101292  1
  Cu  Cu238  1  0.99077301  0.71739831  0.32898708  1
  Cu  Cu239  1  0.00922699  0.21739831  0.17101292  1
  Cu  Cu240  1  0.82898708  0.50922699  0.28260169  1
  Cu  Cu241  1  0.67101292  0.49077301  0.78260169  1
  Cu  Cu242  1  0.32898708  0.99077301  0.71739831  1
  Cu  Cu243  1  0.17101292  0.00922699  0.21739831  1
  Cu  Cu244  1  0.28260169  0.82898708  0.50922699  1
  Cu  Cu245  1  0.78260169  0.67101292  0.49077301  1
  Cu  Cu246  1  0.71739831  0.32898708  0.99077301  1
  Cu  Cu247  1  0.21739831  0.17101292  0.00922699  1
  C  C248  1  0.02017922  0.36654379  0.02714531  1
  C  C249  1  0.97982078  0.86654379  0.47285469  1
  C  C250  1  0.47982078  0.63345621  0.52714531  1
  C  C251  1  0.52017922  0.13345621  0.97285469  1
  C  C252  1  0.02714531  0.02017922  0.36654379  1
  C  C253  1  0.47285469  0.97982078  0.86654379  1
  C  C254  1  0.52714531  0.47982078  0.63345621  1
  C  C255  1  0.97285469  0.52017922  0.13345621  1
  C  C256  1  0.36654379  0.02714531  0.02017922  1
  C  C257  1  0.86654379  0.47285469  0.97982078  1
  C  C258  1  0.63345621  0.52714531  0.47982078  1
  C  C259  1  0.13345621  0.97285469  0.52017922  1
  C  C260  1  0.97982078  0.63345621  0.97285469  1
  C  C261  1  0.02017922  0.13345621  0.52714531  1
  C  C262  1  0.52017922  0.36654379  0.47285469  1
  C  C263  1  0.47982078  0.86654379  0.02714531  1
  C  C264  1  0.97285469  0.97982078  0.63345621  1
  C  C265  1  0.52714531  0.02017922  0.13345621  1
  C  C266  1  0.47285469  0.52017922  0.36654379  1
  C  C267  1  0.02714531  0.47982078  0.86654379  1
  C  C268  1  0.63345621  0.97285469  0.97982078  1
  C  C269  1  0.13345621  0.52714531  0.02017922  1
  C  C270  1  0.36654379  0.47285469  0.52017922  1
  C  C271  1  0.86654379  0.02714531  0.47982078  1
  C  C272  1  0.47486539  0.02675871  0.36744919  1
  C  C273  1  0.52513461  0.52675871  0.13255081  1
  C  C274  1  0.02513461  0.97324129  0.86744919  1
  C  C275  1  0.97486539  0.47324129  0.63255081  1
  C  C276  1  0.36744919  0.47486539  0.02675871  1
  C  C277  1  0.13255081  0.52513461  0.52675871  1
  C  C278  1  0.86744919  0.02513461  0.97324129  1
  C  C279  1  0.63255081  0.97486539  0.47324129  1
  C  C280  1  0.02675871  0.36744919  0.47486539  1
  C  C281  1  0.52675871  0.13255081  0.52513461  1
  C  C282  1  0.97324129  0.86744919  0.02513461  1
  C  C283  1  0.47324129  0.63255081  0.97486539  1
  C  C284  1  0.52513461  0.97324129  0.63255081  1
  C  C285  1  0.47486539  0.47324129  0.86744919  1
  C  C286  1  0.97486539  0.02675871  0.13255081  1
  C  C287  1  0.02513461  0.52675871  0.36744919  1
  C  C288  1  0.63255081  0.52513461  0.97324129  1
  C  C289  1  0.86744919  0.47486539  0.47324129  1
  C  C290  1  0.13255081  0.97486539  0.02675871  1
  C  C291  1  0.36744919  0.02513461  0.52675871  1
  C  C292  1  0.97324129  0.63255081  0.52513461  1
  C  C293  1  0.47324129  0.86744919  0.47486539  1
  C  C294  1  0.02675871  0.13255081  0.97486539  1
  C  C295  1  0.52675871  0.36744919  0.02513461  1
