# generated using pymatgen
data_CuNi7C33
_symmetry_space_group_name_H-M   'P 1'
_cell_length_a   9.21332795
_cell_length_b   9.21488606
_cell_length_c   22.84815649
_cell_angle_alpha   89.91589297
_cell_angle_beta   90.01442998
_cell_angle_gamma   119.98473089
_symmetry_Int_Tables_number   1
_chemical_formula_structural   CuNi7C33
_chemical_formula_sum   'Cu3 Ni21 C99'
_cell_volume   1680.17516871
_cell_formula_units_Z   3
loop_
 _symmetry_equiv_pos_site_id
 _symmetry_equiv_pos_as_xyz
  1  'x, y, z'
loop_
 _atom_site_type_symbol
 _atom_site_label
 _atom_site_symmetry_multiplicity
 _atom_site_fract_x
 _atom_site_fract_y
 _atom_site_fract_z
 _atom_site_occupancy
  Ni  Ni0  1  0.63755383  0.00510221  0.24637272  1
  Ni  Ni1  1  0.36699581  0.36156479  0.24645506  1
  Ni  Ni2  1  0.99433322  0.63217821  0.24535751  1
  Ni  Ni3  1  0.63418360  0.62939683  0.74823068  1
  Ni  Ni4  1  0.99527389  0.36568785  0.74902413  1
  Ni  Ni5  1  0.37138077  0.00475421  0.74858181  1
  Ni  Ni6  1  0.02893034  0.69597163  0.58403932  1
  Ni  Ni7  1  0.66558934  0.97065527  0.58356421  1
  Ni  Ni8  1  0.30524167  0.97080811  0.08387083  1
  Ni  Ni9  1  0.66713810  0.69510010  0.08412973  1
  Ni  Ni10  1  0.69851857  0.03335205  0.91988053  1
  Ni  Ni11  1  0.33303817  0.30057950  0.91913057  1
  Ni  Ni12  1  0.96720733  0.29568895  0.41449743  1
  Ni  Ni13  1  0.32859965  0.03302091  0.41509473  1
  Ni  Ni14  1  0.70491483  0.67187741  0.41461166  1
  Ni  Ni15  1  0.01010212  0.01060970  0.50145236  1
  Ni  Ni16  1  0.99998536  0.99966068  0.00278847  1
  Ni  Ni17  1  0.67697469  0.34429363  0.83552476  1
  Ni  Ni18  1  0.66682514  0.33333791  0.32921896  1
  Ni  Ni19  1  0.32185910  0.65512045  0.16369340  1
  Ni  Ni20  1  0.33275494  0.65519205  0.66416981  1
  Cu  Cu21  1  0.99976972  0.99964685  0.34961742  1
  Cu  Cu22  1  0.66299929  0.33282647  0.68097477  1
  Cu  Cu23  1  0.67042260  0.33363919  0.17804120  1
  C  C24  1  0.99978514  0.99354473  0.85185132  1
  C  C25  1  0.00657953  0.00641452  0.65003157  1
  C  C26  1  0.00034770  0.00719997  0.15055936  1
  C  C27  1  0.67652572  0.34033984  0.98627865  1
  C  C28  1  0.66335548  0.33338639  0.48786311  1
  C  C29  1  0.32405866  0.66057205  0.01442797  1
  C  C30  1  0.33325100  0.66076532  0.51679641  1
  C  C31  1  0.33338410  0.66643710  0.31814996  1
  C  C32  1  0.32966238  0.66617708  0.82039603  1
  C  C33  1  0.29930730  0.99556632  0.25061885  1
  C  C34  1  0.69585384  0.70048951  0.25073679  1
  C  C35  1  0.00458910  0.30373639  0.25246434  1
  C  C36  1  0.29181965  0.29767458  0.75337130  1
  C  C37  1  0.00516024  0.70759370  0.75014989  1
  C  C38  1  0.70291287  0.99449158  0.75175712  1
  C  C39  1  0.96892651  0.33258246  0.58292862  1
  C  C40  1  0.36107421  0.02679868  0.58230327  1
  C  C41  1  0.66895107  0.64076907  0.58349224  1
  C  C42  1  0.97217358  0.64124043  0.08436279  1
  C  C43  1  0.66504168  0.02606405  0.08122436  1
  C  C44  1  0.36368841  0.33325150  0.08161021  1
  C  C45  1  0.62974733  0.66526682  0.91676044  1
  C  C46  1  0.03248377  0.36598942  0.91466156  1
  C  C47  1  0.33604399  0.96859996  0.91704022  1
  C  C48  1  0.62606703  0.96609299  0.41877188  1
  C  C49  1  0.33963585  0.37336569  0.41722536  1
  C  C50  1  0.03416169  0.66026113  0.41899148  1
  C  C51  1  0.22206890  0.02030631  0.30654600  1
  C  C52  1  0.79795455  0.77791262  0.30663591  1
  C  C53  1  0.97878154  0.20524892  0.30942831  1
  C  C54  1  0.21326562  0.19153663  0.80934886  1
  C  C55  1  0.97564033  0.79320833  0.80294578  1
  C  C56  1  0.81225016  0.02127695  0.80669592  1
  C  C57  1  0.78196998  0.96585660  0.69565670  1
  C  C58  1  0.17810934  0.21583195  0.69935900  1
  C  C59  1  0.03484011  0.81244697  0.69314653  1
  C  C60  1  0.78006732  0.81191038  0.19542914  1
  C  C61  1  0.03568171  0.21728556  0.19930869  1
  C  C62  1  0.18812880  0.96854060  0.19531239  1
  C  C63  1  0.89282074  0.36169804  0.63814142  1
  C  C64  1  0.46646223  0.10236536  0.63731820  1
  C  C65  1  0.64495372  0.54092378  0.63922815  1
  C  C66  1  0.90366727  0.54664192  0.14141269  1
  C  C67  1  0.63490823  0.10008203  0.13647116  1
  C  C68  1  0.46770775  0.36347307  0.13721984  1
  C  C69  1  0.44719879  0.30339503  0.02633431  1
  C  C70  1  0.85345287  0.55515872  0.03133742  1
  C  C71  1  0.68922642  0.13345833  0.02526355  1
  C  C72  1  0.44272751  0.13256329  0.52603605  1
  C  C73  1  0.69759690  0.55869732  0.52786002  1
  C  C74  1  0.85742920  0.30289607  0.52723404  1
  C  C75  1  0.54729107  0.69564226  0.97087530  1
  C  C76  1  0.15139189  0.45096993  0.96649255  1
  C  C77  1  0.31190057  0.86140501  0.97178502  1
  C  C78  1  0.54265632  0.85694507  0.47351590  1
  C  C79  1  0.30955618  0.45914879  0.46967712  1
  C  C80  1  0.14380598  0.68704492  0.47365288  1
  C  C81  1  0.11300965  0.63161598  0.36300558  1
  C  C82  1  0.51861401  0.88677069  0.36278860  1
  C  C83  1  0.36998737  0.47815412  0.36024743  1
  C  C84  1  0.10506002  0.46577964  0.85684483  1
  C  C85  1  0.36510443  0.89027077  0.86076987  1
  C  C86  1  0.52163723  0.63431474  0.86036548  1
  C  C87  1  0.01420983  0.81673648  0.41592418  1
  C  C88  1  0.80225798  0.98548075  0.41594471  1
  C  C89  1  0.18449091  0.19610237  0.41509600  1
  C  C90  1  0.01646798  0.18813846  0.91189592  1
  C  C91  1  0.18255941  0.99550044  0.91292099  1
  C  C92  1  0.80252636  0.82907695  0.91204772  1
  C  C93  1  0.97728122  0.16765786  0.58641771  1
  C  C94  1  0.18046073  0.00096056  0.58564701  1
  C  C95  1  0.83272502  0.81805915  0.58585402  1
  C  C96  1  0.98696071  0.81940181  0.08638555  1
  C  C97  1  0.81993804  0.00002579  0.08523239  1
  C  C98  1  0.19057775  0.16811846  0.08568215  1
  C  C99  1  0.68258941  0.15086507  0.74812391  1
  C  C100  1  0.46773574  0.31680123  0.74860215  1
  C  C101  1  0.84982842  0.53031810  0.74749080  1
  C  C102  1  0.67273876  0.52301991  0.24583686  1
  C  C103  1  0.84942780  0.32479795  0.24601926  1
  C  C104  1  0.47671889  0.15006616  0.24549177  1
  C  C105  1  0.64039647  0.50230452  0.92225258  1
  C  C106  1  0.85274885  0.33977771  0.92132441  1
  C  C107  1  0.49862283  0.14550216  0.92125891  1
  C  C108  1  0.64032484  0.14281082  0.42254296  1
  C  C109  1  0.50281325  0.36075974  0.42262789  1
  C  C110  1  0.85736470  0.49785397  0.42307535  1
  C  C111  1  0.35247682  0.49564931  0.07458886  1
  C  C112  1  0.15272311  0.66943447  0.07618723  1
  C  C113  1  0.50393060  0.84807419  0.07530169  1
  C  C114  1  0.34412283  0.84874101  0.57724374  1
  C  C115  1  0.51710129  0.67031100  0.57766478  1
  C  C116  1  0.14260646  0.49474205  0.57686086  1
  C  C117  1  0.31132799  0.83095171  0.25335264  1
  C  C118  1  0.51949958  0.68907218  0.25324897  1
  C  C119  1  0.16824567  0.48134771  0.25399911  1
  C  C120  1  0.30832709  0.47582417  0.75630130  1
  C  C121  1  0.16860990  0.69496189  0.75541053  1
  C  C122  1  0.52579114  0.83190796  0.75597432  1
