# generated using pymatgen
data_Cu2NiC8
_symmetry_space_group_name_H-M   'P 1'
_cell_length_a   3.92038157
_cell_length_b   3.92038157
_cell_length_c   11.23917478
_cell_angle_alpha   90.00000000
_cell_angle_beta   90.00000000
_cell_angle_gamma   90.00000000
_symmetry_Int_Tables_number   1
_chemical_formula_structural   Cu2NiC8
_chemical_formula_sum   'Cu2 Ni1 C8'
_cell_volume   172.73927907
_cell_formula_units_Z   1
loop_
 _symmetry_equiv_pos_site_id
 _symmetry_equiv_pos_as_xyz
  1  'x, y, z'
loop_
 _atom_site_type_symbol
 _atom_site_label
 _atom_site_symmetry_multiplicity
 _atom_site_fract_x
 _atom_site_fract_y
 _atom_site_fract_z
 _atom_site_occupancy
  C  C0  1  0.00000000  -0.00000000  0.45238635  1
  C  C1  1  -0.00000000  0.00000000  0.11651187  1
  Ni  Ni2  1  -0.00000000  -0.00000000  0.75620738  1
  Cu  Cu3  1  0.50000000  0.50000000  0.66288308  1
  Cu  Cu4  1  0.50000000  0.50000000  0.26928323  1
  C  C5  1  0.50000000  0.50000000  0.07012218  1
  C  C6  1  0.00000000  0.50000000  0.71759364  1
  C  C7  1  0.50000000  -0.00000000  0.71759364  1
  C  C8  1  0.00000000  0.50000000  0.25628503  1
  C  C9  1  0.50000000  0.50000000  0.47484957  1
  C  C10  1  0.50000000  0.00000000  0.25628503  1
