# generated using pymatgen
data_Cu6NiC18
_symmetry_space_group_name_H-M   'P 1'
_cell_length_a   8.35782949
_cell_length_b   7.46798529
_cell_length_c   9.32928833
_cell_angle_alpha   79.59761265
_cell_angle_beta   99.15026660
_cell_angle_gamma   152.03448972
_symmetry_Int_Tables_number   1
_chemical_formula_structural   Cu6NiC18
_chemical_formula_sum   'Cu6 Ni1 C18'
_cell_volume   268.57471839
_cell_formula_units_Z   1
loop_
 _symmetry_equiv_pos_site_id
 _symmetry_equiv_pos_as_xyz
  1  'x, y, z'
loop_
 _atom_site_type_symbol
 _atom_site_label
 _atom_site_symmetry_multiplicity
 _atom_site_fract_x
 _atom_site_fract_y
 _atom_site_fract_z
 _atom_site_occupancy
  Ni  Ni0  1  0.30327000  0.55788100  0.92967900  1
  Cu  Cu1  1  0.78655400  0.28805700  0.77102600  1
  Cu  Cu2  1  0.28612900  0.81044200  0.20568300  1
  Cu  Cu3  1  0.78595000  0.12197600  0.47191100  1
  Cu  Cu4  1  0.28104500  0.95148900  0.49986600  1
  Cu  Cu5  1  0.79760500  0.04088700  0.18093700  1
  Cu  Cu6  1  0.27135500  0.03757100  0.81838200  1
  C  C7  1  0.60382500  0.49851700  0.19364400  1
  C  C8  1  0.00140000  0.89107000  0.21578500  1
  C  C9  1  0.02156000  0.99415100  0.95870700  1
  C  C10  1  0.90996700  0.05001500  0.72889300  1
  C  C11  1  0.79510500  0.12132100  0.95247700  1
  C  C12  1  0.27835600  0.91852300  0.02659000  1
  C  C13  1  0.78895000  0.04035700  0.67874500  1
  C  C14  1  0.28221000  0.03723000  0.30603900  1
  C  C15  1  0.80087500  0.94504500  0.38356600  1
  C  C16  1  0.27121800  0.11401300  0.61275700  1
  C  C17  1  0.81168100  0.77292300  0.15442000  1
  C  C18  1  0.20018000  0.21010600  0.88483100  1
  C  C19  1  0.77253700  0.51792000  0.82780000  1
  C  C20  1  0.29714200  0.55475500  0.15271700  1
  C  C21  1  0.78169500  0.37820400  0.54701700  1
  C  C22  1  0.28870600  0.69436200  0.45271500  1
  C  C23  1  0.78728900  0.27267700  0.25304900  1
  C  C24  1  0.28768800  0.78545800  0.76585600  1
