# generated using pymatgen
data_Cu(NiC8)2
_symmetry_space_group_name_H-M   'P 1'
_cell_length_a   9.01032706
_cell_length_b   9.01032675
_cell_length_c   22.42074539
_cell_angle_alpha   90.00000000
_cell_angle_beta   90.00000000
_cell_angle_gamma   120.00000115
_symmetry_Int_Tables_number   1
_chemical_formula_structural   Cu(NiC8)2
_chemical_formula_sum   'Cu6 Ni12 C96'
_cell_volume   1576.38309679
_cell_formula_units_Z   6
loop_
 _symmetry_equiv_pos_site_id
 _symmetry_equiv_pos_as_xyz
  1  'x, y, z'
loop_
 _atom_site_type_symbol
 _atom_site_label
 _atom_site_symmetry_multiplicity
 _atom_site_fract_x
 _atom_site_fract_y
 _atom_site_fract_z
 _atom_site_occupancy
  C  C0  1  0.96755779  0.68008627  0.91578659  1
  C  C1  1  0.71252748  0.03244221  0.91578659  1
  C  C2  1  0.31991373  0.28747252  0.91578659  1
  C  C3  1  0.96755779  0.28747252  0.41578659  1
  C  C4  1  0.31991373  0.03244221  0.41578659  1
  C  C5  1  0.71252748  0.68008627  0.41578659  1
  C  C6  1  -0.00000000  0.00000000  0.49406564  1
  C  C7  1  -0.00000000  0.00000000  0.99406564  1
  C  C8  1  0.66666700  0.33333300  0.82309383  1
  C  C9  1  0.66666700  0.33333300  0.32309383  1
  C  C10  1  0.33333300  0.66666700  0.16142077  1
  C  C11  1  0.33333300  0.66666700  0.66142077  1
  C  C12  1  -0.00000000  0.00000000  0.64049177  1
  C  C13  1  -0.00000000  0.00000000  0.14049177  1
  C  C14  1  0.66666700  0.33333300  0.98299394  1
  C  C15  1  0.66666700  0.33333300  0.48299394  1
  C  C16  1  0.33333300  0.66666700  0.02242005  1
  C  C17  1  0.33333300  0.66666700  0.52242005  1
  C  C18  1  0.33333300  0.66666700  0.31306151  1
  C  C19  1  0.33333300  0.66666700  0.81306151  1
  C  C20  1  -0.00000000  0.00000000  0.35518669  1
  C  C21  1  -0.00000000  0.00000000  0.85518669  1
  C  C22  1  0.66666700  0.33333300  0.66936753  1
  C  C23  1  0.66666700  0.33333300  0.16936753  1
  Ni  Ni24  1  0.95790759  0.33828500  0.58697148  1
  Ni  Ni25  1  0.38037842  0.04209241  0.58697148  1
  Ni  Ni26  1  0.66171500  0.61962158  0.58697148  1
  Ni  Ni27  1  0.95790759  0.61962158  0.08697148  1
  Ni  Ni28  1  0.66171500  0.04209241  0.08697148  1
  Ni  Ni29  1  0.38037842  0.33828500  0.08697148  1
  Ni  Ni30  1  0.62194642  0.66257570  0.91606842  1
  Ni  Ni31  1  0.04062828  0.37805358  0.91606842  1
  Ni  Ni32  1  0.33742430  0.95937172  0.91606842  1
  Ni  Ni33  1  0.62194642  0.95937172  0.41606842  1
  Ni  Ni34  1  0.33742430  0.37805358  0.41606842  1
  Ni  Ni35  1  0.04062828  0.66257570  0.41606842  1
  Cu  Cu36  1  0.28946568  0.99667509  0.25237359  1
  Cu  Cu37  1  0.70720941  0.71053432  0.25237359  1
  Cu  Cu38  1  0.00332491  0.29279059  0.25237359  1
  Cu  Cu39  1  0.28946568  0.29279059  0.75237359  1
  Cu  Cu40  1  0.00332491  0.71053432  0.75237359  1
  Cu  Cu41  1  0.70720941  0.99667509  0.75237359  1
  C  C42  1  0.20817406  0.00498064  0.30837435  1
  C  C43  1  0.79680657  0.79182594  0.30837435  1
  C  C44  1  0.99501936  0.20319343  0.30837435  1
  C  C45  1  0.20817406  0.20319343  0.80837435  1
  C  C46  1  0.99501936  0.79182594  0.80837435  1
  C  C47  1  0.79680657  0.00498064  0.80837435  1
  C  C48  1  0.80160523  0.97947162  0.69978299  1
  C  C49  1  0.17786639  0.19839477  0.69978299  1
  C  C50  1  0.02052838  0.82213361  0.69978299  1
  C  C51  1  0.80160523  0.82213361  0.19978299  1
  C  C52  1  0.02052838  0.19839477  0.19978299  1
  C  C53  1  0.17786639  0.97947162  0.19978299  1
  C  C54  1  0.88698442  0.37597974  0.64561436  1
  C  C55  1  0.48899632  0.11301558  0.64561436  1
  C  C56  1  0.62402026  0.51100368  0.64561436  1
  C  C57  1  0.88698442  0.51100368  0.14561436  1
  C  C58  1  0.62402026  0.11301558  0.14561436  1
  C  C59  1  0.48899632  0.37597974  0.14561436  1
  C  C60  1  0.46714442  0.30247313  0.02621033  1
  C  C61  1  0.83532972  0.53285558  0.02621033  1
  C  C62  1  0.69752687  0.16467028  0.02621033  1
  C  C63  1  0.46714442  0.16467028  0.52621033  1
  C  C64  1  0.69752687  0.53285558  0.52621033  1
  C  C65  1  0.83532972  0.30247313  0.52621033  1
  C  C66  1  0.52470365  0.69146907  0.97156281  1
  C  C67  1  0.16676443  0.47529635  0.97156281  1
  C  C68  1  0.30853093  0.83323557  0.97156281  1
  C  C69  1  0.52470365  0.83323557  0.47156281  1
  C  C70  1  0.30853093  0.47529635  0.47156281  1
  C  C71  1  0.16676443  0.69146907  0.47156281  1
  C  C72  1  0.13682747  0.63143223  0.35648582  1
  C  C73  1  0.49460375  0.86317253  0.35648582  1
  C  C74  1  0.36856777  0.50539625  0.35648582  1
  C  C75  1  0.13682747  0.50539625  0.85648582  1
  C  C76  1  0.36856777  0.86317253  0.85648582  1
  C  C77  1  0.49460375  0.63143223  0.85648582  1
  C  C78  1  0.01653315  0.82704187  0.41130090  1
  C  C79  1  0.81050872  0.98346685  0.41130090  1
  C  C80  1  0.17295813  0.18949128  0.41130090  1
  C  C81  1  0.01653315  0.18949128  0.91130090  1
  C  C82  1  0.17295813  0.98346685  0.91130090  1
  C  C83  1  0.81050872  0.82704187  0.91130090  1
  C  C84  1  0.97466406  0.16048308  0.59369261  1
  C  C85  1  0.18581902  0.02533594  0.59369261  1
  C  C86  1  0.83951692  0.81418098  0.59369261  1
  C  C87  1  0.97466406  0.81418098  0.09369261  1
  C  C88  1  0.83951692  0.02533594  0.09369261  1
  C  C89  1  0.18581902  0.16048308  0.09369261  1
  C  C90  1  0.68236918  0.14359538  0.74824258  1
  C  C91  1  0.46122721  0.31763082  0.74824258  1
  C  C92  1  0.85640462  0.53877279  0.74824258  1
  C  C93  1  0.68236918  0.53877279  0.24824258  1
  C  C94  1  0.85640462  0.31763082  0.24824258  1
  C  C95  1  0.46122721  0.14359538  0.24824258  1
  C  C96  1  0.62883026  0.48435966  0.92155028  1
  C  C97  1  0.85553040  0.37116974  0.92155028  1
  C  C98  1  0.51564034  0.14446960  0.92155028  1
  C  C99  1  0.62883026  0.14446960  0.42155028  1
  C  C100  1  0.51564034  0.37116974  0.42155028  1
  C  C101  1  0.85553040  0.48435966  0.42155028  1
  C  C102  1  0.34362332  0.49471126  0.07320622  1
  C  C103  1  0.15108694  0.65637668  0.07320622  1
  C  C104  1  0.50528874  0.84891306  0.07320622  1
  C  C105  1  0.34362332  0.84891306  0.57320622  1
  C  C106  1  0.50528874  0.65637668  0.57320622  1
  C  C107  1  0.15108694  0.49471126  0.57320622  1
  C  C108  1  0.29767735  0.83001759  0.25207643  1
  C  C109  1  0.53233924  0.70232265  0.25207643  1
  C  C110  1  0.16998241  0.46766076  0.25207643  1
  C  C111  1  0.29767735  0.46766076  0.75207643  1
  C  C112  1  0.16998241  0.70232265  0.75207643  1
  C  C113  1  0.53233924  0.83001759  0.75207643  1
