# generated using pymatgen
data_Cu2NiC10
_symmetry_space_group_name_H-M   'P 1'
_cell_length_a   5.49159449
_cell_length_b   5.58412061
_cell_length_c   6.58253362
_cell_angle_alpha   65.72159085
_cell_angle_beta   107.46795244
_cell_angle_gamma   71.36310190
_symmetry_Int_Tables_number   1
_chemical_formula_structural   Cu2NiC10
_chemical_formula_sum   'Cu2 Ni1 C10'
_cell_volume   151.03341577
_cell_formula_units_Z   1
loop_
 _symmetry_equiv_pos_site_id
 _symmetry_equiv_pos_as_xyz
  1  'x, y, z'
loop_
 _atom_site_type_symbol
 _atom_site_label
 _atom_site_symmetry_multiplicity
 _atom_site_fract_x
 _atom_site_fract_y
 _atom_site_fract_z
 _atom_site_occupancy
  C  C0  1  0.08029962  0.20100459  0.60936135  1
  C  C1  1  0.91970038  0.79899541  0.39063865  1
  C  C2  1  0.50000000  0.50000000  0.50000000  1
  C  C3  1  -0.00000000  0.00000000  -0.00000000  1
  Ni  Ni4  1  0.50000000  0.00000000  0.50000000  1
  Cu  Cu5  1  0.70940233  0.60456616  0.00066418  1
  Cu  Cu6  1  0.29059767  0.39543384  -0.00066418  1
  C  C7  1  0.33113029  0.70276729  0.75331384  1
  C  C8  1  0.10222106  0.48170451  0.24115325  1
  C  C9  1  0.40342927  0.97425784  0.20839922  1
  C  C10  1  0.89777894  0.51829549  0.75884675  1
  C  C11  1  0.59657073  0.02574216  0.79160078  1
  C  C12  1  0.66886971  0.29723271  0.24668616  1
