# generated using pymatgen
data_CuNi8C33
_symmetry_space_group_name_H-M   'P 1'
_cell_length_a   9.21285440
_cell_length_b   9.22272560
_cell_length_c   22.54375476
_cell_angle_alpha   89.95389465
_cell_angle_beta   89.93228719
_cell_angle_gamma   119.99186190
_symmetry_Int_Tables_number   1
_chemical_formula_structural   CuNi8C33
_chemical_formula_sum   'Cu3 Ni24 C99'
_cell_volume   1658.99516126
_cell_formula_units_Z   3
loop_
 _symmetry_equiv_pos_site_id
 _symmetry_equiv_pos_as_xyz
  1  'x, y, z'
loop_
 _atom_site_type_symbol
 _atom_site_label
 _atom_site_symmetry_multiplicity
 _atom_site_fract_x
 _atom_site_fract_y
 _atom_site_fract_z
 _atom_site_occupancy
  Ni  Ni0  1  0.63898510  0.01095667  0.24040523  1
  Ni  Ni1  1  0.37241118  0.36166197  0.24222279  1
  Ni  Ni2  1  0.98960164  0.62722152  0.24221692  1
  Ni  Ni3  1  0.63573851  0.62322671  0.74676527  1
  Ni  Ni4  1  0.98399268  0.36813334  0.75232018  1
  Ni  Ni5  1  0.38152165  0.00635513  0.74547763  1
  Ni  Ni6  1  0.31365784  0.33708469  0.58533640  1
  Ni  Ni7  1  0.02824306  0.69738969  0.58429272  1
  Ni  Ni8  1  0.66086308  0.97076963  0.59117542  1
  Ni  Ni9  1  0.31034088  0.97166955  0.08123509  1
  Ni  Ni10  1  0.66088593  0.68978947  0.08114685  1
  Ni  Ni11  1  0.02823085  0.33852853  0.08125366  1
  Ni  Ni12  1  0.96468178  0.66545714  0.91713798  1
  Ni  Ni13  1  0.70040644  0.03590089  0.91706910  1
  Ni  Ni14  1  0.33516840  0.30080363  0.91955847  1
  Ni  Ni15  1  0.97190445  0.29377359  0.41439155  1
  Ni  Ni16  1  0.31851238  0.03514002  0.41778049  1
  Ni  Ni17  1  0.71071665  0.67249895  0.41484784  1
  Ni  Ni18  1  0.00638528  0.99785644  0.49833414  1
  Ni  Ni19  1  0.99965029  0.99999504  0.00043656  1
  Ni  Ni20  1  0.67254277  0.33325045  0.83103745  1
  Ni  Ni21  1  0.66697196  0.33701097  0.33113939  1
  Ni  Ni22  1  0.33308193  0.66611141  0.15948251  1
  Ni  Ni23  1  0.34048444  0.67615630  0.66883898  1
  Cu  Cu24  1  0.00199308  0.99967088  0.35323186  1
  Cu  Cu25  1  0.66496241  0.33318953  0.68409289  1
  Cu  Cu26  1  0.66642810  0.33349265  0.17748977  1
  C  C27  1  0.00809595  0.71039332  0.75274171  1
  C  C28  1  0.70626953  0.99396674  0.75233896  1
  C  C29  1  0.36630005  0.03260788  0.58342625  1
  C  C30  1  0.66603927  0.63665876  0.58333855  1
  C  C31  1  0.96932610  0.63421062  0.08361223  1
  C  C32  1  0.66460074  0.03042207  0.08340973  1
  C  C33  1  0.36573079  0.33564463  0.08366070  1
  C  C34  1  0.62585340  0.66383986  0.91597403  1
  C  C35  1  0.03913321  0.37346093  0.91565013  1
  C  C36  1  0.33603103  0.96426350  0.91606703  1
  C  C37  1  0.34149351  0.37855762  0.41837897  1
  C  C38  1  0.03474324  0.65609542  0.41848750  1
  C  C39  1  0.99742972  0.99765400  0.85427417  1
  C  C40  1  0.99860383  0.99254251  0.64928521  1
  C  C41  1  0.99994806  0.99948881  0.14750286  1
  C  C42  1  0.66740417  0.33383698  0.98300351  1
  C  C43  1  0.66499908  0.33819607  0.48367582  1
  C  C44  1  0.33255253  0.66701332  0.01489706  1
  C  C45  1  0.33285393  0.66789569  0.51772328  1
  C  C46  1  0.33039546  0.66266429  0.31674616  1
  C  C47  1  0.33570543  0.67067119  0.81601052  1
  C  C48  1  0.29611301  0.99185805  0.25224361  1
  C  C49  1  0.69669980  0.70597560  0.25231453  1
  C  C50  1  0.00724264  0.30182601  0.25184586  1
  C  C51  1  0.28295800  0.29161184  0.75157037  1
  C  C52  1  0.96579143  0.33190619  0.58253139  1
  C  C53  1  0.61905682  0.96286684  0.41761007  1
  C  C54  1  0.21817434  0.01228791  0.30855486  1
  C  C55  1  0.79452620  0.78369653  0.30853183  1
  C  C56  1  0.98732665  0.20426793  0.30832923  1
  C  C57  1  0.19946494  0.18373355  0.80728295  1
  C  C58  1  0.98374124  0.80178659  0.81085819  1
  C  C59  1  0.82408679  0.02500801  0.81050013  1
  C  C60  1  0.79248416  0.96730237  0.69125280  1
  C  C61  1  0.17612733  0.21105836  0.69414052  1
  C  C62  1  0.04284355  0.82518520  0.69168334  1
  C  C63  1  0.78448494  0.81824754  0.19596501  1
  C  C64  1  0.03164510  0.21346273  0.19575136  1
  C  C65  1  0.18280139  0.96507493  0.19610168  1
  C  C66  1  0.89536556  0.36810967  0.63731817  1
  C  C67  1  0.47936408  0.09718553  0.64140527  1
  C  C68  1  0.62052362  0.52401025  0.64154958  1
  C  C69  1  0.90725713  0.52926969  0.14396388  1
  C  C70  1  0.62129651  0.09282108  0.14355768  1
  C  C71  1  0.47066535  0.37851454  0.14392470  1
  C  C72  1  0.45237753  0.29477237  0.02626421  1
  C  C73  1  0.84236275  0.54828896  0.02616009  1
  C  C74  1  0.70633911  0.15819558  0.02605851  1
  C  C75  1  0.45416486  0.15475682  0.52409817  1
  C  C76  1  0.70808751  0.55261505  0.52488842  1
  C  C77  1  0.85105616  0.29795514  0.52647518  1
  C  C78  1  0.54407565  0.70274550  0.97344828  1
  C  C79  1  0.15791897  0.45433765  0.97352461  1
  C  C80  1  0.29419023  0.84245684  0.97347705  1
  C  C81  1  0.53676691  0.85356627  0.47290476  1
  C  C82  1  0.31611443  0.46948105  0.47616012  1
  C  C83  1  0.15454081  0.68905619  0.47576656  1
  C  C84  1  0.11944625  0.62511484  0.35790890  1
  C  C85  1  0.50926637  0.88243687  0.36088422  1
  C  C86  1  0.37856370  0.49724273  0.35816392  1
  C  C87  1  0.12091999  0.49259526  0.85679034  1
  C  C88  1  0.37613398  0.88442280  0.85746924  1
  C  C89  1  0.50574436  0.62356407  0.85721567  1
  C  C90  1  0.00665778  0.81466708  0.41775483  1
  C  C91  1  0.79380326  0.98373927  0.41434629  1
  C  C92  1  0.17699487  0.19551957  0.41802968  1
  C  C93  1  0.02122206  0.18616648  0.91193701  1
  C  C94  1  0.16974903  0.98779484  0.91184173  1
  C  C95  1  0.81402994  0.83234453  0.91315783  1
  C  C96  1  0.98361413  0.17209356  0.58691728  1
  C  C97  1  0.18228939  0.02614870  0.58682315  1
  C  C98  1  0.83757168  0.82438737  0.58582446  1
  C  C99  1  0.98363007  0.82112107  0.08847241  1
  C  C100  1  0.83728191  0.01592248  0.08842232  1
  C  C101  1  0.17896141  0.16234924  0.08857334  1
  C  C102  1  0.68128028  0.15453983  0.75138339  1
  C  C103  1  0.45728092  0.31074338  0.74880472  1
  C  C104  1  0.84280921  0.52781755  0.75126192  1
  C  C105  1  0.67223467  0.52875164  0.24728959  1
  C  C106  1  0.85421814  0.32605882  0.24699703  1
  C  C107  1  0.47288635  0.14535669  0.24715151  1
  C  C108  1  0.64426615  0.49557094  0.92195859  1
  C  C109  1  0.85255668  0.35590849  0.92159054  1
  C  C110  1  0.50528209  0.14984645  0.92230972  1
  C  C111  1  0.63102695  0.13729655  0.42210924  1
  C  C112  1  0.51444616  0.36464395  0.42057609  1
  C  C113  1  0.85360793  0.47642614  0.42221723  1
  C  C114  1  0.33981840  0.49792088  0.07396335  1
  C  C115  1  0.15745976  0.65948548  0.07406780  1
  C  C116  1  0.50174176  0.84252322  0.07378136  1
  C  C117  1  0.33357363  0.83972481  0.57535764  1
  C  C118  1  0.50218272  0.66408751  0.57502246  1
  C  C119  1  0.14519435  0.48732804  0.57508598  1
  C  C120  1  0.30701740  0.82500605  0.25357445  1
  C  C121  1  0.52056331  0.69916134  0.25299561  1
  C  C122  1  0.17553635  0.47823666  0.25186093  1
  C  C123  1  0.29308887  0.46564053  0.75445860  1
  C  C124  1  0.18198415  0.69744342  0.75442657  1
  C  C125  1  0.52415629  0.81437754  0.75428861  1
