# generated using pymatgen
data_Cu2Ni3C32
_symmetry_space_group_name_H-M   'P 1'
_cell_length_a   9.08712987
_cell_length_b   9.06811952
_cell_length_c   22.98555182
_cell_angle_alpha   89.93436517
_cell_angle_beta   90.18000904
_cell_angle_gamma   120.02654144
_symmetry_Int_Tables_number   1
_chemical_formula_structural   Cu2Ni3C32
_chemical_formula_sum   'Cu6 Ni9 C96'
_cell_volume   1639.87643914
_cell_formula_units_Z   3
loop_
 _symmetry_equiv_pos_site_id
 _symmetry_equiv_pos_as_xyz
  1  'x, y, z'
loop_
 _atom_site_type_symbol
 _atom_site_label
 _atom_site_symmetry_multiplicity
 _atom_site_fract_x
 _atom_site_fract_y
 _atom_site_fract_z
 _atom_site_occupancy
  Ni  Ni0  1  0.34797713  0.98879057  0.75260872  1
  Ni  Ni1  1  0.67492764  0.98064892  0.58728362  1
  Ni  Ni2  1  0.68353642  0.69852546  0.08128464  1
  Ni  Ni3  1  0.02708007  0.99988286  0.50216869  1
  Ni  Ni4  1  0.02026486  0.00732783  0.00161911  1
  Ni  Ni5  1  0.68096185  0.35391185  0.83637655  1
  Ni  Ni6  1  0.66246801  0.33036051  0.33476992  1
  Ni  Ni7  1  0.32298247  0.66698684  0.17054437  1
  Ni  Ni8  1  0.32884082  0.64190378  0.66990027  1
  Cu  Cu9  1  0.00141209  0.99685031  0.64676612  1
  Cu  Cu10  1  0.00885347  0.00857070  0.14784829  1
  Cu  Cu11  1  0.66616227  0.32963574  0.97860102  1
  Cu  Cu12  1  0.66370688  0.33523235  0.47724724  1
  Cu  Cu13  1  0.33588027  0.66781585  0.31198423  1
  Cu  Cu14  1  0.33735537  0.66222342  0.81422328  1
  C  C15  1  0.00064324  0.00055654  0.35240265  1
  C  C16  1  0.99126397  0.99833717  0.85262997  1
  C  C17  1  0.66856466  0.33181207  0.68493766  1
  C  C18  1  0.67139949  0.33459043  0.18668347  1
  C  C19  1  0.32551192  0.66731202  0.01854969  1
  C  C20  1  0.33089491  0.66657567  0.51840068  1
  C  C21  1  0.70765533  0.01027930  0.74588796  1
  C  C22  1  0.37184026  0.03173987  0.58137068  1
  C  C23  1  0.96312601  0.62188892  0.08274291  1
  C  C24  1  0.30225432  0.01625031  0.25080674  1
  C  C25  1  0.71511140  0.70039458  0.24784623  1
  C  C26  1  0.98405889  0.28715383  0.25078626  1
  C  C27  1  0.29959528  0.28622214  0.75048722  1
  C  C28  1  0.98579693  0.70055461  0.75227297  1
  C  C29  1  0.96409568  0.34772374  0.58244418  1
  C  C30  1  0.65156602  0.61808030  0.58244331  1
  C  C31  1  0.65153324  0.03287205  0.08414821  1
  C  C32  1  0.38218575  0.34711456  0.08282959  1
  C  C33  1  0.63617014  0.68027574  0.91835355  1
  C  C34  1  0.04688574  0.36399340  0.91605127  1
  C  C35  1  0.31613367  0.95277246  0.91375549  1
  C  C36  1  0.63615994  0.95254202  0.41661364  1
  C  C37  1  0.31726674  0.36649541  0.41522292  1
  C  C38  1  0.04990717  0.68290290  0.41505054  1
  C  C39  1  0.19886088  0.03140792  0.30475544  1
  C  C40  1  0.83567525  0.80434307  0.30127401  1
  C  C41  1  0.96891072  0.16910941  0.30463560  1
  C  C42  1  0.20250872  0.16666351  0.80443324  1
  C  C43  1  0.96858516  0.80060804  0.80658154  1
  C  C44  1  0.83630545  0.02472338  0.80316366  1
  C  C45  1  0.77948217  0.98459937  0.68641931  1
  C  C46  1  0.19952007  0.20425830  0.69592957  1
  C  C47  1  0.02522730  0.81353800  0.69939722  1
  C  C48  1  0.78961046  0.79513026  0.19163397  1
  C  C49  1  0.00539566  0.20979187  0.19603415  1
  C  C50  1  0.19956412  0.99122809  0.19644307  1
  C  C51  1  0.86963481  0.37086824  0.63755606  1
  C  C52  1  0.49966763  0.13570796  0.64118564  1
  C  C53  1  0.63732047  0.50680332  0.63768686  1
  C  C54  1  0.86117890  0.49377432  0.14125247  1
  C  C55  1  0.63180575  0.12827305  0.13902468  1
  C  C56  1  0.50140060  0.36756688  0.13705187  1
  C  C57  1  0.45762192  0.31963779  0.02861241  1
  C  C58  1  0.84260019  0.53652422  0.02875164  1
  C  C59  1  0.67932036  0.13596647  0.03006685  1
  C  C60  1  0.47327159  0.14143002  0.52731217  1
  C  C61  1  0.68290384  0.54486125  0.52858800  1
  C  C62  1  0.85623808  0.32049106  0.52958431  1
  C  C63  1  0.54586050  0.69860842  0.97417949  1
  C  C64  1  0.16602948  0.46637834  0.97051133  1
  C  C65  1  0.30576414  0.83073974  0.96750381  1
  C  C66  1  0.54116742  0.83879527  0.47271867  1
  C  C67  1  0.30003058  0.46453565  0.46981549  1
  C  C68  1  0.16764550  0.69988359  0.47038094  1
  C  C69  1  0.13212133  0.66148844  0.36187667  1
  C  C70  1  0.52862670  0.86893811  0.36387890  1
  C  C71  1  0.33664743  0.46713287  0.36109190  1
  C  C72  1  0.12505937  0.46696404  0.86216283  1
  C  C73  1  0.33534694  0.87613606  0.85799861  1
  C  C74  1  0.53429176  0.66475377  0.86459751  1
  C  C75  1  0.04513050  0.85397517  0.41083237  1
  C  C76  1  0.81077862  0.95486617  0.40993871  1
  C  C77  1  0.14674225  0.18887290  0.41047131  1
  C  C78  1  0.04528907  0.19001270  0.91164035  1
  C  C79  1  0.14663033  0.95591429  0.91348920  1
  C  C80  1  0.81400573  0.85167400  0.91199013  1
  C  C81  1  0.98402301  0.19176204  0.59043839  1
  C  C82  1  0.18071983  0.99179201  0.58504536  1
  C  C83  1  0.79204413  0.80403923  0.58881746  1
  C  C84  1  0.98852048  0.80963742  0.08925088  1
  C  C85  1  0.79473403  0.99229101  0.09172129  1
  C  C86  1  0.19950667  0.20605120  0.08979888  1
  C  C87  1  0.70811078  0.19584904  0.74215638  1
  C  C88  1  0.47436549  0.28933208  0.74687557  1
  C  C89  1  0.81651505  0.52959703  0.74611917  1
  C  C90  1  0.70814343  0.52300392  0.24506630  1
  C  C91  1  0.81050349  0.28768488  0.24665125  1
  C  C92  1  0.47560676  0.18714009  0.24669275  1
  C  C93  1  0.66820814  0.53118434  0.92083538  1
  C  C94  1  0.86655928  0.32869588  0.92325947  1
  C  C95  1  0.46708089  0.12968425  0.92165841  1
  C  C96  1  0.67366181  0.13473570  0.42227796  1
  C  C97  1  0.46497605  0.33393380  0.42076349  1
  C  C98  1  0.87076099  0.53613832  0.42210933  1
  C  C99  1  0.38632043  0.52383768  0.07822869  1
  C  C100  1  0.14990152  0.63080409  0.07359318  1
  C  C101  1  0.48190950  0.85491071  0.07780788  1
  C  C102  1  0.37462761  0.84675810  0.57557785  1
  C  C103  1  0.47935947  0.62049595  0.57710609  1
  C  C104  1  0.14184942  0.51278488  0.57721104  1
  C  C105  1  0.33363948  0.86754899  0.25715982  1
  C  C106  1  0.53555076  0.66916454  0.25516011  1
  C  C107  1  0.12953831  0.46873213  0.25694771  1
  C  C108  1  0.33119799  0.46649891  0.75553704  1
  C  C109  1  0.13725984  0.67366473  0.76025808  1
  C  C110  1  0.51163125  0.86483069  0.75414496  1
