# generated using pymatgen
data_Cu2Ni6C7
_symmetry_space_group_name_H-M   'P 1'
_cell_length_a   9.93271430
_cell_length_b   9.93271430
_cell_length_c   8.11057800
_cell_angle_alpha   90.00000000
_cell_angle_beta   90.00000000
_cell_angle_gamma   120.00000200
_symmetry_Int_Tables_number   1
_chemical_formula_structural   Cu2Ni6C7
_chemical_formula_sum   'Cu4 Ni12 C14'
_cell_volume   692.97619476
_cell_formula_units_Z   2
loop_
 _symmetry_equiv_pos_site_id
 _symmetry_equiv_pos_as_xyz
  1  'x, y, z'
loop_
 _atom_site_type_symbol
 _atom_site_label
 _atom_site_symmetry_multiplicity
 _atom_site_fract_x
 _atom_site_fract_y
 _atom_site_fract_z
 _atom_site_occupancy
  Ni  Ni0  1  0.03665100  0.35453500  0.36976400  1
  Ni  Ni1  1  0.31788300  0.96334900  0.36976400  1
  Ni  Ni2  1  0.64546500  0.68211700  0.36976400  1
  Ni  Ni3  1  0.96334900  0.64546500  0.63023600  1
  Ni  Ni4  1  0.68211700  0.03665100  0.63023600  1
  Ni  Ni5  1  0.35453500  0.31788300  0.63023600  1
  Ni  Ni6  1  0.05156000  0.36357900  0.87812000  1
  Ni  Ni7  1  0.31201800  0.94844000  0.87812000  1
  Ni  Ni8  1  0.63642100  0.68798200  0.87812000  1
  Ni  Ni9  1  0.94844000  0.63642100  0.12188000  1
  Ni  Ni10  1  0.68798200  0.05156000  0.12188000  1
  Ni  Ni11  1  0.36357900  0.31201800  0.12188000  1
  Cu  Cu12  1  0.33333300  0.66666700  0.17045900  1
  Cu  Cu13  1  0.66666700  0.33333300  0.41699000  1
  Cu  Cu14  1  0.33333300  0.66666700  0.58301000  1
  Cu  Cu15  1  0.66666700  0.33333300  0.82954100  1
  C  C16  1  0.84893500  0.44786700  0.88440700  1
  C  C17  1  0.55213300  0.40106900  0.88440700  1
  C  C18  1  0.59893100  0.15106500  0.88440700  1
  C  C19  1  0.40106900  0.84893500  0.11559300  1
  C  C20  1  0.66666700  0.33333300  0.62309700  1
  C  C21  1  0.33333300  0.66666700  0.37690300  1
  C  C22  1  0.59836400  0.15131500  0.36109300  1
  C  C23  1  0.55295000  0.40163600  0.36109300  1
  C  C24  1  0.84868500  0.44705000  0.36109300  1
  C  C25  1  0.40163600  0.84868500  0.63890700  1
  C  C26  1  0.44705000  0.59836400  0.63890700  1
  C  C27  1  0.15131500  0.55295000  0.63890700  1
  C  C28  1  0.15106500  0.55213300  0.11559300  1
  C  C29  1  0.44786700  0.59893100  0.11559300  1
