# generated using pymatgen
data_Cu3Ni14C65
_symmetry_space_group_name_H-M   'P 1'
_cell_length_a   18.51511113
_cell_length_b   9.24913661
_cell_length_c   22.60244358
_cell_angle_alpha   90.03182298
_cell_angle_beta   89.92891950
_cell_angle_gamma   119.95942535
_symmetry_Int_Tables_number   1
_chemical_formula_structural   Cu3Ni14C65
_chemical_formula_sum   'Cu9 Ni42 C195'
_cell_volume   3353.44066463
_cell_formula_units_Z   3
loop_
 _symmetry_equiv_pos_site_id
 _symmetry_equiv_pos_as_xyz
  1  'x, y, z'
loop_
 _atom_site_type_symbol
 _atom_site_label
 _atom_site_symmetry_multiplicity
 _atom_site_fract_x
 _atom_site_fract_y
 _atom_site_fract_z
 _atom_site_occupancy
  Ni  Ni0  1  0.31988678  0.01322239  0.24762168  1
  Ni  Ni1  1  0.81727139  0.01001759  0.24551262  1
  Ni  Ni2  1  0.18776996  0.36602476  0.24546120  1
  Ni  Ni3  1  0.68680236  0.35980141  0.24775477  1
  Ni  Ni4  1  0.99539973  0.62148570  0.24679131  1
  Ni  Ni5  1  0.49226835  0.62807117  0.24674913  1
  Ni  Ni6  1  0.31622930  0.62328983  0.74723767  1
  Ni  Ni7  1  0.81598291  0.62289698  0.74756945  1
  Ni  Ni8  1  0.99497073  0.36774108  0.74778873  1
  Ni  Ni9  1  0.49475880  0.36732909  0.74752378  1
  Ni  Ni10  1  0.18937802  0.00957951  0.74733518  1
  Ni  Ni11  1  0.68885365  0.00930340  0.74738610  1
  Ni  Ni12  1  0.15479892  0.34835543  0.57953118  1
  Ni  Ni13  1  0.65359424  0.34736604  0.57965867  1
  Ni  Ni14  1  0.01957001  0.69262850  0.57955684  1
  Ni  Ni15  1  0.51938457  0.69130665  0.57955054  1
  Ni  Ni16  1  0.32524847  0.95827452  0.57886236  1
  Ni  Ni17  1  0.82739261  0.96228160  0.58099779  1
  Ni  Ni18  1  0.15521999  0.96096534  0.07943816  1
  Ni  Ni19  1  0.65438140  0.96049888  0.07960096  1
  Ni  Ni20  1  0.32627978  0.69239199  0.08048991  1
  Ni  Ni21  1  0.82583669  0.69177941  0.08013511  1
  Ni  Ni22  1  0.01928241  0.34744111  0.07909999  1
  Ni  Ni23  1  0.51924884  0.34675027  0.07948731  1
  Ni  Ni24  1  0.34787676  0.02652079  0.91930106  1
  Ni  Ni25  1  0.84778557  0.02656533  0.91931025  1
  Ni  Ni26  1  0.48549976  0.29294887  0.41481213  1
  Ni  Ni27  1  0.66027917  0.02696370  0.41431135  1
  Ni  Ni28  1  0.35200840  0.67903665  0.41503809  1
  Ni  Ni29  1  0.84873901  0.67171816  0.41716347  1
  Ni  Ni30  1  0.00603953  0.01134531  0.49697927  1
  Ni  Ni31  1  0.49929820  0.99971591  0.49418540  1
  Ni  Ni32  1  0.00552105  0.99988885  0.99776061  1
  Ni  Ni33  1  0.50547112  0.00007094  0.99833798  1
  Ni  Ni34  1  0.33299464  0.34059306  0.83525309  1
  Ni  Ni35  1  0.83293610  0.34059778  0.83536934  1
  Ni  Ni36  1  0.33009983  0.32820581  0.33094481  1
  Ni  Ni37  1  0.83622768  0.33048580  0.33129561  1
  Ni  Ni38  1  0.16748919  0.66733019  0.15972058  1
  Ni  Ni39  1  0.66621145  0.66668676  0.15960349  1
  Ni  Ni40  1  0.16729600  0.66746079  0.66011598  1
  Ni  Ni41  1  0.66640599  0.66628938  0.66109757  1
  Cu  Cu42  1  0.49921551  0.99933738  0.34887639  1
  Cu  Cu43  1  0.33317303  0.33308051  0.68711286  1
  Cu  Cu44  1  0.83335474  0.33317675  0.68789745  1
  Cu  Cu45  1  0.33157744  0.33095734  0.18262031  1
  Cu  Cu46  1  0.83509500  0.33600581  0.18450606  1
  Cu  Cu47  1  0.16521020  0.66440909  0.01024378  1
  Cu  Cu48  1  0.66519838  0.66437067  0.01065587  1
  Cu  Cu49  1  0.16158478  0.66038484  0.51190476  1
  Cu  Cu50  1  0.67031090  0.67231357  0.51457527  1
  C  C51  1  0.00236284  0.00362615  0.35355463  1
  C  C52  1  0.00152674  0.00019966  0.85401159  1
  C  C53  1  0.50154589  0.00010327  0.85397742  1
  C  C54  1  0.00022534  0.99975483  0.64598313  1
  C  C55  1  0.49984946  -0.00000135  0.64533266  1
  C  C56  1  0.99998413  0.00014643  0.14536099  1
  C  C57  1  0.49988979  0.00011515  0.14683709  1
  C  C58  1  0.33352391  0.33721689  0.97915766  1
  C  C59  1  0.83352039  0.33706703  0.97930718  1
  C  C60  1  0.33023659  0.32827968  0.47996437  1
  C  C61  1  0.83659007  0.33533894  0.47981243  1
  C  C62  1  0.16669816  0.66796360  0.31551151  1
  C  C63  1  0.66639944  0.66609002  0.31417854  1
  C  C64  1  0.16628763  0.66529788  0.81602781  1
  C  C65  1  0.66614242  0.66515659  0.81606895  1
  C  C66  1  0.14139274  0.98963346  0.25074017  1
  C  C67  1  0.64684640  0.99276559  0.25093369  1
  C  C68  1  0.34829774  0.70606935  0.25071930  1
  C  C69  1  0.85493576  0.71713330  0.25216129  1
  C  C70  1  0.00440473  0.29138474  0.25145461  1
  C  C71  1  0.50393641  0.30225966  0.25078371  1
  C  C72  1  0.14106697  0.29221761  0.75112550  1
  C  C73  1  0.64083932  0.29195065  0.75099102  1
  C  C74  1  0.00470707  0.71776392  0.75147434  1
  C  C75  1  0.50468981  0.71798382  0.75118327  1
  C  C76  1  0.35416252  0.99041689  0.75193166  1
  C  C77  1  0.85398582  0.99003982  0.75197087  1
  C  C78  1  0.47952324  0.32830445  0.58452221  1
  C  C79  1  0.97931593  0.32675745  0.58590511  1
  C  C80  1  0.18388615  0.03928513  0.58578140  1
  C  C81  1  0.68497942  0.04389183  0.58454387  1
  C  C82  1  0.33542128  0.63092656  0.58428256  1
  C  C83  1  0.83697066  0.63184513  0.58533477  1
  C  C84  1  0.47996943  0.63231076  0.08419242  1
  C  C85  1  0.98070100  0.63240721  0.08441776  1
  C  C86  1  0.33571195  0.03792036  0.08347062  1
  C  C87  1  0.83599177  0.03994136  0.08333099  1
  C  C88  1  0.18345709  0.32755270  0.08356431  1
  C  C89  1  0.68453723  0.32787533  0.08473223  1
  C  C90  1  0.31682210  0.66449310  0.91561346  1
  C  C91  1  0.81680048  0.66452850  0.91567165  1
  C  C92  1  0.01523436  0.36614289  0.91635654  1
  C  C93  1  0.51527373  0.36609808  0.91639971  1
  C  C94  1  0.16723938  0.96955728  0.91664355  1
  C  C95  1  0.66728718  0.96963432  0.91662779  1
  C  C96  1  0.31301654  0.96787736  0.41837756  1
  C  C97  1  0.81744723  0.96947494  0.41530283  1
  C  C98  1  0.16719000  0.36644525  0.41664000  1
  C  C99  1  0.67039342  0.37104138  0.41793330  1
  C  C100  1  0.01616717  0.66560176  0.41618562  1
  C  C101  1  0.51534144  0.65901541  0.41821389  1
  C  C102  1  0.08848720  0.00531080  0.30478662  1
  C  C103  1  0.61102411  0.02521991  0.31027235  1
  C  C104  1  0.40071137  0.77684398  0.30998941  1
  C  C105  1  0.91316926  0.81707508  0.30770549  1
  C  C106  1  0.48803653  0.19871887  0.31021886  1
  C  C107  1  0.99496665  0.16771292  0.30500016  1
  C  C108  1  0.08797038  0.17045329  0.80489931  1
  C  C109  1  0.58794599  0.17032881  0.80499167  1
  C  C110  1  0.49522107  0.82258255  0.80499355  1
  C  C111  1  0.99515684  0.82262562  0.80496704  1
  C  C112  1  0.41288050  0.00845696  0.80740286  1
  C  C113  1  0.91290412  0.00839148  0.80735904  1
  C  C114  1  0.40185238  0.96679686  0.69246611  1
  C  C115  1  0.90175105  0.96679731  0.69233130  1
  C  C116  1  0.08249223  0.19869026  0.69116192  1
  C  C117  1  0.58257458  0.19879475  0.69103045  1
  C  C118  1  0.01706096  0.83523239  0.69139804  1
  C  C119  1  0.51725593  0.83554753  0.69119572  1
  C  C120  1  0.40186276  0.83523168  0.19351775  1
  C  C121  1  0.90200075  0.83619021  0.19251199  1
  C  C122  1  0.01680331  0.19806212  0.19144485  1
  C  C123  1  0.51563736  0.19675578  0.19342939  1
  C  C124  1  0.08259726  0.96661520  0.19095593  1
  C  C125  1  0.58261188  0.96902997  0.19362216  1
  C  C126  1  0.44335104  0.36086916  0.64457438  1
  C  C127  1  0.94341843  0.35912898  0.64573426  1
  C  C128  1  0.23573536  0.11050168  0.64581277  1
  C  C129  1  0.73750434  0.11566204  0.64438486  1
  C  C130  1  0.31955246  0.52609184  0.64422233  1
  C  C131  1  0.82056326  0.52601366  0.64488775  1
  C  C132  1  0.44424948  0.52956844  0.14405969  1
  C  C133  1  0.94771954  0.53232575  0.14545364  1
  C  C134  1  0.31797439  0.10537768  0.14401428  1
  C  C135  1  0.82129924  0.11419354  0.14302791  1
  C  C136  1  0.23306532  0.35977686  0.14420415  1
  C  C137  1  0.73616769  0.36280924  0.14517261  1
  C  C138  1  0.23797167  0.30323348  0.02835891  1
  C  C139  1  0.73840929  0.30362172  0.02892556  1
  C  C140  1  0.41435638  0.52339860  0.02843261  1
  C  C141  1  0.91428369  0.52283085  0.02925221  1
  C  C142  1  0.34827221  0.16615773  0.02638216  1
  C  C143  1  0.84856192  0.16620851  0.02573234  1
  C  C144  1  0.23734529  0.17167341  0.52998305  1
  C  C145  1  0.73647359  0.16917724  0.52655935  1
  C  C146  1  0.34816874  0.52944695  0.52664265  1
  C  C147  1  0.84868918  0.52930533  0.52742072  1
  C  C148  1  0.41536356  0.30297033  0.52740436  1
  C  C149  1  0.91503494  0.30563765  0.52922559  1
  C  C150  1  0.28657806  0.71727473  0.97401766  1
  C  C151  1  0.78652403  0.71741877  0.97413478  1
  C  C152  1  0.06554933  0.42649532  0.97686717  1
  C  C153  1  0.56581629  0.42697333  0.97687851  1
  C  C154  1  0.14912958  0.86936462  0.97731240  1
  C  C155  1  0.64937972  0.86919234  0.97729914  1
  C  C156  1  0.27626045  0.85758590  0.47687513  1
  C  C157  1  0.78833542  0.86200254  0.47489874  1
  C  C158  1  0.14786657  0.42583511  0.47798018  1
  C  C159  1  0.65554777  0.44694548  0.47687890  1
  C  C160  1  0.06406887  0.70393324  0.47776932  1
  C  C161  1  0.57019333  0.69405825  0.47643371  1
  C  C162  1  0.06937148  0.64157649  0.36049669  1
  C  C163  1  0.56991331  0.63799179  0.36070924  1
  C  C164  1  0.25056833  0.85906276  0.36034993  1
  C  C165  1  0.74961836  0.86411351  0.36015497  1
  C  C166  1  0.18093128  0.50182535  0.36142066  1
  C  C167  1  0.68226419  0.50146994  0.36057595  1
  C  C168  1  0.07015623  0.49763747  0.86062148  1
  C  C169  1  0.57011037  0.49759626  0.86066522  1
  C  C170  1  0.18087940  0.86011320  0.86128941  1
  C  C171  1  0.68103369  0.86045816  0.86125643  1
  C  C172  1  0.25099471  0.64079720  0.85963099  1
  C  C173  1  0.75106291  0.64100090  0.85968051  1
  C  C174  1  0.99763628  0.81968838  0.40415224  1
  C  C175  1  0.49946927  0.81454629  0.41331918  1
  C  C176  1  0.40667906  0.99963113  0.41311041  1
  C  C177  1  0.90903724  0.98999083  0.40281857  1
  C  C178  1  0.08890728  0.17977861  0.40336504  1
  C  C179  1  0.59230177  0.18449066  0.41328701  1
  C  C180  1  0.99810762  0.17591329  0.90396291  1
  C  C181  1  0.49815289  0.17591669  0.90398023  1
  C  C182  1  0.08813460  0.99653171  0.90340312  1
  C  C183  1  0.58812315  0.99642262  0.90342331  1
  C  C184  1  0.40845141  0.82813421  0.90257773  1
  C  C185  1  0.90844041  0.82828560  0.90261577  1
  C  C186  1  0.48069715  0.14842475  0.58882226  1
  C  C187  1  0.98023870  0.14710064  0.58857851  1
  C  C188  1  0.09327865  0.03832669  0.58895827  1
  C  C189  1  0.59371184  0.03968017  0.58860296  1
  C  C190  1  0.42522694  0.81329305  0.58904619  1
  C  C191  1  0.92656851  0.81384244  0.58894540  1
  C  C192  1  0.48145643  0.81477116  0.08838494  1
  C  C193  1  0.98082896  0.81342094  0.08815836  1
  C  C194  1  0.42601269  0.03677653  0.08886197  1
  C  C195  1  0.92567160  0.03625323  0.08857169  1
  C  C196  1  0.09259268  0.14762179  0.08784921  1
  C  C197  1  0.59348929  0.14862316  0.08902321  1
  C  C198  1  0.34366908  0.15362444  0.75255740  1
  C  C199  1  0.84347594  0.15316723  0.75268671  1
  C  C200  1  0.23259749  0.31220067  0.75252651  1
  C  C201  1  0.73249863  0.31194602  0.75263593  1
  C  C202  1  0.42308302  0.53447005  0.75240607  1
  C  C203  1  0.92316943  0.53474086  0.75263918  1
  C  C204  1  0.33191045  0.51849578  0.24574164  1
  C  C205  1  0.84435035  0.53291266  0.25274584  1
  C  C206  1  0.42587336  0.33363031  0.24602763  1
  C  C207  1  0.92337406  0.31267615  0.25231389  1
  C  C208  1  0.23322467  0.15100306  0.25196752  1
  C  C209  1  0.74036556  0.14930514  0.24629768  1
  C  C210  1  0.32250334  0.49333904  0.92233638  1
  C  C211  1  0.82261698  0.49354188  0.92250025  1
  C  C212  1  0.42179881  0.34819650  0.92108097  1
  C  C213  1  0.92184611  0.34860762  0.92103630  1
  C  C214  1  0.25644707  0.14855212  0.92066696  1
  C  C215  1  0.75640834  0.14885505  0.92078589  1
  C  C216  1  0.31799707  0.15165168  0.42281970  1
  C  C217  1  0.81814061  0.14860055  0.42177726  1
  C  C218  1  0.25730371  0.36816176  0.42153582  1
  C  C219  1  0.75916594  0.36681451  0.42151655  1
  C  C220  1  0.42513888  0.48096246  0.42171848  1
  C  C221  1  0.92292408  0.49406045  0.42179035  1
  C  C222  1  0.16812714  0.48409470  0.07646521  1
  C  C223  1  0.66898425  0.48422716  0.07714947  1
  C  C224  1  0.07440973  0.66442957  0.07720769  1
  C  C225  1  0.57382296  0.66388966  0.07743159  1
  C  C226  1  0.25807159  0.84957549  0.07681708  1
  C  C227  1  0.75804949  0.85155852  0.07759843  1
  C  C228  1  0.16711617  0.85092542  0.57921883  1
  C  C229  1  0.66897658  0.85608449  0.57920905  1
  C  C230  1  0.25737444  0.66288708  0.57808788  1
  C  C231  1  0.76004387  0.66671214  0.58066779  1
  C  C232  1  0.07318003  0.48220771  0.58014174  1
  C  C233  1  0.57369780  0.48290888  0.57869777  1
  C  C234  1  0.14527454  0.81458442  0.25718472  1
  C  C235  1  0.64919023  0.81430545  0.25481254  1
  C  C236  1  0.25734480  0.70446483  0.25434519  1
  C  C237  1  0.76297935  0.70684719  0.25821473  1
  C  C238  1  0.09095989  0.47484912  0.25835087  1
  C  C239  1  0.59430909  0.48345658  0.25478695  1
  C  C240  1  0.14644498  0.47688262  0.75689275  1
  C  C241  1  0.64652831  0.47691123  0.75689605  1
  C  C242  1  0.09157602  0.70723830  0.75775480  1
  C  C243  1  0.59151163  0.70712847  0.75772875  1
  C  C244  1  0.26142010  0.81664404  0.75705130  1
  C  C245  1  0.76136279  0.81647188  0.75690742  1
