# generated using pymatgen
data_Cu10Ni2C7
_symmetry_space_group_name_H-M   'P 1'
_cell_length_a   8.21508535
_cell_length_b   6.01631070
_cell_length_c   5.55747386
_cell_angle_alpha   68.00114265
_cell_angle_beta   109.86243225
_cell_angle_gamma   109.76011129
_symmetry_Int_Tables_number   1
_chemical_formula_structural   Cu10Ni2C7
_chemical_formula_sum   'Cu10 Ni2 C7'
_cell_volume   232.42169664
_cell_formula_units_Z   1
loop_
 _symmetry_equiv_pos_site_id
 _symmetry_equiv_pos_as_xyz
  1  'x, y, z'
loop_
 _atom_site_type_symbol
 _atom_site_label
 _atom_site_symmetry_multiplicity
 _atom_site_fract_x
 _atom_site_fract_y
 _atom_site_fract_z
 _atom_site_occupancy
  C  C0  1  0.83573500  0.80709900  0.35420600  1
  C  C1  1  0.60564500  0.59912400  0.75852700  1
  C  C2  1  0.80940600  0.30614700  0.31564500  1
  C  C3  1  0.19352500  0.67561400  0.67405000  1
  C  C4  1  0.33464000  0.39129800  0.29849600  1
  C  C5  1  0.46994500  0.00294700  0.00096500  1
  C  C6  1  0.02885700  0.00863300  0.95390600  1
  Ni  Ni7  1  0.63429200  0.30143200  0.99826100  1
  Ni  Ni8  1  0.34508800  0.67943800  0.01058600  1
  Cu  Cu9  1  0.99309200  0.76988900  0.72175200  1
  Cu  Cu10  1  0.75168100  0.85076400  0.95791400  1
  Cu  Cu11  1  0.64102700  0.88008400  0.42157000  1
  Cu  Cu12  1  0.98599000  0.28758100  0.65347200  1
  Cu  Cu13  1  0.69129500  0.46471300  0.42387300  1
  Cu  Cu14  1  0.34475200  0.56011100  0.55095800  1
  Cu  Cu15  1  0.04116300  0.73254100  0.29505800  1
  Cu  Cu16  1  0.35214200  0.10294500  0.60400500  1
  Cu  Cu17  1  0.27969700  0.17638500  0.07657700  1
  Cu  Cu18  1  0.95369400  0.16516000  0.23018100  1
