# generated using pymatgen
data_Cu5Ni
_symmetry_space_group_name_H-M   'P 1'
_cell_length_a   5.97971800
_cell_length_b   8.79649200
_cell_length_c   17.40530300
_cell_angle_alpha   90.00000000
_cell_angle_beta   90.00000000
_cell_angle_gamma   90.00000000
_symmetry_Int_Tables_number   1
_chemical_formula_structural   Cu5Ni
_chemical_formula_sum   'Cu20 Ni4'
_cell_volume   915.52836363
_cell_formula_units_Z   4
loop_
 _symmetry_equiv_pos_site_id
 _symmetry_equiv_pos_as_xyz
  1  'x, y, z'
loop_
 _atom_site_type_symbol
 _atom_site_label
 _atom_site_symmetry_multiplicity
 _atom_site_fract_x
 _atom_site_fract_y
 _atom_site_fract_z
 _atom_site_occupancy
  Ni  Ni0  1  0.03787400  0.75000000  0.63638200  1
  Ni  Ni1  1  0.03787400  0.25000000  0.86361800  1
  Ni  Ni2  1  0.96212600  0.25000000  0.36361800  1
  Ni  Ni3  1  0.96212600  0.75000000  0.13638200  1
  Cu  Cu4  1  0.17003600  0.75000000  0.24174300  1
  Cu  Cu5  1  0.17003600  0.25000000  0.25825700  1
  Cu  Cu6  1  0.82996400  0.25000000  0.75825700  1
  Cu  Cu7  1  0.82996400  0.75000000  0.74174300  1
  Cu  Cu8  1  0.75386600  0.95885600  0.13171900  1
  Cu  Cu9  1  0.75386600  0.04114400  0.36828100  1
  Cu  Cu10  1  0.24613400  0.45885600  0.86828100  1
  Cu  Cu11  1  0.24613400  0.54114400  0.63171900  1
  Cu  Cu12  1  0.24613400  0.04114400  0.86828100  1
  Cu  Cu13  1  0.24613400  0.95885600  0.63171900  1
  Cu  Cu14  1  0.75386600  0.54114400  0.13171900  1
  Cu  Cu15  1  0.75386600  0.45885600  0.36828100  1
  Cu  Cu16  1  0.48364300  0.75000000  0.38675100  1
  Cu  Cu17  1  0.48364300  0.25000000  0.11324900  1
  Cu  Cu18  1  0.51635700  0.25000000  0.61324900  1
  Cu  Cu19  1  0.51635700  0.75000000  0.88675100  1
  Cu  Cu20  1  0.81203400  0.75000000  0.53640900  1
  Cu  Cu21  1  0.81203400  0.25000000  0.96359100  1
  Cu  Cu22  1  0.18796600  0.25000000  0.46359100  1
  Cu  Cu23  1  0.18796600  0.75000000  0.03640900  1
