# generated using pymatgen
data_CuNi7C33
_symmetry_space_group_name_H-M   'P 1'
_cell_length_a   9.21426059
_cell_length_b   9.21426026
_cell_length_c   22.64433916
_cell_angle_alpha   90.00000000
_cell_angle_beta   90.00000000
_cell_angle_gamma   120.00000115
_symmetry_Int_Tables_number   1
_chemical_formula_structural   CuNi7C33
_chemical_formula_sum   'Cu3 Ni21 C99'
_cell_volume   1664.98851840
_cell_formula_units_Z   3
loop_
 _symmetry_equiv_pos_site_id
 _symmetry_equiv_pos_as_xyz
  1  'x, y, z'
loop_
 _atom_site_type_symbol
 _atom_site_label
 _atom_site_symmetry_multiplicity
 _atom_site_fract_x
 _atom_site_fract_y
 _atom_site_fract_z
 _atom_site_occupancy
  Ni  Ni0  1  0.64504434  0.02277376  0.24344076  1
  Ni  Ni1  1  0.37772942  0.35495566  0.24344076  1
  Ni  Ni2  1  0.97722624  0.62227058  0.24344076  1
  Ni  Ni3  1  0.62867599  0.61138247  0.74633599  1
  Ni  Ni4  1  0.98270648  0.37132401  0.74633599  1
  Ni  Ni5  1  0.38861753  0.01729352  0.74633599  1
  Ni  Ni6  1  0.31247232  0.33680277  0.58564950  1
  Ni  Ni7  1  0.02433144  0.68752768  0.58564950  1
  Ni  Ni8  1  0.66319723  0.97566856  0.58564950  1
  Ni  Ni9  1  0.31504256  0.97727675  0.08563786  1
  Ni  Ni10  1  0.66223519  0.68495744  0.08563786  1
  Ni  Ni11  1  0.02272325  0.33776481  0.08563786  1
  Ni  Ni12  1  0.96463820  0.28253219  0.40704159  1
  Ni  Ni13  1  0.31789299  0.03536180  0.40704159  1
  Ni  Ni14  1  0.71746781  0.68210701  0.40704159  1
  Ni  Ni15  1  -0.00000000  -0.00000000  0.49462882  1
  Ni  Ni16  1  -0.00000000  -0.00000000  0.99887454  1
  Ni  Ni17  1  0.66666700  0.33333300  0.83292256  1
  Ni  Ni18  1  0.66666700  0.33333300  0.31921994  1
  Ni  Ni19  1  0.33333300  0.66666700  0.16583535  1
  Ni  Ni20  1  0.33333300  0.66666700  0.66944455  1
  Cu  Cu21  1  -0.00000000  -0.00000000  0.35329423  1
  Cu  Cu22  1  0.66666700  0.33333300  0.68508691  1
  Cu  Cu23  1  0.66666700  0.33333300  0.17640951  1
  C  C24  1  -0.00000000  -0.00000000  0.85850647  1
  C  C25  1  -0.00000000  -0.00000000  0.64765411  1
  C  C26  1  -0.00000000  -0.00000000  0.14986091  1
  C  C27  1  0.66666700  0.33333300  0.97878261  1
  C  C28  1  0.66666700  0.33333300  0.48065778  1
  C  C29  1  0.33333300  0.66666700  0.01437865  1
  C  C30  1  0.33333300  0.66666700  0.51868791  1
  C  C31  1  0.33333300  0.66666700  0.31034471  1
  C  C32  1  0.33333300  0.66666700  0.81481595  1
  C  C33  1  0.29614697  0.99688600  0.25347327  1
  C  C34  1  0.70073903  0.70385303  0.25347327  1
  C  C35  1  0.00311400  0.29926097  0.25347327  1
  C  C36  1  0.28254827  0.29139074  0.75311954  1
  C  C37  1  0.00884247  0.71745173  0.75311954  1
  C  C38  1  0.70860926  0.99115753  0.75311954  1
  C  C39  1  0.96572511  0.33401447  0.58482665  1
  C  C40  1  0.36829036  0.03427489  0.58482665  1
  C  C41  1  0.66598553  0.63170964  0.58482665  1
  C  C42  1  0.96815943  0.63363945  0.08250497  1
  C  C43  1  0.66548101  0.03184057  0.08250497  1
  C  C44  1  0.36636055  0.33451899  0.08250497  1
  C  C45  1  0.62582600  0.66212237  0.91542683  1
  C  C46  1  0.03629537  0.37417400  0.91542683  1
  C  C47  1  0.33787763  0.96370463  0.91542683  1
  C  C48  1  0.61734055  0.96140168  0.41739918  1
  C  C49  1  0.34406013  0.38265945  0.41739918  1
  C  C50  1  0.03859832  0.65593987  0.41739918  1
  C  C51  1  0.22397469  0.02421821  0.31359007  1
  C  C52  1  0.80024352  0.77602531  0.31359007  1
  C  C53  1  0.97578179  0.19975648  0.31359007  1
  C  C54  1  0.17459931  0.17241015  0.80797580  1
  C  C55  1  0.99781084  0.82540069  0.80797580  1
  C  C56  1  0.82758985  0.00218916  0.80797580  1
  C  C57  1  0.80457802  0.97255759  0.69177398  1
  C  C58  1  0.16797957  0.19542198  0.69177398  1
  C  C59  1  0.02744241  0.83202043  0.69177398  1
  C  C60  1  0.80752743  0.83193003  0.19492120  1
  C  C61  1  0.02440260  0.19247257  0.19492120  1
  C  C62  1  0.16806997  0.97559740  0.19492120  1
  C  C63  1  0.91019825  0.38894251  0.64360933  1
  C  C64  1  0.47874526  0.08980175  0.64360933  1
  C  C65  1  0.61105749  0.52125474  0.64360933  1
  C  C66  1  0.92043104  0.52879887  0.14253886  1
  C  C67  1  0.60836883  0.07956896  0.14253886  1
  C  C68  1  0.47120113  0.39163117  0.14253886  1
  C  C69  1  0.47398656  0.30467856  0.02932894  1
  C  C70  1  0.83069300  0.52601344  0.02932894  1
  C  C71  1  0.69532144  0.16930700  0.02932894  1
  C  C72  1  0.47182438  0.16633057  0.52894871  1
  C  C73  1  0.69450719  0.52817562  0.52894871  1
  C  C74  1  0.83366943  0.30549281  0.52894871  1
  C  C75  1  0.52639929  0.68332506  0.97172321  1
  C  C76  1  0.15692477  0.47360071  0.97172321  1
  C  C77  1  0.31667494  0.84307523  0.97172321  1
  C  C78  1  0.50901202  0.84891199  0.47473046  1
  C  C79  1  0.33989897  0.49098798  0.47473046  1
  C  C80  1  0.15108801  0.66010103  0.47473046  1
  C  C81  1  0.13509787  0.63440499  0.35888879  1
  C  C82  1  0.49930612  0.86490213  0.35888879  1
  C  C83  1  0.36559501  0.50069388  0.35888879  1
  C  C84  1  0.13652981  0.49583868  0.85707304  1
  C  C85  1  0.35930786  0.86347019  0.85707304  1
  C  C86  1  0.50416132  0.64069214  0.85707304  1
  C  C87  1  0.01980520  0.81882342  0.42253304  1
  C  C88  1  0.79901822  0.98019480  0.42253304  1
  C  C89  1  0.18117658  0.20098178  0.42253304  1
  C  C90  1  0.01869595  0.18866662  0.91061862  1
  C  C91  1  0.16997067  0.98130405  0.91061862  1
  C  C92  1  0.81133338  0.83002933  0.91061862  1
  C  C93  1  0.97193694  0.15744899  0.58808200  1
  C  C94  1  0.18551205  0.02806306  0.58808200  1
  C  C95  1  0.84255101  0.81448795  0.58808200  1
  C  C96  1  0.97700707  0.81785438  0.08780947  1
  C  C97  1  0.84084731  0.02299293  0.08780947  1
  C  C98  1  0.18214562  0.15915269  0.08780947  1
  C  C99  1  0.69146539  0.15587323  0.75289361  1
  C  C100  1  0.46440885  0.30853461  0.75289361  1
  C  C101  1  0.84412677  0.53559115  0.75289361  1
  C  C102  1  0.66892438  0.51789314  0.24482781  1
  C  C103  1  0.84896976  0.33107562  0.24482781  1
  C  C104  1  0.48210686  0.15103024  0.24482781  1
  C  C105  1  0.64028370  0.49343255  0.92343687  1
  C  C106  1  0.85314984  0.35971630  0.92343687  1
  C  C107  1  0.50656745  0.14685016  0.92343687  1
  C  C108  1  0.62549929  0.14504689  0.42330958  1
  C  C109  1  0.51954860  0.37450071  0.42330958  1
  C  C110  1  0.85495311  0.48045140  0.42330958  1
  C  C111  1  0.33001433  0.49077810  0.06885152  1
  C  C112  1  0.16076277  0.66998567  0.06885152  1
  C  C113  1  0.50922190  0.83923723  0.06885152  1
  C  C114  1  0.32713873  0.83991019  0.57320983  1
  C  C115  1  0.51277047  0.67286127  0.57320983  1
  C  C116  1  0.16008981  0.48722953  0.57320983  1
  C  C117  1  0.29084710  0.81175004  0.25378956  1
  C  C118  1  0.52090194  0.70915290  0.25378956  1
  C  C119  1  0.18824996  0.47909806  0.25378956  1
  C  C120  1  0.29097160  0.47579962  0.75421071  1
  C  C121  1  0.18482702  0.70902840  0.75421071  1
  C  C122  1  0.52420038  0.81517298  0.75421071  1
