# generated using pymatgen
data_Cu5Ni2C21
_symmetry_space_group_name_H-M   'P 1'
_cell_length_a   6.84837400
_cell_length_b   9.91602019
_cell_length_c   11.19164314
_cell_angle_alpha   95.45434009
_cell_angle_beta   92.50724275
_cell_angle_gamma   90.28559545
_symmetry_Int_Tables_number   1
_chemical_formula_structural   Cu5Ni2C21
_chemical_formula_sum   'Cu10 Ni4 C42'
_cell_volume   755.81165996
_cell_formula_units_Z   2
loop_
 _symmetry_equiv_pos_site_id
 _symmetry_equiv_pos_as_xyz
  1  'x, y, z'
loop_
 _atom_site_type_symbol
 _atom_site_label
 _atom_site_symmetry_multiplicity
 _atom_site_fract_x
 _atom_site_fract_y
 _atom_site_fract_z
 _atom_site_occupancy
  C  C0  1  0.82804500  0.11897500  0.34682800  1
  C  C1  1  0.17195500  0.88102500  0.65317200  1
  C  C2  1  0.89401900  0.82143500  0.30227500  1
  C  C3  1  0.66350000  0.63977000  0.16363900  1
  C  C4  1  0.33650000  0.36023000  0.83636100  1
  C  C5  1  0.10598100  0.17856500  0.69772500  1
  Ni  Ni6  1  0.32954000  0.76738600  0.95434900  1
  Ni  Ni7  1  0.76301800  0.64813400  0.60691700  1
  Ni  Ni8  1  0.23698200  0.35186600  0.39308300  1
  Ni  Ni9  1  0.67046000  0.23261400  0.04565100  1
  Cu  Cu10  1  0.27552200  0.57822800  0.64782900  1
  Cu  Cu11  1  0.15366200  0.57912600  0.18854900  1
  Cu  Cu12  1  0.82920700  0.71165900  0.90837200  1
  Cu  Cu13  1  0.77501100  0.98830900  0.59692500  1
  Cu  Cu14  1  0.47536300  0.04517900  0.79392400  1
  Cu  Cu15  1  0.22498900  0.01169100  0.40307500  1
  Cu  Cu16  1  0.17079300  0.28834100  0.09162800  1
  Cu  Cu17  1  0.52463700  0.95482100  0.20607600  1
  Cu  Cu18  1  0.72447800  0.42177200  0.35217100  1
  Cu  Cu19  1  0.84633800  0.42087400  0.81145100  1
  C  C20  1  0.92716400  0.56462200  0.87903100  1
  C  C21  1  0.59245600  0.98671400  0.67934300  1
  C  C22  1  0.37562600  0.93405100  0.09799600  1
  C  C23  1  0.04012600  0.98764200  0.32504800  1
  C  C24  1  0.95987400  0.01235800  0.67495200  1
  C  C25  1  0.62437400  0.06594900  0.90200400  1
  C  C26  1  0.40754400  0.01328600  0.32065700  1
  C  C27  1  0.73852900  0.08097600  0.49972900  1
  C  C28  1  0.66489100  0.07491300  0.19113400  1
  C  C29  1  0.36976900  0.17050600  0.76119400  1
  C  C30  1  0.23057200  0.16044500  0.47302200  1
  C  C31  1  0.00119300  0.19683000  0.04415000  1
  C  C32  1  0.26377300  0.24745100  0.21271300  1
  C  C33  1  0.02369300  0.33338500  0.79928600  1
  C  C34  1  0.68056900  0.37179200  0.88431500  1
  C  C35  1  0.90097300  0.32131400  0.36149200  1
  C  C36  1  0.33504300  0.30059500  0.00560200  1
  C  C37  1  0.55786500  0.35570600  0.41886000  1
  C  C38  1  0.75579800  0.45465000  0.68598500  1
  C  C39  1  0.33510900  0.92508700  0.80886600  1
  C  C40  1  0.66866300  0.44387500  0.22233100  1
  C  C41  1  0.07283600  0.43537800  0.12096900  1
  C  C42  1  0.21317800  0.43686200  0.58013400  1
  C  C43  1  0.33133700  0.55612500  0.77766900  1
  C  C44  1  0.78682200  0.56313800  0.41986600  1
  C  C45  1  0.24420200  0.54535000  0.31401500  1
  C  C46  1  0.44213500  0.64429400  0.58114000  1
  C  C47  1  0.66495700  0.69940500  0.99439800  1
  C  C48  1  0.09902700  0.67868600  0.63850800  1
  C  C49  1  0.31943100  0.62820800  0.11568500  1
  C  C50  1  0.97630700  0.66661500  0.20071400  1
  C  C51  1  0.73622700  0.75254900  0.78728700  1
  C  C52  1  0.99880700  0.80317000  0.95585000  1
  C  C53  1  0.76942800  0.83955500  0.52697800  1
  C  C54  1  0.63023100  0.82949400  0.23880600  1
  C  C55  1  0.26147100  0.91902400  0.50027100  1
