# generated using pymatgen
data_Cu2Ni9C100
_symmetry_space_group_name_H-M   'P 1'
_cell_length_a   18.07141062
_cell_length_b   9.03764556
_cell_length_c   22.90884956
_cell_angle_alpha   90.09537851
_cell_angle_beta   90.15363462
_cell_angle_gamma   120.06364768
_symmetry_Int_Tables_number   1
_chemical_formula_structural   Cu2Ni9C100
_chemical_formula_sum   'Cu4 Ni18 C200'
_cell_volume   3238.15916702
_cell_formula_units_Z   2
loop_
 _symmetry_equiv_pos_site_id
 _symmetry_equiv_pos_as_xyz
  1  'x, y, z'
loop_
 _atom_site_type_symbol
 _atom_site_label
 _atom_site_symmetry_multiplicity
 _atom_site_fract_x
 _atom_site_fract_y
 _atom_site_fract_z
 _atom_site_occupancy
  Ni  Ni0  1  0.31377253  0.01481819  0.24046497  1
  Ni  Ni1  1  0.81470899  0.01398605  0.25288710  1
  Ni  Ni2  1  0.99435729  0.61586426  0.24054591  1
  Ni  Ni3  1  0.31564644  0.61493490  0.75530327  1
  Ni  Ni4  1  0.81404355  0.61232584  0.74470137  1
  Ni  Ni5  1  0.49363806  0.37298291  0.74243061  1
  Ni  Ni6  1  0.99380170  0.99593166  0.49490233  1
  Ni  Ni7  1  0.50097893  0.00147968  0.49971175  1
  Ni  Ni8  1  0.00082231  0.00153571  0.00219306  1
  Ni  Ni9  1  0.49272216  0.98710450  0.99758329  1
  Ni  Ni10  1  0.32351642  0.31632762  0.82826101  1
  Ni  Ni11  1  0.83267274  0.33012905  0.82555040  1
  Ni  Ni12  1  0.33488185  0.33883332  0.32202118  1
  Ni  Ni13  1  0.82492495  0.33049488  0.32217602  1
  Ni  Ni14  1  0.16498193  0.66494040  0.15770723  1
  Ni  Ni15  1  0.64946238  0.64690597  0.16922515  1
  Ni  Ni16  1  0.16046231  0.66618148  0.67510987  1
  Ni  Ni17  1  0.66159590  0.66132460  0.66077570  1
  Cu  Cu18  1  0.33163912  0.32609148  0.68698108  1
  Cu  Cu19  1  0.83294042  0.33655933  0.68531330  1
  Cu  Cu20  1  0.33749356  0.33522329  0.18401477  1
  Cu  Cu21  1  0.83139657  0.33634431  0.18591559  1
  C  C22  1  0.99885773  0.00197655  0.35772160  1
  C  C23  1  0.50646646  0.01076539  0.35890545  1
  C  C24  1  0.00731738  0.00178347  0.86081034  1
  C  C25  1  0.49890122  0.99552794  0.85849390  1
  C  C26  1  0.00247676  0.99015464  0.64776545  1
  C  C27  1  0.50161107  0.01596530  0.65111401  1
  C  C28  1  0.00222360  0.98906171  0.15052709  1
  C  C29  1  0.50337975  0.00649499  0.14254417  1
  C  C30  1  0.34136796  0.33949487  0.97870527  1
  C  C31  1  0.84063616  0.35121929  0.97460624  1
  C  C32  1  0.34144041  0.33264343  0.47414268  1
  C  C33  1  0.83343994  0.34408714  0.47515696  1
  C  C34  1  0.16740491  0.67494239  0.01664218  1
  C  C35  1  0.66380584  0.67003850  0.01477900  1
  C  C36  1  0.16748928  0.66524952  0.51324788  1
  C  C37  1  0.66693255  0.65922575  0.51672488  1
  C  C38  1  0.16212913  0.65814772  0.31408962  1
  C  C39  1  0.66378347  0.66403328  0.31012843  1
  C  C40  1  0.16482076  0.66571127  0.81287427  1
  C  C41  1  0.66160283  0.66516969  0.81534434  1
  C  C42  1  0.14480323  0.99837430  0.25651333  1
  C  C43  1  0.63944162  0.99014525  0.25114276  1
  C  C44  1  0.85312476  0.71459572  0.25386246  1
  C  C45  1  0.00621175  0.28700953  0.25032630  1
  C  C46  1  0.50272203  0.28791480  0.25219092  1
  C  C47  1  0.13951522  0.29096879  0.75201224  1
  C  C48  1  0.64467673  0.29216242  0.75680127  1
  C  C49  1  0.00321875  0.71158457  0.75508635  1
  C  C50  1  0.50698871  0.72580320  0.74984608  1
  C  C51  1  0.35289990  0.99224220  0.75459086  1
  C  C52  1  0.48268192  0.33174187  0.58601714  1
  C  C53  1  0.83345054  0.63378187  0.58550201  1
  C  C54  1  0.48443433  0.63175077  0.08467791  1
  C  C55  1  0.98304920  0.63319631  0.08611391  1
  C  C56  1  0.33192762  0.03586506  0.08583114  1
  C  C57  1  0.30913056  0.65944368  0.91543127  1
  C  C58  1  0.81087164  0.67135846  0.91503399  1
  C  C59  1  0.02479320  0.38030383  0.91663234  1
  C  C60  1  0.52066525  0.37201664  0.91634989  1
  C  C61  1  0.17300464  0.96191442  0.91580344  1
  C  C62  1  0.66939528  0.96455625  0.91628486  1
  C  C63  1  0.31204178  0.95370753  0.41351970  1
  C  C64  1  0.80916699  0.95584755  0.41553379  1
  C  C65  1  0.16890595  0.37385553  0.41646183  1
  C  C66  1  0.66887450  0.38409593  0.41419302  1
  C  C67  1  0.02095007  0.66864316  0.41620338  1
  C  C68  1  0.52608563  0.67155525  0.41629737  1
  C  C69  1  0.35670812  0.72273888  0.25196839  1
  C  C70  1  0.85744302  0.99109504  0.75155990  1
  C  C71  1  0.98528408  0.33581292  0.58077513  1
  C  C72  1  0.18312439  0.03102522  0.58057206  1
  C  C73  1  0.68419458  0.03640772  0.58080813  1
  C  C74  1  0.33221479  0.63131241  0.58138250  1
  C  C75  1  0.83420912  0.03484446  0.08131456  1
  C  C76  1  0.18287534  0.33152312  0.08150092  1
  C  C77  1  0.68538092  0.33755310  0.07997614  1
  C  C78  1  0.08864956  0.99710108  0.31195010  1
  C  C79  1  0.58632507  0.99690834  0.30867562  1
  C  C80  1  0.40582804  0.80864489  0.30553605  1
  C  C81  1  0.91109511  0.82360560  0.31025072  1
  C  C82  1  0.49777512  0.16841189  0.30884908  1
  C  C83  1  0.00122413  0.17651799  0.30829769  1
  C  C84  1  0.08513852  0.17182513  0.80759497  1
  C  C85  1  0.58925174  0.18078013  0.81169974  1
  C  C86  1  0.50146992  0.82685150  0.80729801  1
  C  C87  1  0.99440778  0.82184748  0.80845526  1
  C  C88  1  0.41173540  0.99967844  0.80980734  1
  C  C89  1  0.90592765  0.00483031  0.80464034  1
  C  C90  1  0.40476654  0.97623094  0.69416084  1
  C  C91  1  0.90102685  0.97283405  0.69724416  1
  C  C92  1  0.08237886  0.18779175  0.69164087  1
  C  C93  1  0.58426152  0.20068050  0.69573187  1
  C  C94  1  0.00891558  0.82853350  0.69378408  1
  C  C95  1  0.51622821  0.84037671  0.69015806  1
  C  C96  1  0.39789602  0.82348066  0.19812888  1
  C  C97  1  0.90495197  0.83401840  0.19432939  1
  C  C98  1  0.01535661  0.19151652  0.19120600  1
  C  C99  1  0.50866247  0.18417156  0.19358924  1
  C  C100  1  0.08398644  0.96808192  0.19605489  1
  C  C101  1  0.58367510  0.97937843  0.19201813  1
  C  C102  1  0.45364822  0.36473905  0.64755821  1
  C  C103  1  0.95200542  0.36380516  0.63509238  1
  C  C104  1  0.23000348  0.09681036  0.63507472  1
  C  C105  1  0.73121645  0.10350532  0.63541448  1
  C  C106  1  0.31656463  0.54150242  0.63701046  1
  C  C107  1  0.81670642  0.54400096  0.64742443  1
  C  C108  1  0.45503860  0.52891827  0.14350191  1
  C  C109  1  0.95370421  0.54218851  0.14762130  1
  C  C110  1  0.30865266  0.08112059  0.14759628  1
  C  C111  1  0.81944403  0.09497206  0.13736930  1
  C  C112  1  0.22947651  0.35760288  0.13617484  1
  C  C113  1  0.73138315  0.36254434  0.13453072  1
  C  C114  1  0.22725598  0.31081438  0.03020802  1
  C  C115  1  0.72905609  0.31423690  0.02884982  1
  C  C116  1  0.42073620  0.52904412  0.02760384  1
  C  C117  1  0.91426661  0.51740718  0.03133305  1
  C  C118  1  0.34333169  0.17135855  0.03216992  1
  C  C119  1  0.84041232  0.14830948  0.03195071  1
  C  C120  1  0.22528353  0.13803801  0.52926807  1
  C  C121  1  0.73178283  0.14894998  0.53031405  1
  C  C122  1  0.33786564  0.53099601  0.53172727  1
  C  C123  1  0.84436447  0.51902734  0.53124747  1
  C  C124  1  0.41404273  0.31126051  0.53121963  1
  C  C125  1  0.93079312  0.31631085  0.52948217  1
  C  C126  1  0.25962405  0.68703894  0.96953944  1
  C  C127  1  0.76313945  0.69218029  0.97146357  1
  C  C128  1  0.08276088  0.46701256  0.97341969  1
  C  C129  1  0.58271023  0.47717313  0.97130753  1
  C  C130  1  0.15477871  0.83800546  0.97166328  1
  C  C131  1  0.65701502  0.83971077  0.97163334  1
  C  C132  1  0.26118186  0.83476039  0.47085731  1
  C  C133  1  0.75997798  0.83075806  0.47025296  1
  C  C134  1  0.15704064  0.47576452  0.47316452  1
  C  C135  1  0.65494589  0.47084965  0.47192440  1
  C  C136  1  0.08202805  0.68450910  0.47225217  1
  C  C137  1  0.58329417  0.69720233  0.47364496  1
  C  C138  1  0.06607793  0.63523288  0.35876475  1
  C  C139  1  0.56865057  0.63539732  0.35937420  1
  C  C140  1  0.25178138  0.86486278  0.35642197  1
  C  C141  1  0.75199224  0.87477875  0.35599450  1
  C  C142  1  0.18276271  0.50001747  0.36057283  1
  C  C143  1  0.68443547  0.50309334  0.35803073  1
  C  C144  1  0.06789508  0.50116081  0.85920578  1
  C  C145  1  0.56665550  0.49536248  0.85802883  1
  C  C146  1  0.18330530  0.86505562  0.85859717  1
  C  C147  1  0.68323836  0.86703212  0.85939552  1
  C  C148  1  0.25181980  0.63315648  0.85548904  1
  C  C149  1  0.75225386  0.64028217  0.85595780  1
  C  C150  1  0.01086151  0.83459137  0.41423168  1
  C  C151  1  0.50861138  0.83029177  0.41015081  1
  C  C152  1  0.40557361  0.97338762  0.41034977  1
  C  C153  1  0.90518841  0.98122637  0.41130947  1
  C  C154  1  0.08368968  0.18955008  0.41314906  1
  C  C155  1  0.58547079  0.19123717  0.41101440  1
  C  C156  1  0.00821290  0.18660826  0.90910379  1
  C  C157  1  0.51125533  0.18591229  0.91334539  1
  C  C158  1  0.08620813  0.97967112  0.91054710  1
  C  C159  1  0.58418355  0.97836792  0.91157797  1
  C  C160  1  0.40484234  0.82806492  0.91021131  1
  C  C161  1  0.90577544  0.83729768  0.90854171  1
  C  C162  1  0.48946985  0.15311370  0.58668100  1
  C  C163  1  0.99485746  0.18059045  0.58364463  1
  C  C164  1  0.09522127  0.01428673  0.58482229  1
  C  C165  1  0.59817108  0.02386132  0.58258597  1
  C  C166  1  0.41086454  0.80266330  0.58219260  1
  C  C167  1  0.92268838  0.82839804  0.58877145  1
  C  C168  1  0.49331131  0.82449511  0.08859163  1
  C  C169  1  0.98938268  0.82494434  0.08734862  1
  C  C170  1  0.42166285  0.02507678  0.09011633  1
  C  C171  1  0.91383088  0.02373112  0.08260980  1
  C  C172  1  0.09545596  0.17172079  0.08440879  1
  C  C173  1  0.59783886  0.17896084  0.08270491  1
  C  C174  1  0.34977277  0.16426243  0.75360703  1
  C  C175  1  0.84592977  0.13859936  0.74621354  1
  C  C176  1  0.23413149  0.32106510  0.75142963  1
  C  C177  1  0.73764626  0.31532354  0.75474700  1
  C  C178  1  0.42259340  0.54081596  0.74964923  1
  C  C179  1  0.91849516  0.52996766  0.75365379  1
  C  C180  1  0.34251431  0.54952310  0.24963072  1
  C  C181  1  0.85047138  0.53661550  0.25346810  1
  C  C182  1  0.41760968  0.29821120  0.25538562  1
  C  C183  1  0.92230508  0.30436874  0.25084213  1
  C  C184  1  0.23742758  0.16023039  0.25532267  1
  C  C185  1  0.73470861  0.14790917  0.25190883  1
  C  C186  1  0.31790607  0.49030702  0.92706331  1
  C  C187  1  0.82085184  0.49935170  0.92510131  1
  C  C188  1  0.42820785  0.36043657  0.92339031  1
  C  C189  1  0.92879233  0.36263348  0.92598517  1
  C  C190  1  0.25477564  0.14954048  0.92565079  1
  C  C191  1  0.75452184  0.15009656  0.92840958  1
  C  C192  1  0.32028861  0.14214286  0.42577831  1
  C  C193  1  0.82012614  0.14582507  0.43137812  1
  C  C194  1  0.25405542  0.35966771  0.42959724  1
  C  C195  1  0.75264370  0.35956324  0.42523506  1
  C  C196  1  0.42941833  0.49612053  0.42635631  1
  C  C197  1  0.92818004  0.49419750  0.42640607  1
  C  C198  1  0.16930672  0.48053202  0.07378771  1
  C  C199  1  0.67243285  0.48649698  0.07195016  1
  C  C200  1  0.07698517  0.65890362  0.07006454  1
  C  C201  1  0.58229395  0.66453089  0.07016358  1
  C  C202  1  0.25493587  0.84010940  0.06922153  1
  C  C203  1  0.75980939  0.85800401  0.07187695  1
  C  C204  1  0.16820381  0.85271400  0.57272080  1
  C  C205  1  0.67140212  0.86137610  0.57278221  1
  C  C206  1  0.25646034  0.65869803  0.57206822  1
  C  C207  1  0.75465298  0.66882168  0.57036382  1
  C  C208  1  0.07410996  0.48976179  0.57304077  1
  C  C209  1  0.57700675  0.49469373  0.57003285  1
  C  C210  1  0.14745829  0.81520540  0.25821098  1
  C  C211  1  0.64343464  0.81157432  0.25532532  1
  C  C212  1  0.27203519  0.71990726  0.25475933  1
  C  C213  1  0.76323007  0.71679282  0.25436762  1
  C  C214  1  0.09348861  0.47973675  0.25584557  1
  C  C215  1  0.59217200  0.47161232  0.25661855  1
  C  C216  1  0.14238991  0.47548811  0.75502720  1
  C  C217  1  0.64919882  0.48171032  0.75699432  1
  C  C218  1  0.09353572  0.71466655  0.75562127  1
  C  C219  1  0.59403376  0.70680270  0.75475106  1
  C  C220  1  0.26316625  0.80939069  0.75394676  1
  C  C221  1  0.77330756  0.82632818  0.75222183  1
