# generated using pymatgen
data_Cu(NiC6)2
_symmetry_space_group_name_H-M   'P 1'
_cell_length_a   5.95878911
_cell_length_b   5.95878893
_cell_length_c   9.55945412
_cell_angle_alpha   90.00000000
_cell_angle_beta   90.00000000
_cell_angle_gamma   120.00000108
_symmetry_Int_Tables_number   1
_chemical_formula_structural   Cu(NiC6)2
_chemical_formula_sum   'Cu1 Ni2 C12'
_cell_volume   293.95424591
_cell_formula_units_Z   1
loop_
 _symmetry_equiv_pos_site_id
 _symmetry_equiv_pos_as_xyz
  1  'x, y, z'
loop_
 _atom_site_type_symbol
 _atom_site_label
 _atom_site_symmetry_multiplicity
 _atom_site_fract_x
 _atom_site_fract_y
 _atom_site_fract_z
 _atom_site_occupancy
  Ni  Ni0  1  0.66666700  0.33333300  0.70738806  1
  Ni  Ni1  1  0.33333300  0.66666700  0.14822643  1
  C  C2  1  -0.00000000  0.00000000  0.60095101  1
  Cu  Cu3  1  -0.00000000  0.00000000  0.98703111  1
  C  C4  1  -0.00000000  0.00000000  0.26992174  1
  C  C5  1  0.66666700  0.33333300  0.24108820  1
  C  C6  1  0.33333300  0.66666700  0.77812155  1
  C  C7  1  0.84115220  0.15884780  0.16004175  1
  C  C8  1  0.84115220  0.68230441  0.16004175  1
  C  C9  1  0.31769559  0.15884780  0.16004175  1
  C  C10  1  0.65672586  0.82836293  0.83733710  1
  C  C11  1  0.17163707  0.34327414  0.83733710  1
  C  C12  1  0.17163707  0.82836293  0.83733710  1
  C  C13  1  0.33333300  0.66666700  0.60206657  1
  C  C14  1  0.66666700  0.33333300  0.43140076  1
