# generated using pymatgen
data_Cu12Ni2C11
_symmetry_space_group_name_H-M   'P 1'
_cell_length_a   9.62058400
_cell_length_b   10.01633200
_cell_length_c   11.85834158
_cell_angle_alpha   84.39408849
_cell_angle_beta   90.00000000
_cell_angle_gamma   90.00000000
_symmetry_Int_Tables_number   1
_chemical_formula_structural   Cu12Ni2C11
_chemical_formula_sum   'Cu48 Ni8 C44'
_cell_volume   1137.23975040
_cell_formula_units_Z   4
loop_
 _symmetry_equiv_pos_site_id
 _symmetry_equiv_pos_as_xyz
  1  'x, y, z'
loop_
 _atom_site_type_symbol
 _atom_site_label
 _atom_site_symmetry_multiplicity
 _atom_site_fract_x
 _atom_site_fract_y
 _atom_site_fract_z
 _atom_site_occupancy
  C  C0  1  0.75820700  0.74088800  0.66685300  1
  C  C1  1  0.25820700  0.25911200  0.83314700  1
  C  C2  1  0.24179300  0.25911200  0.33314700  1
  C  C3  1  0.74179300  0.74088800  0.16685300  1
  C  C4  1  0.23093600  0.76043500  0.66597900  1
  C  C5  1  0.73093600  0.23956500  0.83402100  1
  C  C6  1  0.76906400  0.23956500  0.33402100  1
  C  C7  1  0.26906400  0.76043500  0.16597900  1
  C  C8  1  0.50000000  0.00000000  0.50000000  1
  C  C9  1  0.00000000  0.00000000  0.00000000  1
  C  C10  1  0.50000000  0.50000000  0.00000000  1
  C  C11  1  0.00000000  0.50000000  0.50000000  1
  C  C12  1  0.51384900  0.27379500  0.44570800  1
  C  C13  1  0.01384900  0.72620500  0.05429200  1
  C  C14  1  0.48615100  0.72620500  0.55429200  1
  C  C15  1  0.98615100  0.27379500  0.94570800  1
  C  C16  1  0.48100800  0.26438900  0.57558900  1
  C  C17  1  0.98100800  0.73561100  0.92441100  1
  C  C18  1  0.51899200  0.73561100  0.42441100  1
  C  C19  1  0.01899200  0.26438900  0.07558900  1
  C  C20  1  0.22059400  0.04642900  0.55355000  1
  C  C21  1  0.72059400  0.95357100  0.94645000  1
  C  C22  1  0.77940600  0.95357100  0.44645000  1
  C  C23  1  0.27940600  0.04642900  0.05355000  1
  C  C24  1  0.22135300  0.96616100  0.44148000  1
  C  C25  1  0.72135300  0.03383900  0.05852000  1
  C  C26  1  0.77864700  0.03383900  0.55852000  1
  C  C27  1  0.27864700  0.96616100  0.94148000  1
  C  C28  1  0.13509600  0.27115000  0.58947200  1
  C  C29  1  0.63509600  0.72885000  0.91052800  1
  C  C30  1  0.86490400  0.72885000  0.41052800  1
  C  C31  1  0.36490400  0.27115000  0.08947200  1
  C  C32  1  0.75436800  0.61088700  0.42003300  1
  C  C33  1  0.25436800  0.38911300  0.07996700  1
  C  C34  1  0.13644100  0.72763200  0.41929300  1
  C  C35  1  0.63644100  0.27236800  0.08070700  1
  C  C36  1  0.86355900  0.27236800  0.58070700  1
  C  C37  1  0.36355900  0.72763200  0.91929300  1
  C  C38  1  0.23645000  0.60326700  0.42021900  1
  C  C39  1  0.73645000  0.39673300  0.07978100  1
  C  C40  1  0.76355000  0.39673300  0.57978100  1
  C  C41  1  0.26355000  0.60326700  0.92021900  1
  C  C42  1  0.24563200  0.38911300  0.57996700  1
  C  C43  1  0.74563200  0.61088700  0.92003300  1
  Ni  Ni44  1  0.50683500  0.47842300  0.70916900  1
  Ni  Ni45  1  0.49499400  0.95418600  0.79565800  1
  Ni  Ni46  1  0.00500600  0.95418600  0.29565800  1
  Ni  Ni47  1  0.50500600  0.04581400  0.20434200  1
  Ni  Ni48  1  0.99316500  0.47842300  0.20916900  1
  Ni  Ni49  1  0.49316500  0.52157700  0.29083100  1
  Ni  Ni50  1  0.99499400  0.04581400  0.70434200  1
  Ni  Ni51  1  0.00683500  0.52157700  0.79083100  1
  Cu  Cu52  1  0.84645300  0.45262600  0.17800000  1
  Cu  Cu53  1  0.34645300  0.54737400  0.32200000  1
  Cu  Cu54  1  0.15354700  0.54737400  0.82200000  1
  Cu  Cu55  1  0.65354700  0.45262600  0.67800000  1
  Cu  Cu56  1  0.01107800  0.94188000  0.17188300  1
  Cu  Cu57  1  0.51107800  0.05812000  0.32811700  1
  Cu  Cu58  1  0.98892200  0.05812000  0.82811700  1
  Cu  Cu59  1  0.48892200  0.94188000  0.67188300  1
  Cu  Cu60  1  0.50573900  0.90470700  0.17966400  1
  Cu  Cu61  1  0.00573900  0.09529300  0.32033600  1
  Cu  Cu62  1  0.49426100  0.09529300  0.82033600  1
  Cu  Cu63  1  0.99426100  0.90470700  0.67966400  1
  Cu  Cu64  1  0.51164400  0.56171900  0.16677700  1
  Cu  Cu65  1  0.01164400  0.43828100  0.33322300  1
  Cu  Cu66  1  0.48835600  0.43828100  0.83322300  1
  Cu  Cu67  1  0.98835600  0.56171900  0.66677700  1
  Cu  Cu68  1  0.02532900  0.62324900  0.18247600  1
  Cu  Cu69  1  0.52532900  0.37675100  0.31752400  1
  Cu  Cu70  1  0.41042600  0.39361000  0.64663800  1
  Cu  Cu71  1  0.47467100  0.62324900  0.68247600  1
  Cu  Cu72  1  0.34125000  0.64012900  0.96337600  1
  Cu  Cu73  1  0.84125000  0.35987100  0.53662400  1
  Cu  Cu74  1  0.65875000  0.35987100  0.03662400  1
  Cu  Cu75  1  0.15875000  0.64012900  0.46337600  1
  Cu  Cu76  1  0.34205000  0.35902300  0.04618400  1
  Cu  Cu77  1  0.84204900  0.64097700  0.45381600  1
  Cu  Cu78  1  0.91042600  0.60639000  0.85336200  1
  Cu  Cu79  1  0.15795000  0.35902300  0.54618400  1
  Cu  Cu80  1  0.21892600  0.01215900  0.99470000  1
  Cu  Cu81  1  0.71892600  0.98784100  0.50530000  1
  Cu  Cu82  1  0.78107400  0.98784100  0.00530000  1
  Cu  Cu83  1  0.28107400  0.01215900  0.49470000  1
  Cu  Cu84  1  0.99021200  0.20891900  0.01454300  1
  Cu  Cu85  1  0.49021200  0.79108100  0.48545700  1
  Cu  Cu86  1  0.00978800  0.79108100  0.98545700  1
  Cu  Cu87  1  0.50978800  0.20891900  0.51454300  1
  Cu  Cu88  1  0.58957400  0.60639000  0.35336200  1
  Cu  Cu89  1  0.08957400  0.39361000  0.14663800  1
  Cu  Cu90  1  0.12530900  0.11456900  0.65804500  1
  Cu  Cu91  1  0.62530900  0.88543100  0.84195500  1
  Cu  Cu92  1  0.87469100  0.88543100  0.34195500  1
  Cu  Cu93  1  0.37469100  0.11456900  0.15804500  1
  Cu  Cu94  1  0.12943300  0.88239700  0.34966800  1
  Cu  Cu95  1  0.62943300  0.11760300  0.15033200  1
  Cu  Cu96  1  0.87056700  0.11760300  0.65033200  1
  Cu  Cu97  1  0.37056700  0.88239700  0.84966800  1
  Cu  Cu98  1  0.65795000  0.64097700  0.95381600  1
  Cu  Cu99  1  0.97467100  0.37675100  0.81752400  1
