# generated using pymatgen
data_CuNiC2
_symmetry_space_group_name_H-M   'P 1'
_cell_length_a   3.94930400
_cell_length_b   6.29178600
_cell_length_c   14.39437600
_cell_angle_alpha   90.00000000
_cell_angle_beta   90.00000000
_cell_angle_gamma   90.00000000
_symmetry_Int_Tables_number   1
_chemical_formula_structural   CuNiC2
_chemical_formula_sum   'Cu4 Ni4 C8'
_cell_volume   357.67398274
_cell_formula_units_Z   4
loop_
 _symmetry_equiv_pos_site_id
 _symmetry_equiv_pos_as_xyz
  1  'x, y, z'
loop_
 _atom_site_type_symbol
 _atom_site_label
 _atom_site_symmetry_multiplicity
 _atom_site_fract_x
 _atom_site_fract_y
 _atom_site_fract_z
 _atom_site_occupancy
  Ni  Ni0  1  0.25000000  0.74403000  0.32888300  1
  Ni  Ni1  1  0.25000000  0.24403000  0.17111700  1
  Ni  Ni2  1  0.75000000  0.25597000  0.67111700  1
  Ni  Ni3  1  0.75000000  0.75597000  0.82888300  1
  Cu  Cu4  1  0.25000000  0.23551800  0.93879300  1
  Cu  Cu5  1  0.75000000  0.76448200  0.06120700  1
  Cu  Cu6  1  0.25000000  0.73551800  0.56120700  1
  Cu  Cu7  1  0.75000000  0.26448200  0.43879300  1
  C  C8  1  0.75000000  0.12090700  0.82052800  1
  C  C9  1  0.25000000  0.87909300  0.17947200  1
  C  C10  1  0.75000000  0.62090700  0.67947200  1
  C  C11  1  0.25000000  0.37909300  0.32052800  1
  C  C12  1  0.25000000  0.64088400  0.90186100  1
  C  C13  1  0.75000000  0.85911600  0.40186100  1
  C  C14  1  0.25000000  0.14088400  0.59813900  1
  C  C15  1  0.75000000  0.35911600  0.09813900  1
