# generated using pymatgen
data_CuNi2C17
_symmetry_space_group_name_H-M   'P 1'
_cell_length_a   16.04222953
_cell_length_b   9.24552917
_cell_length_c   9.23461971
_cell_angle_alpha   90.00000000
_cell_angle_beta   124.90969328
_cell_angle_gamma   90.00000000
_symmetry_Int_Tables_number   1
_chemical_formula_structural   CuNi2C17
_chemical_formula_sum   'Cu4 Ni8 C68'
_cell_volume   1123.20371700
_cell_formula_units_Z   4
loop_
 _symmetry_equiv_pos_site_id
 _symmetry_equiv_pos_as_xyz
  1  'x, y, z'
loop_
 _atom_site_type_symbol
 _atom_site_label
 _atom_site_symmetry_multiplicity
 _atom_site_fract_x
 _atom_site_fract_y
 _atom_site_fract_z
 _atom_site_occupancy
  C  C0  1  0.24231251  0.77461372  0.99502777  1
  C  C1  1  0.74231251  0.72538628  0.49502777  1
  C  C2  1  0.74231251  0.27461372  0.99502777  1
  C  C3  1  0.24231251  0.22538628  0.49502777  1
  C  C4  1  0.50348534  0.10410600  0.75139395  1
  C  C5  1  0.50348534  0.89589400  0.25139395  1
  C  C6  1  0.00348534  0.60410600  0.75139395  1
  C  C7  1  0.00348534  0.39589400  0.25139395  1
  C  C8  1  0.80805667  0.93545104  0.20826188  1
  C  C9  1  0.80805667  0.06454896  0.70826188  1
  C  C10  1  0.30805667  0.43545104  0.20826188  1
  C  C11  1  0.30805667  0.56454896  0.70826188  1
  C  C12  1  0.10558629  0.75039530  0.56018722  1
  C  C13  1  0.89525426  0.74405006  0.93569396  1
  C  C14  1  0.89525426  0.25594994  0.43569396  1
  C  C15  1  0.10558629  0.24960470  0.06018722  1
  C  C16  1  0.60558629  0.25039530  0.56018722  1
  C  C17  1  0.39525426  0.24405006  0.93569396  1
  C  C18  1  0.39525426  0.75594994  0.43569396  1
  C  C19  1  0.60558629  0.74960470  0.06018722  1
  Ni  Ni20  1  0.35477151  0.89562591  0.75825542  1
  Ni  Ni21  1  0.64919063  0.89727439  0.74454982  1
  Ni  Ni22  1  0.64919063  0.10272561  0.24454982  1
  Ni  Ni23  1  0.35477151  0.10437409  0.25825542  1
  Ni  Ni24  1  0.85477151  0.39562591  0.75825542  1
  Ni  Ni25  1  0.14919063  0.39727439  0.74454982  1
  Ni  Ni26  1  0.14919063  0.60272561  0.24454982  1
  Ni  Ni27  1  0.85477151  0.60437409  0.25825542  1
  Cu  Cu28  1  0.00054282  0.95821438  0.74633689  1
  Cu  Cu29  1  0.00054282  0.04178562  0.24633689  1
  Cu  Cu30  1  0.50054282  0.45821438  0.74633689  1
  Cu  Cu31  1  0.50054282  0.54178562  0.24633689  1
  C  C32  1  0.15231239  0.57697371  0.74443032  1
  C  C33  1  0.85089394  0.57403681  0.75183703  1
  C  C34  1  0.85089394  0.42596319  0.25183703  1
  C  C35  1  0.15231239  0.42302629  0.24443032  1
  C  C36  1  0.65231239  0.07697371  0.74443032  1
  C  C37  1  0.35089394  0.07403681  0.75183703  1
  C  C38  1  0.35089394  0.92596319  0.25183703  1
  C  C39  1  0.65231239  0.92302629  0.24443032  1
  C  C40  1  0.43697699  0.55016499  0.57587083  1
  C  C41  1  0.55928837  0.55968473  0.90886757  1
  C  C42  1  0.55928837  0.44031527  0.40886757  1
  C  C43  1  0.43697699  0.44983501  0.07587083  1
  C  C44  1  0.93697699  0.05016499  0.57587083  1
  C  C45  1  0.05928837  0.05968473  0.90886757  1
  C  C46  1  0.05928837  0.94031527  0.40886757  1
  C  C47  1  0.93697699  0.94983501  0.07587083  1
  C  C48  1  0.25800392  0.82039097  0.74437440  1
  C  C49  1  0.74899478  0.84021111  0.75275207  1
  C  C50  1  0.74899478  0.15978889  0.25275207  1
  C  C51  1  0.25800392  0.17960903  0.24437440  1
  C  C52  1  0.75800392  0.32039097  0.74437440  1
  C  C53  1  0.24899478  0.34021111  0.75275207  1
  C  C54  1  0.24899478  0.65978889  0.25275207  1
  C  C55  1  0.75800392  0.67960903  0.24437440  1
  C  C56  1  0.35960033  0.84262985  0.59196119  1
  C  C57  1  0.65102980  0.85598234  0.92132657  1
  C  C58  1  0.65102980  0.14401766  0.42132657  1
  C  C59  1  0.35960033  0.15737015  0.09196119  1
  C  C60  1  0.85960033  0.34262985  0.59196119  1
  C  C61  1  0.15102980  0.35598234  0.92132657  1
  C  C62  1  0.15102980  0.64401766  0.42132657  1
  C  C63  1  0.85960033  0.65737015  0.09196119  1
  C  C64  1  0.46040456  0.83814680  0.93971778  1
  C  C65  1  0.54341232  0.83489942  0.56745582  1
  C  C66  1  0.54341232  0.16510058  0.06745582  1
  C  C67  1  0.46040456  0.16185320  0.43971778  1
  C  C68  1  0.96040456  0.33814680  0.93971778  1
  C  C69  1  0.04341232  0.33489942  0.56745582  1
  C  C70  1  0.04341232  0.66510058  0.06745582  1
  C  C71  1  0.96040456  0.66185320  0.43971778  1
  C  C72  1  0.07673871  0.85561250  0.74540620  1
  C  C73  1  0.92314385  0.86401091  0.75629333  1
  C  C74  1  0.92314385  0.13598909  0.25629333  1
  C  C75  1  0.07673871  0.14438750  0.24540620  1
  C  C76  1  0.57673871  0.35561250  0.74540620  1
  C  C77  1  0.42314385  0.36401091  0.75629333  1
  C  C78  1  0.42314385  0.63598909  0.25629333  1
  C  C79  1  0.57673871  0.64438750  0.24540620  1
