# generated using pymatgen
data_Cu2Ni2C13
_symmetry_space_group_name_H-M   'P 1'
_cell_length_a   5.75446402
_cell_length_b   7.34384693
_cell_length_c   7.95677700
_cell_angle_alpha   90.95687021
_cell_angle_beta   45.62338377
_cell_angle_gamma   72.37231387
_symmetry_Int_Tables_number   1
_chemical_formula_structural   Cu2Ni2C13
_chemical_formula_sum   'Cu2 Ni2 C13'
_cell_volume   215.78417303
_cell_formula_units_Z   1
loop_
 _symmetry_equiv_pos_site_id
 _symmetry_equiv_pos_as_xyz
  1  'x, y, z'
loop_
 _atom_site_type_symbol
 _atom_site_label
 _atom_site_symmetry_multiplicity
 _atom_site_fract_x
 _atom_site_fract_y
 _atom_site_fract_z
 _atom_site_occupancy
  C  C0  1  0.02166540  0.34480443  0.31708788  1
  Ni  Ni1  1  0.46011516  0.19059327  0.71042500  1
  Ni  Ni2  1  0.45872098  0.71342369  0.32994339  1
  C  C3  1  0.58248824  0.47421252  0.94691271  1
  C  C4  1  0.63538116  0.95067426  0.94445384  1
  Cu  Cu5  1  0.44381024  0.25972986  0.38967007  1
  Cu  Cu6  1  0.53336654  0.73580833  0.62566017  1
  C  C7  1  0.39817802  0.09928611  0.27933133  1
  C  C8  1  0.40931778  0.44834425  0.28553494  1
  C  C9  1  0.58184223  0.90484279  0.72057479  1
  C  C10  1  0.58873601  0.53234076  0.70260288  1
  C  C11  1  0.83959397  0.63314225  0.31795703  1
  C  C12  1  0.15794524  0.83794632  0.70087083  1
  C  C13  1  0.10879543  0.32612130  0.70192656  1
  C  C14  1  0.78939758  0.18009020  0.34220753  1
  C  C15  1  0.51831613  0.73624078  0.06586225  1
  C  C16  1  0.47096488  0.24211787  0.94265679  1
