# generated using pymatgen
data_Cu6Ni3C2
_symmetry_space_group_name_H-M   'P 1'
_cell_length_a   8.74605500
_cell_length_b   9.58473100
_cell_length_c   10.08464665
_cell_angle_alpha   63.55968119
_cell_angle_beta   90.00000000
_cell_angle_gamma   90.00000000
_symmetry_Int_Tables_number   1
_chemical_formula_structural   Cu6Ni3C2
_chemical_formula_sum   'Cu24 Ni12 C8'
_cell_volume   756.95359179
_cell_formula_units_Z   4
loop_
 _symmetry_equiv_pos_site_id
 _symmetry_equiv_pos_as_xyz
  1  'x, y, z'
loop_
 _atom_site_type_symbol
 _atom_site_label
 _atom_site_symmetry_multiplicity
 _atom_site_fract_x
 _atom_site_fract_y
 _atom_site_fract_z
 _atom_site_occupancy
  C  C0  1  0.27362900  0.42122500  0.92890700  1
  C  C1  1  0.77362900  0.07877500  0.07109300  1
  C  C2  1  0.72637100  0.57877500  0.07109300  1
  C  C3  1  0.22637100  0.92122500  0.92890700  1
  C  C4  1  0.40167300  0.33521600  0.31444100  1
  C  C5  1  0.90167300  0.16478400  0.68555900  1
  C  C6  1  0.59832700  0.66478400  0.68555900  1
  C  C7  1  0.09832700  0.83521600  0.31444100  1
  Ni  Ni8  1  0.48497400  0.48711200  0.77440100  1
  Ni  Ni9  1  0.98497400  0.01288800  0.22559900  1
  Ni  Ni10  1  0.51502600  0.51288800  0.22559900  1
  Ni  Ni11  1  0.01502600  0.98711200  0.77440100  1
  Ni  Ni12  1  0.38152200  0.29045300  0.15673300  1
  Ni  Ni13  1  0.88152200  0.20954700  0.84326700  1
  Ni  Ni14  1  0.61847800  0.70954700  0.84326700  1
  Ni  Ni15  1  0.11847800  0.79045300  0.15673300  1
  Ni  Ni16  1  0.72274200  0.40090200  0.06014400  1
  Ni  Ni17  1  0.22274200  0.09909800  0.93985600  1
  Ni  Ni18  1  0.27725800  0.59909800  0.93985600  1
  Ni  Ni19  1  0.77725800  0.90090200  0.06014400  1
  Cu  Cu20  1  0.57135400  0.20338800  0.38784600  1
  Cu  Cu21  1  0.59169400  0.64622000  0.50808700  1
  Cu  Cu22  1  0.90830600  0.14622000  0.50808700  1
  Cu  Cu23  1  0.40830600  0.35378000  0.49191300  1
  Cu  Cu24  1  0.21548800  0.65812600  0.42925700  1
  Cu  Cu25  1  0.09169400  0.85378000  0.49191300  1
  Cu  Cu26  1  0.78451200  0.34187400  0.57074300  1
  Cu  Cu27  1  0.28451200  0.15812600  0.42925700  1
  Cu  Cu28  1  0.28368000  0.94437300  0.27864000  1
  Cu  Cu29  1  0.78368000  0.55562700  0.72136000  1
  Cu  Cu30  1  0.71632000  0.05562700  0.72136000  1
  Cu  Cu31  1  0.21632000  0.44437300  0.27864000  1
  Cu  Cu32  1  0.34371400  0.99598700  0.75159600  1
  Cu  Cu33  1  0.84371400  0.50401300  0.24840400  1
  Cu  Cu34  1  0.65628600  0.00401300  0.24840400  1
  Cu  Cu35  1  0.15628600  0.49598700  0.75159600  1
  Cu  Cu36  1  0.41563000  0.84840400  0.03135700  1
  Cu  Cu37  1  0.91563000  0.65159600  0.96864300  1
  Cu  Cu38  1  0.58437000  0.15159600  0.96864300  1
  Cu  Cu39  1  0.08437000  0.34840400  0.03135700  1
  Cu  Cu40  1  0.42864600  0.79661200  0.61215400  1
  Cu  Cu41  1  0.92864600  0.70338800  0.38784600  1
  Cu  Cu42  1  0.71548800  0.84187400  0.57074300  1
  Cu  Cu43  1  0.07135400  0.29661200  0.61215400  1
