# generated using pymatgen
data_Cu5(NiC)7
_symmetry_space_group_name_H-M   'P 1'
_cell_length_a   5.18111465
_cell_length_b   7.80481127
_cell_length_c   5.72344108
_cell_angle_alpha   96.95871995
_cell_angle_beta   95.34553053
_cell_angle_gamma   86.56403908
_symmetry_Int_Tables_number   1
_chemical_formula_structural   Cu5(NiC)7
_chemical_formula_sum   'Cu5 Ni7 C7'
_cell_volume   228.46108879
_cell_formula_units_Z   1
loop_
 _symmetry_equiv_pos_site_id
 _symmetry_equiv_pos_as_xyz
  1  'x, y, z'
loop_
 _atom_site_type_symbol
 _atom_site_label
 _atom_site_symmetry_multiplicity
 _atom_site_fract_x
 _atom_site_fract_y
 _atom_site_fract_z
 _atom_site_occupancy
  C  C0  1  0.49666400  0.16226600  0.16144400  1
  C  C1  1  0.41713100  0.98978900  0.54988000  1
  C  C2  1  0.53746800  0.67744200  0.14443900  1
  C  C3  1  0.58050100  0.33624800  0.77330100  1
  C  C4  1  0.99678700  0.66442400  0.67108400  1
  C  C5  1  0.00037600  0.34554100  0.32774200  1
  C  C6  1  0.99289000  0.96760300  0.00061100  1
  Ni  Ni7  1  0.85671600  0.43735300  0.61237600  1
  Ni  Ni8  1  0.84490900  0.74923900  0.96722500  1
  Ni  Ni9  1  0.62885600  0.09420900  0.83396700  1
  Ni  Ni10  1  0.67384300  0.39876900  0.12181400  1
  Ni  Ni11  1  0.35239200  0.23929800  0.48776000  1
  Ni  Ni12  1  0.33634400  0.92977200  0.21362200  1
  Ni  Ni13  1  0.14192200  0.88949000  0.71766800  1
  Cu  Cu14  1  0.83941700  0.08000000  0.29920100  1
  Cu  Cu15  1  0.64751100  0.77091400  0.50020700  1
  Cu  Cu16  1  0.35354100  0.55680300  0.82723700  1
  Cu  Cu17  1  0.16232200  0.59305300  0.36480200  1
  Cu  Cu18  1  0.14041200  0.22611700  0.02681000  1
