# generated using pymatgen
data_Cu2NiC15
_symmetry_space_group_name_H-M   'P 1'
_cell_length_a   8.69418159
_cell_length_b   8.69418132
_cell_length_c   22.80164588
_cell_angle_alpha   90.00000000
_cell_angle_beta   90.00000000
_cell_angle_gamma   120.00000106
_symmetry_Int_Tables_number   1
_chemical_formula_structural   Cu2NiC15
_chemical_formula_sum   'Cu12 Ni6 C90'
_cell_volume   1492.63707223
_cell_formula_units_Z   6
loop_
 _symmetry_equiv_pos_site_id
 _symmetry_equiv_pos_as_xyz
  1  'x, y, z'
loop_
 _atom_site_type_symbol
 _atom_site_label
 _atom_site_symmetry_multiplicity
 _atom_site_fract_x
 _atom_site_fract_y
 _atom_site_fract_z
 _atom_site_occupancy
  C  C0  1  0.00000000  0.00000000  0.49571076  1
  C  C1  1  0.00000000  0.00000000  0.99571076  1
  C  C2  1  0.66666700  0.33333300  0.82856046  1
  C  C3  1  0.66666700  0.33333300  0.32856046  1
  C  C4  1  0.33333300  0.66666700  0.16189767  1
  C  C5  1  0.33333300  0.66666700  0.66189767  1
  C  C6  1  0.00000000  0.00000000  0.35318547  1
  C  C7  1  0.00000000  0.00000000  0.85318547  1
  C  C8  1  0.00000000  0.00000000  0.64751073  1
  C  C9  1  0.00000000  0.00000000  0.14751073  1
  C  C10  1  0.66666700  0.33333300  0.68460629  1
  C  C11  1  0.66666700  0.33333300  0.18460629  1
  C  C12  1  0.33333300  0.66666700  0.01815853  1
  C  C13  1  0.33333300  0.66666700  0.51815853  1
  C  C14  1  0.66666700  0.33333300  0.97721617  1
  C  C15  1  0.66666700  0.33333300  0.47721617  1
  C  C16  1  0.33333300  0.66666700  0.31664145  1
  C  C17  1  0.33333300  0.66666700  0.81664145  1
  Ni  Ni18  1  0.62705435  0.67446083  0.91975842  1
  Ni  Ni19  1  0.04740548  0.37294565  0.91975842  1
  Ni  Ni20  1  0.32553917  0.95259452  0.91975842  1
  Ni  Ni21  1  0.62705435  0.95259452  0.41975842  1
  Ni  Ni22  1  0.32553917  0.37294565  0.41975842  1
  Ni  Ni23  1  0.04740548  0.67446083  0.41975842  1
  Cu  Cu24  1  0.29198199  0.00272868  0.24984683  1
  Cu  Cu25  1  0.71074669  0.70801801  0.24984683  1
  Cu  Cu26  1  0.99727132  0.28925331  0.24984683  1
  Cu  Cu27  1  0.29198199  0.28925331  0.74984683  1
  Cu  Cu28  1  0.99727132  0.70801801  0.74984683  1
  Cu  Cu29  1  0.71074669  0.00272868  0.74984683  1
  Cu  Cu30  1  0.95897715  0.33420983  0.58477725  1
  Cu  Cu31  1  0.37523368  0.04102285  0.58477725  1
  Cu  Cu32  1  0.66579017  0.62476632  0.58477725  1
  Cu  Cu33  1  0.95897715  0.62476632  0.08477725  1
  Cu  Cu34  1  0.66579017  0.04102285  0.08477725  1
  Cu  Cu35  1  0.37523368  0.33420983  0.08477725  1
  C  C36  1  0.21024217  0.02384430  0.30284455  1
  C  C37  1  0.81360212  0.78975783  0.30284455  1
  C  C38  1  0.97615570  0.18639788  0.30284455  1
  C  C39  1  0.21024217  0.18639788  0.80284455  1
  C  C40  1  0.97615570  0.78975783  0.80284455  1
  C  C41  1  0.81360212  0.02384430  0.80284455  1
  C  C42  1  0.78457844  0.96962180  0.69669732  1
  C  C43  1  0.18504337  0.21542156  0.69669732  1
  C  C44  1  0.03037820  0.81495663  0.69669732  1
  C  C45  1  0.78457844  0.81495663  0.19669732  1
  C  C46  1  0.03037820  0.21542156  0.19669732  1
  C  C47  1  0.18504337  0.96962180  0.19669732  1
  C  C48  1  0.87324730  0.35682523  0.63659677  1
  C  C49  1  0.48357892  0.12675270  0.63659677  1
  C  C50  1  0.64317477  0.51642108  0.63659677  1
  C  C51  1  0.87324730  0.51642108  0.13659677  1
  C  C52  1  0.64317477  0.12675270  0.13659677  1
  C  C53  1  0.48357892  0.35682523  0.13659677  1
  C  C54  1  0.46842435  0.31314138  0.03024059  1
  C  C55  1  0.84471803  0.53157565  0.03024059  1
  C  C56  1  0.68685862  0.15528197  0.03024059  1
  C  C57  1  0.46842435  0.15528197  0.53024059  1
  C  C58  1  0.68685862  0.53157565  0.53024059  1
  C  C59  1  0.84471803  0.31314138  0.53024059  1
  C  C60  1  0.54060067  0.69475916  0.97333813  1
  C  C61  1  0.15415749  0.45939933  0.97333813  1
  C  C62  1  0.30524084  0.84584251  0.97333813  1
  C  C63  1  0.54060067  0.84584251  0.47333813  1
  C  C64  1  0.30524084  0.45939933  0.47333813  1
  C  C65  1  0.15415749  0.69475916  0.47333813  1
  C  C66  1  0.13279968  0.63611022  0.36288668  1
  C  C67  1  0.50330955  0.86720032  0.36288668  1
  C  C68  1  0.36388978  0.49669045  0.36288668  1
  C  C69  1  0.13279968  0.49669045  0.86288668  1
  C  C70  1  0.36388978  0.86720032  0.86288668  1
  C  C71  1  0.50330955  0.63611022  0.86288668  1
  C  C72  1  0.01583445  0.82557594  0.40792099  1
  C  C73  1  0.80974149  0.98416555  0.40792099  1
  C  C74  1  0.17442406  0.19025851  0.40792099  1
  C  C75  1  0.01583445  0.19025851  0.90792099  1
  C  C76  1  0.17442406  0.98416555  0.90792099  1
  C  C77  1  0.80974149  0.82557594  0.90792099  1
  C  C78  1  0.96948525  0.17007821  0.58704844  1
  C  C79  1  0.20059296  0.03051475  0.58704844  1
  C  C80  1  0.82992179  0.79940704  0.58704844  1
  C  C81  1  0.96948525  0.79940704  0.08704844  1
  C  C82  1  0.82992179  0.03051475  0.08704844  1
  C  C83  1  0.20059296  0.17007821  0.08704844  1
  C  C84  1  0.68281833  0.15639053  0.74396681  1
  C  C85  1  0.47357320  0.31718167  0.74396681  1
  C  C86  1  0.84360947  0.52642680  0.74396681  1
  C  C87  1  0.68281833  0.52642680  0.24396681  1
  C  C88  1  0.84360947  0.31718167  0.24396681  1
  C  C89  1  0.47357320  0.15639053  0.24396681  1
  C  C90  1  0.63608342  0.49559500  0.92475174  1
  C  C91  1  0.85951258  0.36391658  0.92475174  1
  C  C92  1  0.50440500  0.14048742  0.92475174  1
  C  C93  1  0.63608342  0.14048742  0.42475174  1
  C  C94  1  0.50440500  0.36391658  0.42475174  1
  C  C95  1  0.85951258  0.49559500  0.42475174  1
  C  C96  1  0.35875410  0.49305342  0.07765719  1
  C  C97  1  0.13429832  0.64124590  0.07765719  1
  C  C98  1  0.50694658  0.86570168  0.07765719  1
  C  C99  1  0.35875410  0.86570168  0.57765719  1
  C  C100  1  0.50694658  0.64124590  0.57765719  1
  C  C101  1  0.13429832  0.49305342  0.57765719  1
  C  C102  1  0.31118260  0.83601379  0.25717244  1
  C  C103  1  0.52483019  0.68881740  0.25717244  1
  C  C104  1  0.16398621  0.47516981  0.25717244  1
  C  C105  1  0.31118260  0.47516981  0.75717244  1
  C  C106  1  0.16398621  0.68881740  0.75717244  1
  C  C107  1  0.52483019  0.83601379  0.75717244  1
