# generated using pymatgen
data_Cu5(NiC)7
_symmetry_space_group_name_H-M   'P 1'
_cell_length_a   5.11589980
_cell_length_b   7.60607774
_cell_length_c   5.84774966
_cell_angle_alpha   94.61415666
_cell_angle_beta   83.67986341
_cell_angle_gamma   93.05168575
_symmetry_Int_Tables_number   1
_chemical_formula_structural   Cu5(NiC)7
_chemical_formula_sum   'Cu5 Ni7 C7'
_cell_volume   225.20497142
_cell_formula_units_Z   1
loop_
 _symmetry_equiv_pos_site_id
 _symmetry_equiv_pos_as_xyz
  1  'x, y, z'
loop_
 _atom_site_type_symbol
 _atom_site_label
 _atom_site_symmetry_multiplicity
 _atom_site_fract_x
 _atom_site_fract_y
 _atom_site_fract_z
 _atom_site_occupancy
  C  C0  1  0.02734817  0.17042490  0.65071559  1
  C  C1  1  0.52942936  0.98788353  0.54332424  1
  C  C2  1  0.52031023  0.67798223  0.18609190  1
  C  C3  1  0.51107245  0.36262901  0.80846794  1
  C  C4  1  0.97426148  0.68074393  0.66915517  1
  C  C5  1  0.87762496  0.35856650  0.28401295  1
  C  C6  1  0.01936095  0.97428388  0.06081006  1
  Ni  Ni7  1  0.84765253  0.42436007  0.63666958  1
  Ni  Ni8  1  0.80888014  0.76665431  0.99742929  1
  Ni  Ni9  1  0.85853069  0.08835457  0.35344613  1
  Ni  Ni10  1  0.68377589  0.75783991  0.49965920  1
  Ni  Ni11  1  0.61815745  0.44685055  0.09880267  1
  Ni  Ni12  1  0.39738188  0.22536315  0.54926036  1
  Ni  Ni13  1  0.16386827  0.92170821  0.72077683  1
  Cu  Cu14  1  0.70377870  0.10759153  0.85125045  1
  Cu  Cu15  1  0.27353613  0.58266882  0.82411899  1
  Cu  Cu16  1  0.35111253  0.90995299  0.21640232  1
  Cu  Cu17  1  0.17524840  0.58520456  0.33189990  1
  Cu  Cu18  1  0.15866879  0.23760636  0.99151943  1
