# generated using pymatgen
data_Cu2Ni3C5
_symmetry_space_group_name_H-M   'P 1'
_cell_length_a   7.55441500
_cell_length_b   7.63724000
_cell_length_c   17.95619300
_cell_angle_alpha   90.00000000
_cell_angle_beta   90.00000000
_cell_angle_gamma   90.00000000
_symmetry_Int_Tables_number   1
_chemical_formula_structural   Cu2Ni3C5
_chemical_formula_sum   'Cu16 Ni24 C40'
_cell_volume   1035.98040784
_cell_formula_units_Z   8
loop_
 _symmetry_equiv_pos_site_id
 _symmetry_equiv_pos_as_xyz
  1  'x, y, z'
loop_
 _atom_site_type_symbol
 _atom_site_label
 _atom_site_symmetry_multiplicity
 _atom_site_fract_x
 _atom_site_fract_y
 _atom_site_fract_z
 _atom_site_occupancy
  C  C0  1  0.71572500  0.06378000  0.03647800  1
  C  C1  1  0.21572500  0.93622000  0.46352200  1
  C  C2  1  0.78427500  0.56378000  0.96352200  1
  C  C3  1  0.28427500  0.43622000  0.53647800  1
  C  C4  1  0.28427500  0.93622000  0.96352200  1
  C  C5  1  0.78427500  0.06378000  0.53647800  1
  C  C6  1  0.21572500  0.43622000  0.03647800  1
  C  C7  1  0.71572500  0.56378000  0.46352200  1
  Ni  Ni8  1  0.94886500  0.43032000  0.27192400  1
  Ni  Ni9  1  0.44886500  0.56968000  0.22807600  1
  Ni  Ni10  1  0.55113500  0.93032000  0.72807600  1
  Ni  Ni11  1  0.05113500  0.06968000  0.77192400  1
  Ni  Ni12  1  0.05113500  0.56968000  0.72807600  1
  Ni  Ni13  1  0.55113500  0.43032000  0.77192400  1
  Ni  Ni14  1  0.44886500  0.06968000  0.27192400  1
  Ni  Ni15  1  0.94886500  0.93032000  0.22807600  1
  Ni  Ni16  1  0.74188500  0.31256600  0.19921200  1
  Ni  Ni17  1  0.24188500  0.68743400  0.30078800  1
  Ni  Ni18  1  0.75811500  0.81256600  0.80078800  1
  Ni  Ni19  1  0.25811500  0.18743400  0.69921200  1
  Ni  Ni20  1  0.25811500  0.68743400  0.80078800  1
  Ni  Ni21  1  0.75811500  0.31256600  0.69921200  1
  Ni  Ni22  1  0.24188500  0.18743400  0.19921200  1
  Ni  Ni23  1  0.74188500  0.81256600  0.30078800  1
  Ni  Ni24  1  0.62766000  0.24789000  0.34332700  1
  Ni  Ni25  1  0.12766000  0.75211000  0.15667300  1
  Ni  Ni26  1  0.87234000  0.74789000  0.65667300  1
  Ni  Ni27  1  0.37234000  0.25211000  0.84332700  1
  Ni  Ni28  1  0.37234000  0.75211000  0.65667300  1
  Ni  Ni29  1  0.87234000  0.24789000  0.84332700  1
  Ni  Ni30  1  0.12766000  0.25211000  0.34332700  1
  Ni  Ni31  1  0.62766000  0.74789000  0.15667300  1
  Cu  Cu32  1  0.85389000  0.37342400  0.16861300  1
  Cu  Cu33  1  0.35389000  0.62657600  0.33138700  1
  Cu  Cu34  1  0.64611000  0.87342400  0.83138700  1
  Cu  Cu35  1  0.14611000  0.12657600  0.66861300  1
  Cu  Cu36  1  0.14611000  0.62657600  0.83138700  1
  Cu  Cu37  1  0.64611000  0.37342400  0.66861300  1
  Cu  Cu38  1  0.35389000  0.12657600  0.16861300  1
  Cu  Cu39  1  0.85389000  0.87342400  0.33138700  1
  Cu  Cu40  1  0.52393800  0.18371400  0.37766700  1
  Cu  Cu41  1  0.02393800  0.81628600  0.12233300  1
  Cu  Cu42  1  0.97606200  0.68371400  0.62233300  1
  Cu  Cu43  1  0.47606200  0.31628600  0.87766700  1
  Cu  Cu44  1  0.47606200  0.81628600  0.62233300  1
  Cu  Cu45  1  0.97606200  0.18371400  0.87766700  1
  Cu  Cu46  1  0.02393800  0.31628600  0.37766700  1
  Cu  Cu47  1  0.52393800  0.68371400  0.12233300  1
  C  C48  1  0.85653200  0.37334600  0.09941500  1
  C  C49  1  0.35653200  0.62665400  0.40058500  1
  C  C50  1  0.64346800  0.87334600  0.90058500  1
  C  C51  1  0.14346800  0.12665400  0.59941500  1
  C  C52  1  0.14346800  0.62665400  0.90058500  1
  C  C53  1  0.64346800  0.37334600  0.59941500  1
  C  C54  1  0.35653200  0.12665400  0.09941500  1
  C  C55  1  0.85653200  0.87334600  0.40058500  1
  C  C56  1  0.97803900  0.44181200  0.20970600  1
  C  C57  1  0.47803900  0.55818800  0.29029400  1
  C  C58  1  0.52196100  0.94181200  0.79029400  1
  C  C59  1  0.02196100  0.05818800  0.70970600  1
  C  C60  1  0.02196100  0.55818800  0.79029400  1
  C  C61  1  0.52196100  0.44181200  0.70970600  1
  C  C62  1  0.47803900  0.05818800  0.20970600  1
  C  C63  1  0.97803900  0.94181200  0.29029400  1
  C  C64  1  0.51593700  0.21712600  0.44592700  1
  C  C65  1  0.01593700  0.78287400  0.05407300  1
  C  C66  1  0.98406300  0.71712600  0.55407300  1
  C  C67  1  0.48406300  0.28287400  0.94592700  1
  C  C68  1  0.48406300  0.78287400  0.55407300  1
  C  C69  1  0.98406300  0.21712600  0.94592700  1
  C  C70  1  0.01593700  0.28287400  0.44592700  1
  C  C71  1  0.51593700  0.71712600  0.05407300  1
  C  C72  1  0.91821300  0.42149300  0.34319400  1
  C  C73  1  0.41821300  0.57850700  0.15680600  1
  C  C74  1  0.58178700  0.92149300  0.65680600  1
  C  C75  1  0.08178700  0.07850700  0.84319400  1
  C  C76  1  0.08178700  0.57850700  0.65680600  1
  C  C77  1  0.58178700  0.42149300  0.84319400  1
  C  C78  1  0.41821300  0.07850700  0.34319400  1
  C  C79  1  0.91821300  0.92149300  0.15680600  1
