# generated using pymatgen
data_Cu2NiC16
_symmetry_space_group_name_H-M   'P 1'
_cell_length_a   8.96829853
_cell_length_b   8.49609219
_cell_length_c   9.15071654
_cell_angle_alpha   117.02399809
_cell_angle_beta   116.94822640
_cell_angle_gamma   86.36823174
_symmetry_Int_Tables_number   1
_chemical_formula_structural   Cu2NiC16
_chemical_formula_sum   'Cu2 Ni1 C16'
_cell_volume   544.67639366
_cell_formula_units_Z   1
loop_
 _symmetry_equiv_pos_site_id
 _symmetry_equiv_pos_as_xyz
  1  'x, y, z'
loop_
 _atom_site_type_symbol
 _atom_site_label
 _atom_site_symmetry_multiplicity
 _atom_site_fract_x
 _atom_site_fract_y
 _atom_site_fract_z
 _atom_site_occupancy
  C  C0  1  0.65357449  0.16790016  0.99342901  1
  C  C1  1  0.83368691  0.67131729  0.99051348  1
  C  C2  1  0.12857652  0.31590801  0.97235283  1
  C  C3  1  0.32986356  0.81458549  0.98269037  1
  C  C4  1  0.85246440  0.83015462  0.54728948  1
  C  C5  1  0.18324483  0.19629721  0.42744038  1
  Ni  Ni6  1  0.48979492  0.54906073  0.36930949  1
  Cu  Cu7  1  0.74123941  0.27099911  0.49855509  1
  Cu  Cu8  1  0.23780693  0.73409031  0.47842761  1
  C  C9  1  0.01311783  0.50421767  0.30495878  1
  C  C10  1  0.71371513  0.22472383  0.71280990  1
  C  C11  1  0.98887077  0.48881942  0.68564114  1
  C  C12  1  0.23234561  0.01121300  0.70818395  1
  C  C13  1  0.50575458  0.70300809  0.68290045  1
  C  C14  1  0.79957446  0.02243262  0.29245040  1
  C  C15  1  0.44969906  0.23290615  0.27154676  1
  C  C16  1  0.25079770  0.77687427  0.25990511  1
  C  C17  1  0.99043210  0.99271495  0.98358602  1
  C  C18  1  0.55075278  0.55527707  0.13801373  1
