# generated using pymatgen
data_Cu10Ni2C7
_symmetry_space_group_name_H-M   'P 1'
_cell_length_a   6.66205802
_cell_length_b   6.66205802
_cell_length_c   7.55758306
_cell_angle_alpha   96.71326663
_cell_angle_beta   83.28673337
_cell_angle_gamma   87.88986854
_symmetry_Int_Tables_number   1
_chemical_formula_structural   Cu10Ni2C7
_chemical_formula_sum   'Cu10 Ni2 C7'
_cell_volume   330.41076383
_cell_formula_units_Z   1
loop_
 _symmetry_equiv_pos_site_id
 _symmetry_equiv_pos_as_xyz
  1  'x, y, z'
loop_
 _atom_site_type_symbol
 _atom_site_label
 _atom_site_symmetry_multiplicity
 _atom_site_fract_x
 _atom_site_fract_y
 _atom_site_fract_z
 _atom_site_occupancy
  C  C0  1  0.60128631  0.27007960  0.57104788  1
  C  C1  1  0.22992040  0.89871369  0.57104788  1
  C  C2  1  0.94574291  0.55425709  0.26351242  1
  C  C3  1  0.26419386  0.23580614  0.07859344  1
  C  C4  1  0.77855407  0.72144593  0.90260827  1
  C  C5  1  0.26114142  0.73718161  0.99462276  1
  C  C6  1  0.76281839  0.23885858  0.99462276  1
  Ni  Ni7  1  0.77422960  0.72577040  0.54452394  1
  Ni  Ni8  1  0.16256938  0.33743062  0.43892999  1
  Cu  Cu9  1  0.22402637  0.56560344  0.11943340  1
  Cu  Cu10  1  0.79281136  0.03234955  0.87912877  1
  Cu  Cu11  1  0.46765045  0.70718864  0.87912877  1
  Cu  Cu12  1  0.77084025  0.72915975  0.14623521  1
  Cu  Cu13  1  0.56612490  0.25589506  0.12845972  1
  Cu  Cu14  1  0.93439656  0.27597363  0.11943340  1
  Cu  Cu15  1  0.77070368  0.40118992  0.86281116  1
  Cu  Cu16  1  0.09881008  0.72929632  0.86281116  1
  Cu  Cu17  1  0.31007508  0.18992492  0.83601838  1
  Cu  Cu18  1  0.24410494  0.93387510  0.12845972  1
