# generated using pymatgen
data_Cu2NiC10
_symmetry_space_group_name_H-M   'P 1'
_cell_length_a   5.87668050
_cell_length_b   5.87667989
_cell_length_c   10.32316700
_cell_angle_alpha   90.00000000
_cell_angle_beta   90.00000000
_cell_angle_gamma   119.99999738
_symmetry_Int_Tables_number   1
_chemical_formula_structural   Cu2NiC10
_chemical_formula_sum   'Cu2 Ni1 C10'
_cell_volume   308.75052914
_cell_formula_units_Z   1
loop_
 _symmetry_equiv_pos_site_id
 _symmetry_equiv_pos_as_xyz
  1  'x, y, z'
loop_
 _atom_site_type_symbol
 _atom_site_label
 _atom_site_symmetry_multiplicity
 _atom_site_fract_x
 _atom_site_fract_y
 _atom_site_fract_z
 _atom_site_occupancy
  C  C0  1  0.00000000  -0.00000000  0.62363923  1
  C  C1  1  0.00000000  -0.00000000  0.24143138  1
  Ni  Ni2  1  0.00000000  -0.00000000  0.97249407  1
  Cu  Cu3  1  0.66666700  0.33333300  0.80973359  1
  Cu  Cu4  1  0.33333300  0.66666700  0.17362816  1
  C  C5  1  0.17508658  0.31943490  0.12579061  1
  C  C6  1  0.79266616  0.66768138  0.86253885  1
  C  C7  1  0.33333300  0.66666700  0.34271049  1
  C  C8  1  0.87501522  0.20733384  0.86253885  1
  C  C9  1  0.66666700  0.33333300  0.63804170  1
  C  C10  1  0.68056510  0.85565168  0.12579061  1
  C  C11  1  0.33231862  0.12498478  0.86253885  1
  C  C12  1  0.14434832  0.82491342  0.12579061  1
