# generated using pymatgen
data_CuNiC9
_symmetry_space_group_name_H-M   'P 1'
_cell_length_a   6.48467481
_cell_length_b   6.48467481
_cell_length_c   6.48467481
_cell_angle_alpha   55.03090440
_cell_angle_beta   55.03090440
_cell_angle_gamma   55.03090440
_symmetry_Int_Tables_number   1
_chemical_formula_structural   CuNiC9
_chemical_formula_sum   'Cu1 Ni1 C9'
_cell_volume   170.52879568
_cell_formula_units_Z   1
loop_
 _symmetry_equiv_pos_site_id
 _symmetry_equiv_pos_as_xyz
  1  'x, y, z'
loop_
 _atom_site_type_symbol
 _atom_site_label
 _atom_site_symmetry_multiplicity
 _atom_site_fract_x
 _atom_site_fract_y
 _atom_site_fract_z
 _atom_site_occupancy
  C  C0  1  0.21476353  0.21476353  0.21476353  1
  C  C1  1  0.80939686  0.80939686  0.80939686  1
  C  C2  1  0.57169395  0.57169395  0.57169395  1
  Ni  Ni3  1  0.01310027  0.01310027  0.01310027  1
  Cu  Cu4  1  0.39990104  0.39990104  0.39990104  1
  C  C5  1  0.79344991  0.26122401  0.26122401  1
  C  C6  1  0.77914742  0.24790358  0.77914742  1
  C  C7  1  0.77914742  0.77914742  0.24790358  1
  C  C8  1  0.24790358  0.77914742  0.77914742  1
  C  C9  1  0.26122401  0.79344991  0.26122401  1
  C  C10  1  0.26122401  0.26122401  0.79344991  1
