# generated using pymatgen
data_Cu10Ni2C11
_symmetry_space_group_name_H-M   'P 1'
_cell_length_a   5.35742600
_cell_length_b   6.73464885
_cell_length_c   7.12883739
_cell_angle_alpha   114.69443079
_cell_angle_beta   91.10088871
_cell_angle_gamma   107.31194653
_symmetry_Int_Tables_number   1
_chemical_formula_structural   Cu10Ni2C11
_chemical_formula_sum   'Cu10 Ni2 C11'
_cell_volume   220.02675119
_cell_formula_units_Z   1
loop_
 _symmetry_equiv_pos_site_id
 _symmetry_equiv_pos_as_xyz
  1  'x, y, z'
loop_
 _atom_site_type_symbol
 _atom_site_label
 _atom_site_symmetry_multiplicity
 _atom_site_fract_x
 _atom_site_fract_y
 _atom_site_fract_z
 _atom_site_occupancy
  C  C0  1  0.00000000  0.00000000  0.00000000  1
  C  C1  1  0.50000000  0.50000000  0.50000000  1
  C  C2  1  0.00000000  0.50000000  0.00000000  1
  C  C3  1  0.79866600  0.79512400  0.39877600  1
  C  C4  1  0.99899700  0.33008400  0.57591500  1
  C  C5  1  0.63642100  0.25926500  0.13167600  1
  C  C6  1  0.36357900  0.74073500  0.86832400  1
  C  C7  1  0.00100300  0.66991600  0.42408500  1
  C  C8  1  0.42728600  0.91437000  0.75766500  1
  C  C9  1  0.20133400  0.20487600  0.60122400  1
  C  C10  1  0.57271400  0.08563000  0.24233500  1
  Ni  Ni11  1  0.36972000  0.69507900  0.20279900  1
  Ni  Ni12  1  0.63028000  0.30492100  0.79720100  1
  Cu  Cu13  1  0.79938800  0.33304200  0.95309300  1
  Cu  Cu14  1  0.39663800  0.15609400  0.75443000  1
  Cu  Cu15  1  0.60336200  0.84390600  0.24557000  1
  Cu  Cu16  1  0.71165600  0.42668200  0.69740200  1
  Cu  Cu17  1  0.85900800  0.72803400  0.48643600  1
  Cu  Cu18  1  0.14099200  0.27196600  0.51356400  1
  Cu  Cu19  1  0.53665500  0.22039900  0.23542100  1
  Cu  Cu20  1  0.46334500  0.77960100  0.76457900  1
  Cu  Cu21  1  0.20061200  0.66695800  0.04690700  1
  Cu  Cu22  1  0.28834400  0.57331800  0.30259800  1
