# generated using pymatgen
data_Cu2NiC15
_symmetry_space_group_name_H-M   'P 1'
_cell_length_a   8.82881518
_cell_length_b   8.82875914
_cell_length_c   23.13403600
_cell_angle_alpha   90.00313273
_cell_angle_beta   90.00000000
_cell_angle_gamma   120.00020996
_symmetry_Int_Tables_number   1
_chemical_formula_structural   Cu2NiC15
_chemical_formula_sum   'Cu12 Ni6 C90'
_cell_volume   1561.64823087
_cell_formula_units_Z   6
loop_
 _symmetry_equiv_pos_site_id
 _symmetry_equiv_pos_as_xyz
  1  'x, y, z'
loop_
 _atom_site_type_symbol
 _atom_site_label
 _atom_site_symmetry_multiplicity
 _atom_site_fract_x
 _atom_site_fract_y
 _atom_site_fract_z
 _atom_site_occupancy
  C  C0  1  0.99329418  0.99570377  0.49996349  1
  C  C1  1  0.00240960  0.99570377  0.99996349  1
  C  C2  1  0.66381856  0.32615356  0.83334209  1
  C  C3  1  0.66233600  0.32615356  0.33334209  1
  C  C4  1  0.32863852  0.66856854  0.16667921  1
  C  C5  1  0.33992903  0.66856854  0.66667921  1
  C  C6  1  0.00225244  0.00195037  0.35210032  1
  C  C7  1  0.99969793  0.00195037  0.85210032  1
  C  C8  1  0.98427229  0.99124083  0.64770613  1
  C  C9  1  0.00696854  0.99124083  0.14770613  1
  C  C10  1  0.66468380  0.33372501  0.68548695  1
  C  C11  1  0.66904220  0.33372501  0.18548695  1
  C  C12  1  0.66754613  0.33535814  0.98118452  1
  C  C13  1  0.66781301  0.33535814  0.48118452  1
  C  C14  1  0.32382777  0.67313941  0.01890220  1
  C  C15  1  0.34931065  0.67313941  0.51890220  1
  C  C16  1  0.33906227  0.68220705  0.31446011  1
  C  C17  1  0.34314378  0.68220705  0.81446011  1
  Ni  Ni18  1  0.29283745  0.00224530  0.25047727  1
  Ni  Ni19  1  0.70940785  0.00224530  0.75047727  1
  Ni  Ni20  1  0.66674924  0.62218187  0.58332735  1
  Ni  Ni21  1  0.95543363  0.62218187  0.08332735  1
  Ni  Ni22  1  0.33336030  0.96120924  0.91662200  1
  Ni  Ni23  1  0.62784794  0.96120924  0.41662200  1
  Cu  Cu24  1  0.70820153  0.70806937  0.25004705  1
  Cu  Cu25  1  0.00142217  0.29175180  0.24976919  1
  Cu  Cu26  1  0.29032963  0.29175180  0.74976919  1
  Cu  Cu27  1  0.99986784  0.70806937  0.75004705  1
  Cu  Cu28  1  0.95959900  0.33508419  0.58321136  1
  Cu  Cu29  1  0.37350741  0.04198561  0.58341174  1
  Cu  Cu30  1  0.66847920  0.04198561  0.08341174  1
  Cu  Cu31  1  0.37548619  0.33508419  0.08321136  1
  Cu  Cu32  1  0.62403536  0.66651885  0.91704945  1
  Cu  Cu33  1  0.04273601  0.37595238  0.91625166  1
  Cu  Cu34  1  0.33321537  0.37595238  0.41625166  1
  Cu  Cu35  1  0.04248249  0.66651885  0.41704945  1
  C  C36  1  0.20532699  0.02842177  0.30430869  1
  C  C37  1  0.81620676  0.78844448  0.30217554  1
  C  C38  1  0.97142101  0.18299877  0.30216112  1
  C  C39  1  0.21157777  0.18299877  0.80216112  1
  C  C40  1  0.97223772  0.78844448  0.80217554  1
  C  C41  1  0.82309478  0.02842177  0.80430869  1
  C  C42  1  0.79380756  0.97199614  0.69620552  1
  C  C43  1  0.18363545  0.21004650  0.69743600  1
  C  C44  1  0.03025705  0.81731823  0.69777172  1
  C  C45  1  0.78706118  0.81731823  0.19777172  1
  C  C46  1  0.02641105  0.21004650  0.19743600  1
  C  C47  1  0.17818858  0.97199614  0.19620552  1
  C  C48  1  0.87808304  0.36096125  0.63555258  1
  C  C49  1  0.48347897  0.12093706  0.63552364  1
  C  C50  1  0.63896234  0.50967964  0.63766025  1
  C  C51  1  0.87071830  0.50967964  0.13766025  1
  C  C52  1  0.63745909  0.12093706  0.13552364  1
  C  C53  1  0.48287921  0.36096125  0.13555258  1
  C  C54  1  0.45435615  0.30417509  0.03115144  1
  C  C55  1  0.84304221  0.53748540  0.02901970  1
  C  C56  1  0.69427473  0.14943767  0.03116279  1
  C  C57  1  0.45516393  0.14943767  0.53116279  1
  C  C58  1  0.69444419  0.53748540  0.52901970  1
  C  C59  1  0.84981994  0.30417509  0.53115144  1
  C  C60  1  0.54340890  0.69322950  0.96924906  1
  C  C61  1  0.15086284  0.45450028  0.96887597  1
  C  C62  1  0.30467126  0.84535847  0.97047094  1
  C  C63  1  0.54068621  0.84535847  0.47047094  1
  C  C64  1  0.30363644  0.45450028  0.46887597  1
  C  C65  1  0.14981960  0.69322950  0.46924906  1
  C  C66  1  0.12107470  0.63699851  0.36451037  1
  C  C67  1  0.51198751  0.87387685  0.36285461  1
  C  C68  1  0.35993056  0.48308844  0.36412462  1
  C  C69  1  0.12315688  0.48308844  0.86412462  1
  C  C70  1  0.36188835  0.87387685  0.86285461  1
  C  C71  1  0.51592281  0.63699851  0.86451037  1
  C  C72  1  0.02416717  0.82369882  0.41021839  1
  C  C73  1  0.80938892  0.97757580  0.40914213  1
  C  C74  1  0.17601110  0.19979403  0.41050076  1
  C  C75  1  0.02378293  0.19979403  0.91050076  1
  C  C76  1  0.16818688  0.97757580  0.90914213  1
  C  C77  1  0.79953165  0.82369882  0.91021839  1
  C  C78  1  0.97876137  0.17787736  0.58976070  1
  C  C79  1  0.19982342  0.02552883  0.59037301  1
  C  C80  1  0.83123725  0.80645100  0.58957991  1
  C  C81  1  0.97521375  0.80645100  0.08957991  1
  C  C82  1  0.82570541  0.02552883  0.09037301  1
  C  C83  1  0.19911599  0.17787736  0.08976070  1
  C  C84  1  0.68933813  0.16509420  0.74263428  1
  C  C85  1  0.46642947  0.30952453  0.74378850  1
  C  C86  1  0.84230289  0.53335792  0.74352833  1
  C  C87  1  0.69105603  0.53335792  0.24352833  1
  C  C88  1  0.84309606  0.30952453  0.24378850  1
  C  C89  1  0.47575707  0.16509420  0.24263428  1
  C  C90  1  0.64287133  0.50935838  0.92287848  1
  C  C91  1  0.86720081  0.35746592  0.92309547  1
  C  C92  1  0.49841972  0.14271555  0.92418057  1
  C  C93  1  0.64429683  0.14271555  0.42418057  1
  C  C94  1  0.49026611  0.35746592  0.42309547  1
  C  C95  1  0.86648805  0.50935838  0.42287848  1
  C  C96  1  0.35889197  0.49241369  0.07629289  1
  C  C97  1  0.13977850  0.64190091  0.07714535  1
  C  C98  1  0.51114427  0.86564496  0.07688017  1
  C  C99  1  0.35449970  0.86564496  0.57688017  1
  C  C100  1  0.50212141  0.64190091  0.57714535  1
  C  C101  1  0.13352072  0.49241369  0.57629289  1
  C  C102  1  0.30892437  0.83546229  0.25634059  1
  C  C103  1  0.53188219  0.68781009  0.25644503  1
  C  C104  1  0.15831173  0.46632636  0.25700877  1
  C  C105  1  0.30801364  0.46632636  0.75700877  1
  C  C106  1  0.15592691  0.68781009  0.75644503  1
  C  C107  1  0.52653692  0.83546229  0.75634059  1
