# generated using pymatgen
data_Cu12Ni3C2
_symmetry_space_group_name_H-M   'P 1'
_cell_length_a   8.87373092
_cell_length_b   8.87373062
_cell_length_c   21.48632631
_cell_angle_alpha   90.00000000
_cell_angle_beta   90.00000000
_cell_angle_gamma   120.00000111
_symmetry_Int_Tables_number   1
_chemical_formula_structural   Cu12Ni3C2
_chemical_formula_sum   'Cu72 Ni18 C12'
_cell_volume   1465.22827258
_cell_formula_units_Z   6
loop_
 _symmetry_equiv_pos_site_id
 _symmetry_equiv_pos_as_xyz
  1  'x, y, z'
loop_
 _atom_site_type_symbol
 _atom_site_label
 _atom_site_symmetry_multiplicity
 _atom_site_fract_x
 _atom_site_fract_y
 _atom_site_fract_z
 _atom_site_occupancy
  C  C0  1  -0.00000000  -0.00000000  0.37271303  1
  C  C1  1  -0.00000000  -0.00000000  0.87271303  1
  C  C2  1  0.66666700  0.33333300  0.70604603  1
  C  C3  1  0.66666700  0.33333300  0.20604603  1
  C  C4  1  0.33333300  0.66666700  0.03938003  1
  C  C5  1  0.33333300  0.66666700  0.53938003  1
  C  C6  1  -0.00000000  -0.00000000  0.64753384  1
  C  C7  1  -0.00000000  -0.00000000  0.14753384  1
  C  C8  1  0.66666700  0.33333300  0.98086684  1
  C  C9  1  0.66666700  0.33333300  0.48086684  1
  C  C10  1  0.33333300  0.66666700  0.31420084  1
  C  C11  1  0.33333300  0.66666700  0.81420084  1
  Ni  Ni12  1  0.25829813  0.95370193  0.25055050  1
  Ni  Ni13  1  0.69540380  0.74170187  0.25055050  1
  Ni  Ni14  1  0.04629807  0.30459620  0.25055050  1
  Ni  Ni15  1  0.25829813  0.30459620  0.75055050  1
  Ni  Ni16  1  0.04629807  0.74170187  0.75055050  1
  Ni  Ni17  1  0.69540380  0.95370193  0.75055050  1
  Ni  Ni18  1  0.92496513  0.28703493  0.58388350  1
  Ni  Ni19  1  0.36207080  0.07503487  0.58388350  1
  Ni  Ni20  1  0.71296507  0.63792920  0.58388350  1
  Ni  Ni21  1  0.92496513  0.63792920  0.08388350  1
  Ni  Ni22  1  0.71296507  0.07503487  0.08388350  1
  Ni  Ni23  1  0.36207080  0.28703493  0.08388350  1
  Ni  Ni24  1  0.59163113  0.62036893  0.91721750  1
  Ni  Ni25  1  0.02873680  0.40836887  0.91721750  1
  Ni  Ni26  1  0.37963107  0.97126320  0.91721750  1
  Ni  Ni27  1  0.59163113  0.97126320  0.41721750  1
  Ni  Ni28  1  0.37963107  0.40836887  0.41721750  1
  Ni  Ni29  1  0.02873680  0.62036893  0.41721750  1
  Cu  Cu30  1  0.18522125  0.98703936  0.30479145  1
  Cu  Cu31  1  0.80181811  0.81477875  0.30479145  1
  Cu  Cu32  1  0.01296064  0.19818189  0.30479145  1
  Cu  Cu33  1  0.18522125  0.19818189  0.80479145  1
  Cu  Cu34  1  0.01296064  0.81477875  0.80479145  1
  Cu  Cu35  1  0.80181811  0.98703936  0.80479145  1
  Cu  Cu36  1  0.77996902  0.92216962  0.69311099  1
  Cu  Cu37  1  0.14220060  0.22003098  0.69311099  1
  Cu  Cu38  1  0.07783038  0.85779940  0.69311099  1
  Cu  Cu39  1  0.77996902  0.85779940  0.19311099  1
  Cu  Cu40  1  0.07783038  0.22003098  0.19311099  1
  Cu  Cu41  1  0.14220060  0.92216962  0.19311099  1
  Cu  Cu42  1  0.85188825  0.32037236  0.63812445  1
  Cu  Cu43  1  0.46848511  0.14811175  0.63812445  1
  Cu  Cu44  1  0.67962764  0.53151489  0.63812445  1
  Cu  Cu45  1  0.85188825  0.53151489  0.13812445  1
  Cu  Cu46  1  0.67962764  0.14811175  0.13812445  1
  Cu  Cu47  1  0.46848511  0.32037236  0.13812445  1
  Cu  Cu48  1  0.44663602  0.25550262  0.02644399  1
  Cu  Cu49  1  0.80886760  0.55336398  0.02644399  1
  Cu  Cu50  1  0.74449738  0.19113240  0.02644399  1
  Cu  Cu51  1  0.44663602  0.19113240  0.52644399  1
  Cu  Cu52  1  0.74449738  0.55336398  0.52644399  1
  Cu  Cu53  1  0.80886760  0.25550262  0.52644399  1
  Cu  Cu54  1  0.51855425  0.65370636  0.97145845  1
  Cu  Cu55  1  0.13515111  0.48144575  0.97145845  1
  Cu  Cu56  1  0.34629364  0.86484889  0.97145845  1
  Cu  Cu57  1  0.51855425  0.86484889  0.47145845  1
  Cu  Cu58  1  0.34629364  0.48144575  0.47145845  1
  Cu  Cu59  1  0.13515111  0.65370636  0.47145845  1
  Cu  Cu60  1  0.11330202  0.58883662  0.35977799  1
  Cu  Cu61  1  0.47553360  0.88669798  0.35977799  1
  Cu  Cu62  1  0.41116338  0.52446640  0.35977799  1
  Cu  Cu63  1  0.11330202  0.52446640  0.85977799  1
  Cu  Cu64  1  0.41116338  0.88669798  0.85977799  1
  Cu  Cu65  1  0.47553360  0.58883662  0.85977799  1
  Cu  Cu66  1  0.98994051  0.75707572  0.40561063  1
  Cu  Cu67  1  0.76713521  0.01005949  0.40561063  1
  Cu  Cu68  1  0.24292428  0.23286479  0.40561063  1
  Cu  Cu69  1  0.98994051  0.23286479  0.90561063  1
  Cu  Cu70  1  0.24292428  0.01005949  0.90561063  1
  Cu  Cu71  1  0.76713521  0.75707572  0.90561063  1
  Cu  Cu72  1  0.92148529  0.11439925  0.58918747  1
  Cu  Cu73  1  0.19291396  0.07851471  0.58918747  1
  Cu  Cu74  1  0.88560075  0.80708604  0.58918747  1
  Cu  Cu75  1  0.92148529  0.80708604  0.08918747  1
  Cu  Cu76  1  0.88560075  0.07851471  0.08918747  1
  Cu  Cu77  1  0.19291396  0.11439925  0.08918747  1
  Cu  Cu78  1  0.65660751  0.09040872  0.73894363  1
  Cu  Cu79  1  0.43380221  0.34339249  0.73894363  1
  Cu  Cu80  1  0.90959128  0.56619779  0.73894363  1
  Cu  Cu81  1  0.65660751  0.56619779  0.23894363  1
  Cu  Cu82  1  0.90959128  0.34339249  0.23894363  1
  Cu  Cu83  1  0.43380221  0.09040872  0.23894363  1
  Cu  Cu84  1  0.58815229  0.44773225  0.92252047  1
  Cu  Cu85  1  0.85958096  0.41184771  0.92252047  1
  Cu  Cu86  1  0.55226775  0.14041904  0.92252047  1
  Cu  Cu87  1  0.58815229  0.14041904  0.42252047  1
  Cu  Cu88  1  0.55226775  0.41184771  0.42252047  1
  Cu  Cu89  1  0.85958096  0.44773225  0.42252047  1
  Cu  Cu90  1  0.32327351  0.42374272  0.07227763  1
  Cu  Cu91  1  0.10046821  0.67672649  0.07227763  1
  Cu  Cu92  1  0.57625728  0.89953179  0.07227763  1
  Cu  Cu93  1  0.32327351  0.89953179  0.57227763  1
  Cu  Cu94  1  0.57625728  0.67672649  0.57227763  1
  Cu  Cu95  1  0.10046821  0.42374272  0.57227763  1
  Cu  Cu96  1  0.25481829  0.78106625  0.25585447  1
  Cu  Cu97  1  0.52624696  0.74518171  0.25585447  1
  Cu  Cu98  1  0.21893375  0.47375304  0.25585447  1
  Cu  Cu99  1  0.25481829  0.47375304  0.75585447  1
  Cu  Cu100  1  0.21893375  0.74518171  0.75585447  1
  Cu  Cu101  1  0.52624696  0.78106625  0.75585447  1
