# generated using pymatgen
data_Cu12NiC24
_symmetry_space_group_name_H-M   'P 1'
_cell_length_a   9.69126910
_cell_length_b   14.61756927
_cell_length_c   3.11650200
_cell_angle_alpha   90.00000000
_cell_angle_beta   90.00000000
_cell_angle_gamma   91.44862273
_symmetry_Int_Tables_number   1
_chemical_formula_structural   Cu12NiC24
_chemical_formula_sum   'Cu12 Ni1 C24'
_cell_volume   441.35128867
_cell_formula_units_Z   1
loop_
 _symmetry_equiv_pos_site_id
 _symmetry_equiv_pos_as_xyz
  1  'x, y, z'
loop_
 _atom_site_type_symbol
 _atom_site_label
 _atom_site_symmetry_multiplicity
 _atom_site_fract_x
 _atom_site_fract_y
 _atom_site_fract_z
 _atom_site_occupancy
  Ni  Ni0  1  0.97811700  0.49824200  0.50000000  1
  Cu  Cu1  1  0.01164000  0.00059000  0.00000000  1
  Cu  Cu2  1  0.03135500  0.31493200  0.00000000  1
  Cu  Cu3  1  0.00416300  0.69127000  0.00000000  1
  Cu  Cu4  1  0.23715700  0.15571400  0.50000000  1
  Cu  Cu5  1  0.25701200  0.48353600  0.50000000  1
  Cu  Cu6  1  0.25887800  0.86767900  0.50000000  1
  Cu  Cu7  1  0.50881300  0.32522500  0.00000000  1
  Cu  Cu8  1  0.51939000  0.99960800  0.00000000  1
  Cu  Cu9  1  0.50212900  0.68179500  0.00000000  1
  Cu  Cu10  1  0.76387500  0.13664400  0.50000000  1
  Cu  Cu11  1  0.58886000  0.48796900  0.50000000  1
  Cu  Cu12  1  0.72350000  0.83950100  0.50000000  1
  C  C13  1  0.12458500  0.26775000  0.50000000  1
  C  C14  1  0.09476300  0.93377700  0.50000000  1
  C  C15  1  0.16237600  0.09978400  0.00000000  1
  C  C16  1  0.11178000  0.44459500  0.00000000  1
  C  C17  1  0.35793500  0.91133000  0.00000000  1
  C  C18  1  0.42660800  0.39766400  0.50000000  1
  C  C19  1  0.60639400  0.94376300  0.50000000  1
  C  C20  1  0.57642400  0.61366000  0.50000000  1
  C  C21  1  0.65414000  0.10587700  0.00000000  1
  C  C22  1  0.65181100  0.42842600  0.00000000  1
  C  C23  1  0.63979500  0.77608000  0.00000000  1
  C  C24  1  0.91151500  0.05688600  0.50000000  1
  C  C25  1  0.10151700  0.61059500  0.50000000  1
  C  C26  1  0.16632700  0.77840400  0.00000000  1
  C  C27  1  0.36231900  0.23011700  0.00000000  1
  C  C28  1  0.35314300  0.56440500  0.00000000  1
  C  C29  1  0.41058300  0.07443900  0.50000000  1
  C  C30  1  0.38963800  0.73663700  0.50000000  1
  C  C31  1  0.60438200  0.26555700  0.50000000  1
  C  C32  1  0.86424800  0.22355600  0.00000000  1
  C  C33  1  0.84427600  0.89284300  0.00000000  1
  C  C34  1  0.88765400  0.56094900  0.00000000  1
  C  C35  1  0.90579200  0.37340000  0.50000000  1
  C  C36  1  0.88567600  0.74068400  0.50000000  1
