# generated using pymatgen
data_Cu4Ni3C29
_symmetry_space_group_name_H-M   'P 1'
_cell_length_a   8.52090254
_cell_length_b   8.44190588
_cell_length_c   22.04162259
_cell_angle_alpha   90.84240851
_cell_angle_beta   90.76953969
_cell_angle_gamma   119.81722873
_symmetry_Int_Tables_number   1
_chemical_formula_structural   Cu4Ni3C29
_chemical_formula_sum   'Cu12 Ni9 C87'
_cell_volume   1375.07410415
_cell_formula_units_Z   3
loop_
 _symmetry_equiv_pos_site_id
 _symmetry_equiv_pos_as_xyz
  1  'x, y, z'
loop_
 _atom_site_type_symbol
 _atom_site_label
 _atom_site_symmetry_multiplicity
 _atom_site_fract_x
 _atom_site_fract_y
 _atom_site_fract_z
 _atom_site_occupancy
  C  C0  1  0.99089620  0.98992001  0.49747247  1
  C  C1  1  0.00235935  0.99393460  0.00065421  1
  C  C2  1  0.65857752  0.32463617  0.83087308  1
  C  C3  1  0.67115969  0.32757539  0.33459617  1
  C  C4  1  0.32357726  0.66369487  0.17086255  1
  C  C5  1  0.34142869  0.66514798  0.66514740  1
  Ni  Ni6  1  0.29293999  0.00766342  0.25125447  1
  Ni  Ni7  1  0.01031626  0.28473630  0.25151773  1
  Ni  Ni8  1  0.28543076  0.28879280  0.74896675  1
  Ni  Ni9  1  0.71883319  0.00803916  0.75015957  1
  Ni  Ni10  1  0.66446899  0.61897894  0.58329703  1
  Ni  Ni11  1  0.94692658  0.61983218  0.08526814  1
  Ni  Ni12  1  0.33045175  0.95674616  0.91561176  1
  Ni  Ni13  1  0.62444191  0.95578509  0.41544538  1
  Ni  Ni14  1  0.05120563  0.67250941  0.41798220  1
  Cu  Cu15  1  0.00375408  0.00456605  0.35570116  1
  Cu  Cu16  1  0.01934629  0.01543706  0.84814898  1
  Cu  Cu17  1  0.98213167  0.00106766  0.64681253  1
  Cu  Cu18  1  0.00726326  0.98965118  0.15374929  1
  Cu  Cu19  1  0.64688027  0.32770782  0.68812542  1
  Cu  Cu20  1  0.68489575  0.33446902  0.19392956  1
  Cu  Cu21  1  0.66025833  0.33324906  0.98194369  1
  Cu  Cu22  1  0.68616485  0.34947089  0.47482360  1
  Cu  Cu23  1  0.31266689  0.67344498  0.02100004  1
  Cu  Cu24  1  0.35603698  0.68321759  0.51493401  1
  Cu  Cu25  1  0.31069429  0.67913736  0.31255356  1
  Cu  Cu26  1  0.35437917  0.68481912  0.80796284  1
  C  C27  1  0.70987415  0.71248563  0.24974062  1
  C  C28  1  0.00009524  0.71189719  0.74962038  1
  C  C29  1  0.95551492  0.33628894  0.58416565  1
  C  C30  1  0.37505700  0.04422448  0.58259784  1
  C  C31  1  0.66733050  0.04323219  0.08247488  1
  C  C32  1  0.37712167  0.33621122  0.08235771  1
  C  C33  1  0.62047015  0.66790745  0.91805796  1
  C  C34  1  0.04419589  0.37944580  0.91635792  1
  C  C35  1  0.33490242  0.38160231  0.41637834  1
  C  C36  1  0.20169377  0.04110057  0.31008261  1
  C  C37  1  0.82540764  0.78675528  0.30448452  1
  C  C38  1  0.96135693  0.15615515  0.30951185  1
  C  C39  1  0.21374186  0.16830127  0.80992856  1
  C  C40  1  0.96374998  0.78785779  0.80634862  1
  C  C41  1  0.83851197  0.03607795  0.81302509  1
  C  C42  1  0.79311942  0.95548832  0.69080052  1
  C  C43  1  0.15984388  0.19542033  0.68837651  1
  C  C44  1  0.03678531  0.82441945  0.69556028  1
  C  C45  1  0.78559751  0.82193177  0.19315699  1
  C  C46  1  0.03307099  0.19542475  0.18657312  1
  C  C47  1  0.17031630  0.95360021  0.18842970  1
  C  C48  1  0.87482147  0.36497569  0.63961277  1
  C  C49  1  0.49045341  0.11860395  0.63993605  1
  C  C50  1  0.63257679  0.49642784  0.64394590  1
  C  C51  1  0.85351664  0.48852313  0.14219451  1
  C  C52  1  0.62598887  0.11799238  0.13686406  1
  C  C53  1  0.48956429  0.37027223  0.13683369  1
  C  C54  1  0.45282081  0.29640949  0.02593826  1
  C  C55  1  0.82652838  0.53101110  0.02179346  1
  C  C56  1  0.69682664  0.15377768  0.02675841  1
  C  C57  1  0.45574521  0.15496457  0.52935212  1
  C  C58  1  0.69946743  0.52526840  0.52393793  1
  C  C59  1  0.84042486  0.29430618  0.52843720  1
  C  C60  1  0.53878112  0.69734399  0.97344073  1
  C  C61  1  0.16066919  0.45576020  0.97338495  1
  C  C62  1  0.29481980  0.83494596  0.97627571  1
  C  C63  1  0.55040064  0.83645352  0.47682131  1
  C  C64  1  0.29994907  0.45732494  0.47332024  1
  C  C65  1  0.17327978  0.70122100  0.48001305  1
  C  C66  1  0.12161925  0.61775946  0.35767230  1
  C  C67  1  0.49572425  0.86115102  0.35549456  1
  C  C68  1  0.36813442  0.49059817  0.36211374  1
  C  C69  1  0.12293290  0.48931808  0.86282576  1
  C  C70  1  0.36832791  0.86218967  0.85723475  1
  C  C71  1  0.50608396  0.62706282  0.86198367  1
  C  C72  1  0.03176403  0.85240903  0.40915939  1
  C  C73  1  0.82514428  0.98168154  0.40835272  1
  C  C74  1  0.17015075  0.19894902  0.41277080  1
  C  C75  1  0.02420592  0.19381813  0.91280361  1
  C  C76  1  0.14624682  0.97309310  0.90816016  1
  C  C77  1  0.80092853  0.82991869  0.91232424  1
  C  C78  1  0.97397216  0.16755587  0.58808259  1
  C  C79  1  0.19480448  0.02809416  0.59026236  1
  C  C80  1  0.85203003  0.82083046  0.59098127  1
  C  C81  1  0.96739443  0.82415282  0.09109845  1
  C  C82  1  0.82938501  0.02565981  0.08798706  1
  C  C83  1  0.19523502  0.17502282  0.08552214  1
  C  C84  1  0.70116402  0.18988476  0.74016698  1
  C  C85  1  0.48669201  0.31397085  0.74376326  1
  C  C86  1  0.83819908  0.52917004  0.74377282  1
  C  C87  1  0.69374550  0.52844485  0.24214724  1
  C  C88  1  0.83145010  0.30990038  0.24483187  1
  C  C89  1  0.48956060  0.19012782  0.23826392  1
  C  C90  1  0.63779414  0.49934286  0.92270226  1
  C  C91  1  0.86221389  0.36185389  0.92357802  1
  C  C92  1  0.51499627  0.15931811  0.92644221  1
  C  C93  1  0.63175708  0.15248618  0.42746079  1
  C  C94  1  0.49621386  0.35827503  0.42361799  1
  C  C95  1  0.84956942  0.49350764  0.42276821  1
  C  C96  1  0.36610204  0.50781672  0.07359023  1
  C  C97  1  0.14867288  0.63731123  0.07740881  1
  C  C98  1  0.50250502  0.85508587  0.07506047  1
  C  C99  1  0.35670129  0.85914240  0.57906324  1
  C  C100  1  0.48119413  0.63830403  0.57568876  1
  C  C101  1  0.13614252  0.49765336  0.57873188  1
  C  C102  1  0.31727411  0.82898776  0.25426958  1
  C  C103  1  0.53075621  0.69141187  0.25452920  1
  C  C104  1  0.19314421  0.48474672  0.25769109  1
  C  C105  1  0.29776771  0.48692497  0.76074559  1
  C  C106  1  0.16295820  0.69203741  0.75727679  1
  C  C107  1  0.51746404  0.82938997  0.75591564  1
