# generated using pymatgen
data_CuNiC9
_symmetry_space_group_name_H-M   'P 1'
_cell_length_a   3.90941076
_cell_length_b   3.90941076
_cell_length_c   10.98592422
_cell_angle_alpha   92.96908509
_cell_angle_beta   92.96908509
_cell_angle_gamma   88.69528487
_symmetry_Int_Tables_number   1
_chemical_formula_structural   CuNiC9
_chemical_formula_sum   'Cu1 Ni1 C9'
_cell_volume   167.41884858
_cell_formula_units_Z   1
loop_
 _symmetry_equiv_pos_site_id
 _symmetry_equiv_pos_as_xyz
  1  'x, y, z'
loop_
 _atom_site_type_symbol
 _atom_site_label
 _atom_site_symmetry_multiplicity
 _atom_site_fract_x
 _atom_site_fract_y
 _atom_site_fract_z
 _atom_site_occupancy
  Ni  Ni0  1  0.05992522  0.05992522  0.75745837  1
  C  C1  1  0.45564502  0.45564502  0.26822671  1
  Cu  Cu2  1  0.53850169  0.53850169  0.66746751  1
  C  C3  1  0.91835227  0.91835227  0.45490573  1
  C  C4  1  0.08118464  0.08118464  0.04891941  1
  C  C5  1  0.04725074  0.55359144  0.70700395  1
  C  C6  1  0.55359144  0.04725074  0.70700395  1
  C  C7  1  0.99468966  0.52431336  0.30162978  1
  C  C8  1  0.52431336  0.99468966  0.30162978  1
  C  C9  1  0.53482926  0.53482926  0.47073132  1
  C  C10  1  0.48828969  0.48828969  0.09102348  1
