# generated using pymatgen
data_CuNi3C16
_symmetry_space_group_name_H-M   'P 1'
_cell_length_a   9.21492745
_cell_length_b   9.23158931
_cell_length_c   22.47440138
_cell_angle_alpha   90.00000000
_cell_angle_beta   89.94021485
_cell_angle_gamma   120.05983316
_symmetry_Int_Tables_number   1
_chemical_formula_structural   CuNi3C16
_chemical_formula_sum   'Cu6 Ni18 C96'
_cell_volume   1654.72064127
_cell_formula_units_Z   6
loop_
 _symmetry_equiv_pos_site_id
 _symmetry_equiv_pos_as_xyz
  1  'x, y, z'
loop_
 _atom_site_type_symbol
 _atom_site_label
 _atom_site_symmetry_multiplicity
 _atom_site_fract_x
 _atom_site_fract_y
 _atom_site_fract_z
 _atom_site_occupancy
  Ni  Ni0  1  0.98123705  0.96464929  0.49702260  1
  Ni  Ni1  1  0.98123705  0.01658775  0.99702260  1
  Ni  Ni2  1  0.66728394  0.33707320  0.83054085  1
  Ni  Ni3  1  0.66728394  0.33020974  0.33054085  1
  Ni  Ni4  1  0.33034908  0.66461050  0.16383930  1
  Ni  Ni5  1  0.33034908  0.66573958  0.66383930  1
  Ni  Ni6  1  0.36791695  0.35559083  0.24607519  1
  Ni  Ni7  1  0.98815101  0.64114209  0.24686748  1
  Ni  Ni8  1  0.98815101  0.34700891  0.74686748  1
  Ni  Ni9  1  0.36791695  0.01232612  0.74607519  1
  Ni  Ni10  1  0.31711253  0.34384430  0.57977097  1
  Ni  Ni11  1  0.65604194  0.96655453  0.57981775  1
  Ni  Ni12  1  0.31711253  0.97326723  0.07977097  1
  Ni  Ni13  1  0.65604194  0.68948642  0.07981775  1
  Ni  Ni14  1  0.98569146  0.68057437  0.91261339  1
  Ni  Ni15  1  0.32069460  0.29758260  0.91297130  1
  Ni  Ni16  1  0.98569146  0.30511809  0.41261339  1
  Ni  Ni17  1  0.32069460  0.02311300  0.41297130  1
  Cu  Cu18  1  0.98799095  0.99495977  0.35185202  1
  Cu  Cu19  1  0.98799095  0.99303118  0.85185202  1
  Cu  Cu20  1  0.67223598  0.34617149  0.68545299  1
  Cu  Cu21  1  0.67223598  0.32606349  0.18545299  1
  Cu  Cu22  1  0.32902757  0.66204814  0.01886631  1
  Cu  Cu23  1  0.32902757  0.66698043  0.51886631  1
  C  C24  1  0.99534822  0.99232490  0.65076425  1
  C  C25  1  0.99534822  0.00302332  0.15076425  1
  C  C26  1  0.67062961  0.32755675  0.98388310  1
  C  C27  1  0.67062961  0.34307186  0.48388310  1
  C  C28  1  0.34109551  0.67236030  0.31735259  1
  C  C29  1  0.34109551  0.66873621  0.81735259  1
  C  C30  1  0.28996443  0.98736987  0.25254355  1
  C  C31  1  0.69283988  0.70577917  0.24765614  1
  C  C32  1  0.01727278  0.31073369  0.25462166  1
  C  C33  1  0.28996443  0.30259456  0.75254355  1
  C  C34  1  0.01727278  0.70653908  0.75462166  1
  C  C35  1  0.69283988  0.98706071  0.74765614  1
  C  C36  1  0.96104505  0.31752108  0.58591417  1
  C  C37  1  0.36277015  0.04390096  0.58636201  1
  C  C38  1  0.67895684  0.63913626  0.58302282  1
  C  C39  1  0.96104505  0.64352297  0.08591417  1
  C  C40  1  0.67895684  0.03981957  0.08302282  1
  C  C41  1  0.36277015  0.31886819  0.08636201  1
  C  C42  1  0.62664400  0.65008472  0.92169905  1
  C  C43  1  0.02975207  0.37594137  0.91501505  1
  C  C44  1  0.34802232  0.97418425  0.91782373  1
  C  C45  1  0.62664400  0.97656028  0.42169905  1
  C  C46  1  0.34802232  0.37383907  0.41782373  1
  C  C47  1  0.02975207  0.65381170  0.41501505  1
  C  C48  1  0.20912932  0.00305847  0.30896831  1
  C  C49  1  0.80819542  0.79141320  0.29971613  1
  C  C50  1  0.00184476  0.22261421  0.31292864  1
  C  C51  1  0.20912932  0.20607085  0.80896831  1
  C  C52  1  0.00184476  0.77923055  0.81292864  1
  C  C53  1  0.80819542  0.01678222  0.79971613  1
  C  C54  1  0.77178575  0.96470476  0.68789592  1
  C  C55  1  0.17259866  0.21583236  0.69571965  1
  C  C56  1  0.04051191  0.82702534  0.70026602  1
  C  C57  1  0.77178575  0.80708098  0.18789592  1
  C  C58  1  0.04051191  0.21348657  0.20026602  1
  C  C59  1  0.17259866  0.95676630  0.19571965  1
  C  C60  1  0.88208033  0.33181355  0.64282781  1
  C  C61  1  0.45966754  0.12477086  0.64259930  1
  C  C62  1  0.64913827  0.53101047  0.63677626  1
  C  C63  1  0.88208033  0.55026578  0.14282781  1
  C  C64  1  0.64913827  0.11812680  0.13677626  1
  C  C65  1  0.45966754  0.33489568  0.14259930  1
  C  C66  1  0.44936364  0.28809930  0.02954786  1
  C  C67  1  0.84834376  0.55057912  0.02890971  1
  C  C68  1  0.70338525  0.14608649  0.02488040  1
  C  C69  1  0.44936364  0.16126334  0.52954786  1
  C  C70  1  0.70338525  0.55729776  0.52488040  1
  C  C71  1  0.84834376  0.29776363  0.52890971  1
  C  C72  1  0.55274396  0.66605551  0.97997560  1
  C  C73  1  0.13813337  0.46395354  0.96778195  1
  C  C74  1  0.32699408  0.87473753  0.97428200  1
  C  C75  1  0.55274396  0.88668944  0.47997560  1
  C  C76  1  0.32699408  0.45225755  0.47428200  1
  C  C77  1  0.13813337  0.67418083  0.46778195  1
  C  C78  1  0.11047331  0.62559981  0.35608305  1
  C  C79  1  0.50547956  0.88281407  0.36707807  1
  C  C80  1  0.36625961  0.48150257  0.36030521  1
  C  C81  1  0.11047331  0.48487449  0.85608305  1
  C  C82  1  0.36625961  0.88475804  0.86030521  1
  C  C83  1  0.50547956  0.62266649  0.86707807  1
  C  C84  1  0.00648511  0.80608161  0.41110731  1
  C  C85  1  0.80579796  0.01254371  0.41456881  1
  C  C86  1  0.19594087  0.19574360  0.41250476  1
  C  C87  1  0.00648511  0.20040350  0.91110731  1
  C  C88  1  0.19594087  0.00019728  0.91250476  1
  C  C89  1  0.80579796  0.79325425  0.91456881  1
  C  C90  1  0.96253471  0.14537471  0.58503878  1
  C  C91  1  0.18680238  0.03667118  0.58756891  1
  C  C92  1  0.84446197  0.81542793  0.58638146  1
  C  C93  1  0.96253471  0.81716001  0.08503878  1
  C  C94  1  0.84446197  0.02903404  0.08638146  1
  C  C95  1  0.18680238  0.15013120  0.08756891  1
  C  C96  1  0.66196680  0.13579084  0.74409941  1
  C  C97  1  0.46242190  0.31921075  0.74638839  1
  C  C98  1  0.87485606  0.52620433  0.74784224  1
  C  C99  1  0.66196680  0.52617497  0.24409941  1
  C  C100  1  0.87485606  0.34865073  0.24784224  1
  C  C101  1  0.46242190  0.14321015  0.24638839  1
  C  C102  1  0.62963774  0.47865543  0.92096111  1
  C  C103  1  0.85687408  0.37462836  0.91857418  1
  C  C104  1  0.51085183  0.15288361  0.91883514  1
  C  C105  1  0.62963774  0.15098131  0.42096111  1
  C  C106  1  0.51085183  0.35796723  0.41883514  1
  C  C107  1  0.85687408  0.48224472  0.41857418  1
  C  C108  1  0.34487266  0.47363559  0.07996173  1
  C  C109  1  0.14260074  0.68249215  0.08073434  1
  C  C110  1  0.52962680  0.86031302  0.07781491  1
  C  C111  1  0.34487266  0.87123807  0.57996173  1
  C  C112  1  0.52962680  0.66931478  0.57781491  1
  C  C113  1  0.14260074  0.46010959  0.58073434  1
  C  C114  1  0.29755438  0.81909560  0.25331529  1
  C  C115  1  0.51703380  0.69501650  0.25293881  1
  C  C116  1  0.19017778  0.48413840  0.25247426  1
  C  C117  1  0.29755438  0.47845978  0.75331529  1
  C  C118  1  0.19017778  0.70604038  0.75247426  1
  C  C119  1  0.51703380  0.82201830  0.75293881  1
