# generated using pymatgen
data_Cu7Ni17C13
_symmetry_space_group_name_H-M   'P 1'
_cell_length_a   4.77804695
_cell_length_b   5.72762320
_cell_length_c   15.05801378
_cell_angle_alpha   91.06868023
_cell_angle_beta   87.04220727
_cell_angle_gamma   90.16432361
_symmetry_Int_Tables_number   1
_chemical_formula_structural   Cu7Ni17C13
_chemical_formula_sum   'Cu7 Ni17 C13'
_cell_volume   411.46912942
_cell_formula_units_Z   1
loop_
 _symmetry_equiv_pos_site_id
 _symmetry_equiv_pos_as_xyz
  1  'x, y, z'
loop_
 _atom_site_type_symbol
 _atom_site_label
 _atom_site_symmetry_multiplicity
 _atom_site_fract_x
 _atom_site_fract_y
 _atom_site_fract_z
 _atom_site_occupancy
  C  C0  1  0.49132100  0.08092400  0.41299200  1
  C  C1  1  0.01143100  0.35269500  0.41082300  1
  C  C2  1  0.01406600  0.84296500  0.24598500  1
  C  C3  1  0.99990400  0.17140700  0.07687700  1
  C  C4  1  0.04374200  0.16667500  0.74654600  1
  C  C5  1  0.05057700  0.81136100  0.58413500  1
  C  C6  1  0.00040300  0.84145800  0.90775400  1
  C  C7  1  0.49613600  0.35111800  0.91974300  1
  C  C8  1  0.52796700  0.33861200  0.59693900  1
  C  C9  1  0.45413700  0.37612700  0.24682300  1
  C  C10  1  0.47776600  0.65128000  0.08949200  1
  C  C11  1  0.50769400  0.60426800  0.42354100  1
  C  C12  1  0.50809300  0.63523700  0.75727400  1
  Ni  Ni13  1  0.20945700  0.14330200  0.31754600  1
  Ni  Ni14  1  0.25002100  0.11267900  0.63796200  1
  Ni  Ni15  1  0.19960800  0.12023900  0.96445700  1
  Ni  Ni16  1  0.21901400  0.91058400  0.13270700  1
  Ni  Ni17  1  0.29538900  0.83336600  0.47669200  1
  Ni  Ni18  1  0.23936900  0.88099900  0.80095600  1
  Ni  Ni19  1  0.32264800  0.35732300  0.48348300  1
  Ni  Ni20  1  0.23971300  0.42438400  0.14778600  1
  Ni  Ni21  1  0.24862600  0.59908400  0.32381800  1
  Ni  Ni22  1  0.32526100  0.59600000  0.64639700  1
  Ni  Ni23  1  0.28797300  0.39887500  0.81313800  1
  Ni  Ni24  1  0.69535100  0.38898600  0.02909700  1
  Ni  Ni25  1  0.67799400  0.62869600  0.19388100  1
  Ni  Ni26  1  0.68263900  0.35560500  0.35025100  1
  Ni  Ni27  1  0.79591400  0.55723400  0.50546900  1
  Ni  Ni28  1  0.71998500  0.62085000  0.86214400  1
  Ni  Ni29  1  0.75398300  0.38479100  0.69443000  1
  Cu  Cu30  1  0.24567400  0.62489400  0.98548300  1
  Cu  Cu31  1  0.73777100  0.14171000  0.19082100  1
  Cu  Cu32  1  0.76897200  0.09724200  0.51731600  1
  Cu  Cu33  1  0.73763600  0.84279000  0.35993900  1
  Cu  Cu34  1  0.74119200  0.87426800  0.02363400  1
  Cu  Cu35  1  0.77560100  0.12289500  0.84912100  1
  Cu  Cu36  1  0.77475400  0.86622100  0.69121500  1
