# generated using pymatgen
data_Cu2NiC16
_symmetry_space_group_name_H-M   'P 1'
_cell_length_a   5.12189602
_cell_length_b   5.12189602
_cell_length_c   9.32274004
_cell_angle_alpha   90.00000000
_cell_angle_beta   90.00000000
_cell_angle_gamma   90.26128212
_symmetry_Int_Tables_number   1
_chemical_formula_structural   Cu2NiC16
_chemical_formula_sum   'Cu2 Ni1 C16'
_cell_volume   244.56853069
_cell_formula_units_Z   1
loop_
 _symmetry_equiv_pos_site_id
 _symmetry_equiv_pos_as_xyz
  1  'x, y, z'
loop_
 _atom_site_type_symbol
 _atom_site_label
 _atom_site_symmetry_multiplicity
 _atom_site_fract_x
 _atom_site_fract_y
 _atom_site_fract_z
 _atom_site_occupancy
  Ni  Ni0  1  0.00000000  0.50000000  0.09669183  1
  Cu  Cu1  1  0.00000000  0.00000000  0.95218324  1
  Cu  Cu2  1  0.50000000  0.50000000  0.95218324  1
  C  C3  1  0.00000000  0.50000000  0.73483143  1
  C  C4  1  0.50000000  0.00000000  0.23653603  1
  C  C5  1  0.50000000  0.00000000  0.61602139  1
  C  C6  1  0.00000000  0.50000000  0.40479026  1
  C  C7  1  0.24910329  0.74910329  0.56788653  1
  C  C8  1  0.24956032  0.25043968  0.45305977  1
  C  C9  1  0.75089671  0.25089671  0.56788653  1
  C  C10  1  0.75043968  0.74956032  0.45305977  1
  C  C11  1  0.29658496  0.20341504  0.76579665  1
  C  C12  1  0.19385831  0.69385831  0.24739850  1
  C  C13  1  0.70341504  0.79658496  0.76579665  1
  C  C14  1  0.80614169  0.30614169  0.24739850  1
  C  C15  1  0.83038217  0.33038217  0.90507898  1
  C  C16  1  0.69575423  0.80424577  0.08916138  1
  C  C17  1  0.16961783  0.66961783  0.90507898  1
  C  C18  1  0.30424577  0.19575423  0.08916138  1
