# generated using pymatgen
data_Cu4NiC14
_symmetry_space_group_name_H-M   'P 1'
_cell_length_a   5.80941945
_cell_length_b   7.43612217
_cell_length_c   7.24566743
_cell_angle_alpha   86.30378382
_cell_angle_beta   78.04470993
_cell_angle_gamma   73.13947178
_symmetry_Int_Tables_number   1
_chemical_formula_structural   Cu4NiC14
_chemical_formula_sum   'Cu4 Ni1 C14'
_cell_volume   293.05375869
_cell_formula_units_Z   1
loop_
 _symmetry_equiv_pos_site_id
 _symmetry_equiv_pos_as_xyz
  1  'x, y, z'
loop_
 _atom_site_type_symbol
 _atom_site_label
 _atom_site_symmetry_multiplicity
 _atom_site_fract_x
 _atom_site_fract_y
 _atom_site_fract_z
 _atom_site_occupancy
  Ni  Ni0  1  0.05765600  0.00395700  0.34762700  1
  Cu  Cu1  1  0.73970400  0.39429600  0.20837000  1
  Cu  Cu2  1  0.75184400  0.75678300  0.63594700  1
  Cu  Cu3  1  0.26847400  0.60745400  0.79796000  1
  Cu  Cu4  1  0.24733700  0.28217700  0.35278100  1
  C  C5  1  0.74047700  0.85310500  0.10361700  1
  C  C6  1  0.23375800  0.13131500  0.86481300  1
  C  C7  1  0.47145800  0.38628200  0.38119500  1
  C  C8  1  0.03145800  0.59808200  0.67467000  1
  C  C9  1  0.51042100  0.65959900  0.62427700  1
  C  C10  1  0.96764200  0.44740000  0.31572900  1
  C  C11  1  0.16133500  0.13496400  0.54190200  1
  C  C12  1  0.34734600  0.38301200  0.89650600  1
  C  C13  1  0.82308800  0.86611800  0.41849300  1
  C  C14  1  0.67205500  0.58034100  0.05252000  1
  C  C15  1  0.87457700  0.15705400  0.13296100  1
  C  C16  1  0.63333700  0.93787200  0.81376800  1
  C  C17  1  0.14069600  0.80239800  0.95568100  1
  C  C18  1  0.33775400  0.09186600  0.17748000  1
