# generated using pymatgen
data_Cu2NiC16
_symmetry_space_group_name_H-M   'P 1'
_cell_length_a   5.24246564
_cell_length_b   5.24174459
_cell_length_c   9.44495429
_cell_angle_alpha   91.63211710
_cell_angle_beta   91.63415776
_cell_angle_gamma   78.50452052
_symmetry_Int_Tables_number   1
_chemical_formula_structural   Cu2NiC16
_chemical_formula_sum   'Cu2 Ni1 C16'
_cell_volume   254.16553169
_cell_formula_units_Z   1
loop_
 _symmetry_equiv_pos_site_id
 _symmetry_equiv_pos_as_xyz
  1  'x, y, z'
loop_
 _atom_site_type_symbol
 _atom_site_label
 _atom_site_symmetry_multiplicity
 _atom_site_fract_x
 _atom_site_fract_y
 _atom_site_fract_z
 _atom_site_occupancy
  Ni  Ni0  1  0.78469223  0.78416992  0.50274618  1
  Cu  Cu1  1  0.93433537  0.93360192  0.99268379  1
  Cu  Cu2  1  0.46029363  0.45961407  0.50631360  1
  C  C3  1  0.50876356  0.50802474  0.83322557  1
  C  C4  1  0.08345958  0.08259428  0.30325948  1
  C  C5  1  0.51387069  0.51309497  0.15980628  1
  C  C6  1  0.06532193  0.06458116  0.68338524  1
  C  C7  1  0.64486287  0.64437189  0.66913449  1
  C  C8  1  0.30465595  0.30377681  0.68069580  1
  C  C9  1  0.64672961  0.64626590  0.33751977  1
  C  C10  1  0.20888601  0.81586252  0.14849977  1
  C  C11  1  0.81681890  0.20826560  0.14851053  1
  C  C12  1  0.81094755  0.19258774  0.83530409  1
  C  C13  1  0.35551928  0.35454579  0.99075401  1
  C  C14  1  0.16365650  0.78229207  0.53610517  1
  C  C15  1  0.78312239  0.16314519  0.53608720  1
  C  C16  1  0.68117968  0.68057756  0.99721034  1
  C  C17  1  0.33134380  0.33030310  0.30345209  1
  C  C18  1  0.19320847  0.81010277  0.83530662  1
