# generated using pymatgen
data_CuNiC9
_symmetry_space_group_name_H-M   'P 1'
_cell_length_a   5.40203956
_cell_length_b   5.40204745
_cell_length_c   4.91989982
_cell_angle_alpha   83.95564238
_cell_angle_beta   96.04414851
_cell_angle_gamma   79.90361646
_symmetry_Int_Tables_number   1
_chemical_formula_structural   CuNiC9
_chemical_formula_sum   'Cu1 Ni1 C9'
_cell_volume   139.43626692
_cell_formula_units_Z   1
loop_
 _symmetry_equiv_pos_site_id
 _symmetry_equiv_pos_as_xyz
  1  'x, y, z'
loop_
 _atom_site_type_symbol
 _atom_site_label
 _atom_site_symmetry_multiplicity
 _atom_site_fract_x
 _atom_site_fract_y
 _atom_site_fract_z
 _atom_site_occupancy
  Ni  Ni0  1  0.52806900  0.52806900  0.00000000  1
  Cu  Cu1  1  0.11187400  0.11187900  0.00000200  1
  C  C2  1  0.66722000  0.24603300  0.43806300  1
  C  C3  1  0.24603200  0.66722100  0.56193800  1
  C  C4  1  0.78115000  0.09596300  0.70953300  1
  C  C5  1  0.33069000  0.84636900  0.76824800  1
  C  C6  1  0.17465600  0.44915500  0.74235900  1
  C  C7  1  0.09596200  0.78114900  0.29046600  1
  C  C8  1  0.54070900  0.54070800  0.49999900  1
  C  C9  1  0.44915600  0.17465300  0.25764000  1
  C  C10  1  0.84636900  0.33068800  0.23175200  1
