# generated using pymatgen
data_Cu8Ni2C3
_symmetry_space_group_name_H-M   'P 1'
_cell_length_a   5.26445894
_cell_length_b   5.25256802
_cell_length_c   7.56008161
_cell_angle_alpha   83.18764588
_cell_angle_beta   83.11997328
_cell_angle_gamma   64.26157789
_symmetry_Int_Tables_number   1
_chemical_formula_structural   Cu8Ni2C3
_chemical_formula_sum   'Cu8 Ni2 C3'
_cell_volume   186.43497327
_cell_formula_units_Z   1
loop_
 _symmetry_equiv_pos_site_id
 _symmetry_equiv_pos_as_xyz
  1  'x, y, z'
loop_
 _atom_site_type_symbol
 _atom_site_label
 _atom_site_symmetry_multiplicity
 _atom_site_fract_x
 _atom_site_fract_y
 _atom_site_fract_z
 _atom_site_occupancy
  C  C0  1  0.95721700  0.95643100  0.52880700  1
  C  C1  1  0.32549900  0.32229200  0.32421400  1
  C  C2  1  0.99839900  0.99841600  0.99649800  1
  Ni  Ni3  1  0.62877700  0.63040600  0.20917200  1
  Ni  Ni4  1  0.37707500  0.37626200  0.78839300  1
  Cu  Cu5  1  0.25035100  0.68653100  0.81219200  1
  Cu  Cu6  1  0.30758500  0.73101900  0.20465200  1
  Cu  Cu7  1  0.73111200  0.30786400  0.20617400  1
  Cu  Cu8  1  0.68637400  0.25034200  0.81286500  1
  Cu  Cu9  1  0.23654500  0.23589200  0.91755600  1
  Cu  Cu10  1  0.74819100  0.74804900  0.05396800  1
  Cu  Cu11  1  0.34338200  0.34070700  0.59859800  1
  Cu  Cu12  1  0.68727300  0.69356900  0.38024500  1
