# generated using pymatgen
data_Cu3Ni3C31
_symmetry_space_group_name_H-M   'P 1'
_cell_length_a   18.04727991
_cell_length_b   8.99648979
_cell_length_c   23.43064391
_cell_angle_alpha   89.98901830
_cell_angle_beta   90.01380157
_cell_angle_gamma   119.89213186
_symmetry_Int_Tables_number   1
_chemical_formula_structural   Cu3Ni3C31
_chemical_formula_sum   'Cu18 Ni18 C186'
_cell_volume   3298.15238979
_cell_formula_units_Z   6
loop_
 _symmetry_equiv_pos_site_id
 _symmetry_equiv_pos_as_xyz
  1  'x, y, z'
loop_
 _atom_site_type_symbol
 _atom_site_label
 _atom_site_symmetry_multiplicity
 _atom_site_fract_x
 _atom_site_fract_y
 _atom_site_fract_z
 _atom_site_occupancy
  C  C0  1  0.68665674  0.38124085  0.25227434  1
  C  C1  1  0.99584119  0.64912489  0.25286232  1
  C  C2  1  0.99639779  0.35351313  0.75338677  1
  C  C3  1  0.49256753  0.35822656  0.74916476  1
  C  C4  1  0.19369674  0.01795410  0.75381995  1
  C  C5  1  0.68525980  0.00976103  0.75051364  1
  C  C6  1  0.99774067  0.99818739  0.49095429  1
  C  C7  1  0.50682307  0.00189017  0.49814198  1
  C  C8  1  0.01097067  0.01622752  0.99836412  1
  C  C9  1  0.50284850  0.98869308  0.99755033  1
  C  C10  1  0.33062079  0.33255477  0.82543070  1
  C  C11  1  0.82763787  0.32407651  0.82872368  1
  C  C12  1  0.33359781  0.33126426  0.32932522  1
  C  C13  1  0.83367551  0.33604128  0.33660060  1
  C  C14  1  0.17158200  0.66669809  0.16515583  1
  C  C15  1  0.66302888  0.66342239  0.17239144  1
  C  C16  1  0.17722727  0.66734297  0.67047655  1
  C  C17  1  0.66982667  0.66395377  0.66794334  1
  C  C18  1  0.33347890  0.34007078  0.68670731  1
  C  C19  1  0.82933438  0.33336712  0.68446625  1
  C  C20  1  0.83345917  0.33222536  0.18472405  1
  C  C21  1  0.00174069  0.98915076  0.35733139  1
  C  C22  1  0.50228975  0.01035404  0.35637573  1
  C  C23  1  0.00671231  0.01865571  0.85721936  1
  C  C24  1  0.50354667  0.99932786  0.85044464  1
  C  C25  1  0.99719651  0.00562323  0.64969160  1
  C  C26  1  0.50011318  0.00202376  0.65380390  1
  C  C27  1  0.00547628  0.99647542  0.15043629  1
  C  C28  1  0.49925668  0.00084366  0.14675928  1
  C  C29  1  0.33402717  0.33787636  0.18643876  1
  C  C30  1  0.32545895  0.33196931  0.98353761  1
  C  C31  1  0.83302449  0.32451085  0.97566364  1
  C  C32  1  0.33512951  0.34603704  0.47709530  1
  C  C33  1  0.83121478  0.33041065  0.47364416  1
  C  C34  1  0.16157980  0.65630351  0.01695777  1
  C  C35  1  0.65814795  0.67140447  0.01927536  1
  C  C36  1  0.16180086  0.65670228  0.51500237  1
  C  C37  1  0.66645210  0.67009377  0.51128780  1
  C  C38  1  0.16368883  0.66217183  0.31628752  1
  C  C39  1  0.66708662  0.66276404  0.31704521  1
  C  C40  1  0.17053411  0.66976415  0.81667667  1
  C  C41  1  0.67058016  0.67891527  0.81044390  1
  Ni  Ni42  1  0.14879763  0.00251836  0.25191923  1
  Ni  Ni43  1  0.85322679  0.71544046  0.25023385  1
  Ni  Ni44  1  0.49864990  0.29148871  0.24993649  1
  Ni  Ni45  1  0.14413858  0.29438147  0.75072368  1
  Ni  Ni46  1  0.64604233  0.29460825  0.75190871  1
  Ni  Ni47  1  0.49976454  0.70883783  0.75160857  1
  Ni  Ni48  1  0.35300848  0.99107644  0.75241435  1
  Ni  Ni49  1  0.85696000  0.99760967  0.75256834  1
  Ni  Ni50  1  0.47610219  0.62256175  0.08326781  1
  Ni  Ni51  1  0.18520244  0.33545502  0.08559547  1
  Ni  Ni52  1  0.02125683  0.37877474  0.91518019  1
  Ni  Ni53  1  0.16843618  0.95964780  0.91721947  1
  Ni  Ni54  1  0.66276489  0.95742298  0.91592325  1
  Ni  Ni55  1  0.81294162  0.95539966  0.41510704  1
  Ni  Ni56  1  0.16615599  0.37375682  0.41544032  1
  Ni  Ni57  1  0.66560162  0.37670247  0.41665455  1
  Ni  Ni58  1  0.02100709  0.66454784  0.41695789  1
  Ni  Ni59  1  0.52176522  0.66924626  0.41498415  1
  Cu  Cu60  1  0.64045126  0.99389143  0.25041639  1
  Cu  Cu61  1  0.35601297  0.71365662  0.25040063  1
  Cu  Cu62  1  0.00295599  0.28898290  0.25162779  1
  Cu  Cu63  1  0.00164010  0.71637862  0.75136870  1
  Cu  Cu64  1  0.48245466  0.33321591  0.58172083  1
  Cu  Cu65  1  0.98215351  0.33449295  0.58274226  1
  Cu  Cu66  1  0.18463017  0.03379071  0.58228019  1
  Cu  Cu67  1  0.68392617  0.03376855  0.58205544  1
  Cu  Cu68  1  0.33343147  0.63347582  0.58091511  1
  Cu  Cu69  1  0.83345076  0.63205819  0.58174039  1
  Cu  Cu70  1  0.98045646  0.62832143  0.08213361  1
  Cu  Cu71  1  0.33343429  0.04390825  0.08361688  1
  Cu  Cu72  1  0.83298495  0.03572826  0.08116660  1
  Cu  Cu73  1  0.68560116  0.33412589  0.08205130  1
  Cu  Cu74  1  0.31254714  0.66757386  0.91823887  1
  Cu  Cu75  1  0.81035655  0.66490302  0.91836999  1
  Cu  Cu76  1  0.52103582  0.37698224  0.91713501  1
  Cu  Cu77  1  0.31044772  0.95571711  0.41752875  1
  C  C78  1  0.10084780  0.02683403  0.30614875  1
  C  C79  1  0.59762720  0.01620467  0.30125818  1
  C  C80  1  0.40756393  0.79293980  0.30164430  1
  C  C81  1  0.91787244  0.81100885  0.30343669  1
  C  C82  1  0.48789256  0.16579872  0.30414056  1
  C  C83  1  0.99264202  0.18836647  0.30223290  1
  C  C84  1  0.09525532  0.16919079  0.80518381  1
  C  C85  1  0.59782101  0.17048912  0.80633827  1
  C  C86  1  0.49013027  0.80574087  0.80701532  1
  C  C87  1  0.99045578  0.79703776  0.80223192  1
  C  C88  1  0.41363898  0.01888837  0.80749530  1
  C  C89  1  0.91645871  0.01473413  0.80645779  1
  C  C90  1  0.39886189  0.96437964  0.69483797  1
  C  C91  1  0.90005869  0.96878084  0.69379265  1
  C  C92  1  0.08108027  0.19677004  0.69439801  1
  C  C93  1  0.58435091  0.20686163  0.69479164  1
  C  C94  1  0.01401018  0.82210410  0.69877337  1
  C  C95  1  0.52019826  0.83534072  0.69519219  1
  C  C96  1  0.39809662  0.81868340  0.19836073  1
  C  C97  1  0.90140403  0.83058956  0.19239458  1
  C  C98  1  0.01431283  0.21086731  0.19852230  1
  C  C99  1  0.51317238  0.18986247  0.19505493  1
  C  C100  1  0.08491865  0.96120505  0.19543599  1
  C  C101  1  0.58884189  0.97514282  0.19791643  1
  C  C102  1  0.44732982  0.35773975  0.63487016  1
  C  C103  1  0.95000291  0.36334114  0.63645017  1
  C  C104  1  0.23213901  0.10206089  0.63528724  1
  C  C105  1  0.73117413  0.10218585  0.63560641  1
  C  C106  1  0.31719382  0.53320576  0.63270190  1
  C  C107  1  0.82130505  0.53598791  0.63438176  1
  C  C108  1  0.43319103  0.50556017  0.13931318  1
  C  C109  1  0.94784514  0.53273217  0.13521186  1
  C  C110  1  0.32106034  0.12295030  0.13485169  1
  C  C111  1  0.81606702  0.10281118  0.13272558  1
  C  C112  1  0.24663649  0.35794236  0.13956260  1
  C  C113  1  0.73217741  0.36026593  0.13520167  1
  C  C114  1  0.23069630  0.30562221  0.02857597  1
  C  C115  1  0.73001450  0.30926708  0.03260293  1
  C  C116  1  0.42003757  0.53035582  0.02609883  1
  C  C117  1  0.92486808  0.53757020  0.03260827  1
  C  C118  1  0.34834322  0.15024464  0.03188637  1
  C  C119  1  0.84286985  0.14914519  0.03106292  1
  C  C120  1  0.22909634  0.14539341  0.53234221  1
  C  C121  1  0.73039006  0.14655050  0.53302404  1
  C  C122  1  0.34314371  0.54077329  0.53074245  1
  C  C123  1  0.84472359  0.54376887  0.53181320  1
  C  C124  1  0.42575364  0.31298422  0.53220235  1
  C  C125  1  0.92776296  0.31328024  0.53336339  1
  C  C126  1  0.27007627  0.68809368  0.96903031  1
  C  C127  1  0.76842562  0.68646113  0.96940190  1
  C  C128  1  0.08086449  0.46796201  0.97112695  1
  C  C129  1  0.57698717  0.46348156  0.96794560  1
  C  C130  1  0.15938343  0.83982834  0.97228442  1
  C  C131  1  0.65518603  0.83894926  0.97124351  1
  C  C132  1  0.27057566  0.84961072  0.46866855  1
  C  C133  1  0.76738872  0.83928451  0.47208326  1
  C  C134  1  0.15847788  0.47486614  0.47148595  1
  C  C135  1  0.65054846  0.46359383  0.47265742  1
  C  C136  1  0.08273191  0.69210810  0.47148091  1
  C  C137  1  0.57866830  0.69846510  0.47238938  1
  C  C138  1  0.06566757  0.63764355  0.35928619  1
  C  C139  1  0.56443555  0.63607172  0.35936402  1
  C  C140  1  0.25840492  0.87862083  0.36565867  1
  C  C141  1  0.75115485  0.86980771  0.35991647  1
  C  C142  1  0.18530836  0.50193367  0.36082875  1
  C  C143  1  0.68158813  0.48484860  0.35783600  1
  C  C144  1  0.06352666  0.48928340  0.85726731  1
  C  C145  1  0.56234799  0.47942505  0.86529941  1
  C  C146  1  0.18044971  0.86965363  0.85889472  1
  C  C147  1  0.68039508  0.87155991  0.85997649  1
  C  C148  1  0.25972201  0.64048917  0.86615370  1
  C  C149  1  0.75759801  0.63427182  0.86663908  1
  C  C150  1  0.01318385  0.83467693  0.41337163  1
  C  C151  1  0.50451174  0.83003150  0.40668575  1
  C  C152  1  0.39573741  0.97174888  0.41048560  1
  C  C153  1  0.90782832  0.98156622  0.40864276  1
  C  C154  1  0.08160872  0.19055845  0.41012987  1
  C  C155  1  0.58090441  0.18448863  0.40991947  1
  C  C156  1  0.00756873  0.18576963  0.91272977  1
  C  C157  1  0.51252594  0.20469698  0.91367231  1
  C  C158  1  0.08054078  0.96901374  0.91105996  1
  C  C159  1  0.57877005  0.97879727  0.91417216  1
  C  C160  1  0.39703497  0.82236644  0.91275220  1
  C  C161  1  0.89627960  0.81421119  0.91139027  1
  C  C162  1  0.48969056  0.17403715  0.58459309  1
  C  C163  1  0.99142308  0.17714986  0.58700445  1
  C  C164  1  0.09704929  0.01353349  0.58725474  1
  C  C165  1  0.59765888  0.01945251  0.58540823  1
  C  C166  1  0.41243352  0.80405147  0.58428623  1
  C  C167  1  0.91331846  0.80554909  0.58691107  1
  C  C168  1  0.49025711  0.81753799  0.09254857  1
  C  C169  1  0.98787954  0.80116234  0.08601433  1
  C  C170  1  0.41115840  0.02466163  0.09106985  1
  C  C171  1  0.91114602  0.02235393  0.08532670  1
  C  C172  1  0.08910364  0.16617396  0.09196679  1
  C  C173  1  0.59851810  0.17656979  0.08708077  1
  C  C174  1  0.34378742  0.15936038  0.74786269  1
  C  C175  1  0.85030774  0.17004209  0.74860476  1
  C  C176  1  0.23326060  0.29950029  0.74793159  1
  C  C177  1  0.73668864  0.30272317  0.74977705  1
  C  C178  1  0.42362212  0.51614036  0.74988678  1
  C  C179  1  0.92938849  0.54218321  0.74521043  1
  C  C180  1  0.34669659  0.54134190  0.24363301  1
  C  C181  1  0.84377970  0.52307946  0.24794267  1
  C  C182  1  0.41418348  0.30930061  0.24252677  1
  C  C183  1  0.92959554  0.31848216  0.24583641  1
  C  C184  1  0.24203518  0.16854179  0.24154040  1
  C  C185  1  0.72422099  0.15194265  0.24586328  1
  C  C186  1  0.32113912  0.51237627  0.92373745  1
  C  C187  1  0.81960870  0.50912245  0.92719392  1
  C  C188  1  0.43661621  0.36214819  0.92510170  1
  C  C189  1  0.92721981  0.36289084  0.92645193  1
  C  C190  1  0.25425428  0.14982055  0.92489747  1
  C  C191  1  0.74867303  0.14709400  0.92707770  1
  C  C192  1  0.32052173  0.12827948  0.42602670  1
  C  C193  1  0.82124134  0.14413790  0.42696781  1
  C  C194  1  0.25113323  0.35352100  0.42741577  1
  C  C195  1  0.74877736  0.35255417  0.42590327  1
  C  C196  1  0.42726685  0.49526575  0.42722720  1
  C  C197  1  0.92810617  0.49491098  0.42641310  1
  C  C198  1  0.17884020  0.51077886  0.07698511  1
  C  C199  1  0.67516179  0.48555135  0.07126569  1
  C  C200  1  0.06786562  0.65215998  0.07360592  1
  C  C201  1  0.57322302  0.64500556  0.07560346  1
  C  C202  1  0.25839178  0.87076595  0.07640715  1
  C  C203  1  0.75763904  0.86079368  0.07040221  1
  C  C204  1  0.17546449  0.86034236  0.57303845  1
  C  C205  1  0.67374958  0.85976358  0.57460135  1
  C  C206  1  0.25829349  0.65781649  0.57122955  1
  C  C207  1  0.75755730  0.65482113  0.57446026  1
  C  C208  1  0.07031578  0.48675553  0.57446218  1
  C  C209  1  0.56899864  0.48616947  0.57385026  1
  C  C210  1  0.15291827  0.82141308  0.25760366  1
  C  C211  1  0.64865198  0.84063220  0.25452519  1
  C  C212  1  0.27031121  0.69786570  0.25529026  1
  C  C213  1  0.75674113  0.68976479  0.25368374  1
  C  C214  1  0.08184583  0.46647183  0.25571074  1
  C  C215  1  0.58743604  0.47497248  0.25486908  1
  C  C216  1  0.14360388  0.47580265  0.75573129  1
  C  C217  1  0.64597448  0.47467737  0.75987672  1
  C  C218  1  0.08231057  0.70557067  0.75527292  1
  C  C219  1  0.58976435  0.70186424  0.75820120  1
  C  C220  1  0.25563862  0.82265408  0.75613790  1
  C  C221  1  0.76062723  0.82973228  0.75567073  1
