# generated using pymatgen
data_CuNi3C16
_symmetry_space_group_name_H-M   'P 1'
_cell_length_a   9.24679281
_cell_length_b   9.13129565
_cell_length_c   22.32172402
_cell_angle_alpha   91.96755192
_cell_angle_beta   90.00000000
_cell_angle_gamma   120.41929846
_symmetry_Int_Tables_number   1
_chemical_formula_structural   CuNi3C16
_chemical_formula_sum   'Cu6 Ni18 C96'
_cell_volume   1624.00330363
_cell_formula_units_Z   6
loop_
 _symmetry_equiv_pos_site_id
 _symmetry_equiv_pos_as_xyz
  1  'x, y, z'
loop_
 _atom_site_type_symbol
 _atom_site_label
 _atom_site_symmetry_multiplicity
 _atom_site_fract_x
 _atom_site_fract_y
 _atom_site_fract_z
 _atom_site_occupancy
  Ni  Ni0  1  0.36494387  0.36161408  0.24908352  1
  Ni  Ni1  1  0.99621333  0.63716755  0.24459597  1
  Ni  Ni2  1  0.64095421  0.63716755  0.74459597  1
  Ni  Ni3  1  0.99667020  0.36161408  0.74908352  1
  Ni  Ni4  1  0.03161087  0.69494708  0.58241652  1
  Ni  Ni5  1  0.66288033  0.97050055  0.57792897  1
  Ni  Ni6  1  0.30762121  0.97050055  0.07792897  1
  Ni  Ni7  1  0.66333720  0.69494708  0.08241652  1
  Ni  Ni8  1  0.69827687  0.02828108  0.91575052  1
  Ni  Ni9  1  0.32954633  0.30383455  0.91126297  1
  Ni  Ni10  1  0.97428721  0.30383455  0.41126297  1
  Ni  Ni11  1  0.33000320  0.02828108  0.41575052  1
  Ni  Ni12  1  0.98500055  0.98527613  0.50050958  1
  Ni  Ni13  1  0.00027558  0.98527613  0.00050958  1
  Ni  Ni14  1  0.65166755  0.31860913  0.83384258  1
  Ni  Ni15  1  0.66694258  0.31860913  0.33384258  1
  Ni  Ni16  1  0.31833355  0.65194313  0.16717658  1
  Ni  Ni17  1  0.33360858  0.65194313  0.66717658  1
  Cu  Cu18  1  0.98769996  0.99343529  0.35127892  1
  Cu  Cu19  1  0.00573533  0.99343529  0.85127892  1
  Cu  Cu20  1  0.65436696  0.32676829  0.68461192  1
  Cu  Cu21  1  0.67240233  0.32676829  0.18461192  1
  Cu  Cu22  1  0.32103296  0.66010229  0.01794592  1
  Cu  Cu23  1  0.33906833  0.66010229  0.51794592  1
  C  C24  1  0.98664406  0.01862137  0.65045275  1
  C  C25  1  0.03197731  0.01862137  0.15045275  1
  C  C26  1  0.65331106  0.35195437  0.98378575  1
  C  C27  1  0.69864431  0.35195437  0.48378575  1
  C  C28  1  0.31997706  0.68528837  0.31711975  1
  C  C29  1  0.36531031  0.68528837  0.81711975  1
  C  C30  1  0.29297981  0.99061140  0.25225887  1
  C  C31  1  0.01955073  0.30809239  0.25367265  1
  C  C32  1  0.28854166  0.30809239  0.75367265  1
  C  C33  1  0.69763159  0.99061140  0.75225887  1
  C  C34  1  0.95964681  0.32394440  0.58559187  1
  C  C35  1  0.68621773  0.64142539  0.58700565  1
  C  C36  1  0.95520866  0.64142539  0.08700565  1
  C  C37  1  0.36429859  0.32394440  0.08559187  1
  C  C38  1  0.62631281  0.65727840  0.91892587  1
  C  C39  1  0.35288373  0.97475939  0.92033965  1
  C  C40  1  0.62187466  0.97475939  0.42033965  1
  C  C41  1  0.03096459  0.65727840  0.41892587  1
  C  C42  1  0.68899023  0.70574851  0.24613264  1
  C  C43  1  0.01675829  0.70574851  0.74613264  1
  C  C44  1  0.35565723  0.03908151  0.57946564  1
  C  C45  1  0.68342529  0.03908151  0.07946564  1
  C  C46  1  0.02232323  0.37241551  0.91279964  1
  C  C47  1  0.35009129  0.37241551  0.41279964  1
  C  C48  1  0.21180647  0.01008970  0.30849779  1
  C  C49  1  0.79259278  0.78633279  0.29958720  1
  C  C50  1  0.99842674  0.21772488  0.31125490  1
  C  C51  1  0.21929815  0.21772488  0.81125490  1
  C  C52  1  0.99374001  0.78633279  0.79958720  1
  C  C53  1  0.79828323  0.01008970  0.80849779  1
  C  C54  1  0.78094911  0.95900819  0.69459220  1
  C  C55  1  0.16344941  0.20885520  0.69854733  1
  C  C56  1  0.02938161  0.80004515  0.69168201  1
  C  C57  1  0.77066354  0.80004515  0.19168201  1
  C  C58  1  0.04540579  0.20885520  0.19854733  1
  C  C59  1  0.17805907  0.95900819  0.19459220  1
  C  C60  1  0.87847347  0.34342270  0.64183079  1
  C  C61  1  0.45925978  0.11966579  0.63292020  1
  C  C62  1  0.66509374  0.55105788  0.64458790  1
  C  C63  1  0.88596515  0.55105788  0.14458790  1
  C  C64  1  0.66040701  0.11966579  0.13292020  1
  C  C65  1  0.46495023  0.34342270  0.14183079  1
  C  C66  1  0.44761611  0.29234119  0.02792520  1
  C  C67  1  0.83011641  0.54218820  0.03188033  1
  C  C68  1  0.69604861  0.13337815  0.02501501  1
  C  C69  1  0.43733054  0.13337815  0.52501501  1
  C  C70  1  0.71207279  0.54218820  0.53188033  1
  C  C71  1  0.84472607  0.29234119  0.52792520  1
  C  C72  1  0.54513947  0.67675670  0.97516479  1
  C  C73  1  0.12592578  0.45299979  0.96625420  1
  C  C74  1  0.33175974  0.88439188  0.97792190  1
  C  C75  1  0.55263115  0.88439188  0.47792190  1
  C  C76  1  0.32707301  0.45299979  0.46625420  1
  C  C77  1  0.13161623  0.67675670  0.47516479  1
  C  C78  1  0.11428211  0.62567519  0.36125920  1
  C  C79  1  0.49678241  0.87552220  0.36521433  1
  C  C80  1  0.36271461  0.46671215  0.35834901  1
  C  C81  1  0.10399654  0.46671215  0.85834901  1
  C  C82  1  0.37873879  0.87552220  0.86521433  1
  C  C83  1  0.51139207  0.62567519  0.86125920  1
  C  C84  1  0.01388424  0.81391676  0.41369170  1
  C  C85  1  0.80064761  0.01169830  0.41199573  1
  C  C86  1  0.19841240  0.19714351  0.41025395  1
  C  C87  1  0.99873112  0.19714351  0.91025395  1
  C  C88  1  0.21105069  0.01169830  0.91199573  1
  C  C89  1  0.80003252  0.81391676  0.91369170  1
  C  C90  1  0.96476085  0.15285707  0.58766621  1
  C  C91  1  0.18596815  0.02055663  0.58426660  1
  C  C92  1  0.85827601  0.82120511  0.58997944  1
  C  C93  1  0.96292909  0.82120511  0.08997944  1
  C  C94  1  0.83458848  0.02055663  0.08426660  1
  C  C95  1  0.18809622  0.15285707  0.08766621  1
  C  C96  1  0.68055124  0.14724976  0.74702470  1
  C  C97  1  0.46731461  0.34503130  0.74532873  1
  C  C98  1  0.86507940  0.53047651  0.74358695  1
  C  C99  1  0.66539812  0.53047651  0.24358695  1
  C  C100  1  0.87771769  0.34503130  0.24532873  1
  C  C101  1  0.46669952  0.14724976  0.24702470  1
  C  C102  1  0.63142785  0.48619007  0.92099921  1
  C  C103  1  0.85263515  0.35388963  0.91759960  1
  C  C104  1  0.52494301  0.15453811  0.92331244  1
  C  C105  1  0.62959609  0.15453811  0.42331244  1
  C  C106  1  0.50125548  0.35388963  0.41759960  1
  C  C107  1  0.85476322  0.48619007  0.42099921  1
  C  C108  1  0.34721724  0.48058376  0.08035870  1
  C  C109  1  0.13398061  0.67836530  0.07866273  1
  C  C110  1  0.53174540  0.86381051  0.07692095  1
  C  C111  1  0.33206412  0.86381051  0.57692095  1
  C  C112  1  0.54438369  0.67836530  0.57866273  1
  C  C113  1  0.13336552  0.48058376  0.58035870  1
  C  C114  1  0.29809385  0.81952407  0.25433321  1
  C  C115  1  0.51930115  0.68722363  0.25093360  1
  C  C116  1  0.19160901  0.48787211  0.25664644  1
  C  C117  1  0.29626209  0.48787211  0.75664644  1
  C  C118  1  0.16792148  0.68722363  0.75093360  1
  C  C119  1  0.52142922  0.81952407  0.75433321  1
