# generated using pymatgen
data_Cu3NiC5
_symmetry_space_group_name_H-M   'P 1'
_cell_length_a   9.29013600
_cell_length_b   12.57594300
_cell_length_c   18.71360157
_cell_angle_alpha   81.79645822
_cell_angle_beta   90.00000000
_cell_angle_gamma   90.00000000
_symmetry_Int_Tables_number   1
_chemical_formula_structural   Cu3NiC5
_chemical_formula_sum   'Cu24 Ni8 C40'
_cell_volume   2163.97959567
_cell_formula_units_Z   8
loop_
 _symmetry_equiv_pos_site_id
 _symmetry_equiv_pos_as_xyz
  1  'x, y, z'
loop_
 _atom_site_type_symbol
 _atom_site_label
 _atom_site_symmetry_multiplicity
 _atom_site_fract_x
 _atom_site_fract_y
 _atom_site_fract_z
 _atom_site_occupancy
  C  C0  1  0.92853900  0.86381800  0.99446400  1
  C  C1  1  0.42853900  0.63618200  0.00553600  1
  C  C2  1  0.07146100  0.13618200  0.00553600  1
  C  C3  1  0.57146100  0.36381800  0.99446400  1
  C  C4  1  0.93127900  0.51209400  0.65203200  1
  C  C5  1  0.43127900  0.98790600  0.34796800  1
  C  C6  1  0.06872100  0.48790600  0.34796800  1
  C  C7  1  0.56872100  0.01209400  0.65203200  1
  C  C8  1  0.17547800  0.05649500  0.69991900  1
  C  C9  1  0.67547800  0.44350500  0.30008100  1
  C  C10  1  0.82452200  0.94350500  0.30008100  1
  C  C11  1  0.32452200  0.55649500  0.69991900  1
  C  C12  1  0.92910300  0.17405900  0.81885900  1
  C  C13  1  0.42910300  0.32594100  0.18114100  1
  C  C14  1  0.07089700  0.82594100  0.18114100  1
  C  C15  1  0.57089700  0.67405900  0.81885900  1
  C  C16  1  0.93764000  0.87289800  0.48500800  1
  C  C17  1  0.43764000  0.62710200  0.51499200  1
  C  C18  1  0.06236000  0.12710200  0.51499200  1
  C  C19  1  0.56236000  0.37289800  0.48500800  1
  C  C20  1  0.18252900  0.72347300  0.87154400  1
  C  C21  1  0.68252900  0.77652700  0.12845600  1
  C  C22  1  0.81747100  0.27652700  0.12845600  1
  C  C23  1  0.31747100  0.22347300  0.87154400  1
  C  C24  1  0.84652700  0.90187700  0.80451600  1
  C  C25  1  0.34652700  0.59812300  0.19548400  1
  C  C26  1  0.15347300  0.09812300  0.19548400  1
  C  C27  1  0.65347300  0.40187700  0.80451600  1
  C  C28  1  0.84021200  0.58185000  0.97285400  1
  C  C29  1  0.34021200  0.91815000  0.02714600  1
  C  C30  1  0.15978800  0.41815000  0.02714600  1
  C  C31  1  0.65978800  0.08185000  0.97285400  1
  C  C32  1  0.81892300  0.59452400  0.46658100  1
  C  C33  1  0.31892300  0.90547600  0.53341900  1
  C  C34  1  0.18107700  0.40547600  0.53341900  1
  C  C35  1  0.68107700  0.09452400  0.46658100  1
  C  C36  1  0.81237100  0.24438000  0.62769200  1
  C  C37  1  0.31237100  0.25562000  0.37230800  1
  C  C38  1  0.18762900  0.75562000  0.37230800  1
  C  C39  1  0.68762900  0.74438000  0.62769200  1
  Ni  Ni40  1  0.06879900  0.77908100  0.66927200  1
  Ni  Ni41  1  0.56879900  0.72091900  0.33072800  1
  Ni  Ni42  1  0.93120100  0.22091900  0.33072800  1
  Ni  Ni43  1  0.43120100  0.27908100  0.66927200  1
  Ni  Ni44  1  0.41741300  0.94589400  0.82744400  1
  Ni  Ni45  1  0.91741300  0.55410600  0.17255600  1
  Ni  Ni46  1  0.58258700  0.05410600  0.17255600  1
  Ni  Ni47  1  0.08258700  0.44589400  0.82744400  1
  Cu  Cu48  1  0.37067600  0.81817900  0.70661800  1
  Cu  Cu49  1  0.87067600  0.68182100  0.29338200  1
  Cu  Cu50  1  0.62932400  0.18182100  0.29338200  1
  Cu  Cu51  1  0.12932400  0.31817900  0.70661800  1
  Cu  Cu52  1  0.89089300  0.96569400  0.63391300  1
  Cu  Cu53  1  0.39089300  0.53430600  0.36608700  1
  Cu  Cu54  1  0.10910700  0.03430600  0.36608700  1
  Cu  Cu55  1  0.60910700  0.46569400  0.63391300  1
  Cu  Cu56  1  0.13866500  0.98625700  0.88228400  1
  Cu  Cu57  1  0.63866500  0.51374300  0.11771600  1
  Cu  Cu58  1  0.86133500  0.01374300  0.11771600  1
  Cu  Cu59  1  0.36133500  0.48625700  0.88228400  1
  Cu  Cu60  1  0.91694100  0.64373700  0.78539500  1
  Cu  Cu61  1  0.41694100  0.85626300  0.21460500  1
  Cu  Cu62  1  0.08305900  0.35626300  0.21460500  1
  Cu  Cu63  1  0.58305900  0.14373700  0.78539500  1
  Cu  Cu64  1  0.60683700  0.83714100  0.93371100  1
  Cu  Cu65  1  0.10683700  0.66285900  0.06628900  1
  Cu  Cu66  1  0.39316300  0.16285900  0.06628900  1
  Cu  Cu67  1  0.89316300  0.33714100  0.93371100  1
  Cu  Cu68  1  0.11909100  0.66975100  0.54615600  1
  Cu  Cu69  1  0.61909100  0.83024900  0.45384400  1
  Cu  Cu70  1  0.88090900  0.33024900  0.45384400  1
  Cu  Cu71  1  0.38090900  0.16975100  0.54615600  1
