# generated using pymatgen
data_CuNiC16
_symmetry_space_group_name_H-M   'P 1'
_cell_length_a   8.78101236
_cell_length_b   8.78101207
_cell_length_c   22.83954941
_cell_angle_alpha   89.96795598
_cell_angle_beta   90.03204402
_cell_angle_gamma   119.76320946
_symmetry_Int_Tables_number   1
_chemical_formula_structural   CuNiC16
_chemical_formula_sum   'Cu6 Ni6 C96'
_cell_volume   1528.75732120
_cell_formula_units_Z   6
loop_
 _symmetry_equiv_pos_site_id
 _symmetry_equiv_pos_as_xyz
  1  'x, y, z'
loop_
 _atom_site_type_symbol
 _atom_site_label
 _atom_site_symmetry_multiplicity
 _atom_site_fract_x
 _atom_site_fract_y
 _atom_site_fract_z
 _atom_site_occupancy
  C  C0  1  0.97983333  0.99359706  0.49093264  1
  C  C1  1  0.00640294  0.02016667  0.99093264  1
  C  C2  1  0.67490505  0.31871476  0.82464195  1
  C  C3  1  0.68128524  0.32509495  0.32464195  1
  C  C4  1  0.32959063  0.64441787  0.15885478  1
  C  C5  1  0.35558213  0.67040937  0.65885478  1
  Ni  Ni6  1  0.98859900  0.00496421  0.35301858  1
  Ni  Ni7  1  0.99503579  0.01140100  0.85301858  1
  Ni  Ni8  1  0.66218002  0.32916751  0.68613324  1
  Ni  Ni9  1  0.67083249  0.33781998  0.18613324  1
  Ni  Ni10  1  0.32814962  0.65206042  0.02071451  1
  Ni  Ni11  1  0.34793958  0.67185038  0.52071451  1
  Cu  Cu12  1  0.97823624  0.98854392  0.64543158  1
  Cu  Cu13  1  0.01145608  0.02176376  0.14543158  1
  Cu  Cu14  1  0.66529401  0.33354027  0.97894643  1
  Cu  Cu15  1  0.66645973  0.33470599  0.47894643  1
  Cu  Cu16  1  0.34005961  0.67387963  0.31236889  1
  Cu  Cu17  1  0.32612037  0.65994039  0.81236889  1
  C  C18  1  0.99224446  0.29668207  0.25431212  1
  C  C19  1  0.70331793  0.00775554  0.75431212  1
  C  C20  1  0.65061206  0.61052639  0.58755080  1
  C  C21  1  0.38947361  0.34938794  0.08755080  1
  C  C22  1  0.04402763  0.36801690  0.92056795  1
  C  C23  1  0.63198310  0.95597237  0.42056795  1
  C  C24  1  0.28659157  0.00102126  0.25208268  1
  C  C25  1  0.71442416  0.71041741  0.25132371  1
  C  C26  1  0.28958259  0.28557583  0.75132371  1
  C  C27  1  0.99897874  0.71340843  0.75208268  1
  C  C28  1  0.95872850  0.33739841  0.58382536  1
  C  C29  1  0.37455648  0.04338225  0.58442750  1
  C  C30  1  0.95661775  0.62544352  0.08442750  1
  C  C31  1  0.66260159  0.04127150  0.08382536  1
  C  C32  1  0.62439159  0.66896301  0.91790230  1
  C  C33  1  0.33153010  0.95214938  0.91786505  1
  C  C34  1  0.33103699  0.37560841  0.41790230  1
  C  C35  1  0.04785062  0.66846990  0.41786505  1
  C  C36  1  0.19907999  0.01292974  0.30410623  1
  C  C37  1  0.81681948  0.79073222  0.30366134  1
  C  C38  1  0.97942158  0.17854204  0.30731646  1
  C  C39  1  0.20926778  0.18318052  0.80366134  1
  C  C40  1  0.98707026  0.80092001  0.80410623  1
  C  C41  1  0.82145796  0.02057842  0.80731646  1
  C  C42  1  0.80083503  0.97343264  0.69203928  1
  C  C43  1  0.17996091  0.20671381  0.69774230  1
  C  C44  1  0.02900946  0.82520420  0.69759466  1
  C  C45  1  0.79328619  0.82003909  0.19774230  1
  C  C46  1  0.02656736  0.19916497  0.19203928  1
  C  C47  1  0.17479580  0.97099054  0.19759466  1
  C  C48  1  0.87574209  0.35297463  0.63613252  1
  C  C49  1  0.48256834  0.12162892  0.63571281  1
  C  C50  1  0.65220840  0.50852152  0.64341246  1
  C  C51  1  0.87837108  0.51743166  0.13571281  1
  C  C52  1  0.64702537  0.12425791  0.13613252  1
  C  C53  1  0.49147848  0.34779160  0.14341246  1
  C  C54  1  0.47846696  0.31260269  0.02715809  1
  C  C55  1  0.84454011  0.53403433  0.03026818  1
  C  C56  1  0.70043930  0.15644053  0.02982309  1
  C  C57  1  0.46596567  0.15545989  0.53026818  1
  C  C58  1  0.68739731  0.52153304  0.52715809  1
  C  C59  1  0.84355947  0.29956070  0.52982309  1
  C  C60  1  0.54641465  0.69667749  0.96979911  1
  C  C61  1  0.15522052  0.47512504  0.97448545  1
  C  C62  1  0.31824503  0.85426989  0.97041821  1
  C  C63  1  0.52487496  0.84477948  0.47448545  1
  C  C64  1  0.30332251  0.45358535  0.46979911  1
  C  C65  1  0.14573011  0.68175497  0.47041821  1
  C  C66  1  0.12905759  0.63551284  0.36385352  1
  C  C67  1  0.50418328  0.86107749  0.35953152  1
  C  C68  1  0.35929749  0.48811780  0.36427123  1
  C  C69  1  0.13892251  0.49581672  0.85953152  1
  C  C70  1  0.36448716  0.87094241  0.86385352  1
  C  C71  1  0.51188220  0.64070251  0.86427123  1
  C  C72  1  0.02739790  0.82097170  0.40823020  1
  C  C73  1  0.82402325  0.98395676  0.41415642  1
  C  C74  1  0.19088511  0.19640309  0.40920787  1
  C  C75  1  0.01604324  0.17597675  0.91415642  1
  C  C76  1  0.17902830  0.97260210  0.90823020  1
  C  C77  1  0.80359691  0.80911489  0.90920787  1
  C  C78  1  0.98033972  0.17503822  0.58798096  1
  C  C79  1  0.20365267  0.04394093  0.58814465  1
  C  C80  1  0.84501741  0.81288952  0.59170924  1
  C  C81  1  0.95605907  0.79634733  0.08814465  1
  C  C82  1  0.82496178  0.01966028  0.08798096  1
  C  C83  1  0.18711048  0.15498259  0.09170924  1
  C  C84  1  0.67517286  0.16979014  0.74289208  1
  C  C85  1  0.46780672  0.31850791  0.74467553  1
  C  C86  1  0.85086294  0.53812120  0.74490480  1
  C  C87  1  0.68149209  0.53219328  0.24467553  1
  C  C88  1  0.83020986  0.32482714  0.24289208  1
  C  C89  1  0.46187880  0.14913706  0.24490480  1
  C  C90  1  0.62900552  0.49729768  0.92217482  1
  C  C91  1  0.84407819  0.35653736  0.92514999  1
  C  C92  1  0.49694756  0.13271386  0.92135411  1
  C  C93  1  0.64346264  0.15592181  0.42514999  1
  C  C94  1  0.50270232  0.37099448  0.42217482  1
  C  C95  1  0.86728614  0.50305244  0.42135411  1
  C  C96  1  0.35225777  0.50743472  0.08134459  1
  C  C97  1  0.13561980  0.66075146  0.07593572  1
  C  C98  1  0.50923130  0.87047540  0.07346035  1
  C  C99  1  0.33924854  0.86438020  0.57593572  1
  C  C100  1  0.49256528  0.64774223  0.58134459  1
  C  C101  1  0.12952460  0.49076870  0.57346035  1
  C  C102  1  0.29811481  0.83260730  0.25468677  1
  C  C103  1  0.53354183  0.69873683  0.25656563  1
  C  C104  1  0.17977230  0.49103728  0.25919969  1
  C  C105  1  0.30126317  0.46645817  0.75656563  1
  C  C106  1  0.16739270  0.70188519  0.75468677  1
  C  C107  1  0.50896272  0.82022770  0.75919969  1
