# generated using pymatgen
data_Cu(NiC4)2
_symmetry_space_group_name_H-M   'P 1'
_cell_length_a   5.71949621
_cell_length_b   5.71949703
_cell_length_c   5.69402211
_cell_angle_alpha   70.24929474
_cell_angle_beta   70.24928931
_cell_angle_gamma   63.98150384
_symmetry_Int_Tables_number   1
_chemical_formula_structural   Cu(NiC4)2
_chemical_formula_sum   'Cu1 Ni2 C8'
_cell_volume   153.52829473
_cell_formula_units_Z   1
loop_
 _symmetry_equiv_pos_site_id
 _symmetry_equiv_pos_as_xyz
  1  'x, y, z'
loop_
 _atom_site_type_symbol
 _atom_site_label
 _atom_site_symmetry_multiplicity
 _atom_site_fract_x
 _atom_site_fract_y
 _atom_site_fract_z
 _atom_site_occupancy
  Ni  Ni0  1  0.20015667  0.20015667  0.34852945  1
  Ni  Ni1  1  0.79984333  0.79984333  0.65147055  1
  Cu  Cu2  1  -0.00000000  0.00000000  0.00000000  1
  C  C3  1  0.50000000  0.50000000  0.00000000  1
  C  C4  1  0.50000000  0.50000000  0.50000000  1
  C  C5  1  0.30590209  0.30590309  0.86006495  1
  C  C6  1  0.69409791  0.69409691  0.13993505  1
  C  C7  1  0.66466657  0.19656137  0.29736093  1
  C  C8  1  0.80343863  0.33533443  0.70263907  1
  C  C9  1  0.33533343  0.80343863  0.70263907  1
  C  C10  1  0.19656137  0.66466557  0.29736093  1
