# generated using pymatgen
data_Cu2NiC6
_symmetry_space_group_name_H-M   'P 1'
_cell_length_a   6.07545281
_cell_length_b   6.66431021
_cell_length_c   7.11263855
_cell_angle_alpha   120.96671951
_cell_angle_beta   118.49443938
_cell_angle_gamma   84.42067321
_symmetry_Int_Tables_number   1
_chemical_formula_structural   Cu2NiC6
_chemical_formula_sum   'Cu2 Ni1 C6'
_cell_volume   212.78084866
_cell_formula_units_Z   1
loop_
 _symmetry_equiv_pos_site_id
 _symmetry_equiv_pos_as_xyz
  1  'x, y, z'
loop_
 _atom_site_type_symbol
 _atom_site_label
 _atom_site_symmetry_multiplicity
 _atom_site_fract_x
 _atom_site_fract_y
 _atom_site_fract_z
 _atom_site_occupancy
  C  C0  1  0.33179168  0.32601111  0.65784316  1
  C  C1  1  0.69682240  0.69778048  0.39588349  1
  Ni  Ni2  1  0.78074436  0.28047487  0.55814103  1
  Cu  Cu3  1  0.00235323  0.00321924  0.00346762  1
  Cu  Cu4  1  0.49134662  0.99127311  0.98070996  1
  C  C5  1  0.86018761  0.29509445  0.25621908  1
  C  C6  1  0.39766709  0.95939724  0.25142341  1
  C  C7  1  0.67252692  0.67697312  0.77483234  1
  C  C8  1  0.10406108  0.10311038  0.77888792  1
