# generated using pymatgen
data_Cu8NiC16
_symmetry_space_group_name_H-M   'P 1'
_cell_length_a   10.08057623
_cell_length_b   10.13660198
_cell_length_c   3.05328400
_cell_angle_alpha   90.00000000
_cell_angle_beta   90.00000000
_cell_angle_gamma   83.25659768
_symmetry_Int_Tables_number   1
_chemical_formula_structural   Cu8NiC16
_chemical_formula_sum   'Cu8 Ni1 C16'
_cell_volume   309.83470203
_cell_formula_units_Z   1
loop_
 _symmetry_equiv_pos_site_id
 _symmetry_equiv_pos_as_xyz
  1  'x, y, z'
loop_
 _atom_site_type_symbol
 _atom_site_label
 _atom_site_symmetry_multiplicity
 _atom_site_fract_x
 _atom_site_fract_y
 _atom_site_fract_z
 _atom_site_occupancy
  Ni  Ni0  1  0.10566900  0.60172100  0.50000000  1
  Cu  Cu1  1  0.03465900  0.02320300  0.00000000  1
  Cu  Cu2  1  0.94752400  0.44549500  0.00000000  1
  Cu  Cu3  1  0.22421900  0.24887600  0.50000000  1
  Cu  Cu4  1  0.26434700  0.78603000  0.50000000  1
  Cu  Cu5  1  0.53825600  0.51457200  0.00000000  1
  Cu  Cu6  1  0.50735100  0.00505200  0.00000000  1
  Cu  Cu7  1  0.73398300  0.25373200  0.50000000  1
  Cu  Cu8  1  0.74838100  0.72210600  0.50000000  1
  C  C9  1  0.08102100  0.40208300  0.50000000  1
  C  C10  1  0.10054200  0.92610100  0.50000000  1
  C  C11  1  0.14387400  0.16349100  0.00000000  1
  C  C12  1  0.18292900  0.67417200  0.00000000  1
  C  C13  1  0.59078500  0.39849500  0.50000000  1
  C  C14  1  0.65867700  0.64389100  0.00000000  1
  C  C15  1  0.82527900  0.32187900  0.00000000  1
  C  C16  1  0.90208300  0.57934500  0.50000000  1
  C  C17  1  0.31695200  0.33746700  0.00000000  1
  C  C18  1  0.37819700  0.86837900  0.00000000  1
  C  C19  1  0.39865300  0.11369900  0.50000000  1
  C  C20  1  0.42400300  0.60557700  0.50000000  1
  C  C21  1  0.61700800  0.89806700  0.50000000  1
  C  C22  1  0.64808500  0.14806900  0.00000000  1
  C  C23  1  0.83562400  0.81330800  0.00000000  1
  C  C24  1  0.88912200  0.09546500  0.50000000  1
