# generated using pymatgen
data_CuNi12C11
_symmetry_space_group_name_H-M   'P 1'
_cell_length_a   12.67850500
_cell_length_b   12.67850500
_cell_length_c   12.67850500
_cell_angle_alpha   90.00000000
_cell_angle_beta   90.00000000
_cell_angle_gamma   90.00000000
_symmetry_Int_Tables_number   1
_chemical_formula_structural   CuNi12C11
_chemical_formula_sum   'Cu8 Ni96 C88'
_cell_volume   2037.99980795
_cell_formula_units_Z   8
loop_
 _symmetry_equiv_pos_site_id
 _symmetry_equiv_pos_as_xyz
  1  'x, y, z'
loop_
 _atom_site_type_symbol
 _atom_site_label
 _atom_site_symmetry_multiplicity
 _atom_site_fract_x
 _atom_site_fract_y
 _atom_site_fract_z
 _atom_site_occupancy
  C  C0  1  0.50000000  0.00000000  0.00000000  1
  C  C1  1  0.00000000  0.00000000  0.50000000  1
  C  C2  1  0.00000000  0.50000000  0.00000000  1
  C  C3  1  0.50000000  0.50000000  0.50000000  1
  C  C4  1  0.00000000  0.50000000  0.50000000  1
  C  C5  1  0.00000000  0.00000000  0.00000000  1
  C  C6  1  0.50000000  0.00000000  0.50000000  1
  C  C7  1  0.50000000  0.50000000  0.00000000  1
  Ni  Ni8  1  0.70012800  0.02463500  0.45097100  1
  Ni  Ni9  1  0.20012800  0.47536500  0.54902900  1
  Ni  Ni10  1  0.29987200  0.52463500  0.04902900  1
  Ni  Ni11  1  0.47536500  0.54902900  0.20012800  1
  Ni  Ni12  1  0.04902900  0.29987200  0.52463500  1
  Ni  Ni13  1  0.54902900  0.20012800  0.47536500  1
  Ni  Ni14  1  0.02463500  0.45097100  0.70012800  1
  Ni  Ni15  1  0.45097100  0.70012800  0.02463500  1
  Ni  Ni16  1  0.52463500  0.04902900  0.29987200  1
  Ni  Ni17  1  0.97536500  0.95097100  0.79987200  1
  Ni  Ni18  1  0.95097100  0.79987200  0.97536500  1
  Ni  Ni19  1  0.79987200  0.97536500  0.95097100  1
  Ni  Ni20  1  0.29987200  0.97536500  0.54902900  1
  Ni  Ni21  1  0.79987200  0.52463500  0.45097100  1
  Ni  Ni22  1  0.70012800  0.47536500  0.95097100  1
  Ni  Ni23  1  0.52463500  0.45097100  0.79987200  1
  Ni  Ni24  1  0.95097100  0.70012800  0.47536500  1
  Ni  Ni25  1  0.45097100  0.79987200  0.52463500  1
  Ni  Ni26  1  0.97536500  0.54902900  0.29987200  1
  Ni  Ni27  1  0.54902900  0.29987200  0.97536500  1
  Ni  Ni28  1  0.47536500  0.95097100  0.70012800  1
  Ni  Ni29  1  0.02463500  0.04902900  0.20012800  1
  Ni  Ni30  1  0.04902900  0.20012800  0.02463500  1
  Ni  Ni31  1  0.20012800  0.02463500  0.04902900  1
  Ni  Ni32  1  0.68531000  0.03439700  0.57914900  1
  Ni  Ni33  1  0.18531000  0.46560300  0.42085100  1
  Ni  Ni34  1  0.31469000  0.53439700  0.92085100  1
  Ni  Ni35  1  0.46560300  0.42085100  0.18531000  1
  Ni  Ni36  1  0.92085100  0.31469000  0.53439700  1
  Ni  Ni37  1  0.42085100  0.18531000  0.46560300  1
  Ni  Ni38  1  0.03439700  0.57914900  0.68531000  1
  Ni  Ni39  1  0.57914900  0.68531000  0.03439700  1
  Ni  Ni40  1  0.53439700  0.92085100  0.31469000  1
  Ni  Ni41  1  0.96560300  0.07914900  0.81469000  1
  Ni  Ni42  1  0.07914900  0.81469000  0.96560300  1
  Ni  Ni43  1  0.81469000  0.96560300  0.07914900  1
  Ni  Ni44  1  0.31469000  0.96560300  0.42085100  1
  Ni  Ni45  1  0.81469000  0.53439700  0.57914900  1
  Ni  Ni46  1  0.68531000  0.46560300  0.07914900  1
  Ni  Ni47  1  0.53439700  0.57914900  0.81469000  1
  Ni  Ni48  1  0.07914900  0.68531000  0.46560300  1
  Ni  Ni49  1  0.57914900  0.81469000  0.53439700  1
  Ni  Ni50  1  0.96560300  0.42085100  0.31469000  1
  Ni  Ni51  1  0.42085100  0.31469000  0.96560300  1
  Ni  Ni52  1  0.46560300  0.07914900  0.68531000  1
  Ni  Ni53  1  0.03439700  0.92085100  0.18531000  1
  Ni  Ni54  1  0.92085100  0.18531000  0.03439700  1
  Ni  Ni55  1  0.61617100  0.16719400  0.22214000  1
  Ni  Ni56  1  0.49723200  0.19873100  0.22618500  1
  Ni  Ni57  1  0.99723200  0.30126900  0.77381500  1
  Ni  Ni58  1  0.50276800  0.69873100  0.27381500  1
  Ni  Ni59  1  0.30126900  0.77381500  0.99723200  1
  Ni  Ni60  1  0.27381500  0.50276800  0.69873100  1
  Ni  Ni61  1  0.77381500  0.99723200  0.30126900  1
  Ni  Ni62  1  0.19873100  0.22618500  0.49723200  1
  Ni  Ni63  1  0.22618500  0.49723200  0.19873100  1
  Ni  Ni64  1  0.69873100  0.27381500  0.50276800  1
  Ni  Ni65  1  0.80126900  0.72618500  0.00276800  1
  Ni  Ni66  1  0.72618500  0.00276800  0.80126900  1
  Ni  Ni67  1  0.00276800  0.80126900  0.72618500  1
  Ni  Ni68  1  0.50276800  0.80126900  0.77381500  1
  Ni  Ni69  1  0.00276800  0.69873100  0.22618500  1
  Ni  Ni70  1  0.49723200  0.30126900  0.72618500  1
  Ni  Ni71  1  0.69873100  0.22618500  0.00276800  1
  Ni  Ni72  1  0.72618500  0.49723200  0.30126900  1
  Ni  Ni73  1  0.22618500  0.00276800  0.69873100  1
  Ni  Ni74  1  0.80126900  0.77381500  0.50276800  1
  Ni  Ni75  1  0.77381500  0.50276800  0.80126900  1
  Ni  Ni76  1  0.30126900  0.72618500  0.49723200  1
  Ni  Ni77  1  0.19873100  0.27381500  0.99723200  1
  Ni  Ni78  1  0.27381500  0.99723200  0.19873100  1
  Ni  Ni79  1  0.99723200  0.19873100  0.27381500  1
  Ni  Ni80  1  0.11617100  0.16719400  0.27786000  1
  Ni  Ni81  1  0.27786000  0.11617100  0.16719400  1
  Ni  Ni82  1  0.16719400  0.27786000  0.11617100  1
  Ni  Ni83  1  0.33280600  0.72214000  0.61617100  1
  Ni  Ni84  1  0.77786000  0.38382900  0.83280600  1
  Ni  Ni85  1  0.83280600  0.77786000  0.38382900  1
  Ni  Ni86  1  0.22214000  0.88382900  0.66719400  1
  Ni  Ni87  1  0.72214000  0.61617100  0.33280600  1
  Ni  Ni88  1  0.66719400  0.22214000  0.88382900  1
  Ni  Ni89  1  0.61617100  0.33280600  0.72214000  1
  Ni  Ni90  1  0.88382900  0.66719400  0.22214000  1
  Ni  Ni91  1  0.38382900  0.83280600  0.77786000  1
  Ni  Ni92  1  0.88382900  0.83280600  0.72214000  1
  Ni  Ni93  1  0.72214000  0.88382900  0.83280600  1
  Ni  Ni94  1  0.83280600  0.72214000  0.88382900  1
  Ni  Ni95  1  0.66719400  0.27786000  0.38382900  1
  Ni  Ni96  1  0.22214000  0.61617100  0.16719400  1
  Ni  Ni97  1  0.16719400  0.22214000  0.61617100  1
  Ni  Ni98  1  0.77786000  0.11617100  0.33280600  1
  Ni  Ni99  1  0.27786000  0.38382900  0.66719400  1
  Ni  Ni100  1  0.33280600  0.77786000  0.11617100  1
  Ni  Ni101  1  0.38382900  0.66719400  0.27786000  1
  Ni  Ni102  1  0.11617100  0.33280600  0.77786000  1
  Ni  Ni103  1  0.18531000  0.03439700  0.92085100  1
  Cu  Cu104  1  0.30927600  0.19072400  0.80927600  1
  Cu  Cu105  1  0.80927600  0.19072400  0.69072400  1
  Cu  Cu106  1  0.19072400  0.69072400  0.80927600  1
  Cu  Cu107  1  0.30927600  0.30927600  0.30927600  1
  Cu  Cu108  1  0.69072400  0.80927600  0.19072400  1
  Cu  Cu109  1  0.69072400  0.69072400  0.69072400  1
  Cu  Cu110  1  0.19072400  0.80927600  0.30927600  1
  Cu  Cu111  1  0.80927600  0.30927600  0.19072400  1
  C  C112  1  0.54444100  0.13726900  0.21344700  1
  C  C113  1  0.04444100  0.36273100  0.78655300  1
  C  C114  1  0.45555900  0.63726900  0.28655300  1
  C  C115  1  0.36273100  0.78655300  0.04444100  1
  C  C116  1  0.28655300  0.45555900  0.63726900  1
  C  C117  1  0.78655300  0.04444100  0.36273100  1
  C  C118  1  0.13726900  0.21344700  0.54444100  1
  C  C119  1  0.21344700  0.54444100  0.13726900  1
  C  C120  1  0.63726900  0.28655300  0.45555900  1
  C  C121  1  0.86273100  0.71344700  0.95555900  1
  C  C122  1  0.71344700  0.95555900  0.86273100  1
  C  C123  1  0.95555900  0.86273100  0.71344700  1
  C  C124  1  0.45555900  0.86273100  0.78655300  1
  C  C125  1  0.95555900  0.63726900  0.21344700  1
  C  C126  1  0.54444100  0.36273100  0.71344700  1
  C  C127  1  0.63726900  0.21344700  0.95555900  1
  C  C128  1  0.71344700  0.54444100  0.36273100  1
  C  C129  1  0.21344700  0.95555900  0.63726900  1
  C  C130  1  0.86273100  0.78655300  0.45555900  1
  C  C131  1  0.78655300  0.45555900  0.86273100  1
  C  C132  1  0.36273100  0.71344700  0.54444100  1
  C  C133  1  0.13726900  0.28655300  0.04444100  1
  C  C134  1  0.28655300  0.04444100  0.13726900  1
  C  C135  1  0.04444100  0.13726900  0.28655300  1
  C  C136  1  0.14933900  0.01251900  0.98762100  1
  C  C137  1  0.98762100  0.14933900  0.01251900  1
  C  C138  1  0.01251900  0.98762100  0.14933900  1
  C  C139  1  0.48748100  0.01237900  0.64933900  1
  C  C140  1  0.48762100  0.35066100  0.98748100  1
  C  C141  1  0.98748100  0.48762100  0.35066100  1
  C  C142  1  0.51237900  0.85066100  0.51251900  1
  C  C143  1  0.01237900  0.64933900  0.48748100  1
  C  C144  1  0.51251900  0.51237900  0.85066100  1
  C  C145  1  0.64933900  0.48748100  0.01237900  1
  C  C146  1  0.85066100  0.51251900  0.51237900  1
  C  C147  1  0.35066100  0.98748100  0.48762100  1
  C  C148  1  0.85066100  0.98748100  0.01237900  1
  C  C149  1  0.01237900  0.85066100  0.98748100  1
  C  C150  1  0.98748100  0.01237900  0.85066100  1
  C  C151  1  0.51251900  0.98762100  0.35066100  1
  C  C152  1  0.51237900  0.64933900  0.01251900  1
  C  C153  1  0.01251900  0.51237900  0.64933900  1
  C  C154  1  0.48762100  0.14933900  0.48748100  1
  C  C155  1  0.98762100  0.35066100  0.51251900  1
  C  C156  1  0.48748100  0.48762100  0.14933900  1
  C  C157  1  0.35066100  0.51251900  0.98762100  1
  C  C158  1  0.14933900  0.48748100  0.48762100  1
  C  C159  1  0.64933900  0.01251900  0.51237900  1
  C  C160  1  0.81539000  0.25842100  0.06893100  1
  C  C161  1  0.31539000  0.24157900  0.93106900  1
  C  C162  1  0.18461000  0.75842100  0.43106900  1
  C  C163  1  0.24157900  0.93106900  0.31539000  1
  C  C164  1  0.43106900  0.18461000  0.75842100  1
  C  C165  1  0.93106900  0.31539000  0.24157900  1
  C  C166  1  0.25842100  0.06893100  0.81539000  1
  C  C167  1  0.06893100  0.81539000  0.25842100  1
  C  C168  1  0.75842100  0.43106900  0.18461000  1
  C  C169  1  0.74157900  0.56893100  0.68461000  1
  C  C170  1  0.56893100  0.68461000  0.74157900  1
  C  C171  1  0.68461000  0.74157900  0.56893100  1
  C  C172  1  0.18461000  0.74157900  0.93106900  1
  C  C173  1  0.68461000  0.75842100  0.06893100  1
  C  C174  1  0.81539000  0.24157900  0.56893100  1
  C  C175  1  0.75842100  0.06893100  0.68461000  1
  C  C176  1  0.56893100  0.81539000  0.24157900  1
  C  C177  1  0.06893100  0.68461000  0.75842100  1
  C  C178  1  0.74157900  0.93106900  0.18461000  1
  C  C179  1  0.93106900  0.18461000  0.74157900  1
  C  C180  1  0.24157900  0.56893100  0.81539000  1
  C  C181  1  0.25842100  0.43106900  0.31539000  1
  C  C182  1  0.43106900  0.31539000  0.25842100  1
  C  C183  1  0.31539000  0.25842100  0.43106900  1
  C  C184  1  0.23252800  0.23252800  0.23252800  1
  C  C185  1  0.26747200  0.73252800  0.23252800  1
  C  C186  1  0.73252800  0.23252800  0.26747200  1
  C  C187  1  0.76747200  0.76747200  0.76747200  1
  C  C188  1  0.76747200  0.73252800  0.26747200  1
  C  C189  1  0.73252800  0.26747200  0.76747200  1
  C  C190  1  0.26747200  0.76747200  0.73252800  1
  C  C191  1  0.23252800  0.26747200  0.73252800  1
