# generated using pymatgen
data_Cu2NiC6
_symmetry_space_group_name_H-M   'P 1'
_cell_length_a   3.89558501
_cell_length_b   4.14930500
_cell_length_c   7.32968254
_cell_angle_alpha   90.00000000
_cell_angle_beta   105.40451146
_cell_angle_gamma   90.00000000
_symmetry_Int_Tables_number   1
_chemical_formula_structural   Cu2NiC6
_chemical_formula_sum   'Cu2 Ni1 C6'
_cell_volume   114.22043294
_cell_formula_units_Z   1
loop_
 _symmetry_equiv_pos_site_id
 _symmetry_equiv_pos_as_xyz
  1  'x, y, z'
loop_
 _atom_site_type_symbol
 _atom_site_label
 _atom_site_symmetry_multiplicity
 _atom_site_fract_x
 _atom_site_fract_y
 _atom_site_fract_z
 _atom_site_occupancy
  C  C0  1  0.96520700  0.00000000  0.94541900  1
  Ni  Ni1  1  0.20230000  0.00000000  0.41859100  1
  Cu  Cu2  1  0.63486500  0.50000000  0.28371200  1
  Cu  Cu3  1  0.34474200  0.50000000  0.70429800  1
  C  C4  1  0.48525000  0.50000000  0.98574000  1
  C  C5  1  0.83156700  0.50000000  0.67792300  1
  C  C6  1  0.18253800  0.50000000  0.37906400  1
  C  C7  1  0.64205500  0.00000000  0.29791600  1
  C  C8  1  0.33897600  0.00000000  0.69275500  1
