# generated using pymatgen
data_CuNiC18
_symmetry_space_group_name_H-M   'P 1'
_cell_length_a   9.05604509
_cell_length_b   8.98626303
_cell_length_c   21.98686939
_cell_angle_alpha   89.20578102
_cell_angle_beta   90.31134956
_cell_angle_gamma   120.15605358
_symmetry_Int_Tables_number   1
_chemical_formula_structural   CuNiC18
_chemical_formula_sum   'Cu6 Ni6 C108'
_cell_volume   1546.97839224
_cell_formula_units_Z   6
loop_
 _symmetry_equiv_pos_site_id
 _symmetry_equiv_pos_as_xyz
  1  'x, y, z'
loop_
 _atom_site_type_symbol
 _atom_site_label
 _atom_site_symmetry_multiplicity
 _atom_site_fract_x
 _atom_site_fract_y
 _atom_site_fract_z
 _atom_site_occupancy
  C  C0  1  0.62570253  -0.00000481  0.25049302  1
  C  C1  1  0.35889334  0.34238032  0.25301054  1
  C  C2  1  0.01380341  0.65362992  0.24568843  1
  C  C3  1  0.63367971  0.64413777  0.74189247  1
  C  C4  1  0.98633835  0.35076357  0.75514217  1
  C  C5  1  0.37326014  0.00134562  0.75042521  1
  C  C6  1  0.31363241  0.34159258  0.58592705  1
  C  C7  1  0.02012797  0.69719995  0.57831872  1
  C  C8  1  0.66994552  0.95872649  0.58795943  1
  C  C9  1  0.29873391  0.96854346  0.09060020  1
  C  C10  1  0.70008428  0.03212759  0.91035531  1
  C  C11  1  0.70168759  0.66567004  0.42318778  1
  C  C12  1  0.00179065  0.00233171  0.49781006  1
  C  C13  1  0.00043254  0.00034456  0.00039370  1
  C  C14  1  0.66695781  0.33632314  0.83354689  1
  C  C15  1  0.64611071  0.30454443  0.33575948  1
  C  C16  1  0.33079523  0.66622225  0.16625804  1
  C  C17  1  0.35448602  0.67562393  0.66721252  1
  Ni  Ni18  1  0.99307135  0.00216236  0.85070154  1
  Ni  Ni19  1  0.00308398  0.99819522  0.15025753  1
  Ni  Ni20  1  0.66364258  0.33184539  0.18106931  1
  Ni  Ni21  1  0.66929959  0.33941812  0.98434930  1
  Ni  Ni22  1  0.33070505  0.66002391  0.01645646  1
  Ni  Ni23  1  0.33135640  0.67473139  0.31822433  1
  Cu  Cu24  1  0.02349738  0.01093073  0.34595396  1
  Cu  Cu25  1  0.96885607  0.97668689  0.65411836  1
  Cu  Cu26  1  0.66415569  0.33057001  0.68052752  1
  Cu  Cu27  1  0.67105696  0.33919152  0.48635691  1
  Cu  Cu28  1  0.34451723  0.66673999  0.51362251  1
  Cu  Cu29  1  0.34412543  0.67354686  0.82179441  1
  C  C30  1  0.30218917  0.00069896  0.24666058  1
  C  C31  1  0.69550726  0.00250881  0.75174882  1
  C  C32  1  0.66677748  0.62963627  0.58212864  1
  C  C33  1  0.70451116  0.70446761  0.25140281  1
  C  C34  1  0.99825148  0.29299554  0.24941016  1
  C  C35  1  0.28880516  0.29057884  0.75002716  1
  C  C36  1  0.00433036  0.70797518  0.75184286  1
  C  C37  1  0.96709365  0.33497181  0.58304222  1
  C  C38  1  0.36713165  0.03416263  0.58268911  1
  C  C39  1  0.96274772  0.63017854  0.08313382  1
  C  C40  1  0.66841683  0.03513910  0.08206759  1
  C  C41  1  0.37008530  0.33583798  0.08316243  1
  C  C42  1  0.63135358  0.66398337  0.91716693  1
  C  C43  1  0.03805228  0.37151148  0.91654873  1
  C  C44  1  0.33242756  0.96764262  0.91868722  1
  C  C45  1  0.63820346  0.97015333  0.41606310  1
  C  C46  1  0.32910753  0.36697709  0.41603113  1
  C  C47  1  0.03457159  0.66357615  0.41685685  1
  C  C48  1  0.21896939  0.04954821  0.30338788  1
  C  C49  1  0.80127337  0.77642178  0.30872566  1
  C  C50  1  0.95398753  0.18090379  0.30453503  1
  C  C51  1  0.19875207  0.17765773  0.80264809  1
  C  C52  1  0.98977369  0.80396296  0.80311148  1
  C  C53  1  0.81680269  0.03598468  0.81080178  1
  C  C54  1  0.77173728  0.96475683  0.69005124  1
  C  C55  1  0.19699481  0.21213625  0.69206681  1
  C  C56  1  0.03723133  0.80809451  0.69327910  1
  C  C57  1  0.78664145  0.82371406  0.19944658  1
  C  C58  1  0.02290849  0.20935787  0.19596530  1
  C  C59  1  0.18123691  0.96240041  0.18657066  1
  C  C60  1  0.89206693  0.35584849  0.64044707  1
  C  C61  1  0.46999609  0.10233080  0.63955006  1
  C  C62  1  0.63445566  0.50960451  0.64349386  1
  C  C63  1  0.88337448  0.53360830  0.14065620  1
  C  C64  1  0.64571110  0.11976185  0.13627956  1
  C  C65  1  0.46616136  0.35543396  0.14067943  1
  C  C66  1  0.46109621  0.31161413  0.03167961  1
  C  C67  1  0.85856872  0.53641318  0.03020251  1
  C  C68  1  0.68793915  0.13886980  0.02610401  1
  C  C69  1  0.45689797  0.14344573  0.52923179  1
  C  C70  1  0.69694061  0.54573767  0.52125318  1
  C  C71  1  0.85017584  0.29921330  0.53102423  1
  C  C72  1  0.53818357  0.68912638  0.96737516  1
  C  C73  1  0.14343647  0.46473011  0.96891508  1
  C  C74  1  0.31322725  0.86013033  0.97324411  1
  C  C75  1  0.55585605  0.86504931  0.47236198  1
  C  C76  1  0.31835852  0.44898567  0.47337205  1
  C  C77  1  0.13305500  0.67668928  0.47319675  1
  C  C78  1  0.12487548  0.65711534  0.36170087  1
  C  C79  1  0.53377878  0.88291315  0.36138379  1
  C  C80  1  0.34560499  0.47733639  0.36219336  1
  C  C81  1  0.11512313  0.46754294  0.85838722  1
  C  C82  1  0.35877819  0.88968966  0.86290311  1
  C  C83  1  0.53766056  0.63973361  0.85845228  1
  C  C84  1  0.00936460  0.81601386  0.41502763  1
  C  C85  1  0.80723303  0.97982038  0.41202121  1
  C  C86  1  0.17323253  0.19587691  0.41385891  1
  C  C87  1  0.01913498  0.19610982  0.91580290  1
  C  C88  1  0.18038196  0.98751727  0.91317570  1
  C  C89  1  0.80311566  0.82410122  0.91390435  1
  C  C90  1  -0.00000733  0.18874025  0.58706023  1
  C  C91  1  0.19996642  0.02696825  0.58726169  1
  C  C92  1  0.84102329  0.82183496  0.58496264  1
  C  C93  1  0.98011982  0.80427651  0.08369003  1
  C  C94  1  0.81910334  0.01340104  0.08802496  1
  C  C95  1  0.19744584  0.17770093  0.08610039  1
  C  C96  1  0.67718870  0.17742535  0.74463330  1
  C  C97  1  0.46418461  0.31568339  0.75018185  1
  C  C98  1  0.84327627  0.53881429  0.74941926  1
  C  C99  1  0.69429983  0.53469046  0.24264943  1
  C  C100  1  0.85465190  0.32767315  0.24072015  1
  C  C101  1  0.49723049  0.16999180  0.24181361  1
  C  C102  1  0.65211818  0.51174433  0.92557145  1
  C  C103  1  0.86102803  0.34628627  0.92054154  1
  C  C104  1  0.49282604  0.13984034  0.92357269  1
  C  C105  1  0.65608883  0.14300968  0.42009994  1
  C  C106  1  0.48746334  0.35436809  0.41651149  1
  C  C107  1  0.86223560  0.50510849  0.41739763  1
  C  C108  1  0.35221222  0.49042991  0.07592209  1
  C  C109  1  0.13930314  0.65418330  0.07950845  1
  C  C110  1  0.50687296  0.86332571  0.07805292  1
  C  C111  1  0.33708017  0.85554187  0.57704258  1
  C  C112  1  0.49538231  0.65202418  0.57859119  1
  C  C113  1  0.13397406  0.49798649  0.57560818  1
  C  C114  1  0.32050692  0.82690891  0.25476958  1
  C  C115  1  0.52637546  0.67353546  0.25613754  1
  C  C116  1  0.15940209  0.46215063  0.25668814  1
  C  C117  1  0.30033900  0.46208678  0.75410980  1
  C  C118  1  0.15094096  0.67831579  0.75811660  1
  C  C119  1  0.50251450  0.82877676  0.75735572  1
