# generated using pymatgen
data_CuNiC12
_symmetry_space_group_name_H-M   'P 1'
_cell_length_a   5.83211142
_cell_length_b   5.87145567
_cell_length_c   6.65166031
_cell_angle_alpha   90.00067780
_cell_angle_beta   90.06263046
_cell_angle_gamma   90.01336849
_symmetry_Int_Tables_number   1
_chemical_formula_structural   CuNiC12
_chemical_formula_sum   'Cu1 Ni1 C12'
_cell_volume   227.77255298
_cell_formula_units_Z   1
loop_
 _symmetry_equiv_pos_site_id
 _symmetry_equiv_pos_as_xyz
  1  'x, y, z'
loop_
 _atom_site_type_symbol
 _atom_site_label
 _atom_site_symmetry_multiplicity
 _atom_site_fract_x
 _atom_site_fract_y
 _atom_site_fract_z
 _atom_site_occupancy
  Ni  Ni0  1  0.50008063  0.00014041  0.97700361  1
  Cu  Cu1  1  0.00079282  0.00006922  0.16519373  1
  C  C2  1  0.30397385  0.66552813  0.12993735  1
  C  C3  1  0.69663909  0.33424166  0.13069681  1
  C  C4  1  0.69633003  0.66569581  0.13011023  1
  C  C5  1  0.30372825  0.33426805  0.13020843  1
  C  C6  1  0.99961541  0.50005206  0.83346939  1
  C  C7  1  0.49927395  0.99988752  0.48966273  1
  C  C8  1  0.99949852  -0.00001247  0.50967612  1
  C  C9  1  0.49984898  0.49979915  0.42546454  1
  C  C10  1  0.24654347  0.76026652  0.01980662  1
  C  C11  1  0.75361409  0.23987770  0.02039007  1
  C  C12  1  0.75358282  0.76036309  0.02013418  1
  C  C13  1  0.24647810  0.23982315  0.02004819  1
