# generated using pymatgen
data_CuNiC16
_symmetry_space_group_name_H-M   'P 1'
_cell_length_a   8.70137618
_cell_length_b   8.72826003
_cell_length_c   22.68459650
_cell_angle_alpha   89.46796134
_cell_angle_beta   90.00000000
_cell_angle_gamma   119.89816355
_symmetry_Int_Tables_number   1
_chemical_formula_structural   CuNiC16
_chemical_formula_sum   'Cu6 Ni6 C96'
_cell_volume   1493.47220020
_cell_formula_units_Z   6
loop_
 _symmetry_equiv_pos_site_id
 _symmetry_equiv_pos_as_xyz
  1  'x, y, z'
loop_
 _atom_site_type_symbol
 _atom_site_label
 _atom_site_symmetry_multiplicity
 _atom_site_fract_x
 _atom_site_fract_y
 _atom_site_fract_z
 _atom_site_occupancy
  Ni  Ni0  1  0.99178016  0.99553989  0.50064564  1
  Ni  Ni1  1  0.00375973  0.99553989  0.00064564  1
  Ni  Ni2  1  0.65844716  0.32887289  0.83397864  1
  Ni  Ni3  1  0.67042673  0.32887289  0.33397864  1
  Ni  Ni4  1  0.32511316  0.66220689  0.16731264  1
  Ni  Ni5  1  0.33709273  0.66220689  0.66731264  1
  Cu  Cu6  1  0.99408365  0.00447991  0.64665602  1
  Cu  Cu7  1  0.01039626  0.00447991  0.14665602  1
  Cu  Cu8  1  0.66075065  0.33781291  0.97998902  1
  Cu  Cu9  1  0.67706326  0.33781291  0.47998902  1
  Cu  Cu10  1  0.32741665  0.67114691  0.31332302  1
  Cu  Cu11  1  0.34372926  0.67114691  0.81332302  1
  C  C12  1  0.00278271  0.00531050  0.35272329  1
  C  C13  1  0.00252778  0.00531050  0.85272329  1
  C  C14  1  0.66944971  0.33864350  0.68605629  1
  C  C15  1  0.66919478  0.33864350  0.18605629  1
  C  C16  1  0.33611571  0.67197750  0.01939029  1
  C  C17  1  0.33586078  0.67197750  0.51939029  1
  C  C18  1  0.29376586  0.00629588  0.24987934  1
  C  C19  1  0.99669576  0.28821609  0.24916333  1
  C  C20  1  0.29152033  0.28821609  0.74916333  1
  C  C21  1  0.71253002  0.00629588  0.74987934  1
  C  C22  1  0.96043286  0.33962888  0.58321234  1
  C  C23  1  0.66336276  0.62154909  0.58249633  1
  C  C24  1  0.95818733  0.62154909  0.08249633  1
  C  C25  1  0.37919702  0.33962888  0.08321234  1
  C  C26  1  0.62709886  0.67296288  0.91654634  1
  C  C27  1  0.33002876  0.95488309  0.91583033  1
  C  C28  1  0.62485333  0.95488309  0.41583033  1
  C  C29  1  0.04586302  0.67296288  0.41654634  1
  C  C30  1  0.71227098  0.70911984  0.25017733  1
  C  C31  1  0.99684886  0.70911984  0.75017733  1
  C  C32  1  0.37893798  0.04245284  0.58351033  1
  C  C33  1  0.66351586  0.04245284  0.08351033  1
  C  C34  1  0.04560398  0.37578684  0.91684433  1
  C  C35  1  0.33018186  0.37578684  0.41684433  1
  C  C36  1  0.19780204  0.02962277  0.30524725  1
  C  C37  1  0.82255160  0.79132055  0.30362214  1
  C  C38  1  0.96888913  0.16772283  0.30546086  1
  C  C39  1  0.19883370  0.16772283  0.80546086  1
  C  C40  1  0.96876895  0.79132055  0.80362214  1
  C  C41  1  0.83182074  0.02962277  0.80524725  1
  C  C42  1  0.79370937  0.97371293  0.69544423  1
  C  C43  1  0.18041091  0.20215685  0.69499348  1
  C  C44  1  0.02504699  0.81482253  0.69669652  1
  C  C45  1  0.78977555  0.81482253  0.19669652  1
  C  C46  1  0.02174594  0.20215685  0.19499348  1
  C  C47  1  0.18000356  0.97371293  0.19544423  1
  C  C48  1  0.86446904  0.36295577  0.63858025  1
  C  C49  1  0.48921860  0.12465355  0.63695514  1
  C  C50  1  0.63555613  0.50105583  0.63879386  1
  C  C51  1  0.86550070  0.50105583  0.13879386  1
  C  C52  1  0.63543595  0.12465355  0.13695514  1
  C  C53  1  0.49848774  0.36295577  0.13858025  1
  C  C54  1  0.46037637  0.30704593  0.02877723  1
  C  C55  1  0.84707791  0.53548985  0.02832648  1
  C  C56  1  0.69171399  0.14815553  0.03002952  1
  C  C57  1  0.45644255  0.14815553  0.53002952  1
  C  C58  1  0.68841294  0.53548985  0.52832648  1
  C  C59  1  0.84667056  0.30704593  0.52877723  1
  C  C60  1  0.53113504  0.69628977  0.97191425  1
  C  C61  1  0.15588460  0.45798755  0.97028914  1
  C  C62  1  0.30222213  0.83438983  0.97212786  1
  C  C63  1  0.53216670  0.83438983  0.47212786  1
  C  C64  1  0.30210195  0.45798755  0.47028914  1
  C  C65  1  0.16515374  0.69628977  0.47191425  1
  C  C66  1  0.12704237  0.64037993  0.36211123  1
  C  C67  1  0.51374391  0.86882385  0.36166048  1
  C  C68  1  0.35837999  0.48148953  0.36336352  1
  C  C69  1  0.12310855  0.48148953  0.86336352  1
  C  C70  1  0.35507894  0.86882385  0.86166048  1
  C  C71  1  0.51333656  0.64037993  0.86211123  1
  C  C72  1  0.03190898  0.84309959  0.40904083  1
  C  C73  1  0.81093452  0.97056111  0.40878280  1
  C  C74  1  0.16624563  0.19752080  0.41141251  1
  C  C75  1  0.03127516  0.19752080  0.91141251  1
  C  C76  1  0.15962659  0.97056111  0.90878280  1
  C  C77  1  0.81119060  0.84309959  0.90904083  1
  C  C78  1  0.98617280  0.17932276  0.58965286  1
  C  C79  1  0.19969651  0.01720376  0.59025600  1
  C  C80  1  0.82613479  0.80397141  0.59014556  1
  C  C81  1  0.97783662  0.80397141  0.09014556  1
  C  C82  1  0.81750725  0.01720376  0.09025600  1
  C  C83  1  0.19314996  0.17932276  0.08965286  1
  C  C84  1  0.69857598  0.17643259  0.74237383  1
  C  C85  1  0.47760152  0.30389411  0.74211580  1
  C  C86  1  0.83291263  0.53085380  0.74474551  1
  C  C87  1  0.69794216  0.53085380  0.24474551  1
  C  C88  1  0.82629359  0.30389411  0.24211580  1
  C  C89  1  0.47785760  0.17643259  0.24237383  1
  C  C90  1  0.65283980  0.51265576  0.92298586  1
  C  C91  1  0.86636351  0.35053676  0.92358900  1
  C  C92  1  0.49280179  0.13730441  0.92347856  1
  C  C93  1  0.64450362  0.13730441  0.42347856  1
  C  C94  1  0.48417425  0.35053676  0.42358900  1
  C  C95  1  0.85981696  0.51265576  0.42298586  1
  C  C96  1  0.36524198  0.50976659  0.07570783  1
  C  C97  1  0.14426752  0.63722811  0.07544980  1
  C  C98  1  0.49957863  0.86418780  0.07807951  1
  C  C99  1  0.36460816  0.86418780  0.57807951  1
  C  C100  1  0.49295959  0.63722811  0.57544980  1
  C  C101  1  0.14452360  0.50976659  0.57570783  1
  C  C102  1  0.31950580  0.84598976  0.25631986  1
  C  C103  1  0.53302951  0.68387076  0.25692300  1
  C  C104  1  0.15946779  0.47063841  0.25681256  1
  C  C105  1  0.31116962  0.47063841  0.75681256  1
  C  C106  1  0.15084025  0.68387076  0.75692300  1
  C  C107  1  0.52648296  0.84598976  0.75631986  1
