# generated using pymatgen
data_Cu12NiC24
_symmetry_space_group_name_H-M   'P 1'
_cell_length_a   4.85108467
_cell_length_b   5.78816944
_cell_length_c   15.17524130
_cell_angle_alpha   92.70314023
_cell_angle_beta   89.20496479
_cell_angle_gamma   89.00238453
_symmetry_Int_Tables_number   1
_chemical_formula_structural   Cu12NiC24
_chemical_formula_sum   'Cu12 Ni1 C24'
_cell_volume   425.51935899
_cell_formula_units_Z   1
loop_
 _symmetry_equiv_pos_site_id
 _symmetry_equiv_pos_as_xyz
  1  'x, y, z'
loop_
 _atom_site_type_symbol
 _atom_site_label
 _atom_site_symmetry_multiplicity
 _atom_site_fract_x
 _atom_site_fract_y
 _atom_site_fract_z
 _atom_site_occupancy
  Ni  Ni0  1  0.50328900  0.09630700  0.07809200  1
  Cu  Cu1  1  0.99744700  0.12844000  0.41669800  1
  Cu  Cu2  1  0.05081500  0.82983000  0.23813100  1
  Cu  Cu3  1  0.01834800  0.35840800  0.08337200  1
  Cu  Cu4  1  0.01111000  0.17380100  0.74183000  1
  Cu  Cu5  1  0.01185200  0.82843800  0.57995300  1
  Cu  Cu6  1  0.01317900  0.87782600  0.91310600  1
  Cu  Cu7  1  0.49444200  0.35778100  0.59249400  1
  Cu  Cu8  1  0.44923500  0.35024600  0.90997300  1
  Cu  Cu9  1  0.50237300  0.28557600  0.26830400  1
  Cu  Cu10  1  0.52495800  0.62022700  0.09463200  1
  Cu  Cu11  1  0.51643300  0.63875500  0.42573500  1
  Cu  Cu12  1  0.45794100  0.66026800  0.74876800  1
  C  C13  1  0.21066200  0.08681200  0.30876800  1
  C  C14  1  0.21406700  0.12374500  0.63607700  1
  C  C15  1  0.20423900  0.15658200  0.98811300  1
  C  C16  1  0.33348100  0.86074500  0.15171600  1
  C  C17  1  0.21004700  0.86691500  0.47039900  1
  C  C18  1  0.22307500  0.91114100  0.79922400  1
  C  C19  1  0.33909500  0.35940000  0.15357000  1
  C  C20  1  0.27024100  0.61210900  0.64130000  1
  C  C21  1  0.23629900  0.40535100  0.80815700  1
  C  C22  1  0.68441800  0.37246500  0.01868500  1
  C  C23  1  0.85064300  0.59036600  0.16915100  1
  C  C24  1  0.72598600  0.35260500  0.36826600  1
  C  C25  1  0.72011500  0.60716000  0.53134000  1
  C  C26  1  0.70152600  0.39648400  0.69573500  1
  C  C27  1  0.29525600  0.59421100  0.31618900  1
  C  C28  1  0.26823500  0.36529500  0.48359200  1
  C  C29  1  0.22595200  0.62722700  0.99227700  1
  C  C30  1  0.67237000  0.64057100  0.86092000  1
  C  C31  1  0.80208600  0.11491900  0.17402900  1
  C  C32  1  0.74853200  0.11155600  0.52562800  1
  C  C33  1  0.76970300  0.85058100  0.33734800  1
  C  C34  1  0.72311800  0.86172000  0.01637200  1
  C  C35  1  0.76407000  0.14280000  0.85091400  1
  C  C36  1  0.76924900  0.89048000  0.69030300  1
