# generated using pymatgen
data_Cu16NiC33
_symmetry_space_group_name_H-M   'P 1'
_cell_length_a   5.90127553
_cell_length_b   10.51057357
_cell_length_c   9.53331901
_cell_angle_alpha   91.43483247
_cell_angle_beta   89.63844424
_cell_angle_gamma   90.16565116
_symmetry_Int_Tables_number   1
_chemical_formula_structural   Cu16NiC33
_chemical_formula_sum   'Cu16 Ni1 C33'
_cell_volume   591.11226519
_cell_formula_units_Z   1
loop_
 _symmetry_equiv_pos_site_id
 _symmetry_equiv_pos_as_xyz
  1  'x, y, z'
loop_
 _atom_site_type_symbol
 _atom_site_label
 _atom_site_symmetry_multiplicity
 _atom_site_fract_x
 _atom_site_fract_y
 _atom_site_fract_z
 _atom_site_occupancy
  C  C0  1  0.99940300  0.42540900  0.49989000  1
  Ni  Ni1  1  0.00817000  0.67863900  0.47552500  1
  Cu  Cu2  1  0.50000400  0.15983700  0.33805300  1
  Cu  Cu3  1  0.99939900  0.15553700  0.33349400  1
  Cu  Cu4  1  0.49926100  0.35643500  0.82695200  1
  Cu  Cu5  1  0.99930700  0.35388200  0.83119200  1
  Cu  Cu6  1  0.99995700  0.64608300  0.16361400  1
  Cu  Cu7  1  0.49882700  0.63827100  0.17694200  1
  Cu  Cu8  1  0.99845300  0.85594000  0.67187400  1
  Cu  Cu9  1  0.49921100  0.83895700  0.64861500  1
  Cu  Cu10  1  0.75101100  0.65827800  0.83767600  1
  Cu  Cu11  1  0.24786800  0.65795500  0.83749200  1
  Cu  Cu12  1  0.75184400  0.85837100  0.31815500  1
  Cu  Cu13  1  0.25630600  0.86063900  0.31658600  1
  Cu  Cu14  1  0.74778500  0.14695300  0.67308400  1
  Cu  Cu15  1  0.24726400  0.14764400  0.67299200  1
  Cu  Cu16  1  0.74840300  0.33865600  0.15570400  1
  Cu  Cu17  1  0.24931800  0.33870900  0.15535000  1
  C  C18  1  0.74677700  0.96438900  0.69059900  1
  C  C19  1  0.24473300  0.96774900  0.68873300  1
  C  C20  1  0.74989500  0.63794000  0.03887600  1
  C  C21  1  0.24600900  0.63948200  0.03580800  1
  C  C22  1  0.74706500  0.36266100  0.95697700  1
  C  C23  1  0.25024700  0.36272400  0.95726100  1
  C  C24  1  0.74735900  0.04180400  0.30166200  1
  C  C25  1  0.25331400  0.04468900  0.30751000  1
  C  C26  1  0.99834200  0.45690500  0.19082300  1
  C  C27  1  0.49875800  0.45450400  0.19231100  1
  C  C28  1  0.99792500  0.15221800  0.54066200  1
  C  C29  1  0.49977600  0.14640800  0.54166700  1
  C  C30  1  0.50276500  0.86004500  0.44837500  1
  C  C31  1  0.00001400  0.86583100  0.45497100  1
  C  C32  1  0.50015300  0.54102600  0.80321300  1
  C  C33  1  0.99951000  0.53935800  0.80370700  1
  C  C34  1  0.50085600  0.77865700  0.84139500  1
  C  C35  1  0.99954300  0.78263900  0.85604400  1
  C  C36  1  0.00298500  0.83402700  0.18576200  1
  C  C37  1  0.50722300  0.82536600  0.18809700  1
  C  C38  1  0.99922800  0.21780000  0.14066500  1
  C  C39  1  0.49888100  0.21677500  0.14306700  1
  C  C40  1  0.49715600  0.17032300  0.80657300  1
  C  C41  1  0.99725400  0.16855000  0.80662500  1
  C  C42  1  0.74777300  0.28365900  0.34777600  1
  C  C43  1  0.24765200  0.28060800  0.34788100  1
  C  C44  1  0.75097600  0.33628300  0.69572400  1
  C  C45  1  0.24921100  0.33858600  0.69615000  1
  C  C46  1  0.78083400  0.71305000  0.63811500  1
  C  C47  1  0.23034100  0.71946200  0.63534200  1
  C  C48  1  0.77682100  0.66753600  0.31796600  1
  C  C49  1  0.22883100  0.65716000  0.31156900  1
