# generated using pymatgen
data_Cu2Ni7C32
_symmetry_space_group_name_H-M   'P 1'
_cell_length_a   9.28926844
_cell_length_b   9.29956565
_cell_length_c   22.56838576
_cell_angle_alpha   90.00617008
_cell_angle_beta   89.93010247
_cell_angle_gamma   119.84717609
_symmetry_Int_Tables_number   1
_chemical_formula_structural   Cu2Ni7C32
_chemical_formula_sum   'Cu6 Ni21 C96'
_cell_volume   1690.99236638
_cell_formula_units_Z   3
loop_
 _symmetry_equiv_pos_site_id
 _symmetry_equiv_pos_as_xyz
  1  'x, y, z'
loop_
 _atom_site_type_symbol
 _atom_site_label
 _atom_site_symmetry_multiplicity
 _atom_site_fract_x
 _atom_site_fract_y
 _atom_site_fract_z
 _atom_site_occupancy
  Ni  Ni0  1  0.62351860  0.98177013  0.26003627  1
  Ni  Ni1  1  0.34765300  0.36910954  0.25520584  1
  Ni  Ni2  1  0.03153300  0.65448445  0.25530787  1
  Ni  Ni3  1  0.65803795  0.62772929  0.74508055  1
  Ni  Ni4  1  0.98107782  0.35440796  0.74080402  1
  Ni  Ni5  1  0.36967884  0.01994488  0.74205771  1
  Ni  Ni6  1  0.00731708  0.66933075  0.58483682  1
  Ni  Ni7  1  0.67334525  0.99843683  0.58418701  1
  Ni  Ni8  1  0.27127718  0.94145829  0.08703459  1
  Ni  Ni9  1  0.66794478  0.71816830  0.07755420  1
  Ni  Ni10  1  0.05459917  0.33642525  0.08807317  1
  Ni  Ni11  1  0.98647407  0.68872866  0.90636226  1
  Ni  Ni12  1  0.31727494  0.29305825  0.90789635  1
  Ni  Ni13  1  0.95798826  0.31175429  0.42835767  1
  Ni  Ni14  1  0.35713912  0.03426456  0.42474931  1
  Ni  Ni15  1  0.00212617  0.00291484  0.50186541  1
  Ni  Ni16  1  0.97426018  0.98317892  0.99397361  1
  Ni  Ni17  1  0.66820035  0.32904653  0.82011665  1
  Ni  Ni18  1  0.66585949  0.34112927  0.34876675  1
  Ni  Ni19  1  0.31691112  0.66695102  0.17264695  1
  Ni  Ni20  1  0.32707826  0.65335255  0.66284029  1
  Cu  Cu21  1  0.99256521  0.99766283  0.85113946  1
  Cu  Cu22  1  0.99834819  0.99694763  0.14336592  1
  Cu  Cu23  1  0.66606664  0.33401298  0.67298173  1
  Cu  Cu24  1  0.66075180  0.33420240  0.49117780  1
  Cu  Cu25  1  0.33416451  0.66944138  0.02291158  1
  Cu  Cu26  1  0.33650680  0.66793199  0.32053536  1
  C  C27  1  0.99826377  0.00276411  0.35023788  1
  C  C28  1  0.01106520  0.00474376  0.65241596  1
  C  C29  1  0.67021555  0.33327428  0.19190383  1
  C  C30  1  0.66965656  0.33713155  0.97429154  1
  C  C31  1  0.33927304  0.66866148  0.51363094  1
  C  C32  1  0.33744174  0.66746939  0.81573151  1
  C  C33  1  0.29869888  0.00515506  0.24570494  1
  C  C34  1  0.99638156  0.29490902  0.24505093  1
  C  C35  1  0.30190419  0.30477413  0.75612331  1
  C  C36  1  0.00450004  0.69797729  0.75496481  1
  C  C37  1  0.98708675  0.33365142  0.58261943  1
  C  C38  1  0.35003845  0.01443590  0.58174124  1
  C  C39  1  0.94906393  0.61672050  0.08291080  1
  C  C40  1  0.62969820  0.66299918  0.92294362  1
  C  C41  1  0.64275309  0.97063062  0.41191783  1
  C  C42  1  0.71104661  0.70080897  0.24761496  1
  C  C43  1  0.69634531  0.99216135  0.75011747  1
  C  C44  1  0.67038026  0.65497301  0.58669405  1
  C  C45  1  0.66383540  0.05598608  0.08321391  1
  C  C46  1  0.38918466  0.33231607  0.08296396  1
  C  C47  1  0.03598207  0.37884923  0.91942755  1
  C  C48  1  0.34385497  0.96671307  0.91940366  1
  C  C49  1  0.32371796  0.35869880  0.41149276  1
  C  C50  1  0.03637544  0.67639693  0.41403677  1
  C  C51  1  0.18940547  0.02473279  0.30401180  1
  C  C52  1  0.83411320  0.80458323  0.30022193  1
  C  C53  1  0.97320632  0.16261779  0.30279572  1
  C  C54  1  0.22783674  0.20875792  0.81634870  1
  C  C55  1  0.97619981  0.77201540  0.81438596  1
  C  C56  1  0.79990746  0.02227618  0.80508331  1
  C  C57  1  0.78296555  0.96611605  0.69431948  1
  C  C58  1  0.16527320  0.18670999  0.70157065  1
  C  C59  1  0.01847314  0.82661186  0.69882717  1
  C  C60  1  0.77547085  0.79243213  0.18934486  1
  C  C61  1  0.01851516  0.21878644  0.18488956  1
  C  C62  1  0.19501200  0.97457303  0.18599156  1
  C  C63  1  0.92843934  0.39578264  0.63998212  1
  C  C64  1  0.46753490  0.07672831  0.63937330  1
  C  C65  1  0.63208696  0.55956575  0.64509421  1
  C  C66  1  0.83510109  0.50448728  0.14173251  1
  C  C67  1  0.66449649  0.15343387  0.14131566  1
  C  C68  1  0.48852752  0.32942310  0.13914050  1
  C  C69  1  0.48943119  0.33256531  0.02605012  1
  C  C70  1  0.83817805  0.50148599  0.02364154  1
  C  C71  1  0.66089491  0.15764553  0.02842273  1
  C  C72  1  0.41841347  0.12019806  0.52252181  1
  C  C73  1  0.71773402  0.57557866  0.53699814  1
  C  C74  1  0.86114427  0.27988495  0.52735614  1
  C  C75  1  0.54656698  0.66871516  0.98371196  1
  C  C76  1  0.12412399  0.45690972  0.97719330  1
  C  C77  1  0.31812290  0.87014108  0.97642146  1
  C  C78  1  0.52468060  0.84119708  0.46768474  1
  C  C79  1  0.31166296  0.47104351  0.46158397  1
  C  C80  1  0.16121059  0.69211394  0.46578942  1
  C  C81  1  0.10375539  0.65317284  0.35539564  1
  C  C82  1  0.54491192  0.89687664  0.35178875  1
  C  C83  1  0.33331674  0.43604267  0.35132824  1
  C  C84  1  0.13607529  0.50172540  0.86517169  1
  C  C85  1  0.35698369  0.86540283  0.86433754  1
  C  C86  1  0.49884792  0.64508092  0.86478843  1
  C  C87  1  0.04086243  0.84845000  0.41330307  1
  C  C88  1  0.82628510  0.97427665  0.40991754  1
  C  C89  1  0.15028159  0.18719747  0.41360115  1
  C  C90  1  0.01667443  0.20870205  0.91249956  1
  C  C91  1  0.19903870  0.99980071  0.91250769  1
  C  C92  1  0.81937347  0.80471887  0.91802922  1
  C  C93  1  0.00170407  0.16613996  0.59826590  1
  C  C94  1  0.15612689  0.97888394  0.59474801  1
  C  C95  1  0.82061273  0.83719274  0.59337555  1
  C  C96  1  0.95400285  0.79122078  0.07420741  1
  C  C97  1  0.82295726  0.04604495  0.07813152  1
  C  C98  1  0.21882350  0.17557241  0.07741912  1
  C  C99  1  0.66134091  0.13570028  0.74160626  1
  C  C100  1  0.48557558  0.33611346  0.74327225  1
  C  C101  1  0.85292949  0.51183819  0.74476636  1
  C  C102  1  0.71173203  0.53020213  0.24896724  1
  C  C103  1  0.81373985  0.29484039  0.24740727  1
  C  C104  1  0.47762214  0.18994811  0.24672319  1
  C  C105  1  0.62496320  0.47478202  0.91849222  1
  C  C106  1  0.86084706  0.37120837  0.91681516  1
  C  C107  1  0.51054508  0.13956017  0.91926962  1
  C  C108  1  0.67217273  0.15568773  0.42116509  1
  C  C109  1  0.46521280  0.32325495  0.42090767  1
  C  C110  1  0.86526265  0.52812913  0.42599724  1
  C  C111  1  0.37845136  0.49100916  0.08889754  1
  C  C112  1  0.12576133  0.62522948  0.09150605  1
  C  C113  1  0.50555346  0.88663822  0.08851973  1
  C  C114  1  0.31762452  0.81915461  0.57005812  1
  C  C115  1  0.51759776  0.67950558  0.57130399  1
  C  C116  1  0.17462062  0.49062731  0.56516927  1
  C  C117  1  0.33677437  0.85500878  0.25284082  1
  C  C118  1  0.53313159  0.66324705  0.25722521  1
  C  C119  1  0.14677809  0.48072370  0.25346118  1
  C  C120  1  0.30025734  0.48676214  0.75765456  1
  C  C121  1  0.18968935  0.70444388  0.75726825  1
  C  C122  1  0.52335915  0.82275858  0.75639951  1
