# generated using pymatgen
data_CuNi3C16
_symmetry_space_group_name_H-M   'P 1'
_cell_length_a   9.23534613
_cell_length_b   9.25627165
_cell_length_c   23.01940539
_cell_angle_alpha   89.69790041
_cell_angle_beta   90.00000000
_cell_angle_gamma   119.92524522
_symmetry_Int_Tables_number   1
_chemical_formula_structural   CuNi3C16
_chemical_formula_sum   'Cu6 Ni18 C96'
_cell_volume   1705.42496712
_cell_formula_units_Z   6
loop_
 _symmetry_equiv_pos_site_id
 _symmetry_equiv_pos_as_xyz
  1  'x, y, z'
loop_
 _atom_site_type_symbol
 _atom_site_label
 _atom_site_symmetry_multiplicity
 _atom_site_fract_x
 _atom_site_fract_y
 _atom_site_fract_z
 _atom_site_occupancy
  Ni  Ni0  1  0.62423678  0.00796143  0.25377773  1
  Ni  Ni1  1  0.00852590  0.64676928  0.23833055  1
  Ni  Ni2  1  0.63824338  0.64676928  0.73833055  1
  Ni  Ni3  1  0.38372466  0.00796143  0.75377773  1
  Ni  Ni4  1  0.32058218  0.35083421  0.58544113  1
  Ni  Ni5  1  0.65315131  0.94332481  0.57908954  1
  Ni  Ni6  1  0.29017450  0.94332481  0.07908954  1
  Ni  Ni7  1  0.03025303  0.35083421  0.08544113  1
  Ni  Ni8  1  0.98674517  0.68396029  0.92542367  1
  Ni  Ni9  1  0.68678606  0.02659581  0.90430228  1
  Ni  Ni10  1  0.33980876  0.02659581  0.40430228  1
  Ni  Ni11  1  0.69721412  0.68396029  0.42542367  1
  Ni  Ni12  1  0.96997093  0.98255293  0.49420139  1
  Ni  Ni13  1  0.01258200  0.98255293  0.99420139  1
  Ni  Ni14  1  0.65653860  0.30409111  0.82816375  1
  Ni  Ni15  1  0.64755351  0.30409111  0.32816375  1
  Ni  Ni16  1  0.32672473  0.66840571  0.16187766  1
  Ni  Ni17  1  0.34167999  0.66840571  0.66187766  1
  Cu  Cu18  1  0.98369816  0.98582970  0.64942073  1
  Cu  Cu19  1  0.00213154  0.98582970  0.14942073  1
  Cu  Cu20  1  0.65808341  0.33579488  0.98370036  1
  Cu  Cu21  1  0.67771247  0.33579488  0.48370036  1
  Cu  Cu22  1  0.33715958  0.67366237  0.31734317  1
  Cu  Cu23  1  0.33650179  0.67366237  0.81734317  1
  C  C24  1  0.00784021  0.01340635  0.34951344  1
  C  C25  1  0.00556614  0.01340635  0.84951344  1
  C  C26  1  0.67748043  0.33653551  0.68315028  1
  C  C27  1  0.65905608  0.33653551  0.18315028  1
  C  C28  1  0.31753277  0.67246743  0.01536665  1
  C  C29  1  0.35493367  0.67246743  0.51536665  1
  C  C30  1  0.30601015  0.01020099  0.25275320  1
  C  C31  1  0.70419083  0.01020099  0.75275320  1
  C  C32  1  0.65853226  0.62616861  0.58447155  1
  C  C33  1  0.96763735  0.62616861  0.08447155  1
  C  C34  1  0.32481823  0.96880220  0.91660708  1
  C  C35  1  0.64398296  0.96880220  0.41660708  1
  C  C36  1  0.70582806  0.69931154  0.25290446  1
  C  C37  1  0.99399252  0.29185118  0.24938002  1
  C  C38  1  0.29785866  0.29185118  0.74938002  1
  C  C39  1  0.99348348  0.69931154  0.75290446  1
  C  C40  1  0.97193888  0.34202816  0.58543168  1
  C  C41  1  0.37267571  0.03558373  0.58446556  1
  C  C42  1  0.66290902  0.03558373  0.08446556  1
  C  C43  1  0.37009027  0.34202816  0.08543168  1
  C  C44  1  0.62997987  0.67168094  0.91803635  1
  C  C45  1  0.03891711  0.36467544  0.92001230  1
  C  C46  1  0.32575732  0.36467544  0.42001230  1
  C  C47  1  0.04170007  0.67168094  0.41803635  1
  C  C48  1  0.21093946  0.02154031  0.31101575  1
  C  C49  1  0.80727406  0.78118051  0.30487072  1
  C  C50  1  0.97466025  0.18310784  0.29893363  1
  C  C51  1  0.20844759  0.18310784  0.79893363  1
  C  C52  1  0.97390646  0.78118051  0.80487072  1
  C  C53  1  0.81060085  0.02154031  0.81101575  1
  C  C54  1  0.78580893  0.97603110  0.69454403  1
  C  C55  1  0.20710521  0.22086095  0.69416907  1
  C  C56  1  0.02927398  0.80886055  0.70110703  1
  C  C57  1  0.77958657  0.80886055  0.20110703  1
  C  C58  1  0.01375574  0.22086095  0.19416907  1
  C  C59  1  0.19022217  0.97603110  0.19454403  1
  C  C60  1  0.88515483  0.35649548  0.63683511  1
  C  C61  1  0.47989220  0.11673381  0.63589025  1
  C  C62  1  0.64018598  0.51094904  0.64164767  1
  C  C63  1  0.87076406  0.51094904  0.14164767  1
  C  C64  1  0.63684261  0.11673381  0.13589025  1
  C  C65  1  0.47134165  0.35649548  0.13683511  1
  C  C66  1  0.43945286  0.30413267  0.03321887  1
  C  C67  1  0.86618719  0.54154197  0.02430499  1
  C  C68  1  0.68622670  0.13720209  0.03118083  1
  C  C69  1  0.45097639  0.13720209  0.53118083  1
  C  C70  1  0.67535579  0.54154197  0.52430499  1
  C  C71  1  0.86468081  0.30413267  0.53321887  1
  C  C72  1  0.53553880  0.68136617  0.96729122  1
  C  C73  1  0.13762142  0.44504061  0.97253235  1
  C  C74  1  0.30053978  0.85187751  0.97411695  1
  C  C75  1  0.55133673  0.85187751  0.47411695  1
  C  C76  1  0.30741819  0.44504061  0.47253235  1
  C  C77  1  0.14582637  0.68136617  0.46729122  1
  C  C78  1  0.10994493  0.64654572  0.36265888  1
  C  C79  1  0.52643346  0.88300293  0.35831728  1
  C  C80  1  0.34807669  0.46831372  0.36788634  1
  C  C81  1  0.12023603  0.46831372  0.86788634  1
  C  C82  1  0.35656847  0.88300293  0.85831728  1
  C  C83  1  0.53659979  0.64654572  0.86265888  1
  C  C84  1  0.03190032  0.82794002  0.41475823  1
  C  C85  1  0.82473927  0.97617107  0.40902652  1
  C  C86  1  0.18048336  0.19435014  0.41474743  1
  C  C87  1  0.01386678  0.19435014  0.91474743  1
  C  C88  1  0.15143179  0.97617107  0.90902652  1
  C  C89  1  0.79603971  0.82794002  0.91475823  1
  C  C90  1  0.99954851  0.19498189  0.59056037  1
  C  C91  1  0.20920766  0.02976484  0.58971700  1
  C  C92  1  0.81981677  0.82011602  0.58437417  1
  C  C93  1  0.00029925  0.82011602  0.08437417  1
  C  C94  1  0.82055718  0.02976484  0.08971700  1
  C  C95  1  0.19543338  0.19498189  0.09056037  1
  C  C96  1  0.67065802  0.16794395  0.74493133  1
  C  C97  1  0.46771897  0.30860169  0.74689074  1
  C  C98  1  0.83736633  0.53697288  0.74536630  1
  C  C99  1  0.69960755  0.53697288  0.24536630  1
  C  C100  1  0.84088373  0.30860169  0.24689074  1
  C  C101  1  0.49728693  0.16794395  0.24493133  1
  C  C102  1  0.66256895  0.52881884  0.92143474  1
  C  C103  1  0.86916206  0.35120084  0.92246824  1
  C  C104  1  0.50310793  0.14863521  0.91926874  1
  C  C105  1  0.64552828  0.14863521  0.41926874  1
  C  C106  1  0.48203978  0.35120084  0.42246824  1
  C  C107  1  0.86625089  0.52881884  0.42143474  1
  C  C108  1  0.35551514  0.49259429  0.07773571  1
  C  C109  1  0.15582554  0.64159932  0.08183894  1
  C  C110  1  0.51544524  0.86691330  0.07872121  1
  C  C111  1  0.35146706  0.86691330  0.57872121  1
  C  C112  1  0.48577277  0.64159932  0.58183894  1
  C  C113  1  0.13707816  0.49259429  0.57773571  1
  C  C114  1  0.31855709  0.83330273  0.25267725  1
  C  C115  1  0.53394239  0.67449549  0.25694803  1
  C  C116  1  0.14228106  0.46301986  0.25484955  1
  C  C117  1  0.32073780  0.46301986  0.75484955  1
  C  C118  1  0.14055209  0.67449549  0.75694803  1
  C  C119  1  0.51474464  0.83330273  0.75267725  1
