# generated using pymatgen
data_Cu3NiC31
_symmetry_space_group_name_H-M   'P 1'
_cell_length_a   8.49731849
_cell_length_b   8.49731824
_cell_length_c   22.08482750
_cell_angle_alpha   90.00000000
_cell_angle_beta   90.00000000
_cell_angle_gamma   120.00000103
_symmetry_Int_Tables_number   1
_chemical_formula_structural   Cu3NiC31
_chemical_formula_sum   'Cu9 Ni3 C93'
_cell_volume   1380.98327384
_cell_formula_units_Z   3
loop_
 _symmetry_equiv_pos_site_id
 _symmetry_equiv_pos_as_xyz
  1  'x, y, z'
loop_
 _atom_site_type_symbol
 _atom_site_label
 _atom_site_symmetry_multiplicity
 _atom_site_fract_x
 _atom_site_fract_y
 _atom_site_fract_z
 _atom_site_occupancy
  C  C0  1  -0.00000000  -0.00000000  0.99928335  1
  C  C1  1  0.66666700  0.33333300  0.83409904  1
  C  C2  1  0.66666700  0.33333300  0.33327598  1
  Ni  Ni3  1  -0.00000000  -0.00000000  0.35451420  1
  Ni  Ni4  1  -0.00000000  -0.00000000  0.85234587  1
  Ni  Ni5  1  0.66666700  0.33333300  0.98093570  1
  Cu  Cu6  1  -0.00000000  -0.00000000  0.64740964  1
  Cu  Cu7  1  -0.00000000  -0.00000000  0.14986048  1
  Cu  Cu8  1  0.66666700  0.33333300  0.68424203  1
  Cu  Cu9  1  0.66666700  0.33333300  0.18350959  1
  Cu  Cu10  1  0.66666700  0.33333300  0.48220392  1
  Cu  Cu11  1  0.33333300  0.66666700  0.02012636  1
  Cu  Cu12  1  0.33333300  0.66666700  0.51991491  1
  Cu  Cu13  1  0.33333300  0.66666700  0.31335447  1
  Cu  Cu14  1  0.33333300  0.66666700  0.81323350  1
  C  C15  1  0.29135027  0.99965989  0.25036491  1
  C  C16  1  0.70830962  0.70864973  0.25036491  1
  C  C17  1  0.00034011  0.29169038  0.25036491  1
  C  C18  1  0.29105182  0.29152560  0.74998539  1
  C  C19  1  0.00047378  0.70894818  0.74998539  1
  C  C20  1  0.70847440  0.99952622  0.74998539  1
  C  C21  1  0.95798219  0.33312755  0.58333389  1
  C  C22  1  0.37514636  0.04201781  0.58333389  1
  C  C23  1  0.66687245  0.62485364  0.58333389  1
  C  C24  1  0.95865482  0.62507023  0.08312975  1
  C  C25  1  0.66641641  0.04134518  0.08312975  1
  C  C26  1  0.37492977  0.33358359  0.08312975  1
  C  C27  1  0.62194466  0.66667378  0.91666494  1
  C  C28  1  0.04472812  0.37805534  0.91666494  1
  C  C29  1  0.33332622  0.95527188  0.91666494  1
  C  C30  1  0.62281383  0.95592645  0.41721429  1
  C  C31  1  0.33311162  0.37718617  0.41721429  1
  C  C32  1  0.04407355  0.66688838  0.41721429  1
  C  C33  1  0.21324534  0.03486895  0.30377479  1
  C  C34  1  0.82162361  0.78675466  0.30377479  1
  C  C35  1  0.96513105  0.17837639  0.30377479  1
  C  C36  1  0.21383137  0.17875141  0.80363471  1
  C  C37  1  0.96492004  0.78616863  0.80363471  1
  C  C38  1  0.82124859  0.03507996  0.80363471  1
  C  C39  1  0.78784043  0.96671754  0.69467439  1
  C  C40  1  0.17887712  0.21215957  0.69467439  1
  C  C41  1  0.03328246  0.82112288  0.69467439  1
  C  C42  1  0.78690138  0.82044262  0.19484822  1
  C  C43  1  0.03354125  0.21309862  0.19484822  1
  C  C44  1  0.17955738  0.96645875  0.19484822  1
  C  C45  1  0.87783933  0.36867265  0.63776495  1
  C  C46  1  0.49083432  0.12216067  0.63776495  1
  C  C47  1  0.63132735  0.50916568  0.63776495  1
  C  C48  1  0.87955528  0.51276703  0.13848980  1
  C  C49  1  0.63321274  0.12044472  0.13848980  1
  C  C50  1  0.48723297  0.36678726  0.13848980  1
  C  C51  1  0.45288340  0.29828812  0.02962568  1
  C  C52  1  0.84540572  0.54711660  0.02962568  1
  C  C53  1  0.70171188  0.15459428  0.02962568  1
  C  C54  1  0.45538139  0.15761242  0.52883186  1
  C  C55  1  0.70223203  0.54461861  0.52883186  1
  C  C56  1  0.84238758  0.29776797  0.52883186  1
  C  C57  1  0.54126176  0.69984063  0.97173629  1
  C  C58  1  0.15857787  0.45873824  0.97173629  1
  C  C59  1  0.30015937  0.84142213  0.97173629  1
  C  C60  1  0.54028352  0.84326901  0.47196752  1
  C  C61  1  0.30298449  0.45971648  0.47196752  1
  C  C62  1  0.15673099  0.69701551  0.47196752  1
  C  C63  1  0.12178951  0.62823447  0.36231484  1
  C  C64  1  0.50644396  0.87821049  0.36231484  1
  C  C65  1  0.37176553  0.49355604  0.36231484  1
  C  C66  1  0.12538390  0.49189985  0.86157659  1
  C  C67  1  0.36651495  0.87461610  0.86157659  1
  C  C68  1  0.50810015  0.63348505  0.86157659  1
  C  C69  1  0.02482748  0.82505367  0.40928854  1
  C  C70  1  0.80022619  0.97517252  0.40928854  1
  C  C71  1  0.17494632  0.19977381  0.40928854  1
  C  C72  1  0.02785909  0.19837562  0.91032764  1
  C  C73  1  0.17051653  0.97214091  0.91032764  1
  C  C74  1  0.80162438  0.82948347  0.91032764  1
  C  C75  1  0.97500419  0.17005724  0.59164798  1
  C  C76  1  0.19505306  0.02499581  0.59164798  1
  C  C77  1  0.82994276  0.80494694  0.59164798  1
  C  C78  1  0.97728999  0.80891715  0.09125956  1
  C  C79  1  0.83162716  0.02271001  0.09125956  1
  C  C80  1  0.19108285  0.16837284  0.09125956  1
  C  C81  1  0.68949577  0.16489504  0.74199929  1
  C  C82  1  0.47540027  0.31050423  0.74199929  1
  C  C83  1  0.83510496  0.52459973  0.74199929  1
  C  C84  1  0.68924929  0.52449352  0.24211672  1
  C  C85  1  0.83524523  0.31075071  0.24211672  1
  C  C86  1  0.47550648  0.16475477  0.24211672  1
  C  C87  1  0.63878904  0.50387001  0.92298885  1
  C  C88  1  0.86508197  0.36121096  0.92298885  1
  C  C89  1  0.49612999  0.13491803  0.92298885  1
  C  C90  1  0.63851128  0.13946725  0.42405254  1
  C  C91  1  0.50095697  0.36148872  0.42405254  1
  C  C92  1  0.86053275  0.49904303  0.42405254  1
  C  C93  1  0.35590237  0.49612592  0.07600791  1
  C  C94  1  0.14022255  0.64409763  0.07600791  1
  C  C95  1  0.50387408  0.85977745  0.07600791  1
  C  C96  1  0.35814288  0.86193537  0.57512681  1
  C  C97  1  0.50379149  0.64185712  0.57512681  1
  C  C98  1  0.13806463  0.49620851  0.57512681  1
  C  C99  1  0.31058999  0.83698444  0.25748401  1
  C  C100  1  0.52639344  0.68941001  0.25748401  1
  C  C101  1  0.16301556  0.47360656  0.25748401  1
  C  C102  1  0.31068305  0.47339045  0.75721963  1
  C  C103  1  0.16270640  0.68931695  0.75721963  1
  C  C104  1  0.52660955  0.83729360  0.75721963  1
