# generated using pymatgen
data_Cu4Ni2C9
_symmetry_space_group_name_H-M   'P 1'
_cell_length_a   6.88463067
_cell_length_b   5.92225825
_cell_length_c   6.01900212
_cell_angle_alpha   61.90174829
_cell_angle_beta   76.95428407
_cell_angle_gamma   112.35354985
_symmetry_Int_Tables_number   1
_chemical_formula_structural   Cu4Ni2C9
_chemical_formula_sum   'Cu4 Ni2 C9'
_cell_volume   173.82741527
_cell_formula_units_Z   1
loop_
 _symmetry_equiv_pos_site_id
 _symmetry_equiv_pos_as_xyz
  1  'x, y, z'
loop_
 _atom_site_type_symbol
 _atom_site_label
 _atom_site_symmetry_multiplicity
 _atom_site_fract_x
 _atom_site_fract_y
 _atom_site_fract_z
 _atom_site_occupancy
  C  C0  1  0.37861217  0.27120024  0.85908746  1
  Ni  Ni1  1  0.88119524  0.91774891  0.09232678  1
  Ni  Ni2  1  0.87025178  0.61511365  0.65894849  1
  Cu  Cu3  1  0.37775534  0.25195985  0.37134012  1
  Cu  Cu4  1  0.87245123  0.25399661  0.37506628  1
  Cu  Cu5  1  0.36973113  0.75294970  0.35924059  1
  Cu  Cu6  1  0.37128225  0.75671435  0.87902796  1
  C  C7  1  0.15089827  0.26759502  0.15707865  1
  C  C8  1  0.55568842  0.22801270  0.09971693  1
  C  C9  1  0.55728606  0.72255742  0.07159511  1
  C  C10  1  0.12348244  0.72994673  0.17994864  1
  C  C11  1  0.59531438  0.24377824  0.58466029  1
  C  C12  1  0.18924705  0.27592472  0.63454477  1
  C  C13  1  0.20434857  0.78422189  0.65749936  1
  C  C14  1  0.62745565  0.78244697  0.55116856  1
