# generated using pymatgen
data_Cu(NiC9)4
_symmetry_space_group_name_H-M   'P 1'
_cell_length_a   9.17405183
_cell_length_b   9.17785459
_cell_length_c   22.61964775
_cell_angle_alpha   90.04694566
_cell_angle_beta   89.78148784
_cell_angle_gamma   119.95554833
_symmetry_Int_Tables_number   1
_chemical_formula_structural   Cu(NiC9)4
_chemical_formula_sum   'Cu3 Ni12 C108'
_cell_volume   1650.09781591
_cell_formula_units_Z   3
loop_
 _symmetry_equiv_pos_site_id
 _symmetry_equiv_pos_as_xyz
  1  'x, y, z'
loop_
 _atom_site_type_symbol
 _atom_site_label
 _atom_site_symmetry_multiplicity
 _atom_site_fract_x
 _atom_site_fract_y
 _atom_site_fract_z
 _atom_site_occupancy
  C  C0  1  0.36521405  0.36512116  0.25068201  1
  C  C1  1  0.99799625  0.63216723  0.24738058  1
  C  C2  1  0.63572253  0.64028920  0.74865033  1
  C  C3  1  0.99356031  0.35996899  0.75246934  1
  C  C4  1  0.37191031  0.00116632  0.74762978  1
  C  C5  1  0.29966541  0.32568009  0.58138056  1
  C  C6  1  0.03615135  0.70258781  0.58269228  1
  C  C7  1  0.66233959  0.96720191  0.58709438  1
  C  C8  1  0.29757137  0.96468845  0.08326397  1
  C  C9  1  0.67318058  0.69896898  0.08227147  1
  C  C10  1  0.03247249  0.33996426  0.08479925  1
  C  C11  1  0.96537912  0.66545248  0.92002357  1
  C  C12  1  0.70129584  0.03379495  0.91364540  1
  C  C13  1  0.96837426  0.30174527  0.41558184  1
  C  C14  1  0.33476525  0.03405888  0.41924378  1
  C  C15  1  0.99263009  0.98820954  0.49976429  1
  C  C16  1  0.01154359  0.00712879  0.99943127  1
  C  C17  1  0.65496100  0.32840004  0.83388639  1
  C  C18  1  0.66671873  0.33350211  0.33321165  1
  C  C19  1  0.34001129  0.67806459  0.16712346  1
  C  C20  1  0.33925936  0.67656832  0.66656924  1
  Ni  Ni21  1  0.99238124  0.99360163  0.34921454  1
  Ni  Ni22  1  0.00370329  0.00579486  0.84964639  1
  Ni  Ni23  1  0.00006027  0.00009035  0.65161372  1
  Ni  Ni24  1  0.99528896  0.99616912  0.15206338  1
  Ni  Ni25  1  0.66495660  0.32729535  0.68174393  1
  Ni  Ni26  1  0.66997837  0.32883551  0.18298193  1
  Ni  Ni27  1  0.66343344  0.33635639  0.98415449  1
  Ni  Ni28  1  0.66178124  0.33576028  0.48327396  1
  Ni  Ni29  1  0.33069286  0.66401763  0.01504568  1
  Ni  Ni30  1  0.33880786  0.67067234  0.51444620  1
  Ni  Ni31  1  0.34115352  0.67316571  0.31739393  1
  Ni  Ni32  1  0.33664002  0.66792576  0.81854677  1
  Cu  Cu33  1  0.70059484  0.00042429  0.75073641  1
  Cu  Cu34  1  0.36385776  0.03115048  0.58271910  1
  Cu  Cu35  1  0.96736742  0.63401493  0.08341594  1
  C  C36  1  0.29945669  0.00086567  0.25066976  1
  C  C37  1  0.69836213  0.69784248  0.24840134  1
  C  C38  1  0.00070275  0.29993917  0.25134349  1
  C  C39  1  0.29893310  0.29931285  0.74883363  1
  C  C40  1  0.99930809  0.70009595  0.75087566  1
  C  C41  1  0.96617327  0.33482797  0.58181200  1
  C  C42  1  0.66747337  0.63003525  0.58457002  1
  C  C43  1  0.66621259  0.03581343  0.08117332  1
  C  C44  1  0.36888190  0.33252193  0.08572566  1
  C  C45  1  0.63401403  0.66583927  0.91630163  1
  C  C46  1  0.03283350  0.36562142  0.91723052  1
  C  C47  1  0.33340073  0.96829097  0.91677187  1
  C  C48  1  0.63516497  0.96857197  0.41822531  1
  C  C49  1  0.33239614  0.36657230  0.41518765  1
  C  C50  1  0.03382977  0.66555925  0.41590013  1
  C  C51  1  0.21793976  0.02932882  0.30659087  1
  C  C52  1  0.81603577  0.78525941  0.30093862  1
  C  C53  1  0.98344069  0.19870407  0.30793011  1
  C  C54  1  0.21767187  0.17900816  0.80139334  1
  C  C55  1  0.97292074  0.78096231  0.80692401  1
  C  C56  1  0.81548039  0.03268385  0.80963337  1
  C  C57  1  0.78131160  0.96580069  0.69122865  1
  C  C58  1  0.19758038  0.22666544  0.69102780  1
  C  C59  1  0.03415215  0.81013590  0.69492796  1
  C  C60  1  0.77131334  0.79491645  0.18981491  1
  C  C61  1  0.02560101  0.21748824  0.19504892  1
  C  C62  1  0.19093990  0.97267786  0.19460099  1
  C  C63  1  0.89177027  0.37012625  0.63818937  1
  C  C64  1  0.47877288  0.11060720  0.64192946  1
  C  C65  1  0.64143737  0.52884373  0.64236425  1
  C  C66  1  0.88663426  0.51707263  0.14245539  1
  C  C67  1  0.62532169  0.11378829  0.13448536  1
  C  C68  1  0.47184201  0.36060489  0.14296563  1
  C  C69  1  0.44734655  0.29218057  0.03238548  1
  C  C70  1  0.85098426  0.55334892  0.02450492  1
  C  C71  1  0.69447179  0.13874830  0.02378832  1
  C  C72  1  0.44428829  0.14819158  0.52374964  1
  C  C73  1  0.70299364  0.54830721  0.53133134  1
  C  C74  1  0.85831046  0.30955171  0.52629726  1
  C  C75  1  0.55013002  0.69053419  0.97221809  1
  C  C76  1  0.13269671  0.44758485  0.97419216  1
  C  C77  1  0.30583492  0.85937006  0.97276951  1
  C  C78  1  0.56230435  0.87167457  0.47677593  1
  C  C79  1  0.30757890  0.44893314  0.47156660  1
  C  C80  1  0.14252561  0.69380631  0.47192910  1
  C  C81  1  0.11553550  0.63741115  0.35994171  1
  C  C82  1  0.51744885  0.88175598  0.36566118  1
  C  C83  1  0.34958459  0.46805461  0.35868829  1
  C  C84  1  0.11691171  0.47417655  0.86137074  1
  C  C85  1  0.36089335  0.88698642  0.86068967  1
  C  C86  1  0.53414337  0.64803013  0.85940965  1
  C  C87  1  0.02398734  0.82948300  0.41175386  1
  C  C88  1  0.81507926  0.99413150  0.41251444  1
  C  C89  1  0.16947307  0.18866388  0.41331912  1
  C  C90  1  0.00927671  0.18656086  0.91480969  1
  C  C91  1  0.16928167  0.97725726  0.91265109  1
  C  C92  1  0.81204367  0.82777348  0.91472293  1
  C  C93  1  0.97831379  0.17243868  0.58629109  1
  C  C94  1  0.17502265  0.01160334  0.58671521  1
  C  C95  1  0.82267029  0.80972757  0.58701332  1
  C  C96  1  0.98740108  0.82331164  0.08695133  1
  C  C97  1  0.83020627  0.02680620  0.08808792  1
  C  C98  1  0.18708692  0.17945896  0.08973105  1
  C  C99  1  0.68480398  0.17177776  0.74816321  1
  C  C100  1  0.48027248  0.32763413  0.74566306  1
  C  C101  1  0.83698482  0.52591113  0.74568679  1
  C  C102  1  0.68136939  0.51954547  0.24691861  1
  C  C103  1  0.84539221  0.32429380  0.24882814  1
  C  C104  1  0.47332561  0.16344856  0.24617933  1
  C  C105  1  0.65737669  0.51014016  0.91876659  1
  C  C106  1  0.85509289  0.35046531  0.91885781  1
  C  C107  1  0.49664276  0.14150929  0.92088015  1
  C  C108  1  0.65266630  0.14720327  0.41976936  1
  C  C109  1  0.48753629  0.34200425  0.41746809  1
  C  C110  1  0.86018878  0.50270843  0.42042659  1
  C  C111  1  0.35906831  0.49614972  0.07871414  1
  C  C112  1  0.15668048  0.65374227  0.08001246  1
  C  C113  1  0.51305978  0.85425150  0.07730127  1
  C  C114  1  0.34537782  0.84268441  0.57929836  1
  C  C115  1  0.50350457  0.63998624  0.57880720  1
  C  C116  1  0.14622356  0.49000076  0.57716788  1
  C  C117  1  0.30908828  0.83686513  0.25482276  1
  C  C118  1  0.51848780  0.67265713  0.25404925  1
  C  C119  1  0.16350876  0.47797766  0.25324654  1
  C  C120  1  0.30787994  0.47224422  0.75564712  1
  C  C121  1  0.15487311  0.67547022  0.75542604  1
  C  C122  1  0.51137423  0.83104455  0.75347245  1
