# generated using pymatgen
data_CuNiC13
_symmetry_space_group_name_H-M   'P 1'
_cell_length_a   5.43041626
_cell_length_b   5.60291046
_cell_length_c   7.38994443
_cell_angle_alpha   107.93183047
_cell_angle_beta   110.36968069
_cell_angle_gamma   89.56181386
_symmetry_Int_Tables_number   1
_chemical_formula_structural   CuNiC13
_chemical_formula_sum   'Cu1 Ni1 C13'
_cell_volume   199.29533505
_cell_formula_units_Z   1
loop_
 _symmetry_equiv_pos_site_id
 _symmetry_equiv_pos_as_xyz
  1  'x, y, z'
loop_
 _atom_site_type_symbol
 _atom_site_label
 _atom_site_symmetry_multiplicity
 _atom_site_fract_x
 _atom_site_fract_y
 _atom_site_fract_z
 _atom_site_occupancy
  Ni  Ni0  1  0.74825750  0.34697182  0.93598809  1
  C  C1  1  0.60819567  0.69991925  0.69979821  1
  C  C2  1  0.12954073  0.20198642  0.70480402  1
  C  C3  1  0.76601330  0.84863155  0.27911096  1
  Cu  Cu4  1  0.39942230  0.33084928  0.21476438  1
  C  C5  1  0.36063179  0.53570875  0.41059490  1
  C  C6  1  0.64910207  0.46300870  0.18451968  1
  C  C7  1  0.47688488  0.02509517  0.79274012  1
  C  C8  1  0.83749874  0.85753321  0.58241137  1
  C  C9  1  0.36458337  0.48406088  0.75901920  1
  C  C10  1  0.83013583  0.39925257  0.69215450  1
  C  C11  1  0.13144751  0.26490043  0.00900157  1
  C  C12  1  0.80712369  0.75699479  0.01880451  1
  C  C13  1  0.49414004  0.05953029  0.24556044  1
  C  C14  1  0.09146658  0.06305589  0.41517304  1
