# generated using pymatgen
data_Cu(NiC2)2
_symmetry_space_group_name_H-M   'P 1'
_cell_length_a   4.71127100
_cell_length_b   8.43967900
_cell_length_c   9.09317400
_cell_angle_alpha   90.00000000
_cell_angle_beta   90.00000000
_cell_angle_gamma   90.00000000
_symmetry_Int_Tables_number   1
_chemical_formula_structural   Cu(NiC2)2
_chemical_formula_sum   'Cu4 Ni8 C16'
_cell_volume   361.55928301
_cell_formula_units_Z   4
loop_
 _symmetry_equiv_pos_site_id
 _symmetry_equiv_pos_as_xyz
  1  'x, y, z'
loop_
 _atom_site_type_symbol
 _atom_site_label
 _atom_site_symmetry_multiplicity
 _atom_site_fract_x
 _atom_site_fract_y
 _atom_site_fract_z
 _atom_site_occupancy
  Ni  Ni0  1  0.17330000  0.27926900  0.29300000  1
  Ni  Ni1  1  0.67330000  0.22073100  0.70700000  1
  Ni  Ni2  1  0.82670000  0.77926900  0.20700000  1
  Ni  Ni3  1  0.32670000  0.72073100  0.79300000  1
  Ni  Ni4  1  0.73420100  0.54039400  0.48548000  1
  Ni  Ni5  1  0.23420100  0.95960600  0.51452000  1
  Ni  Ni6  1  0.26579900  0.04039400  0.01452000  1
  Ni  Ni7  1  0.76579900  0.45960600  0.98548000  1
  Cu  Cu8  1  0.17689100  0.53785300  0.37900600  1
  Cu  Cu9  1  0.32310900  0.46214700  0.87900600  1
  Cu  Cu10  1  0.82310900  0.03785300  0.12099400  1
  Cu  Cu11  1  0.67689100  0.96214700  0.62099400  1
  C  C12  1  0.82261800  0.14315100  0.67047800  1
  C  C13  1  0.17738200  0.64315100  0.82952200  1
  C  C14  1  0.67738200  0.85684900  0.17047800  1
  C  C15  1  0.97005400  0.12532900  0.26248200  1
  C  C16  1  0.02994600  0.62532900  0.23751800  1
  C  C17  1  0.52994600  0.87467100  0.76248200  1
  C  C18  1  0.55682500  0.12881000  0.04100600  1
  C  C19  1  0.47005400  0.37467100  0.73751800  1
  C  C20  1  0.44317500  0.62881000  0.45899400  1
  C  C21  1  0.94317500  0.87119000  0.54100600  1
  C  C22  1  0.57607100  0.51462700  0.00918100  1
  C  C23  1  0.05682500  0.37119000  0.95899400  1
  C  C24  1  0.92392900  0.48537300  0.50918100  1
  C  C25  1  0.42392900  0.01462700  0.49081900  1
  C  C26  1  0.07607100  0.98537300  0.99081900  1
  C  C27  1  0.32261800  0.35684900  0.32952200  1
