# generated using pymatgen
data_CuNiC5
_symmetry_space_group_name_H-M   'P 1'
_cell_length_a   5.58219967
_cell_length_b   9.93018918
_cell_length_c   9.40774274
_cell_angle_alpha   18.54336388
_cell_angle_beta   35.33477269
_cell_angle_gamma   39.34853453
_symmetry_Int_Tables_number   1
_chemical_formula_structural   CuNiC5
_chemical_formula_sum   'Cu1 Ni1 C5'
_cell_volume   95.91767613
_cell_formula_units_Z   1
loop_
 _symmetry_equiv_pos_site_id
 _symmetry_equiv_pos_as_xyz
  1  'x, y, z'
loop_
 _atom_site_type_symbol
 _atom_site_label
 _atom_site_symmetry_multiplicity
 _atom_site_fract_x
 _atom_site_fract_y
 _atom_site_fract_z
 _atom_site_occupancy
  Ni  Ni0  1  0.00040811  -0.00004292  -0.00018909  1
  Cu  Cu1  1  0.49963654  0.00009067  0.49989625  1
  C  C2  1  0.49980728  0.49995146  0.50025235  1
  C  C3  1  0.43195492  -0.00103082  0.18100338  1
  C  C4  1  0.15575103  0.49929570  0.26344304  1
  C  C5  1  0.56839621  0.00089270  0.81921959  1
  C  C6  1  0.84404592  0.50084220  0.73637447  1
