# generated using pymatgen
data_Cu(NiC8)2
_symmetry_space_group_name_H-M   'P 1'
_cell_length_a   9.00470839
_cell_length_b   9.00470808
_cell_length_c   23.02361033
_cell_angle_alpha   89.85905036
_cell_angle_beta   90.14094964
_cell_angle_gamma   119.64960275
_symmetry_Int_Tables_number   1
_chemical_formula_structural   Cu(NiC8)2
_chemical_formula_sum   'Cu6 Ni12 C96'
_cell_volume   1622.42343077
_cell_formula_units_Z   6
loop_
 _symmetry_equiv_pos_site_id
 _symmetry_equiv_pos_as_xyz
  1  'x, y, z'
loop_
 _atom_site_type_symbol
 _atom_site_label
 _atom_site_symmetry_multiplicity
 _atom_site_fract_x
 _atom_site_fract_y
 _atom_site_fract_z
 _atom_site_occupancy
  C  C0  1  0.99428924  0.63051029  0.25037788  1
  C  C1  1  0.36948971  0.00571076  0.75037788  1
  C  C2  1  0.66095624  0.96384329  0.58371088  1
  C  C3  1  0.03615671  0.33904376  0.08371088  1
  C  C4  1  0.32762224  0.29717729  0.91704488  1
  C  C5  1  0.70282271  0.67237776  0.41704488  1
  C  C6  1  0.01039926  0.00191118  0.49867807  1
  C  C7  1  0.99808882  0.98960074  0.99867807  1
  C  C8  1  0.67706626  0.33524418  0.83201107  1
  C  C9  1  0.66475582  0.32293374  0.33201107  1
  C  C10  1  0.34373226  0.66857818  0.16534507  1
  C  C11  1  0.33142182  0.65626774  0.66534507  1
  C  C12  1  0.99710098  0.00205492  0.35308089  1
  C  C13  1  0.99794508  0.00289902  0.85308089  1
  C  C14  1  0.66376798  0.33538792  0.68641389  1
  C  C15  1  0.66461208  0.33623202  0.18641389  1
  C  C16  1  0.33043398  0.66872192  0.01974789  1
  C  C17  1  0.33127808  0.66956602  0.51974789  1
  C  C18  1  0.00145280  0.99946505  0.64671806  1
  C  C19  1  0.00053495  0.99854720  0.14671806  1
  C  C20  1  0.66811980  0.33279805  0.98005106  1
  C  C21  1  0.66720195  0.33188020  0.48005106  1
  C  C22  1  0.33478580  0.66613205  0.31338506  1
  C  C23  1  0.33386795  0.66521420  0.81338506  1
  Ni  Ni24  1  0.70653323  0.71256061  0.25028120  1
  Ni  Ni25  1  0.00270513  0.29177467  0.24935026  1
  Ni  Ni26  1  0.28743939  0.29346677  0.75028120  1
  Ni  Ni27  1  0.70822533  0.99729487  0.74935026  1
  Ni  Ni28  1  0.37320023  0.04589361  0.58361420  1
  Ni  Ni29  1  0.66937213  0.62510767  0.58268326  1
  Ni  Ni30  1  0.95410639  0.62679977  0.08361420  1
  Ni  Ni31  1  0.37489233  0.33062787  0.08268326  1
  Ni  Ni32  1  0.03986623  0.37922761  0.91694820  1
  Ni  Ni33  1  0.33603813  0.95844167  0.91601726  1
  Ni  Ni34  1  0.62077239  0.96013377  0.41694820  1
  Ni  Ni35  1  0.04155833  0.66396187  0.41601726  1
  Cu  Cu36  1  0.28884211  0.99922423  0.25062273  1
  Cu  Cu37  1  0.00077577  0.71115789  0.75062273  1
  Cu  Cu38  1  0.95550911  0.33255723  0.58395573  1
  Cu  Cu39  1  0.66744277  0.04449089  0.08395573  1
  Cu  Cu40  1  0.62217511  0.66589123  0.91728973  1
  Cu  Cu41  1  0.33410877  0.37782489  0.41728973  1
  C  C42  1  0.20680219  0.02498508  0.30396691  1
  C  C43  1  0.82621069  0.79155434  0.30732040  1
  C  C44  1  0.97558147  0.17541500  0.30549533  1
  C  C45  1  0.20844566  0.17378931  0.80732040  1
  C  C46  1  0.97501492  0.79319781  0.80396691  1
  C  C47  1  0.82458500  0.02441853  0.80549533  1
  C  C48  1  0.80169987  0.96982297  0.69119084  1
  C  C49  1  0.16280511  0.19094252  0.69385397  1
  C  C50  1  0.03311118  0.83067341  0.69607863  1
  C  C51  1  0.80905748  0.83719489  0.19385397  1
  C  C52  1  0.03017703  0.19830013  0.19119084  1
  C  C53  1  0.16932659  0.96688882  0.19607863  1
  C  C54  1  0.87346919  0.35831808  0.63729991  1
  C  C55  1  0.49287769  0.12488734  0.64065340  1
  C  C56  1  0.64224847  0.50874800  0.63882833  1
  C  C57  1  0.87511266  0.50712231  0.14065340  1
  C  C58  1  0.64168192  0.12653081  0.13729991  1
  C  C59  1  0.49125200  0.35775153  0.13882833  1
  C  C60  1  0.46836687  0.30315597  0.02452384  1
  C  C61  1  0.82947211  0.52427552  0.02718697  1
  C  C62  1  0.69977818  0.16400641  0.02941163  1
  C  C63  1  0.47572448  0.17052789  0.52718697  1
  C  C64  1  0.69684403  0.53163313  0.52452384  1
  C  C65  1  0.83599359  0.30022182  0.52941163  1
  C  C66  1  0.54013519  0.69165208  0.97063391  1
  C  C67  1  0.15954369  0.45822134  0.97398740  1
  C  C68  1  0.30891447  0.84208200  0.97216233  1
  C  C69  1  0.54177866  0.84045631  0.47398740  1
  C  C70  1  0.30834792  0.45986481  0.47063391  1
  C  C71  1  0.15791800  0.69108553  0.47216233  1
  C  C72  1  0.13503287  0.63648997  0.35785784  1
  C  C73  1  0.49613811  0.85760952  0.36052097  1
  C  C74  1  0.36644418  0.49734041  0.36274563  1
  C  C75  1  0.14239048  0.50386189  0.86052097  1
  C  C76  1  0.36351003  0.86496713  0.85785784  1
  C  C77  1  0.50265959  0.63355582  0.86274563  1
  C  C78  1  0.01203724  0.82708329  0.41053798  1
  C  C79  1  0.80693710  0.97349102  0.41035002  1
  C  C80  1  0.18154189  0.19893857  0.40950198  1
  C  C81  1  0.02650898  0.19306290  0.91035002  1
  C  C82  1  0.17291671  0.98796276  0.91053798  1
  C  C83  1  0.80106143  0.81845811  0.90950198  1
  C  C84  1  0.96369952  0.16244348  0.58977619  1
  C  C85  1  0.18349966  0.02719618  0.59167137  1
  C  C86  1  0.83922008  0.81912198  0.59114730  1
  C  C87  1  0.97280382  0.81650034  0.09167137  1
  C  C88  1  0.83755652  0.03630048  0.08977619  1
  C  C89  1  0.18087802  0.16077992  0.09114730  1
  C  C90  1  0.67870424  0.16041629  0.74387098  1
  C  C91  1  0.47360410  0.30682402  0.74368302  1
  C  C92  1  0.84820889  0.53227157  0.74283498  1
  C  C93  1  0.69317598  0.52639590  0.24368302  1
  C  C94  1  0.83958371  0.32129576  0.24387098  1
  C  C95  1  0.46772843  0.15179111  0.24283498  1
  C  C96  1  0.63036652  0.49577648  0.92310919  1
  C  C97  1  0.85016666  0.36052918  0.92500437  1
  C  C98  1  0.50588708  0.15245498  0.92448030  1
  C  C99  1  0.63947082  0.14983334  0.42500437  1
  C  C100  1  0.50422352  0.36963348  0.42310919  1
  C  C101  1  0.84754502  0.49411292  0.42448030  1
  C  C102  1  0.34537024  0.49375029  0.07720498  1
  C  C103  1  0.14027010  0.64015802  0.07701702  1
  C  C104  1  0.51487489  0.86560557  0.07616898  1
  C  C105  1  0.35984198  0.85972990  0.57701702  1
  C  C106  1  0.50624971  0.65462976  0.57720498  1
  C  C107  1  0.13439443  0.48512511  0.57616898  1
  C  C108  1  0.29703252  0.82911048  0.25644319  1
  C  C109  1  0.51683266  0.69386318  0.25833837  1
  C  C110  1  0.17255308  0.48578898  0.25781430  1
  C  C111  1  0.30613682  0.48316734  0.75833837  1
  C  C112  1  0.17088952  0.70296748  0.75644319  1
  C  C113  1  0.51421102  0.82744692  0.75781430  1
