# generated using pymatgen
data_Cu2NiC6
_symmetry_space_group_name_H-M   'P 1'
_cell_length_a   4.72599729
_cell_length_b   10.53992071
_cell_length_c   9.45205656
_cell_angle_alpha   63.35920908
_cell_angle_beta   89.98710683
_cell_angle_gamma   89.99223598
_symmetry_Int_Tables_number   1
_chemical_formula_structural   Cu2NiC6
_chemical_formula_sum   'Cu8 Ni4 C24'
_cell_volume   420.83764612
_cell_formula_units_Z   4
loop_
 _symmetry_equiv_pos_site_id
 _symmetry_equiv_pos_as_xyz
  1  'x, y, z'
loop_
 _atom_site_type_symbol
 _atom_site_label
 _atom_site_symmetry_multiplicity
 _atom_site_fract_x
 _atom_site_fract_y
 _atom_site_fract_z
 _atom_site_occupancy
  Ni  Ni0  1  0.00000000  0.00000000  0.50000000  1
  Ni  Ni1  1  0.50000000  0.50000000  0.00000000  1
  Ni  Ni2  1  0.00000000  0.00000000  0.00000000  1
  Ni  Ni3  1  0.50000000  0.50000000  0.50000000  1
  Cu  Cu4  1  0.99997700  0.66767500  0.66615400  1
  Cu  Cu5  1  0.99999200  0.66768400  0.16615700  1
  Cu  Cu6  1  0.00002300  0.33232500  0.33384600  1
  Cu  Cu7  1  0.00000800  0.33231600  0.83384300  1
  Cu  Cu8  1  0.50000900  0.16792300  0.16601800  1
  Cu  Cu9  1  0.49998600  0.16792400  0.66604300  1
  Cu  Cu10  1  0.49999100  0.83207700  0.83398200  1
  Cu  Cu11  1  0.50001400  0.83207600  0.33395700  1
  C  C12  1  0.30966100  0.00000600  0.34517100  1
  C  C13  1  0.30966800  0.99999900  0.84516200  1
  C  C14  1  0.69033900  0.99999400  0.65482900  1
  C  C15  1  0.69033200  0.00000100  0.15483800  1
  C  C16  1  0.19040500  0.50000700  0.84520100  1
  C  C17  1  0.19039900  0.49999700  0.34519100  1
  C  C18  1  0.80959500  0.49999300  0.15479900  1
  C  C19  1  0.80960100  0.50000300  0.65480900  1
  C  C20  1  0.30254200  0.32837100  0.18454000  1
  C  C21  1  0.30250400  0.32834600  0.68457400  1
  C  C22  1  0.19748300  0.82792200  0.68478200  1
  C  C23  1  0.19751100  0.82791300  0.18480200  1
  C  C24  1  0.30249800  0.67164800  0.01291400  1
  C  C25  1  0.30254000  0.67163000  0.51291700  1
  C  C26  1  0.19750100  0.17208400  0.01271000  1
  C  C27  1  0.19752100  0.17209300  0.51270000  1
  C  C28  1  0.80249900  0.82791600  0.98729000  1
  C  C29  1  0.80247900  0.82790700  0.48730000  1
  C  C30  1  0.69750200  0.32835200  0.98708600  1
  C  C31  1  0.69746000  0.32837000  0.48708300  1
  C  C32  1  0.69745800  0.67162900  0.81546000  1
  C  C33  1  0.69749600  0.67165400  0.31542600  1
  C  C34  1  0.80251700  0.17207800  0.31521800  1
  C  C35  1  0.80248900  0.17208700  0.81519800  1
