# generated using pymatgen
data_Cu2NiC15
_symmetry_space_group_name_H-M   'P 1'
_cell_length_a   9.04985591
_cell_length_b   9.04985560
_cell_length_c   23.64037123
_cell_angle_alpha   90.00000000
_cell_angle_beta   90.00000000
_cell_angle_gamma   120.00000116
_symmetry_Int_Tables_number   1
_chemical_formula_structural   Cu2NiC15
_chemical_formula_sum   'Cu12 Ni6 C90'
_cell_volume   1676.74968308
_cell_formula_units_Z   6
loop_
 _symmetry_equiv_pos_site_id
 _symmetry_equiv_pos_as_xyz
  1  'x, y, z'
loop_
 _atom_site_type_symbol
 _atom_site_label
 _atom_site_symmetry_multiplicity
 _atom_site_fract_x
 _atom_site_fract_y
 _atom_site_fract_z
 _atom_site_occupancy
  C  C0  1  -0.00000000  0.00000000  0.49356919  1
  C  C1  1  -0.00000000  0.00000000  0.99356919  1
  C  C2  1  0.66666700  0.33333300  0.82915742  1
  C  C3  1  0.66666700  0.33333300  0.32915742  1
  C  C4  1  0.33333300  0.66666700  0.16412213  1
  C  C5  1  0.33333300  0.66666700  0.66412213  1
  C  C6  1  -0.00000000  0.00000000  0.35225643  1
  C  C7  1  -0.00000000  0.00000000  0.85225643  1
  C  C8  1  -0.00000000  0.00000000  0.64801131  1
  C  C9  1  -0.00000000  0.00000000  0.14801131  1
  C  C10  1  0.66666700  0.33333300  0.68757753  1
  C  C11  1  0.66666700  0.33333300  0.18757753  1
  C  C12  1  0.33333300  0.66666700  0.01844971  1
  C  C13  1  0.33333300  0.66666700  0.51844971  1
  C  C14  1  0.66666700  0.33333300  0.97572902  1
  C  C15  1  0.66666700  0.33333300  0.47572902  1
  C  C16  1  0.33333300  0.66666700  0.32500543  1
  C  C17  1  0.33333300  0.66666700  0.82500543  1
  Ni  Ni18  1  0.62348851  0.65683797  0.91958022  1
  Ni  Ni19  1  0.03334846  0.37651149  0.91958022  1
  Ni  Ni20  1  0.34316203  0.96665154  0.91958022  1
  Ni  Ni21  1  0.62348851  0.96665154  0.41958022  1
  Ni  Ni22  1  0.34316203  0.37651149  0.41958022  1
  Ni  Ni23  1  0.03334846  0.65683797  0.41958022  1
  Cu  Cu24  1  0.30206555  0.98419937  0.25423070  1
  Cu  Cu25  1  0.68213382  0.69793445  0.25423070  1
  Cu  Cu26  1  0.01580063  0.31786618  0.25423070  1
  Cu  Cu27  1  0.30206555  0.31786618  0.75423070  1
  Cu  Cu28  1  0.01580063  0.69793445  0.75423070  1
  Cu  Cu29  1  0.68213382  0.98419937  0.75423070  1
  Cu  Cu30  1  0.94822028  0.32773104  0.57925634  1
  Cu  Cu31  1  0.37951176  0.05177972  0.57925634  1
  Cu  Cu32  1  0.67226896  0.62048824  0.57925634  1
  Cu  Cu33  1  0.94822028  0.62048824  0.07925634  1
  Cu  Cu34  1  0.67226896  0.05177972  0.07925634  1
  Cu  Cu35  1  0.37951176  0.32773104  0.07925634  1
  C  C36  1  0.21758622  0.00836759  0.30261383  1
  C  C37  1  0.79078137  0.78241378  0.30261383  1
  C  C38  1  0.99163241  0.20921863  0.30261383  1
  C  C39  1  0.21758622  0.20921863  0.80261383  1
  C  C40  1  0.99163241  0.78241378  0.80261383  1
  C  C41  1  0.79078137  0.00836759  0.80261383  1
  C  C42  1  0.74850316  0.95327071  0.70110617  1
  C  C43  1  0.20476755  0.25149684  0.70110617  1
  C  C44  1  0.04672929  0.79523245  0.70110617  1
  C  C45  1  0.74850316  0.79523245  0.20110617  1
  C  C46  1  0.04672929  0.25149684  0.20110617  1
  C  C47  1  0.20476755  0.95327071  0.20110617  1
  C  C48  1  0.86403564  0.33442155  0.63106002  1
  C  C49  1  0.47038691  0.13596436  0.63106002  1
  C  C50  1  0.66557845  0.52961309  0.63106002  1
  C  C51  1  0.86403564  0.52961309  0.13106002  1
  C  C52  1  0.66557845  0.13596436  0.13106002  1
  C  C53  1  0.47038691  0.33442155  0.13106002  1
  C  C54  1  0.48491450  0.32767938  0.02755506  1
  C  C55  1  0.84276588  0.51508550  0.02755506  1
  C  C56  1  0.67232062  0.15723412  0.02755506  1
  C  C57  1  0.48491450  0.15723412  0.52755506  1
  C  C58  1  0.67232062  0.51508550  0.52755506  1
  C  C59  1  0.84276588  0.32767938  0.52755506  1
  C  C60  1  0.54694426  0.68122362  0.97201524  1
  C  C61  1  0.13427836  0.45305574  0.97201524  1
  C  C62  1  0.31877638  0.86572164  0.97201524  1
  C  C63  1  0.54694426  0.86572164  0.47201524  1
  C  C64  1  0.31877638  0.45305574  0.47201524  1
  C  C65  1  0.13427836  0.68122362  0.47201524  1
  C  C66  1  0.13273264  0.62945578  0.36667967  1
  C  C67  1  0.49672215  0.86726736  0.36667967  1
  C  C68  1  0.37054422  0.50327785  0.36667967  1
  C  C69  1  0.13273264  0.50327785  0.86667967  1
  C  C70  1  0.37054422  0.86726736  0.86667967  1
  C  C71  1  0.49672215  0.62945578  0.86667967  1
  C  C72  1  0.99426623  0.79589594  0.40707110  1
  C  C73  1  0.80162971  0.00573377  0.40707110  1
  C  C74  1  0.20410406  0.19837029  0.40707110  1
  C  C75  1  0.99426623  0.19837029  0.90707110  1
  C  C76  1  0.20410406  0.00573377  0.90707110  1
  C  C77  1  0.80162971  0.79589594  0.90707110  1
  C  C78  1  0.95349075  0.16747752  0.57537487  1
  C  C79  1  0.21398677  0.04650925  0.57537487  1
  C  C80  1  0.83252248  0.78601323  0.57537487  1
  C  C81  1  0.95349075  0.78601323  0.07537487  1
  C  C82  1  0.83252248  0.04650925  0.07537487  1
  C  C83  1  0.21398677  0.16747752  0.07537487  1
  C  C84  1  0.64927910  0.12840966  0.75002621  1
  C  C85  1  0.47913156  0.35072090  0.75002621  1
  C  C86  1  0.87159034  0.52086844  0.75002621  1
  C  C87  1  0.64927910  0.52086844  0.25002621  1
  C  C88  1  0.87159034  0.35072090  0.25002621  1
  C  C89  1  0.47913156  0.12840966  0.25002621  1
  C  C90  1  0.62459324  0.48032685  0.92431758  1
  C  C91  1  0.85573461  0.37540676  0.92431758  1
  C  C92  1  0.51967315  0.14426539  0.92431758  1
  C  C93  1  0.62459324  0.14426539  0.42431758  1
  C  C94  1  0.51967315  0.37540676  0.42431758  1
  C  C95  1  0.85573461  0.48032685  0.42431758  1
  C  C96  1  0.36192369  0.47986248  0.07678008  1
  C  C97  1  0.11793779  0.63807631  0.07678008  1
  C  C98  1  0.52013752  0.88206221  0.07678008  1
  C  C99  1  0.36192369  0.88206221  0.57678008  1
  C  C100  1  0.52013752  0.63807631  0.57678008  1
  C  C101  1  0.11793779  0.47986248  0.57678008  1
  C  C102  1  0.31602276  0.82364262  0.26437351  1
  C  C103  1  0.50761887  0.68397724  0.26437351  1
  C  C104  1  0.17635738  0.49238113  0.26437351  1
  C  C105  1  0.31602276  0.49238113  0.76437351  1
  C  C106  1  0.17635738  0.68397724  0.76437351  1
  C  C107  1  0.50761887  0.82364262  0.76437351  1
