# generated using pymatgen
data_Cu4NiC14
_symmetry_space_group_name_H-M   'P 1'
_cell_length_a   5.67413590
_cell_length_b   5.91749623
_cell_length_c   10.16703931
_cell_angle_alpha   106.96909944
_cell_angle_beta   106.32005894
_cell_angle_gamma   89.90890939
_symmetry_Int_Tables_number   1
_chemical_formula_structural   Cu4NiC14
_chemical_formula_sum   'Cu4 Ni1 C14'
_cell_volume   312.15151939
_cell_formula_units_Z   1
loop_
 _symmetry_equiv_pos_site_id
 _symmetry_equiv_pos_as_xyz
  1  'x, y, z'
loop_
 _atom_site_type_symbol
 _atom_site_label
 _atom_site_symmetry_multiplicity
 _atom_site_fract_x
 _atom_site_fract_y
 _atom_site_fract_z
 _atom_site_occupancy
  C  C0  1  0.60627731  0.08846358  0.18799191  1
  C  C1  1  0.39778005  0.86097188  0.77738905  1
  C  C2  1  0.12203635  0.58395936  0.22240320  1
  C  C3  1  0.91723072  0.40039018  0.81207825  1
  Ni  Ni4  1  0.60243139  0.43991779  0.49986023  1
  Cu  Cu5  1  0.01030897  0.98514128  0.99834485  1
  Cu  Cu6  1  0.51208279  0.48682703  0.00174152  1
  Cu  Cu7  1  0.19698019  0.17798163  0.49981138  1
  Cu  Cu8  1  0.68452982  0.87709144  0.50028473  1
  C  C9  1  0.25978583  0.23337275  0.99606949  1
  C  C10  1  0.26350435  0.73785428  0.00630971  1
  C  C11  1  0.75754016  0.23216918  0.99405491  1
  C  C12  1  0.76341565  0.73742361  0.00375796  1
  C  C13  1  0.27288057  0.24395216  0.34590442  1
  C  C14  1  0.81271891  0.75652941  0.65591212  1
  C  C15  1  0.65516813  0.60066141  0.34451732  1
  C  C16  1  0.42708228  0.39915234  0.65317571  1
  C  C17  1  0.84458317  0.17194785  0.49993042  1
  C  C18  1  0.33624737  0.88202685  0.50046183  1
