# generated using pymatgen
data_Cu2Ni4C3
_symmetry_space_group_name_H-M   'P 1'
_cell_length_a   13.91073100
_cell_length_b   13.91073100
_cell_length_c   13.91073100
_cell_angle_alpha   90.00000000
_cell_angle_beta   90.00000000
_cell_angle_gamma   90.00000000
_symmetry_Int_Tables_number   1
_chemical_formula_structural   Cu2Ni4C3
_chemical_formula_sum   'Cu16 Ni32 C24'
_cell_volume   2691.84381270
_cell_formula_units_Z   8
loop_
 _symmetry_equiv_pos_site_id
 _symmetry_equiv_pos_as_xyz
  1  'x, y, z'
loop_
 _atom_site_type_symbol
 _atom_site_label
 _atom_site_symmetry_multiplicity
 _atom_site_fract_x
 _atom_site_fract_y
 _atom_site_fract_z
 _atom_site_occupancy
  Ni  Ni0  1  0.02901600  0.00569400  0.24902900  1
  Ni  Ni1  1  0.24902900  0.02901600  0.00569400  1
  Ni  Ni2  1  0.00569400  0.24902900  0.02901600  1
  Ni  Ni3  1  0.49430600  0.75097200  0.52901600  1
  Ni  Ni4  1  0.74902800  0.47098400  0.99430600  1
  Ni  Ni5  1  0.99430600  0.74902800  0.47098400  1
  Ni  Ni6  1  0.25097200  0.97098400  0.50569400  1
  Ni  Ni7  1  0.75097200  0.52901600  0.49430600  1
  Ni  Ni8  1  0.50569400  0.25097200  0.97098400  1
  Ni  Ni9  1  0.52901600  0.49430600  0.75097200  1
  Ni  Ni10  1  0.97098400  0.50569400  0.25097200  1
  Ni  Ni11  1  0.47098400  0.99430600  0.74902800  1
  Ni  Ni12  1  0.97098400  0.99430600  0.75097200  1
  Ni  Ni13  1  0.75097200  0.97098400  0.99430600  1
  Ni  Ni14  1  0.99430600  0.75097200  0.97098400  1
  Ni  Ni15  1  0.50569400  0.24902900  0.47098400  1
  Ni  Ni16  1  0.25097200  0.52901600  0.00569400  1
  Ni  Ni17  1  0.00569400  0.25097200  0.52901600  1
  Ni  Ni18  1  0.74902800  0.02901600  0.49430600  1
  Ni  Ni19  1  0.24902900  0.47098400  0.50569400  1
  Ni  Ni20  1  0.49430600  0.74902800  0.02901600  1
  Ni  Ni21  1  0.47098400  0.50569400  0.24902900  1
  Ni  Ni22  1  0.02901600  0.49430600  0.74902800  1
  Ni  Ni23  1  0.52901600  0.00569400  0.25097200  1
  Ni  Ni24  1  0.77845200  0.22154800  0.72154800  1
  Ni  Ni25  1  0.72154800  0.77845200  0.22154800  1
  Ni  Ni26  1  0.22154800  0.72154800  0.77845200  1
  Ni  Ni27  1  0.27845200  0.27845200  0.27845200  1
  Ni  Ni28  1  0.22154800  0.77845200  0.27845200  1
  Ni  Ni29  1  0.27845200  0.22154800  0.77845200  1
  Ni  Ni30  1  0.77845200  0.27845200  0.22154800  1
  Ni  Ni31  1  0.72154800  0.72154800  0.72154800  1
  Cu  Cu32  1  0.89247900  0.10752100  0.60752100  1
  Cu  Cu33  1  0.60752100  0.89247900  0.10752100  1
  Cu  Cu34  1  0.10752100  0.60752100  0.89247900  1
  Cu  Cu35  1  0.39247900  0.39247900  0.39247900  1
  Cu  Cu36  1  0.10752100  0.89247900  0.39247900  1
  Cu  Cu37  1  0.39247900  0.10752100  0.89247900  1
  Cu  Cu38  1  0.89247900  0.39247900  0.10752100  1
  Cu  Cu39  1  0.60752100  0.60752100  0.60752100  1
  Cu  Cu40  1  0.55885300  0.05885300  0.44114700  1
  Cu  Cu41  1  0.44114700  0.55885300  0.05885300  1
  Cu  Cu42  1  0.05885300  0.44114700  0.55885300  1
  Cu  Cu43  1  0.94114700  0.94114700  0.94114700  1
  Cu  Cu44  1  0.44114700  0.94114700  0.55885300  1
  Cu  Cu45  1  0.55885300  0.44114700  0.94114700  1
  Cu  Cu46  1  0.94114700  0.55885300  0.44114700  1
  Cu  Cu47  1  0.05885300  0.05885300  0.05885300  1
  C  C48  1  0.23740400  0.18432400  0.56793700  1
  C  C49  1  0.56793700  0.23740400  0.18432400  1
  C  C50  1  0.18432400  0.56793700  0.23740400  1
  C  C51  1  0.31567600  0.43206300  0.73740400  1
  C  C52  1  0.06793700  0.26259600  0.81567600  1
  C  C53  1  0.81567600  0.06793700  0.26259600  1
  C  C54  1  0.93206300  0.76259600  0.68432400  1
  C  C55  1  0.43206300  0.73740400  0.31567600  1
  C  C56  1  0.68432400  0.93206300  0.76259600  1
  C  C57  1  0.73740400  0.31567600  0.43206300  1
  C  C58  1  0.76259600  0.68432400  0.93206300  1
  C  C59  1  0.26259600  0.81567600  0.06793700  1
  C  C60  1  0.76259600  0.81567600  0.43206300  1
  C  C61  1  0.43206300  0.76259600  0.81567600  1
  C  C62  1  0.81567600  0.43206300  0.76259600  1
  C  C63  1  0.68432400  0.56793700  0.26259600  1
  C  C64  1  0.93206300  0.73740400  0.18432400  1
  C  C65  1  0.18432400  0.93206300  0.73740400  1
  C  C66  1  0.06793700  0.23740400  0.31567600  1
  C  C67  1  0.56793700  0.26259600  0.68432400  1
  C  C68  1  0.31567600  0.06793700  0.23740400  1
  C  C69  1  0.26259600  0.68432400  0.56793700  1
  C  C70  1  0.23740400  0.31567600  0.06793700  1
  C  C71  1  0.73740400  0.18432400  0.93206300  1
