# generated using pymatgen
data_CuNiC13
_symmetry_space_group_name_H-M   'P 1'
_cell_length_a   6.47800691
_cell_length_b   6.62026715
_cell_length_c   5.43177768
_cell_angle_alpha   87.79181578
_cell_angle_beta   93.91899605
_cell_angle_gamma   89.99484613
_symmetry_Int_Tables_number   1
_chemical_formula_structural   CuNiC13
_chemical_formula_sum   'Cu1 Ni1 C13'
_cell_volume   232.22980595
_cell_formula_units_Z   1
loop_
 _symmetry_equiv_pos_site_id
 _symmetry_equiv_pos_as_xyz
  1  'x, y, z'
loop_
 _atom_site_type_symbol
 _atom_site_label
 _atom_site_symmetry_multiplicity
 _atom_site_fract_x
 _atom_site_fract_y
 _atom_site_fract_z
 _atom_site_occupancy
  Ni  Ni0  1  0.21931800  0.56901400  0.09672900  1
  C  C1  1  0.25285600  0.26501500  0.59795800  1
  C  C2  1  0.74296500  0.73301300  0.39030100  1
  C  C3  1  0.75056100  0.24113000  0.49081200  1
  Cu  Cu4  1  0.25296400  0.76024100  0.53888000  1
  C  C5  1  0.03383100  0.72761400  0.30842100  1
  C  C6  1  0.22960000  0.30634800  0.28975800  1
  C  C7  1  0.25189900  0.53729300  0.74931600  1
  C  C8  1  0.26722800  0.97926500  0.69553800  1
  C  C9  1  0.44568100  0.71410200  0.31168100  1
  C  C10  1  0.54927000  0.25912300  0.67693300  1
  C  C11  1  0.73570300  0.01178000  0.32610500  1
  C  C12  1  0.74765700  0.45668000  0.28876400  1
  C  C13  1  0.76233700  0.71490600  0.68832200  1
  C  C14  1  0.96813100  0.24447700  0.68937000  1
