# generated using pymatgen
data_Cu5Ni2C13
_symmetry_space_group_name_H-M   'P 1'
_cell_length_a   5.13348313
_cell_length_b   5.01035678
_cell_length_c   9.61920267
_cell_angle_alpha   83.12924490
_cell_angle_beta   95.25951333
_cell_angle_gamma   60.42273501
_symmetry_Int_Tables_number   1
_chemical_formula_structural   Cu5Ni2C13
_chemical_formula_sum   'Cu5 Ni2 C13'
_cell_volume   210.34666917
_cell_formula_units_Z   1
loop_
 _symmetry_equiv_pos_site_id
 _symmetry_equiv_pos_as_xyz
  1  'x, y, z'
loop_
 _atom_site_type_symbol
 _atom_site_label
 _atom_site_symmetry_multiplicity
 _atom_site_fract_x
 _atom_site_fract_y
 _atom_site_fract_z
 _atom_site_occupancy
  C  C0  1  0.16733900  0.67310200  0.50544300  1
  Ni  Ni1  1  0.24451600  0.23054900  0.74937200  1
  Ni  Ni2  1  0.72413600  0.77763800  0.24305400  1
  Cu  Cu3  1  0.07151300  0.10847200  0.25146700  1
  Cu  Cu4  1  0.97592500  0.56517400  0.97805000  1
  Cu  Cu5  1  0.53963400  0.98031800  0.51334100  1
  Cu  Cu6  1  0.40272800  0.44421900  0.24370200  1
  Cu  Cu7  1  0.59587000  0.52871000  0.76502400  1
  C  C8  1  0.97026300  0.23412600  0.87054900  1
  C  C9  1  0.29261600  0.91358300  0.62710700  1
  C  C10  1  0.18633100  0.33168600  0.37651100  1
  C  C11  1  0.30360300  0.20430900  0.13492700  1
  C  C12  1  0.28628000  0.50085800  0.85537200  1
  C  C13  1  0.50846900  0.27491000  0.63019000  1
  C  C14  1  0.43171000  0.74042200  0.35801300  1
  C  C15  1  0.72125300  0.46909000  0.14636100  1
  C  C16  1  0.61083900  0.85183000  0.87229900  1
  C  C17  1  0.88443600  0.58477200  0.61726900  1
  C  C18  1  0.79308200  0.02350000  0.36954200  1
  C  C19  1  0.01802800  0.81631200  0.14240400  1
