# generated using pymatgen
data_Cu2NiC8
_symmetry_space_group_name_H-M   'P 1'
_cell_length_a   5.14212922
_cell_length_b   8.95879831
_cell_length_c   5.79386423
_cell_angle_alpha   90.00000000
_cell_angle_beta   101.50972904
_cell_angle_gamma   29.41122984
_symmetry_Int_Tables_number   1
_chemical_formula_structural   Cu2NiC8
_chemical_formula_sum   'Cu2 Ni1 C8'
_cell_volume   119.76400914
_cell_formula_units_Z   1
loop_
 _symmetry_equiv_pos_site_id
 _symmetry_equiv_pos_as_xyz
  1  'x, y, z'
loop_
 _atom_site_type_symbol
 _atom_site_label
 _atom_site_symmetry_multiplicity
 _atom_site_fract_x
 _atom_site_fract_y
 _atom_site_fract_z
 _atom_site_occupancy
  Ni  Ni0  1  0.00000000  0.60363440  0.75000000  1
  Cu  Cu1  1  0.70423540  0.13128042  0.45946861  1
  Cu  Cu2  1  0.29576460  0.83551582  0.04053139  1
  C  C3  1  0.00000000  0.31598922  0.75000000  1
  C  C4  1  0.00000000  0.70802210  0.25000000  1
  C  C5  1  0.00000000  0.16125800  0.75000000  1
  C  C6  1  0.00000000  0.86025795  0.25000000  1
  C  C7  1  0.43145845  0.18253571  0.71872159  1
  C  C8  1  0.56854155  0.61399516  0.78127841  1
  C  C9  1  0.27079867  0.49038678  0.12489018  1
  C  C10  1  0.72920133  0.76118645  0.37510982  1
