# generated using pymatgen
data_Cu2NiC12
_symmetry_space_group_name_H-M   'P 1'
_cell_length_a   6.04571098
_cell_length_b   6.15047284
_cell_length_c   6.04570989
_cell_angle_alpha   62.85244099
_cell_angle_beta   59.62781364
_cell_angle_gamma   62.85243294
_symmetry_Int_Tables_number   1
_chemical_formula_structural   Cu2NiC12
_chemical_formula_sum   'Cu2 Ni1 C12'
_cell_volume   164.96609340
_cell_formula_units_Z   1
loop_
 _symmetry_equiv_pos_site_id
 _symmetry_equiv_pos_as_xyz
  1  'x, y, z'
loop_
 _atom_site_type_symbol
 _atom_site_label
 _atom_site_symmetry_multiplicity
 _atom_site_fract_x
 _atom_site_fract_y
 _atom_site_fract_z
 _atom_site_occupancy
  Ni  Ni0  1  0.00000000  0.50000000  0.00000000  1
  Cu  Cu1  1  0.50000000  0.00000000  0.50000000  1
  Cu  Cu2  1  0.50000000  0.50000000  0.50000000  1
  C  C3  1  0.16274300  0.03435300  0.16274300  1
  C  C4  1  0.50000000  0.50000000  0.00000000  1
  C  C5  1  0.00000000  0.50000000  0.50000000  1
  C  C6  1  0.83725700  0.96564700  0.83725700  1
  C  C7  1  0.26149500  0.24062400  0.26149500  1
  C  C8  1  0.28051600  0.67861700  0.28051600  1
  C  C9  1  0.25644500  0.25211600  0.75540800  1
  C  C10  1  0.75540800  0.25211600  0.25644500  1
  C  C11  1  0.24459200  0.74788400  0.74355500  1
  C  C12  1  0.74355500  0.74788400  0.24459200  1
  C  C13  1  0.71948400  0.32138300  0.71948400  1
  C  C14  1  0.73850500  0.75937600  0.73850500  1
