# generated using pymatgen
data_Cu3(Ni2C)2
_symmetry_space_group_name_H-M   'P 1'
_cell_length_a   14.93718107
_cell_length_b   14.93718107
_cell_length_c   4.54894900
_cell_angle_alpha   90.00000000
_cell_angle_beta   90.00000000
_cell_angle_gamma   119.99999588
_symmetry_Int_Tables_number   1
_chemical_formula_structural   Cu3(Ni2C)2
_chemical_formula_sum   'Cu12 Ni16 C8'
_cell_volume   878.98003105
_cell_formula_units_Z   4
loop_
 _symmetry_equiv_pos_site_id
 _symmetry_equiv_pos_as_xyz
  1  'x, y, z'
loop_
 _atom_site_type_symbol
 _atom_site_label
 _atom_site_symmetry_multiplicity
 _atom_site_fract_x
 _atom_site_fract_y
 _atom_site_fract_z
 _atom_site_occupancy
  C  C0  1  0.18634900  0.00000000  0.50000000  1
  C  C1  1  0.81365100  0.81365100  0.50000000  1
  C  C2  1  0.00000000  0.18634900  0.50000000  1
  C  C3  1  0.66666700  0.33333300  0.00000000  1
  C  C4  1  0.33333300  0.66666700  0.00000000  1
  C  C5  1  0.55114400  0.00000000  0.00000000  1
  C  C6  1  0.44885600  0.44885600  0.00000000  1
  C  C7  1  0.00000000  0.55114400  0.00000000  1
  Ni  Ni8  1  0.47989200  0.12555700  0.50000000  1
  Ni  Ni9  1  0.87444300  0.35433500  0.50000000  1
  Ni  Ni10  1  0.64566500  0.52010800  0.50000000  1
  Ni  Ni11  1  0.52010800  0.64566500  0.50000000  1
  Ni  Ni12  1  0.35433500  0.87444300  0.50000000  1
  Ni  Ni13  1  0.12555700  0.47989200  0.50000000  1
  Ni  Ni14  1  0.37802200  0.19525900  0.00000000  1
  Ni  Ni15  1  0.80474100  0.18276400  0.00000000  1
  Ni  Ni16  1  0.81723600  0.62197800  0.00000000  1
  Ni  Ni17  1  0.62197800  0.81723600  0.00000000  1
  Ni  Ni18  1  0.00000000  0.00000000  0.00000000  1
  Ni  Ni19  1  0.18276400  0.80474100  0.00000000  1
  Ni  Ni20  1  0.72202100  0.00000000  0.50000000  1
  Ni  Ni21  1  0.27797900  0.27797900  0.50000000  1
  Ni  Ni22  1  0.00000000  0.72202100  0.50000000  1
  Ni  Ni23  1  0.19525900  0.37802200  0.00000000  1
  Cu  Cu24  1  0.00000000  0.35098500  0.00000000  1
  Cu  Cu25  1  0.35098500  0.00000000  0.00000000  1
  Cu  Cu26  1  0.48325400  0.31392600  0.50000000  1
  Cu  Cu27  1  0.68607400  0.16932800  0.50000000  1
  Cu  Cu28  1  0.83067200  0.51674600  0.50000000  1
  Cu  Cu29  1  0.51674600  0.83067200  0.50000000  1
  Cu  Cu30  1  0.16932800  0.68607400  0.50000000  1
  Cu  Cu31  1  0.31392600  0.48325400  0.50000000  1
  Cu  Cu32  1  0.00000000  0.81977300  0.00000000  1
  Cu  Cu33  1  0.18022700  0.18022700  0.00000000  1
  Cu  Cu34  1  0.81977300  0.00000000  0.00000000  1
  Cu  Cu35  1  0.64901500  0.64901500  0.00000000  1
