# generated using pymatgen
data_Cu4NiC12
_symmetry_space_group_name_H-M   'P 1'
_cell_length_a   5.30422843
_cell_length_b   7.22397331
_cell_length_c   5.56168215
_cell_angle_alpha   93.94202271
_cell_angle_beta   91.37801480
_cell_angle_gamma   90.26878632
_symmetry_Int_Tables_number   1
_chemical_formula_structural   Cu4NiC12
_chemical_formula_sum   'Cu4 Ni1 C12'
_cell_volume   212.54035689
_cell_formula_units_Z   1
loop_
 _symmetry_equiv_pos_site_id
 _symmetry_equiv_pos_as_xyz
  1  'x, y, z'
loop_
 _atom_site_type_symbol
 _atom_site_label
 _atom_site_symmetry_multiplicity
 _atom_site_fract_x
 _atom_site_fract_y
 _atom_site_fract_z
 _atom_site_occupancy
  Ni  Ni0  1  0.02362800  0.79980900  0.40840300  1
  Cu  Cu1  1  0.49018600  0.50559300  0.50839800  1
  Cu  Cu2  1  0.52218900  0.00780500  0.51535500  1
  Cu  Cu3  1  0.99158400  0.47658300  0.99668800  1
  Cu  Cu4  1  0.00195400  0.98192300  0.96781100  1
  C  C5  1  0.91352000  0.24743100  0.00169300  1
  C  C6  1  0.83433900  0.93552800  0.67427300  1
  C  C7  1  0.56854800  0.24529100  0.50818400  1
  C  C8  1  0.38606300  0.76048200  0.50011100  1
  C  C9  1  0.07084000  0.74975300  0.03201000  1
  C  C10  1  0.82422900  0.56063400  0.32343800  1
  C  C11  1  0.71195900  0.94264400  0.20714000  1
  C  C12  1  0.68824200  0.55020000  0.81715600  1
  C  C13  1  0.30523400  0.45340000  0.18906200  1
  C  C14  1  0.31396500  0.04541200  0.81959800  1
  C  C15  1  0.18536200  0.04165600  0.30881600  1
  C  C16  1  0.16815800  0.46371200  0.69686300  1
