# generated using pymatgen
data_Cu2Ni10C7
_symmetry_space_group_name_H-M   'P 1'
_cell_length_a   4.95625362
_cell_length_b   14.00895650
_cell_length_c   2.86272104
_cell_angle_alpha   90.00000000
_cell_angle_beta   90.00000000
_cell_angle_gamma   86.85733583
_symmetry_Int_Tables_number   1
_chemical_formula_structural   Cu2Ni10C7
_chemical_formula_sum   'Cu2 Ni10 C7'
_cell_volume   198.46536261
_cell_formula_units_Z   1
loop_
 _symmetry_equiv_pos_site_id
 _symmetry_equiv_pos_as_xyz
  1  'x, y, z'
loop_
 _atom_site_type_symbol
 _atom_site_label
 _atom_site_symmetry_multiplicity
 _atom_site_fract_x
 _atom_site_fract_y
 _atom_site_fract_z
 _atom_site_occupancy
  C  C0  1  0.00000000  0.50000000  0.98466522  1
  C  C1  1  0.00000000  -0.00000000  0.98856011  1
  C  C2  1  0.85444283  0.30802773  0.98614815  1
  C  C3  1  0.14555717  0.69197227  0.98614815  1
  C  C4  1  0.46653784  0.14410899  0.48828002  1
  C  C5  1  0.50000000  0.50000000  0.48479834  1
  C  C6  1  0.53346316  0.85589101  0.48828002  1
  Ni  Ni7  1  0.17547132  0.93718335  0.48853239  1
  Ni  Ni8  1  0.17926173  0.58621610  0.48515180  1
  Ni  Ni9  1  0.39703789  0.78002214  0.98804585  1
  Ni  Ni10  1  0.29565959  0.08652296  0.98836073  1
  Ni  Ni11  1  0.35653744  0.43138481  0.98476968  1
  Ni  Ni12  1  0.64346356  0.56861519  0.98476968  1
  Ni  Ni13  1  0.60296211  0.21997786  0.98804585  1
  Ni  Ni14  1  0.70434041  0.91347704  0.98836073  1
  Ni  Ni15  1  0.82452868  0.06281665  0.48853239  1
  Ni  Ni16  1  0.82073827  0.41378390  0.48515180  1
  Cu  Cu17  1  0.09990184  0.25491323  0.48669954  1
  Cu  Cu18  1  0.90009816  0.74508677  0.48669954  1
