# generated using pymatgen
data_Cu(NiC4)2
_symmetry_space_group_name_H-M   'P 1'
_cell_length_a   7.25130585
_cell_length_b   6.31678626
_cell_length_c   6.31678640
_cell_angle_alpha   59.92663887
_cell_angle_beta   63.69228151
_cell_angle_gamma   63.69227844
_symmetry_Int_Tables_number   1
_chemical_formula_structural   Cu(NiC4)2
_chemical_formula_sum   'Cu1 Ni2 C8'
_cell_volume   215.14660555
_cell_formula_units_Z   1
loop_
 _symmetry_equiv_pos_site_id
 _symmetry_equiv_pos_as_xyz
  1  'x, y, z'
loop_
 _atom_site_type_symbol
 _atom_site_label
 _atom_site_symmetry_multiplicity
 _atom_site_fract_x
 _atom_site_fract_y
 _atom_site_fract_z
 _atom_site_occupancy
  Ni  Ni0  1  0.83510538  0.72180523  0.72180523  1
  Ni  Ni1  1  0.04871386  0.31844600  0.31844600  1
  Cu  Cu2  1  0.08160575  0.97277828  0.97277828  1
  C  C3  1  0.65047004  0.12048760  0.12048760  1
  C  C4  1  0.41150500  0.52872182  0.52872182  1
  C  C5  1  0.21905705  0.74159676  0.74159676  1
  C  C6  1  0.23277277  0.73661832  0.28305092  1
  C  C7  1  0.80642514  0.22043805  0.76481811  1
  C  C8  1  0.23277277  0.28305092  0.73661832  1
  C  C9  1  0.81056410  0.21623892  0.21623892  1
  C  C10  1  0.80642514  0.76481811  0.22043805  1
