# generated using pymatgen
data_Cu2Ni10C7
_symmetry_space_group_name_H-M   'P 1'
_cell_length_a   7.52964897
_cell_length_b   5.72375203
_cell_length_c   5.71260746
_cell_angle_alpha   64.70179758
_cell_angle_beta   71.15779094
_cell_angle_gamma   71.07432451
_symmetry_Int_Tables_number   1
_chemical_formula_structural   Cu2Ni10C7
_chemical_formula_sum   'Cu2 Ni10 C7'
_cell_volume   205.60557808
_cell_formula_units_Z   1
loop_
 _symmetry_equiv_pos_site_id
 _symmetry_equiv_pos_as_xyz
  1  'x, y, z'
loop_
 _atom_site_type_symbol
 _atom_site_label
 _atom_site_symmetry_multiplicity
 _atom_site_fract_x
 _atom_site_fract_y
 _atom_site_fract_z
 _atom_site_occupancy
  C  C0  1  0.12253417  0.08064778  0.08746828  1
  C  C1  1  0.84192621  0.64368979  0.64601545  1
  C  C2  1  0.68290231  0.36344759  0.36293214  1
  C  C3  1  0.34251670  0.64474308  0.64551432  1
  C  C4  1  0.17701011  0.35870335  0.35917690  1
  C  C5  1  0.50698342  0.00695598  0.00621094  1
  C  C6  1  0.90313011  0.92182180  0.92011609  1
  Ni  Ni7  1  0.70539120  0.03980542  0.66871393  1
  Ni  Ni8  1  0.31686904  0.34660676  0.97209411  1
  Ni  Ni9  1  0.94995556  0.29186762  0.29342603  1
  Ni  Ni10  1  0.62355033  0.58360719  0.58498403  1
  Ni  Ni11  1  0.06574315  0.71976335  0.71808073  1
  Ni  Ni12  1  0.39700522  0.42681302  0.42582697  1
  Ni  Ni13  1  0.31779010  0.97159821  0.34724974  1
  Ni  Ni14  1  0.70577281  0.66913938  0.03924955  1
  Ni  Ni15  1  0.00732090  0.25770654  0.74743064  1
  Ni  Ni16  1  0.00660988  0.74517888  0.25854292  1
  Cu  Cu17  1  0.34092412  0.88355814  0.88497102  1
  Cu  Cu18  1  0.68050867  0.12767912  0.12723420  1
