# generated using pymatgen
data_Cu4NiC
_symmetry_space_group_name_H-M   'P 1'
_cell_length_a   4.06215626
_cell_length_b   5.68412716
_cell_length_c   6.91125036
_cell_angle_alpha   114.28180440
_cell_angle_beta   107.09850007
_cell_angle_gamma   90.00169402
_symmetry_Int_Tables_number   1
_chemical_formula_structural   Cu4NiC
_chemical_formula_sum   'Cu12 Ni3 C3'
_cell_volume   137.68684546
_cell_formula_units_Z   3
loop_
 _symmetry_equiv_pos_site_id
 _symmetry_equiv_pos_as_xyz
  1  'x, y, z'
loop_
 _atom_site_type_symbol
 _atom_site_label
 _atom_site_symmetry_multiplicity
 _atom_site_fract_x
 _atom_site_fract_y
 _atom_site_fract_z
 _atom_site_occupancy
  C  C0  1  0.00005300  0.54449900  0.00003200  1
  C  C1  1  0.33544300  0.88893900  0.67137800  1
  C  C2  1  0.66448400  0.21750700  0.32857800  1
  Ni  Ni3  1  0.99997900  0.05449300  0.00000900  1
  Ni  Ni4  1  0.33468700  0.38612400  0.66914500  1
  Ni  Ni5  1  0.66537500  0.71696300  0.33086300  1
  Cu  Cu6  1  0.90958500  0.09274800  0.81921600  1
  Cu  Cu7  1  0.09037600  0.27352100  0.18078300  1
  Cu  Cu8  1  0.74803300  0.92058900  0.00014200  1
  Cu  Cu9  1  0.25191300  0.92044100  0.99983800  1
  Cu  Cu10  1  0.08247500  0.51641200  0.67187800  1
  Cu  Cu11  1  0.91757100  0.84455300  0.32813200  1
  Cu  Cu12  1  0.41935100  0.33532200  0.83845200  1
  Cu  Cu13  1  0.58065900  0.49686900  0.16154900  1
  Cu  Cu14  1  0.58986900  0.51640100  0.67202900  1
  Cu  Cu15  1  0.41015400  0.84436400  0.32797400  1
  Cu  Cu16  1  0.24304200  0.17830400  0.48594700  1
  Cu  Cu17  1  0.75695000  0.69235100  0.51405700  1
