# generated using pymatgen
data_Cu4Ni2C5
_symmetry_space_group_name_H-M   'P 1'
_cell_length_a   5.52199300
_cell_length_b   6.40165900
_cell_length_c   14.37112900
_cell_angle_alpha   90.00000000
_cell_angle_beta   90.00000000
_cell_angle_gamma   90.00000000
_symmetry_Int_Tables_number   1
_chemical_formula_structural   Cu4Ni2C5
_chemical_formula_sum   'Cu16 Ni8 C20'
_cell_volume   508.01820565
_cell_formula_units_Z   4
loop_
 _symmetry_equiv_pos_site_id
 _symmetry_equiv_pos_as_xyz
  1  'x, y, z'
loop_
 _atom_site_type_symbol
 _atom_site_label
 _atom_site_symmetry_multiplicity
 _atom_site_fract_x
 _atom_site_fract_y
 _atom_site_fract_z
 _atom_site_occupancy
  C  C0  1  0.50000000  0.00000000  0.50000000  1
  C  C1  1  0.00000000  0.50000000  0.50000000  1
  C  C2  1  0.50000000  0.50000000  0.00000000  1
  C  C3  1  0.00000000  0.00000000  0.00000000  1
  Ni  Ni4  1  0.94537500  0.11204900  0.37154200  1
  Ni  Ni5  1  0.44537500  0.38795100  0.62845800  1
  Ni  Ni6  1  0.05462500  0.61204900  0.12845800  1
  Ni  Ni7  1  0.55462500  0.88795100  0.87154200  1
  Ni  Ni8  1  0.05462500  0.88795100  0.62845800  1
  Ni  Ni9  1  0.55462500  0.61204900  0.37154200  1
  Ni  Ni10  1  0.94537500  0.38795100  0.87154200  1
  Ni  Ni11  1  0.44537500  0.11204900  0.12845800  1
  Cu  Cu12  1  0.42893300  0.42249600  0.35699000  1
  Cu  Cu13  1  0.07106700  0.92249600  0.35699000  1
  Cu  Cu14  1  0.57106700  0.57750400  0.64301000  1
  Cu  Cu15  1  0.92893300  0.42249600  0.14301000  1
  Cu  Cu16  1  0.42893300  0.07750400  0.85699000  1
  Cu  Cu17  1  0.92893300  0.07750400  0.64301000  1
  Cu  Cu18  1  0.07106700  0.57750400  0.85699000  1
  Cu  Cu19  1  0.57106700  0.92249600  0.14301000  1
  Cu  Cu20  1  0.96668200  0.22067300  0.28610800  1
  Cu  Cu21  1  0.46668200  0.27932700  0.71389200  1
  Cu  Cu22  1  0.03331800  0.72067300  0.21389200  1
  Cu  Cu23  1  0.53331800  0.77932700  0.78610800  1
  Cu  Cu24  1  0.46668200  0.22067300  0.21389200  1
  Cu  Cu25  1  0.96668200  0.27932700  0.78610800  1
  Cu  Cu26  1  0.53331800  0.72067300  0.28610800  1
  Cu  Cu27  1  0.03331800  0.77932700  0.71389200  1
  C  C28  1  0.82582100  0.93021700  0.88437400  1
  C  C29  1  0.32582100  0.56978300  0.11562600  1
  C  C30  1  0.17417900  0.43021700  0.61562600  1
  C  C31  1  0.67417900  0.06978300  0.38437400  1
  C  C32  1  0.58787800  0.22441600  0.05146200  1
  C  C33  1  0.08787800  0.27558400  0.94853800  1
  C  C34  1  0.08787800  0.22441600  0.44853800  1
  C  C35  1  0.41212200  0.72441600  0.44853800  1
  C  C36  1  0.91212200  0.77558400  0.55146200  1
  C  C37  1  0.41212200  0.77558400  0.94853800  1
  C  C38  1  0.91212200  0.72441600  0.05146200  1
  C  C39  1  0.58787800  0.27558400  0.55146200  1
  C  C40  1  0.17417900  0.06978300  0.11562600  1
  C  C41  1  0.67417900  0.43021700  0.88437400  1
  C  C42  1  0.82582100  0.56978300  0.38437400  1
  C  C43  1  0.32582100  0.93021700  0.61562600  1
