# generated using pymatgen
data_Cu(NiC12)3
_symmetry_space_group_name_H-M   'P 1'
_cell_length_a   15.85304802
_cell_length_b   9.16442340
_cell_length_c   9.13443628
_cell_angle_alpha   90.62115843
_cell_angle_beta   124.44458304
_cell_angle_gamma   90.04552909
_symmetry_Int_Tables_number   1
_chemical_formula_structural   Cu(NiC12)3
_chemical_formula_sum   'Cu2 Ni6 C72'
_cell_volume   1094.31143802
_cell_formula_units_Z   2
loop_
 _symmetry_equiv_pos_site_id
 _symmetry_equiv_pos_as_xyz
  1  'x, y, z'
loop_
 _atom_site_type_symbol
 _atom_site_label
 _atom_site_symmetry_multiplicity
 _atom_site_fract_x
 _atom_site_fract_y
 _atom_site_fract_z
 _atom_site_occupancy
  C  C0  1  0.25077427  0.74825653  0.99975440  1
  C  C1  1  0.74219068  0.74576630  0.48053980  1
  C  C2  1  0.75077427  0.24825653  0.99975440  1
  C  C3  1  0.24219068  0.24576630  0.48053980  1
  C  C4  1  0.51083811  0.09519730  0.77046213  1
  C  C5  1  0.49655767  0.88470048  0.23239838  1
  C  C6  1  0.01083811  0.59519730  0.77046213  1
  C  C7  1  0.99655767  0.38470048  0.23239838  1
  C  C8  1  0.79729314  0.92688152  0.21119474  1
  C  C9  1  0.18589154  0.07949797  0.80888398  1
  C  C10  1  0.29729314  0.42688152  0.21119474  1
  C  C11  1  0.68589154  0.57949797  0.80888398  1
  Ni  Ni12  1  0.10640248  0.75431941  0.55887710  1
  Ni  Ni13  1  0.89820836  0.75457812  0.93580320  1
  Ni  Ni14  1  0.89434751  0.24749947  0.44176464  1
  Ni  Ni15  1  0.60640248  0.25431941  0.55887710  1
  Ni  Ni16  1  0.39820836  0.25457812  0.93580320  1
  Ni  Ni17  1  0.39434751  0.74749947  0.44176464  1
  Cu  Cu18  1  0.09952828  0.24283036  0.05865601  1
  Cu  Cu19  1  0.59952828  0.74283036  0.05865601  1
  C  C20  1  0.65047945  0.89950923  0.75117695  1
  C  C21  1  0.34950962  0.09991177  0.25284851  1
  C  C22  1  0.15047945  0.39950923  0.75117695  1
  C  C23  1  0.84950962  0.59991177  0.25284851  1
  C  C24  1  0.99882376  0.95890991  0.74585819  1
  C  C25  1  0.00139559  0.04472527  0.25502833  1
  C  C26  1  0.49882376  0.45890991  0.74585819  1
  C  C27  1  0.50139559  0.54472527  0.25502833  1
  C  C28  1  0.35812158  0.89636490  0.76492856  1
  C  C29  1  0.64488772  0.10574174  0.24098806  1
  C  C30  1  0.85812158  0.39636490  0.76492856  1
  C  C31  1  0.14488772  0.60574174  0.24098806  1
  C  C32  1  0.15883154  0.59142461  0.74183961  1
  C  C33  1  0.85673984  0.56756984  0.75894326  1
  C  C34  1  0.84767789  0.40648827  0.25305216  1
  C  C35  1  0.14831346  0.43890272  0.24744608  1
  C  C36  1  0.65883154  0.09142461  0.74183961  1
  C  C37  1  0.35673984  0.06756984  0.75894326  1
  C  C38  1  0.34767789  0.90648827  0.25305216  1
  C  C39  1  0.64831346  0.93890272  0.24744608  1
  C  C40  1  0.43047846  0.54574853  0.57147868  1
  C  C41  1  0.56145165  0.56040238  0.90486490  1
  C  C42  1  0.56502158  0.45323993  0.42584982  1
  C  C43  1  0.44324682  0.43580295  0.09371193  1
  C  C44  1  0.93047846  0.04574853  0.57147868  1
  C  C45  1  0.06145165  0.06040238  0.90486490  1
  C  C46  1  0.06502158  0.95323993  0.42584982  1
  C  C47  1  0.94324682  0.93580295  0.09371193  1
  C  C48  1  0.25718944  0.84665553  0.74200499  1
  C  C49  1  0.74979210  0.80946812  0.75266216  1
  C  C50  1  0.74062115  0.16572418  0.25320523  1
  C  C51  1  0.25335262  0.19086627  0.24775082  1
  C  C52  1  0.75718944  0.34665553  0.74200499  1
  C  C53  1  0.24979210  0.30946812  0.75266216  1
  C  C54  1  0.24062115  0.66572418  0.25320523  1
  C  C55  1  0.75335262  0.69086627  0.24775082  1
  C  C56  1  0.35961833  0.84589585  0.60197790  1
  C  C57  1  0.64887750  0.86841512  0.93551571  1
  C  C58  1  0.64403755  0.16463973  0.40041211  1
  C  C59  1  0.35439078  0.13799947  0.06589113  1
  C  C60  1  0.85961833  0.34589585  0.60197790  1
  C  C61  1  0.14887750  0.36841512  0.93551571  1
  C  C62  1  0.14403755  0.66463973  0.40041211  1
  C  C63  1  0.85439078  0.63799947  0.06589113  1
  C  C64  1  0.45121249  0.84034666  0.93669103  1
  C  C65  1  0.53572136  0.82560985  0.56112124  1
  C  C66  1  0.54759580  0.16282664  0.06704402  1
  C  C67  1  0.46908528  0.16414700  0.43666201  1
  C  C68  1  0.95121249  0.34034666  0.93669103  1
  C  C69  1  0.03572136  0.32560985  0.56112124  1
  C  C70  1  0.04759580  0.66282664  0.06704402  1
  C  C71  1  0.96908528  0.66414700  0.43666201  1
  C  C72  1  0.07795813  0.86410372  0.73444637  1
  C  C73  1  0.92939238  0.84789863  0.75948209  1
  C  C74  1  0.91512708  0.12703105  0.25695740  1
  C  C75  1  0.06901500  0.15410366  0.24182640  1
  C  C76  1  0.57795813  0.36410372  0.73444637  1
  C  C77  1  0.42939238  0.34789863  0.75948209  1
  C  C78  1  0.41512708  0.62703105  0.25695740  1
  C  C79  1  0.56901500  0.65410366  0.24182640  1
