# generated using pymatgen
data_Cu6Ni2C5
_symmetry_space_group_name_H-M   'P 1'
_cell_length_a   6.85893680
_cell_length_b   8.13115237
_cell_length_c   10.38669023
_cell_angle_alpha   106.31537085
_cell_angle_beta   103.49572195
_cell_angle_gamma   96.89310485
_symmetry_Int_Tables_number   1
_chemical_formula_structural   Cu6Ni2C5
_chemical_formula_sum   'Cu24 Ni8 C20'
_cell_volume   529.80166019
_cell_formula_units_Z   4
loop_
 _symmetry_equiv_pos_site_id
 _symmetry_equiv_pos_as_xyz
  1  'x, y, z'
loop_
 _atom_site_type_symbol
 _atom_site_label
 _atom_site_symmetry_multiplicity
 _atom_site_fract_x
 _atom_site_fract_y
 _atom_site_fract_z
 _atom_site_occupancy
  C  C0  1  0.66532600  0.25000000  0.91532600  1
  C  C1  1  0.83467400  0.75000000  0.58467400  1
  C  C2  1  0.16532600  0.25000000  0.41532600  1
  C  C3  1  0.33467400  0.75000000  0.08467400  1
  C  C4  1  0.92158400  0.35908800  0.57970700  1
  C  C5  1  0.42158400  0.35908800  0.07970700  1
  C  C6  1  0.47922400  0.14091200  0.32110200  1
  C  C7  1  0.97922400  0.14091200  0.82110200  1
  C  C8  1  0.52077600  0.85908800  0.67889800  1
  C  C9  1  0.02077600  0.85908800  0.17889800  1
  C  C10  1  0.07841600  0.64091200  0.42029300  1
  C  C11  1  0.57841600  0.64091200  0.92029300  1
  C  C12  1  0.85085700  0.14784900  0.50880100  1
  C  C13  1  0.35085700  0.14784900  0.00880100  1
  C  C14  1  0.51384900  0.35215100  0.35590400  1
  C  C15  1  0.01384900  0.35215100  0.85590400  1
  C  C16  1  0.14914300  0.85215100  0.49119900  1
  C  C17  1  0.64914300  0.85215100  0.99119900  1
  C  C18  1  0.48615100  0.64784900  0.64409600  1
  C  C19  1  0.98615100  0.64784900  0.14409600  1
  Ni  Ni20  1  0.11064100  0.85209800  0.85975800  1
  Ni  Ni21  1  0.61064100  0.85209800  0.35975800  1
  Ni  Ni22  1  0.88935900  0.14790200  0.14024200  1
  Ni  Ni23  1  0.38935900  0.14790200  0.64024200  1
  Ni  Ni24  1  0.94173200  0.35209800  0.19084900  1
  Ni  Ni25  1  0.44173200  0.35209800  0.69084900  1
  Ni  Ni26  1  0.05826800  0.64790200  0.80915100  1
  Ni  Ni27  1  0.55826800  0.64790200  0.30915100  1
  Cu  Cu28  1  0.06281800  0.42739100  0.31202900  1
  Cu  Cu29  1  0.56281800  0.42739100  0.81202900  1
  Cu  Cu30  1  0.02706000  0.92739100  0.77627200  1
  Cu  Cu31  1  0.52706000  0.92739100  0.27627200  1
  Cu  Cu32  1  0.97294000  0.07260900  0.22372800  1
  Cu  Cu33  1  0.47294000  0.07260900  0.72372800  1
  Cu  Cu34  1  0.93718200  0.57260900  0.68797100  1
  Cu  Cu35  1  0.43718200  0.57260900  0.18797100  1
  Cu  Cu36  1  0.91897300  0.25695900  0.49955000  1
  Cu  Cu37  1  0.41897300  0.25695900  0.99955000  1
  Cu  Cu38  1  0.41135900  0.24304100  0.33078200  1
  Cu  Cu39  1  0.91135900  0.24304100  0.83078200  1
  Cu  Cu40  1  0.58864100  0.75695900  0.66921800  1
  Cu  Cu41  1  0.08864100  0.75695900  0.16921800  1
  Cu  Cu42  1  0.08102700  0.74304100  0.50045000  1
  Cu  Cu43  1  0.58102700  0.74304100  0.00045000  1
  Cu  Cu44  1  0.26686600  0.07122600  0.51946800  1
  Cu  Cu45  1  0.76686600  0.07122600  0.01946800  1
  Cu  Cu46  1  0.36015600  0.42877400  0.60755400  1
  Cu  Cu47  1  0.86015600  0.42877400  0.10755400  1
  Cu  Cu48  1  0.73313400  0.92877400  0.48053200  1
  Cu  Cu49  1  0.23313400  0.92877400  0.98053200  1
  Cu  Cu50  1  0.63984400  0.57122600  0.39244600  1
  Cu  Cu51  1  0.13984400  0.57122600  0.89244600  1
