# generated using pymatgen
data_CuNiC9
_symmetry_space_group_name_H-M   'P 1'
_cell_length_a   6.50321145
_cell_length_b   6.50321067
_cell_length_c   6.50321094
_cell_angle_alpha   53.76275999
_cell_angle_beta   53.76275994
_cell_angle_gamma   53.76276374
_symmetry_Int_Tables_number   1
_chemical_formula_structural   CuNiC9
_chemical_formula_sum   'Cu1 Ni1 C9'
_cell_volume   166.12003595
_cell_formula_units_Z   1
loop_
 _symmetry_equiv_pos_site_id
 _symmetry_equiv_pos_as_xyz
  1  'x, y, z'
loop_
 _atom_site_type_symbol
 _atom_site_label
 _atom_site_symmetry_multiplicity
 _atom_site_fract_x
 _atom_site_fract_y
 _atom_site_fract_z
 _atom_site_occupancy
  C  C0  1  0.72068524  0.72068524  0.72068524  1
  C  C1  1  0.31818320  0.31818320  0.31818320  1
  Ni  Ni2  1  0.08809498  0.08809498  0.08809498  1
  C  C3  1  0.91690034  0.91690034  0.91690034  1
  Cu  Cu4  1  0.50825040  0.50825040  0.50825040  1
  C  C5  1  0.38884509  0.72932866  0.15875320  1
  C  C6  1  0.72932866  0.15875320  0.38884509  1
  C  C7  1  0.15875320  0.38884509  0.72932866  1
  C  C8  1  0.64587033  0.27314996  0.87098660  1
  C  C9  1  0.87098660  0.64587033  0.27314996  1
  C  C10  1  0.27314996  0.87098660  0.64587033  1
