# generated using pymatgen
data_Cu6NiC10
_symmetry_space_group_name_H-M   'P 1'
_cell_length_a   4.01465600
_cell_length_b   5.28283789
_cell_length_c   9.88457590
_cell_angle_alpha   92.68173261
_cell_angle_beta   90.00000000
_cell_angle_gamma   112.33193092
_symmetry_Int_Tables_number   1
_chemical_formula_structural   Cu6NiC10
_chemical_formula_sum   'Cu6 Ni1 C10'
_cell_volume   193.66815755
_cell_formula_units_Z   1
loop_
 _symmetry_equiv_pos_site_id
 _symmetry_equiv_pos_as_xyz
  1  'x, y, z'
loop_
 _atom_site_type_symbol
 _atom_site_label
 _atom_site_symmetry_multiplicity
 _atom_site_fract_x
 _atom_site_fract_y
 _atom_site_fract_z
 _atom_site_occupancy
  Ni  Ni0  1  0.50000000  0.00000000  0.00000000  1
  Cu  Cu1  1  0.19436500  0.38873000  0.24914300  1
  Cu  Cu2  1  0.17381300  0.34762700  0.92184000  1
  Cu  Cu3  1  0.14825600  0.29651300  0.54465700  1
  Cu  Cu4  1  0.80563500  0.61127000  0.75085700  1
  Cu  Cu5  1  0.82618700  0.65237300  0.07816000  1
  Cu  Cu6  1  0.85174400  0.70348700  0.45534300  1
  C  C7  1  0.30757900  0.61516000  0.42410400  1
  C  C8  1  0.31517000  0.63034100  0.08011800  1
  C  C9  1  0.69242100  0.38484000  0.57589600  1
  C  C10  1  0.68483000  0.36965900  0.91988200  1
  C  C11  1  0.27514200  0.55028400  0.75102900  1
  C  C12  1  0.03806000  0.07611900  0.11397000  1
  C  C13  1  0.04023900  0.08047500  0.38051700  1
  C  C14  1  0.96194000  0.92388100  0.88603000  1
  C  C15  1  0.72485800  0.44971600  0.24897100  1
  C  C16  1  0.95976100  0.91952500  0.61948300  1
