# generated using pymatgen
data_Cu7NiC3
_symmetry_space_group_name_H-M   'P 1'
_cell_length_a   3.96451200
_cell_length_b   14.50896400
_cell_length_c   17.67426900
_cell_angle_alpha   90.00000000
_cell_angle_beta   90.00000000
_cell_angle_gamma   90.00000000
_symmetry_Int_Tables_number   1
_chemical_formula_structural   Cu7NiC3
_chemical_formula_sum   'Cu28 Ni4 C12'
_cell_volume   1016.64095350
_cell_formula_units_Z   4
loop_
 _symmetry_equiv_pos_site_id
 _symmetry_equiv_pos_as_xyz
  1  'x, y, z'
loop_
 _atom_site_type_symbol
 _atom_site_label
 _atom_site_symmetry_multiplicity
 _atom_site_fract_x
 _atom_site_fract_y
 _atom_site_fract_z
 _atom_site_occupancy
  C  C0  1  0.25000000  0.47071400  0.37028200  1
  C  C1  1  0.75000000  0.52928600  0.62971800  1
  C  C2  1  0.75000000  0.97071400  0.12971800  1
  C  C3  1  0.25000000  0.02928600  0.87028200  1
  C  C4  1  0.25000000  0.90984800  0.39216700  1
  C  C5  1  0.75000000  0.09015200  0.60783300  1
  C  C6  1  0.75000000  0.40984800  0.10783300  1
  C  C7  1  0.25000000  0.59015200  0.89216700  1
  C  C8  1  0.25000000  0.30913700  0.84638100  1
  C  C9  1  0.75000000  0.69086300  0.15361900  1
  C  C10  1  0.75000000  0.80913700  0.65361900  1
  C  C11  1  0.25000000  0.19086300  0.34638100  1
  Ni  Ni12  1  0.25000000  0.81090000  0.93686000  1
  Ni  Ni13  1  0.75000000  0.18910000  0.06314000  1
  Ni  Ni14  1  0.75000000  0.31090000  0.56314000  1
  Ni  Ni15  1  0.25000000  0.68910000  0.43686000  1
  Cu  Cu16  1  0.25000000  0.29758300  0.02150700  1
  Cu  Cu17  1  0.75000000  0.70241700  0.97849300  1
  Cu  Cu18  1  0.75000000  0.79758300  0.47849300  1
  Cu  Cu19  1  0.25000000  0.20241700  0.52150700  1
  Cu  Cu20  1  0.25000000  0.07659200  0.03740400  1
  Cu  Cu21  1  0.75000000  0.92340800  0.96259600  1
  Cu  Cu22  1  0.75000000  0.57659200  0.46259600  1
  Cu  Cu23  1  0.25000000  0.42340800  0.53740400  1
  Cu  Cu24  1  0.25000000  0.56039600  0.07052800  1
  Cu  Cu25  1  0.75000000  0.43960400  0.92947200  1
  Cu  Cu26  1  0.75000000  0.06039600  0.42947200  1
  Cu  Cu27  1  0.25000000  0.93960400  0.57052800  1
  Cu  Cu28  1  0.25000000  0.82505700  0.09095500  1
  Cu  Cu29  1  0.75000000  0.17494300  0.90904500  1
  Cu  Cu30  1  0.75000000  0.32505700  0.40904500  1
  Cu  Cu31  1  0.25000000  0.67494300  0.59095500  1
  Cu  Cu32  1  0.25000000  0.35398400  0.22823600  1
  Cu  Cu33  1  0.75000000  0.64601600  0.77176400  1
  Cu  Cu34  1  0.75000000  0.85398400  0.27176400  1
  Cu  Cu35  1  0.25000000  0.14601600  0.72823600  1
  Cu  Cu36  1  0.25000000  0.02145400  0.24801900  1
  Cu  Cu37  1  0.75000000  0.97854600  0.75198100  1
  Cu  Cu38  1  0.75000000  0.52145400  0.25198100  1
  Cu  Cu39  1  0.25000000  0.47854600  0.74801900  1
  Cu  Cu40  1  0.25000000  0.68504300  0.29033600  1
  Cu  Cu41  1  0.75000000  0.31495700  0.70966400  1
  Cu  Cu42  1  0.75000000  0.18504300  0.20966400  1
  Cu  Cu43  1  0.25000000  0.81495700  0.79033600  1
