# generated using pymatgen
data_Cu2NiC17
_symmetry_space_group_name_H-M   'P 1'
_cell_length_a   15.62241264
_cell_length_b   8.90203061
_cell_length_c   8.96561319
_cell_angle_alpha   90.00000000
_cell_angle_beta   124.60217279
_cell_angle_gamma   90.00000000
_symmetry_Int_Tables_number   1
_chemical_formula_structural   Cu2NiC17
_chemical_formula_sum   'Cu8 Ni4 C68'
_cell_volume   1026.30776388
_cell_formula_units_Z   4
loop_
 _symmetry_equiv_pos_site_id
 _symmetry_equiv_pos_as_xyz
  1  'x, y, z'
loop_
 _atom_site_type_symbol
 _atom_site_label
 _atom_site_symmetry_multiplicity
 _atom_site_fract_x
 _atom_site_fract_y
 _atom_site_fract_z
 _atom_site_occupancy
  C  C0  1  0.25004995  0.72037543  0.99274873  1
  C  C1  1  0.75004995  0.77962457  0.49274873  1
  C  C2  1  0.75004995  0.22037543  0.99274873  1
  C  C3  1  0.25004995  0.27962457  0.49274873  1
  C  C4  1  0.50239912  0.10436269  0.75902803  1
  C  C5  1  0.50239912  0.89563731  0.25902803  1
  C  C6  1  0.00239912  0.60436269  0.75902803  1
  C  C7  1  0.00239912  0.39563731  0.25902803  1
  C  C8  1  0.18755498  0.92954749  0.27808733  1
  C  C9  1  0.18755498  0.07045251  0.77808733  1
  C  C10  1  0.68755498  0.42954749  0.27808733  1
  C  C11  1  0.68755498  0.57045251  0.77808733  1
  C  C12  1  0.89480304  0.75723502  0.93768691  1
  C  C13  1  0.89480304  0.24276498  0.43768691  1
  C  C14  1  0.39480304  0.25723502  0.93768691  1
  C  C15  1  0.39480304  0.74276498  0.43768691  1
  C  C16  1  0.10594751  0.73985930  0.56217802  1
  C  C17  1  0.10594751  0.26014070  0.06217802  1
  C  C18  1  0.60594751  0.23985930  0.56217802  1
  C  C19  1  0.60594751  0.76014070  0.06217802  1
  Ni  Ni20  1  0.64059656  0.90234790  0.74468161  1
  Ni  Ni21  1  0.64059656  0.09765210  0.24468161  1
  Ni  Ni22  1  0.14059656  0.40234790  0.74468161  1
  Ni  Ni23  1  0.14059656  0.59765210  0.24468161  1
  Cu  Cu24  1  0.00986770  0.95638556  0.76259705  1
  Cu  Cu25  1  0.00986770  0.04361444  0.26259705  1
  Cu  Cu26  1  0.50986770  0.45638556  0.76259705  1
  Cu  Cu27  1  0.50986770  0.54361444  0.26259705  1
  Cu  Cu28  1  0.35103993  0.88095043  0.76097573  1
  Cu  Cu29  1  0.35103993  0.11904957  0.26097573  1
  Cu  Cu30  1  0.85103993  0.38095043  0.76097573  1
  Cu  Cu31  1  0.85103993  0.61904957  0.26097573  1
  C  C32  1  0.14092527  0.58563377  0.73091912  1
  C  C33  1  0.84323909  0.55752220  0.76480838  1
  C  C34  1  0.84323909  0.44247780  0.26480838  1
  C  C35  1  0.14092527  0.41436623  0.23091912  1
  C  C36  1  0.64092527  0.08563377  0.73091912  1
  C  C37  1  0.34323909  0.05752220  0.76480838  1
  C  C38  1  0.34323909  0.94247780  0.26480838  1
  C  C39  1  0.64092527  0.91436623  0.23091912  1
  C  C40  1  0.44569652  0.55649104  0.59255869  1
  C  C41  1  0.57246050  0.55540073  0.93467405  1
  C  C42  1  0.57246050  0.44459927  0.43467405  1
  C  C43  1  0.44569652  0.44350896  0.09255869  1
  C  C44  1  0.94569652  0.05649104  0.59255869  1
  C  C45  1  0.07246050  0.05540073  0.93467405  1
  C  C46  1  0.07246050  0.94459927  0.43467405  1
  C  C47  1  0.94569652  0.94350896  0.09255869  1
  C  C48  1  0.25303544  0.81712212  0.74175162  1
  C  C49  1  0.73894799  0.82151690  0.75479359  1
  C  C50  1  0.73894799  0.17848310  0.25479359  1
  C  C51  1  0.25303544  0.18287788  0.24175162  1
  C  C52  1  0.75303544  0.31712212  0.74175162  1
  C  C53  1  0.23894799  0.32151690  0.75479359  1
  C  C54  1  0.23894799  0.67848310  0.25479359  1
  C  C55  1  0.75303544  0.68287788  0.24175162  1
  C  C56  1  0.34812809  0.85233071  0.58680213  1
  C  C57  1  0.63111868  0.85113723  0.91012744  1
  C  C58  1  0.63111868  0.14886277  0.41012744  1
  C  C59  1  0.34812809  0.14766929  0.08680213  1
  C  C60  1  0.84812809  0.35233071  0.58680213  1
  C  C61  1  0.13111868  0.35113723  0.91012744  1
  C  C62  1  0.13111868  0.64886277  0.41012744  1
  C  C63  1  0.84812809  0.64766929  0.08680213  1
  C  C64  1  0.45297138  0.82078843  0.93026219  1
  C  C65  1  0.53690299  0.83851822  0.55547127  1
  C  C66  1  0.53690299  0.16148178  0.05547127  1
  C  C67  1  0.45297138  0.17921157  0.43026219  1
  C  C68  1  0.95297138  0.32078843  0.93026219  1
  C  C69  1  0.03690299  0.33851822  0.55547127  1
  C  C70  1  0.03690299  0.66148178  0.05547127  1
  C  C71  1  0.95297138  0.67921157  0.43026219  1
  C  C72  1  0.08661582  0.85981455  0.74474579  1
  C  C73  1  0.92769944  0.85080165  0.75510231  1
  C  C74  1  0.92769944  0.14919835  0.25510231  1
  C  C75  1  0.08661582  0.14018545  0.24474579  1
  C  C76  1  0.58661582  0.35981455  0.74474579  1
  C  C77  1  0.42769944  0.35080165  0.75510231  1
  C  C78  1  0.42769944  0.64919835  0.25510231  1
  C  C79  1  0.58661582  0.64018545  0.24474579  1
