# generated using pymatgen
data_Cu2Ni10C7
_symmetry_space_group_name_H-M   'P 1'
_cell_length_a   8.12131420
_cell_length_b   5.71750818
_cell_length_c   5.89797602
_cell_angle_alpha   66.90684617
_cell_angle_beta   63.21080531
_cell_angle_gamma   65.28173664
_symmetry_Int_Tables_number   1
_chemical_formula_structural   Cu2Ni10C7
_chemical_formula_sum   'Cu2 Ni10 C7'
_cell_volume   214.94593582
_cell_formula_units_Z   1
loop_
 _symmetry_equiv_pos_site_id
 _symmetry_equiv_pos_as_xyz
  1  'x, y, z'
loop_
 _atom_site_type_symbol
 _atom_site_label
 _atom_site_symmetry_multiplicity
 _atom_site_fract_x
 _atom_site_fract_y
 _atom_site_fract_z
 _atom_site_occupancy
  C  C0  1  0.32692590  0.66616876  0.17894874  1
  C  C1  1  0.80906933  0.66811487  0.65682183  1
  C  C2  1  0.67040823  0.33613522  0.34892378  1
  C  C3  1  0.34747680  0.65819949  0.65933273  1
  C  C4  1  0.11781688  0.30644733  0.31559363  1
  C  C5  1  0.54107293  0.03259679  0.02158239  1
  C  C6  1  0.97485966  0.02196984  0.00282225  1
  Ni  Ni7  1  0.69534762  0.04307958  0.65246004  1
  Ni  Ni8  1  0.35006697  0.39402550  0.00464775  1
  Ni  Ni9  1  0.61531828  0.58748529  0.53784744  1
  Ni  Ni10  1  0.94615025  0.25158131  0.18750262  1
  Ni  Ni11  1  0.70728738  0.09754936  0.15535608  1
  Ni  Ni12  1  0.39348944  0.41251499  0.49022232  1
  Ni  Ni13  1  0.31367737  0.94772240  0.33650917  1
  Ni  Ni14  1  0.62823130  0.64763639  0.02963805  1
  Ni  Ni15  1  0.96589040  0.29819684  0.68775447  1
  Ni  Ni16  1  0.02172477  0.69915024  0.30319263  1
  Cu  Cu17  1  0.27794617  0.92803591  0.85901840  1
  Cu  Cu18  1  0.05649833  0.75338788  0.79801468  1
