# generated using pymatgen
data_Cu2Ni2C
_symmetry_space_group_name_H-M   'P 1'
_cell_length_a   6.95754182
_cell_length_b   6.95754182
_cell_length_c   6.95754182
_cell_angle_alpha   60.00000000
_cell_angle_beta   60.00000000
_cell_angle_gamma   60.00000000
_symmetry_Int_Tables_number   1
_chemical_formula_structural   Cu2Ni2C
_chemical_formula_sum   'Cu6 Ni6 C3'
_cell_volume   238.15103767
_cell_formula_units_Z   3
loop_
 _symmetry_equiv_pos_site_id
 _symmetry_equiv_pos_as_xyz
  1  'x, y, z'
loop_
 _atom_site_type_symbol
 _atom_site_label
 _atom_site_symmetry_multiplicity
 _atom_site_fract_x
 _atom_site_fract_y
 _atom_site_fract_z
 _atom_site_occupancy
  C  C0  1  0.00000000  0.00000000  0.00000000  1
  C  C1  1  0.75000000  0.75000000  0.75000000  1
  C  C2  1  0.50000000  0.50000000  0.50000000  1
  Ni  Ni3  1  0.80963100  0.19036900  0.80963100  1
  Ni  Ni4  1  0.19036900  0.80963100  0.19036900  1
  Ni  Ni5  1  0.80963100  0.80963100  0.19036900  1
  Ni  Ni6  1  0.19036900  0.19036900  0.80963100  1
  Ni  Ni7  1  0.80963100  0.19036900  0.19036900  1
  Ni  Ni8  1  0.19036900  0.80963100  0.80963100  1
  Cu  Cu9  1  0.69020700  0.69020700  0.30979300  1
  Cu  Cu10  1  0.30979300  0.69020700  0.30979300  1
  Cu  Cu11  1  0.69020700  0.30979300  0.69020700  1
  Cu  Cu12  1  0.30979300  0.30979300  0.69020700  1
  Cu  Cu13  1  0.69020700  0.30979300  0.30979300  1
  Cu  Cu14  1  0.30979300  0.69020700  0.69020700  1
