# generated using pymatgen
data_CuNiC18
_symmetry_space_group_name_H-M   'P 1'
_cell_length_a   15.78268330
_cell_length_b   8.99448158
_cell_length_c   8.84641077
_cell_angle_alpha   90.00000000
_cell_angle_beta   124.60371525
_cell_angle_gamma   90.00000000
_symmetry_Int_Tables_number   1
_chemical_formula_structural   CuNiC18
_chemical_formula_sum   'Cu4 Ni4 C72'
_cell_volume   1033.65698086
_cell_formula_units_Z   4
loop_
 _symmetry_equiv_pos_site_id
 _symmetry_equiv_pos_as_xyz
  1  'x, y, z'
loop_
 _atom_site_type_symbol
 _atom_site_label
 _atom_site_symmetry_multiplicity
 _atom_site_fract_x
 _atom_site_fract_y
 _atom_site_fract_z
 _atom_site_occupancy
  C  C0  1  0.25232734  0.72360424  0.97766209  1
  C  C1  1  0.75232734  0.77639576  0.47766209  1
  C  C2  1  0.75232734  0.22360424  0.97766209  1
  C  C3  1  0.25232734  0.27639576  0.47766209  1
  C  C4  1  0.50911271  0.11433183  0.74998140  1
  C  C5  1  0.50911271  0.88566817  0.24998140  1
  C  C6  1  0.00911271  0.61433183  0.74998140  1
  C  C7  1  0.00911271  0.38566817  0.24998140  1
  C  C8  1  0.17992628  0.93602978  0.29074930  1
  C  C9  1  0.17992628  0.06397022  0.79074930  1
  C  C10  1  0.67992628  0.43602978  0.29074930  1
  C  C11  1  0.67992628  0.56397022  0.79074930  1
  C  C12  1  0.89452580  0.75597906  0.93630394  1
  C  C13  1  0.89452580  0.24402094  0.43630394  1
  C  C14  1  0.39452580  0.25597906  0.93630394  1
  C  C15  1  0.39452580  0.74402094  0.43630394  1
  Ni  Ni16  1  0.09938796  0.73945452  0.55285759  1
  Ni  Ni17  1  0.09938796  0.26054548  0.05285759  1
  Ni  Ni18  1  0.59938796  0.23945452  0.55285759  1
  Ni  Ni19  1  0.59938796  0.76054548  0.05285759  1
  Cu  Cu20  1  0.64744081  0.88852143  0.74506064  1
  Cu  Cu21  1  0.64744081  0.11147857  0.24506064  1
  Cu  Cu22  1  0.14744081  0.38852143  0.74506064  1
  Cu  Cu23  1  0.14744081  0.61147857  0.24506064  1
  C  C24  1  0.99949045  0.95927026  0.76533914  1
  C  C25  1  0.99949045  0.04072974  0.26533914  1
  C  C26  1  0.49949045  0.45927026  0.76533914  1
  C  C27  1  0.49949045  0.54072974  0.26533914  1
  C  C28  1  0.35440301  0.90246076  0.76167638  1
  C  C29  1  0.35440301  0.09753924  0.26167638  1
  C  C30  1  0.85440301  0.40246076  0.76167638  1
  C  C31  1  0.85440301  0.59753924  0.26167638  1
  C  C32  1  0.15044720  0.56687336  0.73924644  1
  C  C33  1  0.85567903  0.57968706  0.75219557  1
  C  C34  1  0.85567903  0.42031294  0.25219557  1
  C  C35  1  0.15044720  0.43312664  0.23924644  1
  C  C36  1  0.65044720  0.06687336  0.73924644  1
  C  C37  1  0.35567903  0.07968706  0.75219557  1
  C  C38  1  0.35567903  0.92031294  0.25219557  1
  C  C39  1  0.65044720  0.93312664  0.23924644  1
  C  C40  1  0.43857918  0.56900625  0.59309482  1
  C  C41  1  0.55987267  0.54658670  0.94110972  1
  C  C42  1  0.55987267  0.45341330  0.44110972  1
  C  C43  1  0.43857918  0.43099375  0.09309482  1
  C  C44  1  0.93857918  0.06900625  0.59309482  1
  C  C45  1  0.05987267  0.04658670  0.94110972  1
  C  C46  1  0.05987267  0.95341330  0.44110972  1
  C  C47  1  0.93857918  0.93099375  0.09309482  1
  C  C48  1  0.25758401  0.85838695  0.74781247  1
  C  C49  1  0.74612332  0.80467223  0.75357680  1
  C  C50  1  0.74612332  0.19532777  0.25357680  1
  C  C51  1  0.25758401  0.14161305  0.24781247  1
  C  C52  1  0.75758401  0.35838695  0.74781247  1
  C  C53  1  0.24612332  0.30467223  0.75357680  1
  C  C54  1  0.24612332  0.69532777  0.25357680  1
  C  C55  1  0.75758401  0.64161305  0.24781247  1
  C  C56  1  0.35658162  0.85609446  0.58770206  1
  C  C57  1  0.65120516  0.82083499  0.91382868  1
  C  C58  1  0.65120516  0.17916501  0.41382868  1
  C  C59  1  0.35658162  0.14390554  0.08770206  1
  C  C60  1  0.85658162  0.35609446  0.58770206  1
  C  C61  1  0.15120516  0.32083499  0.91382868  1
  C  C62  1  0.15120516  0.67916501  0.41382868  1
  C  C63  1  0.85658162  0.64390554  0.08770206  1
  C  C64  1  0.45141060  0.84719176  0.93662874  1
  C  C65  1  0.53493956  0.82057577  0.55533945  1
  C  C66  1  0.53493956  0.17942423  0.05533945  1
  C  C67  1  0.45141060  0.15280824  0.43662874  1
  C  C68  1  0.95141060  0.34719176  0.93662874  1
  C  C69  1  0.03493956  0.32057577  0.55533945  1
  C  C70  1  0.03493956  0.67942423  0.05533945  1
  C  C71  1  0.95141060  0.65280824  0.43662874  1
  C  C72  1  0.07002747  0.85505720  0.74768993  1
  C  C73  1  0.91093580  0.86548595  0.75214482  1
  C  C74  1  0.91093580  0.13451405  0.25214482  1
  C  C75  1  0.07002747  0.14494280  0.24768993  1
  C  C76  1  0.57002747  0.35505720  0.74768993  1
  C  C77  1  0.41093580  0.36548595  0.75214482  1
  C  C78  1  0.41093580  0.63451405  0.25214482  1
  C  C79  1  0.57002747  0.64494280  0.24768993  1
