# generated using pymatgen
data_Cu9Ni4C69
_symmetry_space_group_name_H-M   'P 1'
_cell_length_a   18.27467117
_cell_length_b   9.11891860
_cell_length_c   22.26041293
_cell_angle_alpha   90.01107978
_cell_angle_beta   89.99220788
_cell_angle_gamma   119.99528090
_symmetry_Int_Tables_number   1
_chemical_formula_structural   Cu9Ni4C69
_chemical_formula_sum   'Cu27 Ni12 C207'
_cell_volume   3212.75345553
_cell_formula_units_Z   3
loop_
 _symmetry_equiv_pos_site_id
 _symmetry_equiv_pos_as_xyz
  1  'x, y, z'
loop_
 _atom_site_type_symbol
 _atom_site_label
 _atom_site_symmetry_multiplicity
 _atom_site_fract_x
 _atom_site_fract_y
 _atom_site_fract_z
 _atom_site_occupancy
  C  C0  1  0.82028749  0.98900234  0.26382600  1
  C  C1  1  0.17017493  0.33924716  0.24949763  1
  C  C2  1  0.66728544  0.35566214  0.25287568  1
  C  C3  1  0.00714682  0.65772485  0.24300365  1
  C  C4  1  0.51120798  0.64834305  0.25405934  1
  C  C5  1  0.32007162  0.64941494  0.76787662  1
  C  C6  1  0.01090687  0.37117772  0.75907827  1
  C  C7  1  0.50501366  0.36061898  0.74763693  1
  C  C8  1  0.17038609  0.98002469  0.75921083  1
  C  C9  1  0.66645347  0.99600839  0.75653654  1
  C  C10  1  0.14161894  0.31181040  0.58828391  1
  C  C11  1  0.64204462  0.31472335  0.58967978  1
  C  C12  1  0.34093523  0.98763182  0.58432976  1
  C  C13  1  0.84121147  0.97299349  0.59449652  1
  C  C14  1  0.14479802  0.97567952  0.09016295  1
  C  C15  1  0.63790234  0.96631256  0.08823182  1
  C  C16  1  0.34528216  0.70656807  0.09237991  1
  C  C17  1  0.84071328  0.69973795  0.07961088  1
  C  C18  1  0.47397677  0.66226066  0.92229480  1
  C  C19  1  0.97524890  0.64518304  0.92288480  1
  C  C20  1  0.35543367  0.05261892  0.91376947  1
  C  C21  1  0.84705672  0.04080978  0.92394287  1
  C  C22  1  0.17106044  0.29150708  0.92984270  1
  C  C23  1  0.66763093  0.27901620  0.92057690  1
  C  C24  1  0.47488879  0.30792956  0.42027588  1
  C  C25  1  0.97792116  0.28937984  0.40881000  1
  C  C26  1  0.16878189  0.05617866  0.41498009  1
  C  C27  1  0.67124708  0.04868983  0.42595586  1
  C  C28  1  0.34820677  0.65202725  0.41782544  1
  C  C29  1  0.85375809  0.66245421  0.40770586  1
  C  C30  1  0.01060594  0.98319255  0.50087044  1
  C  C31  1  0.50542837  0.99632248  0.50814646  1
  C  C32  1  0.00587051  0.01821933  0.01048590  1
  C  C33  1  0.50855419  0.02034280  0.00587549  1
  C  C34  1  0.33154860  0.33278716  0.84328922  1
  C  C35  1  0.83290611  0.33584156  0.84340823  1
  C  C36  1  0.33161743  0.32472323  0.33856782  1
  C  C37  1  0.83213429  0.33229002  0.33881795  1
  C  C38  1  0.17064863  0.66826354  0.16860175  1
  C  C39  1  0.65053607  0.64574893  0.17056348  1
  C  C40  1  0.15597846  0.65948849  0.67542940  1
  C  C41  1  0.66517322  0.66927862  0.66986977  1
  C  C42  1  0.50213726  0.00939545  0.35189461  1
  C  C43  1  0.00168399  0.99401338  0.85267695  1
  C  C44  1  0.33280039  0.32925083  0.68449730  1
  C  C45  1  0.83366722  0.32875590  0.69051552  1
  C  C46  1  0.33855281  0.34795513  0.18788292  1
  C  C47  1  0.83375978  0.33696697  0.18416659  1
  C  C48  1  0.15517278  0.65221682  0.02060408  1
  C  C49  1  0.65975788  0.64800445  0.02042668  1
  C  C50  1  0.16616200  0.68109310  0.51826183  1
  C  C51  1  0.65477104  0.65829977  0.52053943  1
  C  C52  1  0.16577733  0.66111603  0.31276360  1
  C  C53  1  0.66702192  0.67045734  0.81329835  1
  Ni  Ni54  1  0.01863778  0.03181706  0.35101727  1
  Ni  Ni55  1  0.51809206  0.00353659  0.85348699  1
  Ni  Ni56  1  0.00978114  0.00769727  0.65985687  1
  Ni  Ni57  1  0.51999769  0.01464643  0.65039529  1
  Ni  Ni58  1  0.01947980  0.02102086  0.15192542  1
  Ni  Ni59  1  0.50638134  0.99461965  0.15334125  1
  Ni  Ni60  1  0.33504182  0.33155253  0.98447384  1
  Ni  Ni61  1  0.83140271  0.34464898  0.97931621  1
  Ni  Ni62  1  0.32986542  0.31599682  0.47819737  1
  Ni  Ni63  1  0.83007030  0.34225988  0.47889154  1
  Ni  Ni64  1  0.65145752  0.64895482  0.31653510  1
  Ni  Ni65  1  0.15334413  0.65549776  0.81982034  1
  Cu  Cu66  1  0.15211636  0.00042210  0.24958344  1
  Cu  Cu67  1  0.65082758  0.99601613  0.24936315  1
  Cu  Cu68  1  0.35411151  0.71051623  0.24696494  1
  Cu  Cu69  1  0.99629069  0.28434057  0.25298081  1
  Cu  Cu70  1  0.49897998  0.28847773  0.24616897  1
  Cu  Cu71  1  0.14947464  0.30330371  0.74784757  1
  Cu  Cu72  1  0.64945466  0.30253156  0.74920481  1
  Cu  Cu73  1  0.00189678  0.70700835  0.74742773  1
  Cu  Cu74  1  0.49652892  0.70884274  0.75256261  1
  Cu  Cu75  1  0.85547437  0.99567787  0.74600365  1
  Cu  Cu76  1  0.47819663  0.32341778  0.57824760  1
  Cu  Cu77  1  0.18072570  0.03425045  0.57910307  1
  Cu  Cu78  1  0.69186392  0.03998368  0.57829952  1
  Cu  Cu79  1  0.48085958  0.62627980  0.07758862  1
  Cu  Cu80  1  0.97912559  0.63437266  0.07887715  1
  Cu  Cu81  1  0.18985492  0.34168248  0.07991433  1
  Cu  Cu82  1  0.68340137  0.33021350  0.07831730  1
  Cu  Cu83  1  0.81336544  0.67363745  0.91849243  1
  Cu  Cu84  1  0.01540028  0.35991195  0.91435664  1
  Cu  Cu85  1  0.51878137  0.36347044  0.91256625  1
  Cu  Cu86  1  0.17037904  0.96004739  0.91219357  1
  Cu  Cu87  1  0.66362800  0.95511563  0.91949683  1
  Cu  Cu88  1  0.31447714  0.95724584  0.41604580  1
  Cu  Cu89  1  0.16267008  0.36997226  0.42133779  1
  Cu  Cu90  1  0.66877266  0.38139614  0.41152053  1
  Cu  Cu91  1  0.01730843  0.66817077  0.41342966  1
  Cu  Cu92  1  0.51497177  0.67087100  0.41397277  1
  C  C93  1  0.85349539  0.70037971  0.24680764  1
  C  C94  1  0.35347105  0.00669203  0.74545089  1
  C  C95  1  0.98222640  0.34792562  0.57998383  1
  C  C96  1  0.32714128  0.62380188  0.58379586  1
  C  C97  1  0.83266704  0.62516025  0.57922472  1
  C  C98  1  0.33005785  0.03757374  0.07851597  1
  C  C99  1  0.82924215  0.03415221  0.08392072  1
  C  C100  1  0.31016589  0.67648220  0.91650881  1
  C  C101  1  0.81240873  0.94844338  0.41930037  1
  C  C102  1  0.11845752  0.05470264  0.30845640  1
  C  C103  1  0.59952922  0.03168582  0.30691965  1
  C  C104  1  0.41749232  0.81190690  0.30542305  1
  C  C105  1  0.90049015  0.77431152  0.30293593  1
  C  C106  1  0.48819607  0.17921160  0.31139887  1
  C  C107  1  0.97085022  0.17229175  0.31486491  1
  C  C108  1  0.09786831  0.16376673  0.80409910  1
  C  C109  1  0.61794936  0.17746239  0.80645283  1
  C  C110  1  0.47091187  0.77088413  0.81380817  1
  C  C111  1  0.98743283  0.79683068  0.80956923  1
  C  C112  1  0.40100449  0.02769810  0.80094984  1
  C  C113  1  0.91810496  0.02533365  0.80427086  1
  C  C114  1  0.39739928  0.00345029  0.69091532  1
  C  C115  1  0.89558830  0.97923829  0.68462456  1
  C  C116  1  0.09269094  0.24163498  0.68750660  1
  C  C117  1  0.59153832  0.23646858  0.68981399  1
  C  C118  1  0.02229440  0.83076553  0.69232739  1
  C  C119  1  0.51963299  0.83653316  0.69723114  1
  C  C120  1  0.38878795  0.80669581  0.18542310  1
  C  C121  1  0.89777572  0.79452057  0.19300424  1
  C  C122  1  0.01825365  0.19789589  0.19919248  1
  C  C123  1  0.51830481  0.19305861  0.19488452  1
  C  C124  1  0.08935705  0.93949128  0.19222816  1
  C  C125  1  0.59374060  0.94403335  0.19005047  1
  C  C126  1  0.42673128  0.34445099  0.63805495  1
  C  C127  1  0.93914513  0.35757991  0.63630753  1
  C  C128  1  0.24895836  0.14564249  0.63657654  1
  C  C129  1  0.75688108  0.14597517  0.63677208  1
  C  C130  1  0.32080067  0.51212999  0.63702714  1
  C  C131  1  0.82920944  0.51238132  0.62958743  1
  C  C132  1  0.43131043  0.50712684  0.13839920  1
  C  C133  1  0.92883775  0.51079607  0.13914645  1
  C  C134  1  0.32236553  0.13663295  0.12913869  1
  C  C135  1  0.82518471  0.13590969  0.13768170  1
  C  C136  1  0.25355367  0.36794359  0.13860803  1
  C  C137  1  0.75110706  0.35327212  0.13691435  1
  C  C138  1  0.23187823  0.32132965  0.01954009  1
  C  C139  1  0.72682708  0.31268413  0.01802657  1
  C  C140  1  0.43017554  0.53771357  0.01719926  1
  C  C141  1  0.92792713  0.54988468  0.01877860  1
  C  C142  1  0.33451331  0.11741247  0.02019686  1
  C  C143  1  0.83744196  0.12502578  0.02846141  1
  C  C144  1  0.22436564  0.13206125  0.51772049  1
  C  C145  1  0.73736650  0.14242949  0.51808257  1
  C  C146  1  0.33400534  0.54900144  0.52802525  1
  C  C147  1  0.83842067  0.55588149  0.52081128  1
  C  C148  1  0.42659985  0.30474450  0.51821975  1
  C  C149  1  0.93738855  0.34994928  0.52609339  1
  C  C150  1  0.25952082  0.67376801  0.97110484  1
  C  C151  1  0.77077317  0.69731064  0.98117811  1
  C  C152  1  0.08061942  0.47067519  0.97267858  1
  C  C153  1  0.58338899  0.47175628  0.97152317  1
  C  C154  1  0.15789846  0.83161450  0.97140969  1
  C  C155  1  0.66398753  0.83671985  0.97713285  1
  C  C156  1  0.26841996  0.84795683  0.48022452  1
  C  C157  1  0.76136794  0.84895859  0.47396506  1
  C  C158  1  0.16135877  0.48382460  0.48168461  1
  C  C159  1  0.65987271  0.48650238  0.47230859  1
  C  C160  1  0.08350609  0.69069060  0.47251520  1
  C  C161  1  0.58052880  0.68981355  0.47317466  1
  C  C162  1  0.06794832  0.65143849  0.35529018  1
  C  C163  1  0.55333389  0.64077191  0.35431419  1
  C  C164  1  0.25031998  0.83298096  0.36395551  1
  C  C165  1  0.76513351  0.86917328  0.36431843  1
  C  C166  1  0.16188720  0.48002841  0.36232796  1
  C  C167  1  0.68390879  0.49249747  0.35217356  1
  C  C168  1  0.05372510  0.46606419  0.85444733  1
  C  C169  1  0.57217781  0.48259926  0.85439887  1
  C  C170  1  0.18502854  0.88122331  0.85190613  1
  C  C171  1  0.66348664  0.85056899  0.85766752  1
  C  C172  1  0.26482791  0.67063848  0.86123615  1
  C  C173  1  0.75217082  0.67265463  0.86351796  1
  C  C174  1  0.00998759  0.83678087  0.41225805  1
  C  C175  1  0.51823936  0.85565333  0.41469550  1
  C  C176  1  0.40553692  0.96191927  0.41224510  1
  C  C177  1  0.89331292  0.94949470  0.42381747  1
  C  C178  1  0.07536927  0.19029546  0.42409395  1
  C  C179  1  0.57859162  0.19584937  0.41207708  1
  C  C180  1  0.01864171  0.18134633  0.91339831  1
  C  C181  1  0.51273641  0.18090104  0.91119850  1
  C  C182  1  0.07924981  0.96365589  0.91051826  1
  C  C183  1  0.57608361  0.95823154  0.92397082  1
  C  C184  1  0.39235730  0.83443840  0.92177062  1
  C  C185  1  0.90619192  0.84985394  0.91072247  1
  C  C186  1  0.49248363  0.16230268  0.58470635  1
  C  C187  1  0.98972608  0.19432550  0.58025101  1
  C  C188  1  0.09033610  0.02206010  0.58740175  1
  C  C189  1  0.59989422  0.02102691  0.58459908  1
  C  C190  1  0.39618784  0.79691266  0.59166209  1
  C  C191  1  0.90140129  0.79902896  0.58473369  1
  C  C192  1  0.49162631  0.81275093  0.08289031  1
  C  C193  1  0.99271612  0.82333335  0.08566701  1
  C  C194  1  0.40008259  0.00538266  0.08427063  1
  C  C195  1  0.89818671  0.99883543  0.09172694  1
  C  C196  1  0.09697700  0.17903057  0.08747382  1
  C  C197  1  0.59250795  0.16795280  0.08765632  1
  C  C198  1  0.34475621  0.16905536  0.74411393  1
  C  C199  1  0.84926485  0.17751881  0.74337937  1
  C  C200  1  0.24142873  0.30180080  0.74177519  1
  C  C201  1  0.74494678  0.32152104  0.73550740  1
  C  C202  1  0.41225956  0.51304203  0.73903554  1
  C  C203  1  0.91509734  0.51753157  0.73866348  1
  C  C204  1  0.34860662  0.51889135  0.24643289  1
  C  C205  1  0.84616115  0.52234470  0.24506722  1
  C  C206  1  0.41227384  0.30336613  0.23977338  1
  C  C207  1  0.91336570  0.31465552  0.24087929  1
  C  C208  1  0.24452686  0.17034720  0.23537672  1
  C  C209  1  0.74289298  0.18195220  0.24329494  1
  C  C210  1  0.32002187  0.52483096  0.91655918  1
  C  C211  1  0.82274715  0.50886402  0.91335728  1
  C  C212  1  0.42879638  0.35628966  0.91489934  1
  C  C213  1  0.92200738  0.33010845  0.92441720  1
  C  C214  1  0.24912930  0.15095356  0.91968760  1
  C  C215  1  0.74876995  0.13682056  0.91655662  1
  C  C216  1  0.32292610  0.13942947  0.41210693  1
  C  C217  1  0.82707604  0.12416057  0.42134571  1
  C  C218  1  0.24802047  0.36009345  0.41784212  1
  C  C219  1  0.74799558  0.34756123  0.41691812  1
  C  C220  1  0.42195242  0.51300438  0.42470540  1
  C  C221  1  0.92761826  0.49232509  0.41867852  1
  C  C222  1  0.18790937  0.52644795  0.07775275  1
  C  C223  1  0.68726351  0.51882704  0.08087034  1
  C  C224  1  0.07584607  0.65083249  0.07819122  1
  C  C225  1  0.57777583  0.64412229  0.07852055  1
  C  C226  1  0.24622614  0.86691237  0.08103065  1
  C  C227  1  0.74542274  0.87065795  0.08783617  1
  C  C228  1  0.18128748  0.84780361  0.58222972  1
  C  C229  1  0.68870416  0.85041751  0.57895480  1
  C  C230  1  0.24324111  0.62384038  0.58746115  1
  C  C231  1  0.74791480  0.62226647  0.58296067  1
  C  C232  1  0.07079551  0.50273129  0.58276600  1
  C  C233  1  0.57547001  0.50097083  0.57838504  1
  C  C234  1  0.16578542  0.83426751  0.25919934  1
  C  C235  1  0.67490234  0.85070026  0.26263337  1
  C  C236  1  0.25415965  0.65701953  0.25934671  1
  C  C237  1  0.76678437  0.67347784  0.24709578  1
  C  C238  1  0.07909211  0.48250709  0.25705242  1
  C  C239  1  0.57791716  0.48190421  0.25065104  1
  C  C240  1  0.17339403  0.49642393  0.76091181  1
  C  C241  1  0.66593291  0.49678641  0.75713962  1
  C  C242  1  0.07985340  0.67125712  0.75350497  1
  C  C243  1  0.57804904  0.67276192  0.75691874  1
  C  C244  1  0.26686136  0.85927873  0.74567913  1
  C  C245  1  0.75559353  0.84846483  0.75549416  1
