# generated using pymatgen
data_Cu2Ni2C31
_symmetry_space_group_name_H-M   'P 1'
_cell_length_a   18.06582595
_cell_length_b   9.03858580
_cell_length_c   23.82664732
_cell_angle_alpha   89.98290510
_cell_angle_beta   90.02803821
_cell_angle_gamma   120.09547649
_symmetry_Int_Tables_number   1
_chemical_formula_structural   Cu2Ni2C31
_chemical_formula_sum   'Cu12 Ni12 C186'
_cell_volume   3366.14786546
_cell_formula_units_Z   6
loop_
 _symmetry_equiv_pos_site_id
 _symmetry_equiv_pos_as_xyz
  1  'x, y, z'
loop_
 _atom_site_type_symbol
 _atom_site_label
 _atom_site_symmetry_multiplicity
 _atom_site_fract_x
 _atom_site_fract_y
 _atom_site_fract_z
 _atom_site_occupancy
  C  C0  1  0.00168063  0.99036147  0.49761887  1
  C  C1  1  0.50193076  0.02111138  0.99497561  1
  C  C2  1  0.34257027  0.33550424  0.83765567  1
  C  C3  1  0.84224282  0.35395166  0.82833919  1
  C  C4  1  0.33162484  0.33111243  0.33427042  1
  C  C5  1  0.84297906  0.34896096  0.33530000  1
  Ni  Ni6  1  0.99923902  0.99155330  0.85470923  1
  Ni  Ni7  1  0.49985644  0.00733947  0.85522547  1
  Ni  Ni8  1  0.00057865  0.99245294  0.65111706  1
  Ni  Ni9  1  0.50002126  0.00017867  0.64300204  1
  Ni  Ni10  1  0.33486200  0.33484240  0.68477530  1
  Ni  Ni11  1  0.83782197  0.34444710  0.68486803  1
  Ni  Ni12  1  0.33889101  0.33445457  0.98195157  1
  Ni  Ni13  1  0.83725217  0.34038487  0.47699973  1
  Ni  Ni14  1  0.66260303  0.65495863  0.02232019  1
  Ni  Ni15  1  0.16269335  0.67008838  0.51627067  1
  Ni  Ni16  1  0.16077199  0.66541297  0.81074678  1
  Ni  Ni17  1  0.66363390  0.65941284  0.81562378  1
  Cu  Cu18  1  0.00097899  0.99210387  0.35179097  1
  Cu  Cu19  1  0.49954868  0.99838342  0.35412585  1
  Cu  Cu20  1  0.99895881  0.00119338  0.14665644  1
  Cu  Cu21  1  0.50043428  0.00068023  0.15219360  1
  Cu  Cu22  1  0.32980399  0.33252002  0.18358273  1
  Cu  Cu23  1  0.83680400  0.33556136  0.18448396  1
  Cu  Cu24  1  0.83484326  0.33580321  0.98374204  1
  Cu  Cu25  1  0.33427824  0.33528337  0.48083187  1
  Cu  Cu26  1  0.16477700  0.66500415  0.02079110  1
  Cu  Cu27  1  0.66552826  0.66844787  0.51836749  1
  Cu  Cu28  1  0.15962217  0.66375385  0.31319588  1
  Cu  Cu29  1  0.66604979  0.66490642  0.31132113  1
  C  C30  1  0.99596117  0.69784709  0.75125007  1
  C  C31  1  0.51624511  0.36701689  0.91768451  1
  C  C32  1  0.01930531  0.67075406  0.41203809  1
  C  C33  1  0.14526821  0.00384511  0.24878005  1
  C  C34  1  0.64491381  0.00281147  0.25173818  1
  C  C35  1  0.35715271  0.71075222  0.25106267  1
  C  C36  1  0.85545904  0.70968227  0.24969388  1
  C  C37  1  0.99827231  0.28506548  0.24968764  1
  C  C38  1  0.49843086  0.28662973  0.25114981  1
  C  C39  1  0.15034162  0.29451098  0.75128065  1
  C  C40  1  0.64647374  0.29079687  0.74910159  1
  C  C41  1  0.49932369  0.70730638  0.75027073  1
  C  C42  1  0.35419394  0.00217738  0.74947736  1
  C  C43  1  0.85214865  0.00253354  0.75133445  1
  C  C44  1  0.48052090  0.34109932  0.57848181  1
  C  C45  1  0.98127444  0.32784101  0.58128360  1
  C  C46  1  0.18927701  0.04911457  0.57946031  1
  C  C47  1  0.68734851  0.03205517  0.58027102  1
  C  C48  1  0.33304853  0.61963190  0.57993243  1
  C  C49  1  0.82915547  0.63196297  0.57926718  1
  C  C50  1  0.47670944  0.63291855  0.08869417  1
  C  C51  1  0.97740539  0.62362445  0.08401399  1
  C  C52  1  0.33412865  0.03600736  0.08664736  1
  C  C53  1  0.83800601  0.05498948  0.08569750  1
  C  C54  1  0.18512278  0.33286652  0.08567549  1
  C  C55  1  0.68922024  0.32159880  0.08628464  1
  C  C56  1  0.30857548  0.66506646  0.92006897  1
  C  C57  1  0.81351536  0.65653626  0.91993466  1
  C  C58  1  0.01890857  0.37986983  0.92189529  1
  C  C59  1  0.16711648  0.95268856  0.92035640  1
  C  C60  1  0.67276833  0.97142905  0.91960507  1
  C  C61  1  0.31507627  0.96435344  0.41290761  1
  C  C62  1  0.80865558  0.94541749  0.41421625  1
  C  C63  1  0.16836225  0.37190633  0.41392207  1
  C  C64  1  0.66206360  0.37906397  0.41335318  1
  C  C65  1  0.52289943  0.66634198  0.41476534  1
  C  C66  1  0.10692979  0.03619377  0.29908252  1
  C  C67  1  0.60382270  0.03188730  0.30121267  1
  C  C68  1  0.41358765  0.79218214  0.30079436  1
  C  C69  1  0.91033939  0.78842607  0.29953358  1
  C  C70  1  0.48414703  0.17580222  0.30045951  1
  C  C71  1  0.98216892  0.17694752  0.29995886  1
  C  C72  1  0.10840526  0.19025943  0.80150722  1
  C  C73  1  0.60548615  0.18710814  0.79960534  1
  C  C74  1  0.48702318  0.78545194  0.80100261  1
  C  C75  1  0.98520583  0.79296876  0.80618142  1
  C  C76  1  0.40720878  0.02837468  0.79962091  1
  C  C77  1  0.90623699  0.03112754  0.80154647  1
  C  C78  1  0.39694598  0.98919520  0.69815999  1
  C  C79  1  0.89397194  0.98771593  0.70004197  1
  C  C80  1  0.10048183  0.21642695  0.69977871  1
  C  C81  1  0.59446032  0.20628874  0.69845443  1
  C  C82  1  0.00554007  0.80349611  0.69352006  1
  C  C83  1  0.50406453  0.80593715  0.69938183  1
  C  C84  1  0.39950769  0.81802405  0.20054390  1
  C  C85  1  0.89526585  0.81622896  0.19926558  1
  C  C86  1  0.00858573  0.19996002  0.19943451  1
  C  C87  1  0.51245563  0.20788303  0.20029681  1
  C  C88  1  0.09151251  0.97955467  0.19874452  1
  C  C89  1  0.59140842  0.97565868  0.20100714  1
  C  C90  1  0.44485444  0.37141152  0.63013111  1
  C  C91  1  0.93995648  0.34542772  0.63218406  1
  C  C92  1  0.23646975  0.13003253  0.63158455  1
  C  C93  1  0.73938569  0.10543153  0.63114661  1
  C  C94  1  0.32128730  0.51897134  0.63146185  1
  C  C95  1  0.81633660  0.53130631  0.63072639  1
  C  C96  1  0.43054429  0.51783757  0.13696557  1
  C  C97  1  0.93686735  0.51126737  0.13409763  1
  C  C98  1  0.32129978  0.12447150  0.13566160  1
  C  C99  1  0.82570131  0.14066833  0.13560871  1
  C  C100  1  0.24363958  0.36264098  0.13496019  1
  C  C101  1  0.74277049  0.33995108  0.13616311  1
  C  C102  1  0.22067304  0.29504386  0.03574857  1
  C  C103  1  0.72855482  0.29717355  0.03496008  1
  C  C104  1  0.42636415  0.56299662  0.03687456  1
  C  C105  1  0.92106791  0.54370772  0.03445349  1
  C  C106  1  0.35290436  0.14364081  0.03602293  1
  C  C107  1  0.85169334  0.16228274  0.03516896  1
  C  C108  1  0.23696786  0.15761547  0.52981519  1
  C  C109  1  0.72761283  0.14295010  0.53117288  1
  C  C110  1  0.34402496  0.52893807  0.53057918  1
  C  C111  1  0.84290444  0.54704269  0.53051106  1
  C  C112  1  0.42277073  0.31481190  0.52999345  1
  C  C113  1  0.92806652  0.30856718  0.53114891  1
  C  C114  1  0.26353450  0.68124575  0.97011831  1
  C  C115  1  0.77089775  0.67777861  0.96968108  1
  C  C116  1  0.07412869  0.47141648  0.97109816  1
  C  C117  1  0.57039385  0.46087904  0.97460976  1
  C  C118  1  0.16088215  0.84790886  0.97057890  1
  C  C119  1  0.66229502  0.86631481  0.96965723  1
  C  C120  1  0.28130408  0.86323009  0.46461673  1
  C  C121  1  0.76832659  0.84382108  0.46559093  1
  C  C122  1  0.15602613  0.44596491  0.46567949  1
  C  C123  1  0.65125257  0.45823124  0.46471604  1
  C  C124  1  0.07209107  0.69906229  0.46985962  1
  C  C125  1  0.57510490  0.69252057  0.46539115  1
  C  C126  1  0.07260129  0.65159602  0.35871580  1
  C  C127  1  0.56338889  0.63701505  0.36483084  1
  C  C128  1  0.25894632  0.88117120  0.36422377  1
  C  C129  1  0.75549920  0.85731581  0.36392368  1
  C  C130  1  0.18310373  0.48240941  0.36453132  1
  C  C131  1  0.67496355  0.49024589  0.36363585  1
  C  C132  1  0.05401815  0.48004247  0.87038411  1
  C  C133  1  0.56234744  0.47705935  0.86167500  1
  C  C134  1  0.18048014  0.87847792  0.86931557  1
  C  C135  1  0.68676519  0.89842168  0.86809862  1
  C  C136  1  0.26250176  0.65017862  0.86804625  1
  C  C137  1  0.76255701  0.62832486  0.86853946  1
  C  C138  1  0.00924776  0.84189440  0.40366174  1
  C  C139  1  0.51356672  0.81852848  0.40498086  1
  C  C140  1  0.40150456  0.98649257  0.40198559  1
  C  C141  1  0.89545356  0.96766080  0.40827255  1
  C  C142  1  0.09128121  0.19993299  0.40606113  1
  C  C143  1  0.58485341  0.20901066  0.40382400  1
  C  C144  1  0.01032762  0.21033823  0.91694726  1
  C  C145  1  0.50658665  0.17678133  0.91759328  1
  C  C146  1  0.08946977  0.96573480  0.91687778  1
  C  C147  1  0.59520562  0.98679749  0.91446201  1
  C  C148  1  0.39580092  0.81734156  0.91853083  1
  C  C149  1  0.89836721  0.80903113  0.91506158  1
  C  C150  1  0.48811094  0.18757089  0.58499214  1
  C  C151  1  0.98947270  0.17352397  0.58443069  1
  C  C152  1  0.10424490  0.03530941  0.58032791  1
  C  C153  1  0.60109184  0.00995502  0.58802126  1
  C  C154  1  0.41103025  0.78759305  0.58517851  1
  C  C155  1  0.90496873  0.80574580  0.58362993  1
  C  C156  1  0.48586905  0.80460281  0.09808800  1
  C  C157  1  0.98615149  0.79327175  0.09504340  1
  C  C158  1  0.41073875  0.01651049  0.09708078  1
  C  C159  1  0.91473816  0.03870390  0.09556901  1
  C  C160  1  0.10005347  0.18315431  0.09895576  1
  C  C161  1  0.60217176  0.16740572  0.09354733  1
  C  C162  1  0.34500693  0.15723672  0.74506463  1
  C  C163  1  0.83953645  0.15230372  0.74640054  1
  C  C164  1  0.23630991  0.30820259  0.74670237  1
  C  C165  1  0.73090062  0.30264515  0.74400473  1
  C  C166  1  0.42265568  0.53188804  0.74582460  1
  C  C167  1  0.91009800  0.50719683  0.74953069  1
  C  C168  1  0.34879853  0.53750165  0.24283013  1
  C  C169  1  0.84512724  0.53556702  0.24146311  1
  C  C170  1  0.42170036  0.30618484  0.24270934  1
  C  C171  1  0.92169459  0.30795754  0.24122129  1
  C  C172  1  0.23264006  0.16076197  0.24059610  1
  C  C173  1  0.73149990  0.15533424  0.24342360  1
  C  C174  1  0.31569032  0.50865397  0.92559429  1
  C  C175  1  0.82283092  0.50142705  0.92796967  1
  C  C176  1  0.42084485  0.34834683  0.91824218  1
  C  C177  1  0.93216179  0.36100937  0.93101870  1
  C  C178  1  0.24285407  0.12671400  0.92631153  1
  C  C179  1  0.74899351  0.14663446  0.92734265  1
  C  C180  1  0.32537173  0.13929932  0.42083095  1
  C  C181  1  0.81477732  0.11472394  0.41811327  1
  C  C182  1  0.24578593  0.35060040  0.42098518  1
  C  C183  1  0.73768542  0.35757944  0.41799455  1
  C  C184  1  0.43569969  0.51213590  0.42228591  1
  C  C185  1  0.92421747  0.49890371  0.41263094  1
  C  C186  1  0.17722055  0.48577259  0.07666029  1
  C  C187  1  0.68234010  0.47613749  0.08186014  1
  C  C188  1  0.06196791  0.64136113  0.07380798  1
  C  C189  1  0.56174905  0.65055197  0.08396327  1
  C  C190  1  0.25783804  0.86734854  0.07746068  1
  C  C191  1  0.76183611  0.88585828  0.07897220  1
  C  C192  1  0.18309328  0.88167122  0.57476226  1
  C  C193  1  0.67710300  0.86008940  0.56946425  1
  C  C194  1  0.25785220  0.63760341  0.57184383  1
  C  C195  1  0.75158933  0.64573112  0.56941490  1
  C  C196  1  0.06652802  0.48133482  0.57600042  1
  C  C197  1  0.56532292  0.49213957  0.56767451  1
  C  C198  1  0.15630088  0.85455519  0.25699385  1
  C  C199  1  0.65297120  0.84887121  0.26124715  1
  C  C200  1  0.27302026  0.69337888  0.25937040  1
  C  C201  1  0.76965300  0.69043819  0.25965805  1
  C  C202  1  0.07563961  0.45470949  0.25702967  1
  C  C203  1  0.57493603  0.45784585  0.26036349  1
  C  C204  1  0.16256851  0.46575249  0.75706764  1
  C  C205  1  0.65689302  0.46208793  0.75379990  1
  C  C206  1  0.08056372  0.68128168  0.75558346  1
  C  C207  1  0.57710887  0.69518417  0.75374087  1
  C  C208  1  0.27080544  0.84931486  0.75477806  1
  C  C209  1  0.76882296  0.84641040  0.75767052  1
