# generated using pymatgen
data_CuNiC3
_symmetry_space_group_name_H-M   'P 1'
_cell_length_a   5.24502122
_cell_length_b   5.86918581
_cell_length_c   5.24502158
_cell_angle_alpha   32.24585825
_cell_angle_beta   42.35961435
_cell_angle_gamma   32.24585484
_symmetry_Int_Tables_number   1
_chemical_formula_structural   CuNiC3
_chemical_formula_sum   'Cu1 Ni1 C3'
_cell_volume   45.80673967
_cell_formula_units_Z   1
loop_
 _symmetry_equiv_pos_site_id
 _symmetry_equiv_pos_as_xyz
  1  'x, y, z'
loop_
 _atom_site_type_symbol
 _atom_site_label
 _atom_site_symmetry_multiplicity
 _atom_site_fract_x
 _atom_site_fract_y
 _atom_site_fract_z
 _atom_site_occupancy
  Ni  Ni0  1  0.00000000  0.50000000  -0.00000000  1
  Cu  Cu1  1  0.00000000  -0.00000000  -0.00000000  1
  C  C2  1  0.50000000  0.50000000  0.50000000  1
  C  C3  1  0.50918734  0.27958209  0.50918734  1
  C  C4  1  0.49081266  0.72041791  0.49081266  1
