# generated using pymatgen
data_Cu8Ni8C9
_symmetry_space_group_name_H-M   'P 1'
_cell_length_a   9.78779676
_cell_length_b   9.82122021
_cell_length_c   3.14158100
_cell_angle_alpha   90.00000000
_cell_angle_beta   90.00000000
_cell_angle_gamma   94.93331193
_symmetry_Int_Tables_number   1
_chemical_formula_structural   Cu8Ni8C9
_chemical_formula_sum   'Cu8 Ni8 C9'
_cell_volume   300.87548782
_cell_formula_units_Z   1
loop_
 _symmetry_equiv_pos_site_id
 _symmetry_equiv_pos_as_xyz
  1  'x, y, z'
loop_
 _atom_site_type_symbol
 _atom_site_label
 _atom_site_symmetry_multiplicity
 _atom_site_fract_x
 _atom_site_fract_y
 _atom_site_fract_z
 _atom_site_occupancy
  C  C0  1  0.47900100  0.73719200  0.00000000  1
  C  C1  1  0.00855100  0.01352100  0.00000000  1
  C  C2  1  0.01932900  0.47635900  0.00000000  1
  C  C3  1  0.22612700  0.25842000  0.50000000  1
  C  C4  1  0.11653900  0.73204300  0.50000000  1
  C  C5  1  0.54548600  0.45846600  0.00000000  1
  C  C6  1  0.48103000  0.03330700  0.00000000  1
  C  C7  1  0.76615100  0.26886400  0.50000000  1
  C  C8  1  0.77532600  0.70978000  0.50000000  1
  Ni  Ni9  1  0.10656600  0.40195300  0.50000000  1
  Ni  Ni10  1  0.07061600  0.91452600  0.50000000  1
  Ni  Ni11  1  0.14656300  0.15972800  0.00000000  1
  Ni  Ni12  1  0.16405500  0.64444200  0.00000000  1
  Ni  Ni13  1  0.61144300  0.36485900  0.50000000  1
  Ni  Ni14  1  0.66496600  0.64707000  0.00000000  1
  Ni  Ni15  1  0.86070200  0.34657700  0.00000000  1
  Ni  Ni16  1  0.93654400  0.61645400  0.50000000  1
  Cu  Cu17  1  0.34632600  0.35345500  0.00000000  1
  Cu  Cu18  1  0.34453500  0.87140800  0.00000000  1
  Cu  Cu19  1  0.38885600  0.12872100  0.50000000  1
  Cu  Cu20  1  0.43259400  0.61832400  0.50000000  1
  Cu  Cu21  1  0.56362100  0.87232800  0.50000000  1
  Cu  Cu22  1  0.66635200  0.13295400  0.00000000  1
  Cu  Cu23  1  0.84097500  0.85005000  0.00000000  1
  Cu  Cu24  1  0.89608000  0.09753000  0.50000000  1
