# generated using pymatgen
data_Cu2NiC37
_symmetry_space_group_name_H-M   'P 1'
_cell_length_a   15.70743705
_cell_length_b   9.06916817
_cell_length_c   9.08812926
_cell_angle_alpha   90.40586654
_cell_angle_beta   124.70707958
_cell_angle_gamma   89.85798931
_symmetry_Int_Tables_number   1
_chemical_formula_structural   Cu2NiC37
_chemical_formula_sum   'Cu4 Ni2 C74'
_cell_volume   1064.25661028
_cell_formula_units_Z   2
loop_
 _symmetry_equiv_pos_site_id
 _symmetry_equiv_pos_as_xyz
  1  'x, y, z'
loop_
 _atom_site_type_symbol
 _atom_site_label
 _atom_site_symmetry_multiplicity
 _atom_site_fract_x
 _atom_site_fract_y
 _atom_site_fract_z
 _atom_site_occupancy
  C  C0  1  0.25022884  0.74844239  0.99895779  1
  C  C1  1  0.74071826  0.74672921  0.47519982  1
  C  C2  1  0.75022884  0.24844239  0.99895779  1
  C  C3  1  0.24071826  0.24672921  0.47519982  1
  C  C4  1  0.51005947  0.08864817  0.76939986  1
  C  C5  1  0.49830210  0.88545454  0.23144904  1
  C  C6  1  0.01005947  0.58864817  0.76939986  1
  C  C7  1  0.99830210  0.38545454  0.23144904  1
  C  C8  1  0.79810547  0.92495014  0.20990006  1
  C  C9  1  0.18434845  0.08124262  0.80893147  1
  C  C10  1  0.29810547  0.42495014  0.20990006  1
  C  C11  1  0.68434845  0.58124262  0.80893147  1
  C  C12  1  0.10410918  0.74895557  0.55773420  1
  C  C13  1  0.89470823  0.75486194  0.93495334  1
  C  C14  1  0.89602909  0.25325723  0.44195094  1
  C  C15  1  0.60410918  0.24895557  0.55773420  1
  C  C16  1  0.39470823  0.25486194  0.93495334  1
  C  C17  1  0.39602909  0.75325723  0.44195094  1
  Ni  Ni18  1  0.10492212  0.24178214  0.05568960  1
  Ni  Ni19  1  0.60492212  0.74178214  0.05568960  1
  Cu  Cu20  1  0.64983837  0.89928196  0.75118482  1
  Cu  Cu21  1  0.35121233  0.10065164  0.25118450  1
  Cu  Cu22  1  0.14983837  0.39928196  0.75118482  1
  Cu  Cu23  1  0.85121233  0.60065164  0.25118450  1
  C  C24  1  0.99814705  0.95687540  0.74670992  1
  C  C25  1  0.00179010  0.04571852  0.25509589  1
  C  C26  1  0.49814705  0.45687540  0.74670992  1
  C  C27  1  0.50179010  0.54571852  0.25509589  1
  C  C28  1  0.35703889  0.89605878  0.76558548  1
  C  C29  1  0.64600746  0.10723240  0.24186262  1
  C  C30  1  0.85703889  0.39605878  0.76558548  1
  C  C31  1  0.14600746  0.60723240  0.24186262  1
  C  C32  1  0.15708864  0.57932785  0.73629223  1
  C  C33  1  0.85347705  0.56948403  0.75707561  1
  C  C34  1  0.84962925  0.41810792  0.25710713  1
  C  C35  1  0.15272114  0.43875704  0.25331212  1
  C  C36  1  0.65708864  0.07932785  0.73629223  1
  C  C37  1  0.35347705  0.06948403  0.75707561  1
  C  C38  1  0.34962925  0.91810792  0.25710713  1
  C  C39  1  0.65272114  0.93875704  0.25331212  1
  C  C40  1  0.43089177  0.54922370  0.57390666  1
  C  C41  1  0.56535828  0.55387786  0.91105668  1
  C  C42  1  0.56341825  0.45203636  0.42599763  1
  C  C43  1  0.44211966  0.43775061  0.09136504  1
  C  C44  1  0.93089177  0.04922370  0.57390666  1
  C  C45  1  0.06535828  0.05387786  0.91105668  1
  C  C46  1  0.06341825  0.95203636  0.42599763  1
  C  C47  1  0.94211966  0.93775061  0.09136504  1
  C  C48  1  0.25550090  0.84539048  0.74184472  1
  C  C49  1  0.74496345  0.81598561  0.75648108  1
  C  C50  1  0.74158441  0.16982466  0.25224314  1
  C  C51  1  0.25890335  0.18347649  0.24622352  1
  C  C52  1  0.75550090  0.34539048  0.74184472  1
  C  C53  1  0.24496345  0.31598561  0.75648108  1
  C  C54  1  0.24158441  0.66982466  0.25224314  1
  C  C55  1  0.75890335  0.68347649  0.24622352  1
  C  C56  1  0.36039297  0.84813242  0.60321720  1
  C  C57  1  0.64982524  0.87031776  0.92616589  1
  C  C58  1  0.64538679  0.16625161  0.40125704  1
  C  C59  1  0.35339877  0.13952969  0.07408684  1
  C  C60  1  0.86039297  0.34813242  0.60321720  1
  C  C61  1  0.14982524  0.37031776  0.92616589  1
  C  C62  1  0.14538679  0.66625161  0.40125704  1
  C  C63  1  0.85339877  0.63952969  0.07408684  1
  C  C64  1  0.45113591  0.84037342  0.94014876  1
  C  C65  1  0.54083014  0.82985998  0.57368736  1
  C  C66  1  0.54629899  0.16181041  0.06596725  1
  C  C67  1  0.46383529  0.15882254  0.42552366  1
  C  C68  1  0.95113591  0.34037342  0.94014876  1
  C  C69  1  0.04083014  0.32985998  0.57368736  1
  C  C70  1  0.04629899  0.66181041  0.06596725  1
  C  C71  1  0.96383529  0.65882254  0.42552366  1
  C  C72  1  0.07695001  0.85873491  0.73435591  1
  C  C73  1  0.92656737  0.84636187  0.75720023  1
  C  C74  1  0.91371051  0.13022314  0.25514871  1
  C  C75  1  0.07044643  0.15619702  0.24454622  1
  C  C76  1  0.57695001  0.35873491  0.73435591  1
  C  C77  1  0.42656737  0.34636187  0.75720023  1
  C  C78  1  0.41371051  0.63022314  0.25514871  1
  C  C79  1  0.57044643  0.65619702  0.24454622  1
