# generated using pymatgen
data_Cu(NiC4)2
_symmetry_space_group_name_H-M   'P 1'
_cell_length_a   6.22126572
_cell_length_b   6.22126583
_cell_length_c   5.84286500
_cell_angle_alpha   61.99244165
_cell_angle_beta   61.99244110
_cell_angle_gamma   58.10732474
_symmetry_Int_Tables_number   1
_chemical_formula_structural   Cu(NiC4)2
_chemical_formula_sum   'Cu1 Ni2 C8'
_cell_volume   161.94892296
_cell_formula_units_Z   1
loop_
 _symmetry_equiv_pos_site_id
 _symmetry_equiv_pos_as_xyz
  1  'x, y, z'
loop_
 _atom_site_type_symbol
 _atom_site_label
 _atom_site_symmetry_multiplicity
 _atom_site_fract_x
 _atom_site_fract_y
 _atom_site_fract_z
 _atom_site_occupancy
  Ni  Ni0  1  0.69126200  0.69126200  0.80873800  1
  Ni  Ni1  1  0.30873800  0.30873800  0.19126200  1
  Cu  Cu2  1  0.00000000  0.00000000  0.00000000  1
  C  C3  1  0.00000000  0.00000000  0.50000000  1
  C  C4  1  0.50000000  0.50000000  0.50000000  1
  C  C5  1  0.24095900  0.75904100  0.73364500  1
  C  C6  1  0.24095900  0.75904100  0.26635500  1
  C  C7  1  0.75904100  0.24095900  0.73364500  1
  C  C8  1  0.26098400  0.26098400  0.73901600  1
  C  C9  1  0.75904100  0.24095900  0.26635500  1
  C  C10  1  0.73901600  0.73901600  0.26098400  1
