# generated using pymatgen
data_Cu3NiC
_symmetry_space_group_name_H-M   'P 1'
_cell_length_a   7.78823300
_cell_length_b   7.79154640
_cell_length_c   7.79090991
_cell_angle_alpha   108.92566555
_cell_angle_beta   108.78905435
_cell_angle_gamma   108.89264262
_symmetry_Int_Tables_number   1
_chemical_formula_structural   Cu3NiC
_chemical_formula_sum   'Cu12 Ni4 C4'
_cell_volume   371.83049275
_cell_formula_units_Z   4
loop_
 _symmetry_equiv_pos_site_id
 _symmetry_equiv_pos_as_xyz
  1  'x, y, z'
loop_
 _atom_site_type_symbol
 _atom_site_label
 _atom_site_symmetry_multiplicity
 _atom_site_fract_x
 _atom_site_fract_y
 _atom_site_fract_z
 _atom_site_occupancy
  C  C0  1  0.52930700  0.49321500  0.50096500  1
  C  C1  1  0.01456900  0.51364700  0.00163400  1
  C  C2  1  0.01148300  0.99762300  0.50680000  1
  C  C3  1  0.50951600  0.00021300  0.01987300  1
  Ni  Ni4  1  0.01765800  0.49439800  0.49157100  1
  Ni  Ni5  1  0.50745500  0.49428400  0.99700200  1
  Ni  Ni6  1  0.50699100  0.98841200  0.50829800  1
  Ni  Ni7  1  0.99908200  0.00224100  0.00106500  1
  Cu  Cu8  1  0.85494000  0.53768800  0.29700800  1
  Cu  Cu9  1  0.81462900  0.28778300  0.48839000  1
  Cu  Cu10  1  0.10224900  0.34082700  0.33874300  1
  Cu  Cu11  1  0.34973300  0.28465500  0.02804400  1
  Cu  Cu12  1  0.55240200  0.34661800  0.79422800  1
  Cu  Cu13  1  0.30494000  0.53568000  0.84364800  1
  Cu  Cu14  1  0.34032700  0.84233100  0.58759400  1
  Cu  Cu15  1  0.54756100  0.78674000  0.35160500  1
  Cu  Cu16  1  0.84383200  0.07970400  0.84041800  1
  Cu  Cu17  1  0.99091200  0.79068300  0.79840400  1
  Cu  Cu18  1  0.80867900  0.85079900  0.05637100  1
  Cu  Cu19  1  0.31163700  0.99155800  0.30084000  1
