# generated using pymatgen
data_Cu2(NiC7)5
_symmetry_space_group_name_H-M   'P 1'
_cell_length_a   9.22608535
_cell_length_b   9.21279692
_cell_length_c   22.66283613
_cell_angle_alpha   90.25393686
_cell_angle_beta   89.33659722
_cell_angle_gamma   120.04039199
_symmetry_Int_Tables_number   1
_chemical_formula_structural   Cu2(NiC7)5
_chemical_formula_sum   'Cu6 Ni15 C105'
_cell_volume   1667.42878941
_cell_formula_units_Z   3
loop_
 _symmetry_equiv_pos_site_id
 _symmetry_equiv_pos_as_xyz
  1  'x, y, z'
loop_
 _atom_site_type_symbol
 _atom_site_label
 _atom_site_symmetry_multiplicity
 _atom_site_fract_x
 _atom_site_fract_y
 _atom_site_fract_z
 _atom_site_occupancy
  C  C0  1  0.64012803  0.00134484  0.25250662  1
  C  C1  1  0.35952995  0.36150999  0.24722747  1
  C  C2  1  0.99992069  0.63847911  0.24968760  1
  C  C3  1  0.63685478  0.63567672  0.74656766  1
  C  C4  1  0.99700780  0.36319911  0.74939066  1
  C  C5  1  0.36666749  0.00467437  0.74944408  1
  C  C6  1  0.30030623  0.33754513  0.58669983  1
  C  C7  1  0.03897888  0.70207014  0.58326198  1
  C  C8  1  0.66387089  0.96096366  0.58330650  1
  C  C9  1  0.28529746  0.96369967  0.08137457  1
  C  C10  1  0.66953454  0.69149560  0.08729424  1
  C  C11  1  0.04541426  0.33874764  0.08640722  1
  C  C12  1  0.97530392  0.66818028  0.91614584  1
  C  C13  1  0.70405588  0.04415713  0.90937949  1
  C  C14  1  0.32103239  0.28444422  0.91825279  1
  C  C15  1  0.95927305  0.29500155  0.41296918  1
  C  C16  1  0.32832254  0.02173213  0.41623098  1
  C  C17  1  0.71254404  0.68021274  0.41821117  1
  C  C18  1  0.99124910  0.98999395  0.50125282  1
  C  C19  1  0.01921788  0.00749510  0.99983862  1
  C  C20  1  0.66706780  0.32545538  0.83147614  1
  C  C21  1  0.67329872  0.33267509  0.33197272  1
  C  C22  1  0.32475285  0.65760681  0.16714522  1
  C  C23  1  0.33401072  0.66752235  0.66425946  1
  C  C24  1  0.99370756  0.99288380  0.34604568  1
  C  C25  1  0.00913352  0.00658870  0.84641868  1
  C  C26  1  0.00734281  0.99930754  0.15389593  1
  C  C27  1  0.66609679  0.33291476  0.98221066  1
  C  C28  1  0.31319499  0.65332690  0.01721799  1
  C  C29  1  0.33573634  0.67706367  0.52057348  1
  Ni  Ni30  1  0.30013242  0.00280388  0.25023466  1
  Ni  Ni31  1  0.69916440  0.70274591  0.25025716  1
  Ni  Ni32  1  0.99969400  0.29760937  0.25019110  1
  Ni  Ni33  1  0.29885314  0.29845904  0.74930166  1
  Ni  Ni34  1  0.99613935  0.70558884  0.74962893  1
  Ni  Ni35  1  0.70496851  0.99947368  0.75062180  1
  Ni  Ni36  1  0.96187486  0.33002019  0.58463842  1
  Ni  Ni37  1  0.37463658  0.04642520  0.58440570  1
  Ni  Ni38  1  0.66810421  0.62547150  0.58349778  1
  Ni  Ni39  1  0.95872500  0.62959372  0.08311295  1
  Ni  Ni40  1  0.37181523  0.33432783  0.08270344  1
  Ni  Ni41  1  0.03588963  0.36607048  0.91593006  1
  Ni  Ni42  1  0.33390604  0.96080329  0.91737949  1
  Ni  Ni43  1  0.62984407  0.96338960  0.41753728  1
  Ni  Ni44  1  0.03602380  0.66606414  0.41816742  1
  Cu  Cu45  1  0.99993321  0.00049848  0.64903386  1
  Cu  Cu46  1  0.66867545  0.33475265  0.68451879  1
  Cu  Cu47  1  0.66789798  0.34265994  0.18596205  1
  Cu  Cu48  1  0.67724974  0.33110006  0.48586879  1
  Cu  Cu49  1  0.32957790  0.67474623  0.31473434  1
  Cu  Cu50  1  0.32348756  0.66945785  0.81201894  1
  C  C51  1  0.66657844  0.03751594  0.08386324  1
  C  C52  1  0.62438074  0.66880819  0.91631628  1
  C  C53  1  0.33555972  0.37362652  0.41653256  1
  C  C54  1  0.22826883  0.04902773  0.30870645  1
  C  C55  1  0.81416930  0.77145727  0.30832299  1
  C  C56  1  0.96069173  0.18429812  0.30913198  1
  C  C57  1  0.23166735  0.18582200  0.80880945  1
  C  C58  1  0.95391718  0.77636431  0.80926056  1
  C  C59  1  0.81688430  0.03786269  0.80942848  1
  C  C60  1  0.78599528  0.95919120  0.69210820  1
  C  C61  1  0.17473342  0.21712360  0.69231773  1
  C  C62  1  0.03750056  0.82786088  0.69191542  1
  C  C63  1  0.77169614  0.82082879  0.19179040  1
  C  C64  1  0.03917581  0.22305999  0.19086761  1
  C  C65  1  0.18525114  0.95621824  0.19193304  1
  C  C66  1  0.87828845  0.36979883  0.64179654  1
  C  C67  1  0.49452442  0.12981150  0.64152509  1
  C  C68  1  0.63363026  0.50780748  0.64156843  1
  C  C69  1  0.87396746  0.50342949  0.14087096  1
  C  C70  1  0.63820833  0.11701138  0.13691439  1
  C  C71  1  0.48981863  0.36409069  0.14144662  1
  C  C72  1  0.44998470  0.29442398  0.02397398  1
  C  C73  1  0.84667552  0.54848577  0.02404114  1
  C  C74  1  0.69527493  0.14068980  0.02978525  1
  C  C75  1  0.45508951  0.16494016  0.52443132  1
  C  C76  1  0.70422757  0.54318873  0.52357045  1
  C  C77  1  0.84537578  0.28793036  0.52513027  1
  C  C78  1  0.54846032  0.69348568  0.97044301  1
  C  C79  1  0.15165545  0.43712678  0.97439220  1
  C  C80  1  0.30831636  0.85136020  0.97699806  1
  C  C81  1  0.55179080  0.84295438  0.47468135  1
  C  C82  1  0.30822496  0.45020281  0.47034543  1
  C  C83  1  0.14977293  0.69709305  0.47574544  1
  C  C84  1  0.11660999  0.62247312  0.35916367  1
  C  C85  1  0.50930736  0.87943793  0.35874859  1
  C  C86  1  0.36264069  0.47938774  0.36317890  1
  C  C87  1  0.12511132  0.49048770  0.85796782  1
  C  C88  1  0.37253691  0.87594868  0.85864554  1
  C  C89  1  0.51922662  0.64254613  0.86323712  1
  C  C90  1  0.02210281  0.83576821  0.41233555  1
  C  C91  1  0.81954173  0.99225690  0.41231635  1
  C  C92  1  0.18524820  0.20530963  0.41181500  1
  C  C93  1  0.00951390  0.17670776  0.91194939  1
  C  C94  1  0.16120250  0.97032308  0.91334211  1
  C  C95  1  0.79253636  0.81841931  0.91166235  1
  C  C96  1  0.97399420  0.15807067  0.58959260  1
  C  C97  1  0.18870198  0.03116183  0.58869609  1
  C  C98  1  0.84000819  0.81123403  0.58806797  1
  C  C99  1  0.97002334  0.81283422  0.08775135  1
  C  C100  1  0.81920915  0.02314954  0.08864605  1
  C  C101  1  0.18276782  0.17043302  0.08721704  1
  C  C102  1  0.68349165  0.16639962  0.74381790  1
  C  C103  1  0.48627099  0.31908104  0.74260195  1
  C  C104  1  0.83076710  0.51675830  0.74367232  1
  C  C105  1  0.67911438  0.51407092  0.24515558  1
  C  C106  1  0.82939629  0.31527992  0.24347010  1
  C  C107  1  0.49081966  0.16762580  0.24219206  1
  C  C108  1  0.63940840  0.51450743  0.91899473  1
  C  C109  1  0.85316317  0.35845114  0.91930729  1
  C  C110  1  0.50347222  0.14904600  0.91847022  1
  C  C111  1  0.63614888  0.14896756  0.42179966  1
  C  C112  1  0.48954193  0.35973544  0.42018985  1
  C  C113  1  0.84526070  0.49331942  0.42139703  1
  C  C114  1  0.36873202  0.51266378  0.08025798  1
  C  C115  1  0.14668871  0.64992564  0.08366066  1
  C  C116  1  0.51638918  0.86996409  0.07937912  1
  C  C117  1  0.35583121  0.86087628  0.58223441  1
  C  C118  1  0.49946411  0.64051172  0.57938538  1
  C  C119  1  0.14757904  0.49509026  0.57914969  1
  C  C120  1  0.31940600  0.83381336  0.25549387  1
  C  C121  1  0.50886166  0.67782907  0.25864445  1
  C  C122  1  0.17081585  0.48566961  0.25686323  1
  C  C123  1  0.31864156  0.48746144  0.75599861  1
  C  C124  1  0.16744800  0.68939308  0.75257300  1
  C  C125  1  0.51780299  0.82668305  0.75558321  1
