# generated using pymatgen
data_Cu4Ni2C9
_symmetry_space_group_name_H-M   'P 1'
_cell_length_a   9.60522800
_cell_length_b   6.20306300
_cell_length_c   11.89835729
_cell_angle_alpha   68.26011355
_cell_angle_beta   90.00000000
_cell_angle_gamma   90.00000000
_symmetry_Int_Tables_number   1
_chemical_formula_structural   Cu4Ni2C9
_chemical_formula_sum   'Cu16 Ni8 C36'
_cell_volume   658.50355797
_cell_formula_units_Z   4
loop_
 _symmetry_equiv_pos_site_id
 _symmetry_equiv_pos_as_xyz
  1  'x, y, z'
loop_
 _atom_site_type_symbol
 _atom_site_label
 _atom_site_symmetry_multiplicity
 _atom_site_fract_x
 _atom_site_fract_y
 _atom_site_fract_z
 _atom_site_occupancy
  C  C0  1  0.67242800  0.25203000  0.73364000  1
  C  C1  1  0.17242800  0.74797000  0.76636000  1
  C  C2  1  0.32757200  0.74797000  0.26636000  1
  C  C3  1  0.82757200  0.25203000  0.23364000  1
  C  C4  1  0.43524200  0.99639600  0.86236900  1
  C  C5  1  0.93524200  0.00360400  0.63763100  1
  C  C6  1  0.56475800  0.00360400  0.13763100  1
  C  C7  1  0.06475800  0.99639600  0.36236900  1
  C  C8  1  0.56840600  0.86424700  0.93800900  1
  C  C9  1  0.06840600  0.13575300  0.56199100  1
  C  C10  1  0.43159400  0.13575300  0.06199100  1
  C  C11  1  0.93159400  0.86424700  0.43800900  1
  C  C12  1  0.42736300  0.47361000  0.59520800  1
  C  C13  1  0.92736300  0.52639000  0.90479200  1
  C  C14  1  0.57263700  0.52639000  0.40479200  1
  C  C15  1  0.07263700  0.47361000  0.09520800  1
  C  C16  1  0.42579400  0.20630100  0.61049700  1
  C  C17  1  0.92579400  0.79369900  0.88950300  1
  C  C18  1  0.64513000  0.51038100  0.88421100  1
  C  C19  1  0.07420600  0.20630100  0.11049700  1
  C  C20  1  0.69567800  0.82632400  0.70111800  1
  C  C21  1  0.19567800  0.17367600  0.79888200  1
  C  C22  1  0.30432200  0.17367600  0.29888200  1
  C  C23  1  0.80432200  0.82632400  0.20111800  1
  C  C24  1  0.70215200  0.02664100  0.57139000  1
  C  C25  1  0.20215200  0.97335900  0.92861000  1
  C  C26  1  0.29784800  0.97335900  0.42861000  1
  C  C27  1  0.79784800  0.02664100  0.07139000  1
  C  C28  1  0.51461900  0.56842500  0.80053300  1
  C  C29  1  0.01461900  0.43157500  0.69946700  1
  C  C30  1  0.48538100  0.43157500  0.19946700  1
  C  C31  1  0.98538100  0.56842500  0.30053300  1
  C  C32  1  0.85487000  0.51038100  0.38421100  1
  C  C33  1  0.35487000  0.48961900  0.11578900  1
  C  C34  1  0.14513000  0.48961900  0.61578900  1
  C  C35  1  0.57420600  0.79369900  0.38950300  1
  Ni  Ni36  1  0.86582100  0.15046800  0.88589200  1
  Ni  Ni37  1  0.36582100  0.84953200  0.61410800  1
  Ni  Ni38  1  0.13417900  0.84953200  0.11410800  1
  Ni  Ni39  1  0.63417900  0.15046800  0.38589200  1
  Ni  Ni40  1  0.81312000  0.53005100  0.55930300  1
  Ni  Ni41  1  0.31312000  0.46994900  0.94069700  1
  Ni  Ni42  1  0.68688000  0.53005100  0.05930300  1
  Ni  Ni43  1  0.18688000  0.46994900  0.44069700  1
  Cu  Cu44  1  0.53752400  0.00089400  0.86917600  1
  Cu  Cu45  1  0.03752400  0.99910600  0.63082400  1
  Cu  Cu46  1  0.46247600  0.99910600  0.13082400  1
  Cu  Cu47  1  0.96247600  0.00089400  0.36917600  1
  Cu  Cu48  1  0.47428600  0.32403300  0.63345000  1
  Cu  Cu49  1  0.97428600  0.67596700  0.86655000  1
  Cu  Cu50  1  0.52571400  0.67596700  0.36655000  1
  Cu  Cu51  1  0.02571400  0.32403300  0.13345000  1
  Cu  Cu52  1  0.73353500  0.98402200  0.65655700  1
  Cu  Cu53  1  0.23353500  0.01597800  0.84344300  1
  Cu  Cu54  1  0.26646500  0.01597800  0.34344300  1
  Cu  Cu55  1  0.76646500  0.98402200  0.15655700  1
  Cu  Cu56  1  0.61576600  0.54205400  0.79933000  1
  Cu  Cu57  1  0.11576600  0.45794600  0.70067000  1
  Cu  Cu58  1  0.88423400  0.54205400  0.29933000  1
  Cu  Cu59  1  0.38423400  0.45794600  0.20067000  1
