# generated using pymatgen
data_Cu3Ni3C2
_symmetry_space_group_name_H-M   'P 1'
_cell_length_a   7.91472200
_cell_length_b   7.63889100
_cell_length_c   13.40433795
_cell_angle_alpha   55.46061196
_cell_angle_beta   90.00000000
_cell_angle_gamma   90.00000000
_symmetry_Int_Tables_number   1
_chemical_formula_structural   Cu3Ni3C2
_chemical_formula_sum   'Cu12 Ni12 C8'
_cell_volume   667.57446888
_cell_formula_units_Z   4
loop_
 _symmetry_equiv_pos_site_id
 _symmetry_equiv_pos_as_xyz
  1  'x, y, z'
loop_
 _atom_site_type_symbol
 _atom_site_label
 _atom_site_symmetry_multiplicity
 _atom_site_fract_x
 _atom_site_fract_y
 _atom_site_fract_z
 _atom_site_occupancy
  C  C0  1  0.55005700  0.73869400  0.24973300  1
  C  C1  1  0.05005700  0.26130600  0.25026700  1
  C  C2  1  0.44994300  0.26130600  0.75026700  1
  C  C3  1  0.94994300  0.73869400  0.74973300  1
  C  C4  1  0.00000000  0.50000000  0.50000000  1
  C  C5  1  0.50000000  0.50000000  0.00000000  1
  C  C6  1  0.00000000  0.00000000  0.00000000  1
  C  C7  1  0.50000000  0.00000000  0.50000000  1
  Ni  Ni8  1  0.14258900  0.23116900  0.97673900  1
  Ni  Ni9  1  0.35741100  0.23116900  0.47673900  1
  Ni  Ni10  1  0.85741100  0.76883100  0.02326100  1
  Ni  Ni11  1  0.64258900  0.76883100  0.52326100  1
  Ni  Ni12  1  0.29512900  0.83248400  0.52666400  1
  Ni  Ni13  1  0.79512900  0.16751600  0.97333600  1
  Ni  Ni14  1  0.70487100  0.16751600  0.47333600  1
  Ni  Ni15  1  0.20487100  0.83248400  0.02666400  1
  Ni  Ni16  1  0.01032100  0.12861200  0.82520000  1
  Ni  Ni17  1  0.51032100  0.87138800  0.67480000  1
  Ni  Ni18  1  0.98967900  0.87138800  0.17480000  1
  Ni  Ni19  1  0.48967900  0.12861200  0.32520000  1
  Cu  Cu20  1  0.01860700  0.20462000  0.72048800  1
  Cu  Cu21  1  0.51860700  0.79538000  0.77951200  1
  Cu  Cu22  1  0.98139300  0.79538000  0.27951200  1
  Cu  Cu23  1  0.48139300  0.20462000  0.22048800  1
  Cu  Cu24  1  0.17295100  0.73155000  0.54285900  1
  Cu  Cu25  1  0.32704900  0.73155000  0.04285900  1
  Cu  Cu26  1  0.82704900  0.26845000  0.45714100  1
  Cu  Cu27  1  0.67295100  0.26845000  0.95714100  1
  Cu  Cu28  1  0.22783100  0.36983500  0.96280100  1
  Cu  Cu29  1  0.72783100  0.63016500  0.53719900  1
  Cu  Cu30  1  0.77216900  0.63016500  0.03719900  1
  Cu  Cu31  1  0.27216900  0.36983500  0.46280100  1
