# generated using pymatgen
data_Cu4NiC15
_symmetry_space_group_name_H-M   'P 1'
_cell_length_a   3.95568138
_cell_length_b   3.95399157
_cell_length_c   18.25389035
_cell_angle_alpha   92.02352584
_cell_angle_beta   91.93101090
_cell_angle_gamma   89.61570587
_symmetry_Int_Tables_number   1
_chemical_formula_structural   Cu4NiC15
_chemical_formula_sum   'Cu4 Ni1 C15'
_cell_volume   285.15976841
_cell_formula_units_Z   1
loop_
 _symmetry_equiv_pos_site_id
 _symmetry_equiv_pos_as_xyz
  1  'x, y, z'
loop_
 _atom_site_type_symbol
 _atom_site_label
 _atom_site_symmetry_multiplicity
 _atom_site_fract_x
 _atom_site_fract_y
 _atom_site_fract_z
 _atom_site_occupancy
  Ni  Ni0  1  -0.00000000  0.00000000  0.00000000  1
  C  C1  1  0.50000000  0.50000000  0.00000000  1
  C  C2  1  0.33976526  0.33998385  0.72458965  1
  C  C3  1  0.66023474  0.66001615  0.27541035  1
  Cu  Cu4  1  0.74571571  0.74656847  0.56733706  1
  Cu  Cu5  1  0.25428429  0.25343153  0.43266294  1
  Cu  Cu6  1  0.80919115  0.81038984  0.83335507  1
  Cu  Cu7  1  0.19080885  0.18961016  0.16664493  1
  C  C8  1  0.53090938  0.53168410  0.11088767  1
  C  C9  1  0.85008083  0.35825846  0.75561481  1
  C  C10  1  0.64224365  0.14954247  0.24426619  1
  C  C11  1  0.14991917  0.64174154  0.24438519  1
  C  C12  1  0.50000000  0.00000000  0.00000000  1
  C  C13  1  -0.00000000  0.50000000  0.00000000  1
  C  C14  1  0.75199849  0.24806279  0.49996103  1
  C  C15  1  0.66848373  0.66926744  0.37139299  1
  C  C16  1  0.46909062  0.46831590  0.88911233  1
  C  C17  1  0.24800151  0.75193721  0.50003897  1
  C  C18  1  0.33151627  0.33073256  0.62860701  1
  C  C19  1  0.35775635  0.85045753  0.75573381  1
