# generated using pymatgen
data_Cu2Ni7C32
_symmetry_space_group_name_H-M   'P 1'
_cell_length_a   9.38969754
_cell_length_b   9.36045550
_cell_length_c   23.34473208
_cell_angle_alpha   89.86629989
_cell_angle_beta   90.10924564
_cell_angle_gamma   119.99589981
_symmetry_Int_Tables_number   1
_chemical_formula_structural   Cu2Ni7C32
_chemical_formula_sum   'Cu6 Ni21 C96'
_cell_volume   1776.98888923
_cell_formula_units_Z   3
loop_
 _symmetry_equiv_pos_site_id
 _symmetry_equiv_pos_as_xyz
  1  'x, y, z'
loop_
 _atom_site_type_symbol
 _atom_site_label
 _atom_site_symmetry_multiplicity
 _atom_site_fract_x
 _atom_site_fract_y
 _atom_site_fract_z
 _atom_site_occupancy
  Ni  Ni0  1  0.36590631  0.36975187  0.25269543  1
  Ni  Ni1  1  0.00309479  0.63381344  0.25043979  1
  Ni  Ni2  1  0.63396527  0.64645022  0.75088795  1
  Ni  Ni3  1  0.99882504  0.36166806  0.75607575  1
  Ni  Ni4  1  0.36515497  0.99085451  0.75069893  1
  Ni  Ni5  1  0.30372333  0.33211907  0.57757714  1
  Ni  Ni6  1  0.03929490  0.69741626  0.57904055  1
  Ni  Ni7  1  0.65404078  0.96479650  0.58354881  1
  Ni  Ni8  1  0.30119899  0.96768029  0.08375011  1
  Ni  Ni9  1  0.67321564  0.69652811  0.08278283  1
  Ni  Ni10  1  0.03002452  0.33983380  0.08533193  1
  Ni  Ni11  1  0.96503281  0.66492706  0.91980084  1
  Ni  Ni12  1  0.70113768  0.03308992  0.91516343  1
  Ni  Ni13  1  0.96788478  0.29723576  0.41287179  1
  Ni  Ni14  1  0.33031811  0.03241838  0.41600759  1
  Ni  Ni15  1  0.99461146  0.98806349  0.49846151  1
  Ni  Ni16  1  0.00945467  0.00602990  0.00457818  1
  Ni  Ni17  1  0.65675034  0.32819996  0.83172910  1
  Ni  Ni18  1  0.66650819  0.33275639  0.33191679  1
  Ni  Ni19  1  0.33960038  0.67796977  0.16730117  1
  Ni  Ni20  1  0.34086616  0.67793437  0.66644674  1
  C  C21  1  0.00927730  0.01180222  0.85334416  1
  C  C22  1  0.00020381  0.00042845  0.65625709  1
  C  C23  1  0.66395367  0.32536500  0.67576721  1
  C  C24  1  0.67095064  0.32511477  0.18401583  1
  C  C25  1  0.65866647  0.33743054  0.98545878  1
  C  C26  1  0.66287297  0.34156824  0.47843096  1
  Cu  Cu27  1  0.99006669  0.99301422  0.35067558  1
  Cu  Cu28  1  0.99530851  0.99390495  0.15386544  1
  Cu  Cu29  1  0.32996094  0.66270337  0.01705672  1
  Cu  Cu30  1  0.33849140  0.67241954  0.51134031  1
  Cu  Cu31  1  0.34354274  0.67392497  0.31513645  1
  Cu  Cu32  1  0.33718870  0.66701149  0.81896943  1
  C  C33  1  0.68266880  0.99427858  0.75289903  1
  C  C34  1  0.35349392  0.01390357  0.57927584  1
  C  C35  1  0.98176082  0.64942593  0.08408634  1
  C  C36  1  0.28021555  0.99235890  0.25375969  1
  C  C37  1  0.70592428  0.71392026  0.25144655  1
  C  C38  1  0.01082257  0.29480828  0.25352104  1
  C  C39  1  0.31261550  0.32020255  0.74947011  1
  C  C40  1  0.00657183  0.68845984  0.75350199  1
  C  C41  1  0.98529122  0.34304797  0.57896304  1
  C  C42  1  0.65807775  0.64334155  0.58312206  1
  C  C43  1  0.66790914  0.01839217  0.08073190  1
  C  C44  1  0.35009698  0.33110714  0.08752210  1
  C  C45  1  0.61922575  0.66613286  0.91731065  1
  C  C46  1  0.04462898  0.38252103  0.91810152  1
  C  C47  1  0.33586769  0.94805026  0.91775181  1
  C  C48  1  0.62860134  0.95130520  0.41429824  1
  C  C49  1  0.31995774  0.37060545  0.41220331  1
  C  C50  1  0.05473094  0.67642669  0.41193036  1
  C  C51  1  0.19034812  0.00907764  0.30675044  1
  C  C52  1  0.81919721  0.80875489  0.30223489  1
  C  C53  1  0.99483585  0.18943396  0.30686657  1
  C  C54  1  0.22306358  0.19352399  0.79742528  1
  C  C55  1  0.98093708  0.77714678  0.80482311  1
  C  C56  1  0.80661269  0.02653704  0.80692353  1
  C  C57  1  0.75964227  0.96384076  0.69407798  1
  C  C58  1  0.21763078  0.25221110  0.69248402  1
  C  C59  1  0.03590776  0.79096146  0.69795408  1
  C  C60  1  0.78645022  0.80809911  0.19499742  1
  C  C61  1  0.02109965  0.20721545  0.19852299  1
  C  C62  1  0.17795838  0.97428006  0.19870236  1
  C  C63  1  0.91505357  0.37372929  0.63484752  1
  C  C64  1  0.45981308  0.08734838  0.63870088  1
  C  C65  1  0.63221086  0.55027858  0.64054521  1
  C  C66  1  0.89967520  0.52343462  0.13882268  1
  C  C67  1  0.62233631  0.09775249  0.13020728  1
  C  C68  1  0.46179965  0.36916524  0.14088172  1
  C  C69  1  0.42646492  0.28620361  0.03695674  1
  C  C70  1  0.85974748  0.57179684  0.02820494  1
  C  C71  1  0.70506524  0.12687265  0.02640698  1
  C  C72  1  0.44586870  0.14123327  0.52610980  1
  C  C73  1  0.69334624  0.55168679  0.53555226  1
  C  C74  1  0.86836918  0.31561954  0.52827719  1
  C  C75  1  0.52590775  0.66729416  0.97153595  1
  C  C76  1  0.14159792  0.47606871  0.97211177  1
  C  C77  1  0.33338130  0.85176464  0.97199694  1
  C  C78  1  0.54876763  0.85858988  0.47090077  1
  C  C79  1  0.31032098  0.45665696  0.46772585  1
  C  C80  1  0.15493017  0.69378659  0.46739753  1
  C  C81  1  0.14645889  0.66122448  0.35929186  1
  C  C82  1  0.51471008  0.85558310  0.36378216  1
  C  C83  1  0.33530506  0.47730946  0.35938847  1
  C  C84  1  0.13493371  0.47446854  0.86292698  1
  C  C85  1  0.33945758  0.85774392  0.86285891  1
  C  C86  1  0.52520587  0.66289852  0.86246444  1
  C  C87  1  0.03850559  0.83423685  0.40878678  1
  C  C88  1  0.80595240  0.97886366  0.40936662  1
  C  C89  1  0.15911565  0.19659072  0.41008929  1
  C  C90  1  0.01469651  0.20405052  0.92145160  1
  C  C91  1  0.17553204  0.95739610  0.91984859  1
  C  C92  1  0.79174984  0.82719524  0.91917677  1
  C  C93  1  0.00205254  0.18704179  0.58344176  1
  C  C94  1  0.16830340  0.99028371  0.58273664  1
  C  C95  1  0.80801939  0.82019340  0.58424468  1
  C  C96  1  0.00014665  0.83293547  0.09404579  1
  C  C97  1  0.82498355  0.00759331  0.09326141  1
  C  C98  1  0.17460756  0.18044738  0.09564371  1
  C  C99  1  0.66264104  0.15885605  0.75045231  1
  C  C100  1  0.48943726  0.34862031  0.74753488  1
  C  C101  1  0.85125282  0.51591768  0.74914335  1
  C  C102  1  0.69166376  0.53938286  0.25054953  1
  C  C103  1  0.86253062  0.32612366  0.25293691  1
  C  C104  1  0.45006533  0.15347412  0.25107455  1
  C  C105  1  0.64925631  0.51747845  0.91495454  1
  C  C106  1  0.87255120  0.37149772  0.91705547  1
  C  C107  1  0.49483905  0.11939592  0.91660168  1
  C  C108  1  0.64372603  0.12609204  0.41421608  1
  C  C109  1  0.46763966  0.33889707  0.41157445  1
  C  C110  1  0.88539994  0.51500822  0.41340974  1
  C  C111  1  0.33642825  0.48731708  0.07585588  1
  C  C112  1  0.16592185  0.67015606  0.07559712  1
  C  C113  1  0.51855802  0.84145123  0.07386449  1
  C  C114  1  0.34244110  0.83393348  0.57124506  1
  C  C115  1  0.49827317  0.64907638  0.57209271  1
  C  C116  1  0.15706927  0.49721367  0.57050506  1
  C  C117  1  0.29581229  0.83408455  0.25703324  1
  C  C118  1  0.52848439  0.68630752  0.25656093  1
  C  C119  1  0.17166683  0.46910204  0.25581665  1
  C  C120  1  0.31836666  0.48595460  0.75976716  1
  C  C121  1  0.16072242  0.67008087  0.76036096  1
  C  C122  1  0.50095685  0.82761059  0.75939218  1
