# generated using pymatgen
data_CuNiC16
_symmetry_space_group_name_H-M   'P 1'
_cell_length_a   8.55140144
_cell_length_b   8.55140118
_cell_length_c   22.24222021
_cell_angle_alpha   90.00000000
_cell_angle_beta   90.00000000
_cell_angle_gamma   120.00000102
_symmetry_Int_Tables_number   1
_chemical_formula_structural   CuNiC16
_chemical_formula_sum   'Cu6 Ni6 C96'
_cell_volume   1408.58590776
_cell_formula_units_Z   6
loop_
 _symmetry_equiv_pos_site_id
 _symmetry_equiv_pos_as_xyz
  1  'x, y, z'
loop_
 _atom_site_type_symbol
 _atom_site_label
 _atom_site_symmetry_multiplicity
 _atom_site_fract_x
 _atom_site_fract_y
 _atom_site_fract_z
 _atom_site_occupancy
  C  C0  1  -0.00000000  0.00000000  0.49882800  1
  C  C1  1  -0.00000000  0.00000000  0.99807468  1
  C  C2  1  0.66666700  0.33333300  0.83618664  1
  C  C3  1  0.66666700  0.33333300  0.33164423  1
  C  C4  1  0.33333300  0.66666700  0.16483834  1
  C  C5  1  0.33333300  0.66666700  0.66860584  1
  Ni  Ni6  1  -0.00000000  0.00000000  0.65027810  1
  Ni  Ni7  1  -0.00000000  0.00000000  0.14322242  1
  Ni  Ni8  1  0.66666700  0.33333300  0.69038916  1
  Ni  Ni9  1  0.66666700  0.33333300  0.47977224  1
  Ni  Ni10  1  0.33333300  0.66666700  0.51729409  1
  Ni  Ni11  1  0.33333300  0.66666700  0.31240617  1
  Cu  Cu12  1  -0.00000000  0.00000000  0.35032959  1
  Cu  Cu13  1  -0.00000000  0.00000000  0.85553814  1
  Cu  Cu14  1  0.66666700  0.33333300  0.18565203  1
  Cu  Cu15  1  0.66666700  0.33333300  0.97887677  1
  Cu  Cu16  1  0.33333300  0.66666700  0.01899811  1
  Cu  Cu17  1  0.33333300  0.66666700  0.81711397  1
  C  C18  1  0.29305271  0.00794050  0.24900944  1
  C  C19  1  0.71488779  0.70694729  0.24900944  1
  C  C20  1  0.99205950  0.28511221  0.24900944  1
  C  C21  1  0.28545195  0.29372460  0.75559517  1
  C  C22  1  0.00827266  0.71454805  0.75559517  1
  C  C23  1  0.70627540  0.99172734  0.75559517  1
  C  C24  1  0.95950901  0.33346721  0.58409947  1
  C  C25  1  0.37395920  0.04049099  0.58409947  1
  C  C26  1  0.66653279  0.62604080  0.58409947  1
  C  C27  1  0.95242597  0.61087284  0.08090542  1
  C  C28  1  0.65844786  0.04757403  0.08090542  1
  C  C29  1  0.38912716  0.34155214  0.08090542  1
  C  C30  1  0.62024571  0.66667537  0.91747001  1
  C  C31  1  0.04642866  0.37975429  0.91747001  1
  C  C32  1  0.33332463  0.95357134  0.91747001  1
  C  C33  1  0.63517755  0.96062347  0.41419043  1
  C  C34  1  0.32544492  0.36482245  0.41419043  1
  C  C35  1  0.03937653  0.67455508  0.41419043  1
  C  C36  1  0.20732962  0.03977605  0.30592583  1
  C  C37  1  0.83244644  0.79267038  0.30592583  1
  C  C38  1  0.96022395  0.16755356  0.30592583  1
  C  C39  1  0.19719909  0.16808034  0.81000537  1
  C  C40  1  0.97088125  0.80280091  0.81000537  1
  C  C41  1  0.83191966  0.02911875  0.81000537  1
  C  C42  1  0.77617242  0.95534234  0.69639580  1
  C  C43  1  0.17916993  0.22382758  0.69639580  1
  C  C44  1  0.04465766  0.82083007  0.69639580  1
  C  C45  1  0.78798792  0.82071674  0.19198944  1
  C  C46  1  0.03272882  0.21201208  0.19198944  1
  C  C47  1  0.17928326  0.96727118  0.19198944  1
  C  C48  1  0.87977822  0.36666111  0.64148806  1
  C  C49  1  0.48688389  0.12022178  0.64148806  1
  C  C50  1  0.63333889  0.51311611  0.64148806  1
  C  C51  1  0.87242992  0.49889387  0.13937091  1
  C  C52  1  0.62646494  0.12757008  0.13937091  1
  C  C53  1  0.50110613  0.37353506  0.13937091  1
  C  C54  1  0.47023154  0.30452711  0.02441536  1
  C  C55  1  0.83429657  0.52976846  0.02441536  1
  C  C56  1  0.69547289  0.16570343  0.02441536  1
  C  C57  1  0.45164336  0.15157074  0.52660871  1
  C  C58  1  0.69992838  0.54835664  0.52660871  1
  C  C59  1  0.84842926  0.30007162  0.52660871  1
  C  C60  1  0.53907150  0.70578146  0.97393187  1
  C  C61  1  0.16670896  0.46092850  0.97393187  1
  C  C62  1  0.29421854  0.83329104  0.97393187  1
  C  C63  1  0.55872032  0.84737125  0.47188975  1
  C  C64  1  0.28864992  0.44127968  0.47188975  1
  C  C65  1  0.15262875  0.71135008  0.47188975  1
  C  C66  1  0.11839164  0.63352818  0.35885427  1
  C  C67  1  0.51513554  0.88160836  0.35885427  1
  C  C68  1  0.36647182  0.48486446  0.35885427  1
  C  C69  1  0.12715826  0.49896462  0.86090833  1
  C  C70  1  0.37180537  0.87284174  0.86090833  1
  C  C71  1  0.50103538  0.62819463  0.86090833  1
  C  C72  1  0.02535857  0.84643113  0.40611855  1
  C  C73  1  0.82107256  0.97464143  0.40611855  1
  C  C74  1  0.15356887  0.17892744  0.40611855  1
  C  C75  1  0.02654291  0.18913338  0.90995470  1
  C  C76  1  0.16259047  0.97345709  0.90995470  1
  C  C77  1  0.81086662  0.83740953  0.90995470  1
  C  C78  1  0.97643021  0.16357960  0.58871857  1
  C  C79  1  0.18714939  0.02356979  0.58871857  1
  C  C80  1  0.83642040  0.81285061  0.58871857  1
  C  C81  1  0.97294180  0.80104355  0.08502228  1
  C  C82  1  0.82810176  0.02705820  0.08502228  1
  C  C83  1  0.19895645  0.17189824  0.08502228  1
  C  C84  1  0.68892951  0.16291728  0.75093663  1
  C  C85  1  0.47398877  0.31107049  0.75093663  1
  C  C86  1  0.83708272  0.52601123  0.75093663  1
  C  C87  1  0.70063699  0.51932968  0.24218089  1
  C  C88  1  0.81869368  0.29936301  0.24218089  1
  C  C89  1  0.48067032  0.18130632  0.24218089  1
  C  C90  1  0.64019686  0.49597144  0.92441328  1
  C  C91  1  0.85577558  0.35980314  0.92441328  1
  C  C92  1  0.50402856  0.14422442  0.92441328  1
  C  C93  1  0.65552020  0.14875619  0.41951489  1
  C  C94  1  0.49323700  0.34447980  0.41951489  1
  C  C95  1  0.85124381  0.50676300  0.41951489  1
  C  C96  1  0.37075559  0.51304103  0.07425292  1
  C  C97  1  0.14228444  0.62924441  0.07425292  1
  C  C98  1  0.48695897  0.85771556  0.07425292  1
  C  C99  1  0.35749089  0.85376687  0.57917938  1
  C  C100  1  0.49627498  0.64250911  0.57917938  1
  C  C101  1  0.14623313  0.50372502  0.57917938  1
  C  C102  1  0.31636926  0.84129309  0.25438519  1
  C  C103  1  0.52492283  0.68363074  0.25438519  1
  C  C104  1  0.15870691  0.47507717  0.25438519  1
  C  C105  1  0.30425064  0.48209653  0.76291956  1
  C  C106  1  0.17784490  0.69574936  0.76291956  1
  C  C107  1  0.51790347  0.82215510  0.76291956  1
