# generated using pymatgen
data_Cu2Ni2C9
_symmetry_space_group_name_H-M   'P 1'
_cell_length_a   3.39428200
_cell_length_b   3.39426830
_cell_length_c   45.27040400
_cell_angle_alpha   89.99876767
_cell_angle_beta   90.00010300
_cell_angle_gamma   120.00042450
_symmetry_Int_Tables_number   1
_chemical_formula_structural   Cu2Ni2C9
_chemical_formula_sum   'Cu2 Ni2 C9'
_cell_volume   451.68662753
_cell_formula_units_Z   1
loop_
 _symmetry_equiv_pos_site_id
 _symmetry_equiv_pos_as_xyz
  1  'x, y, z'
loop_
 _atom_site_type_symbol
 _atom_site_label
 _atom_site_symmetry_multiplicity
 _atom_site_fract_x
 _atom_site_fract_y
 _atom_site_fract_z
 _atom_site_occupancy
  C  C0  1  0.99994600  0.00002000  0.37193100  1
  C  C1  1  0.33331700  0.66658500  0.69922500  1
  C  C2  1  0.66667400  0.33336000  0.05237500  1
  C  C3  1  0.66660800  0.33322000  0.13523500  1
  C  C4  1  0.33333600  0.66664600  0.61594100  1
  C  C5  1  0.33330800  0.66661900  0.09378300  1
  C  C6  1  0.66673600  0.33347200  0.27681000  1
  C  C7  1  0.33331400  0.66661400  0.47725600  1
  C  C8  1  0.66666400  0.33329900  0.65759300  1
  Ni  Ni9  1  0.33342300  0.66682900  0.31393100  1
  Ni  Ni10  1  0.33338400  0.66677400  0.24052800  1
  Cu  Cu11  1  0.66666000  0.33329000  0.44391800  1
  Cu  Cu12  1  0.66663100  0.33327100  0.51043100  1
