# generated using pymatgen
data_CuNi2C
_symmetry_space_group_name_H-M   'P 1'
_cell_length_a   6.57705100
_cell_length_b   6.66960600
_cell_length_c   18.75258009
_cell_angle_alpha   85.70729708
_cell_angle_beta   90.00000000
_cell_angle_gamma   90.00000000
_symmetry_Int_Tables_number   1
_chemical_formula_structural   CuNi2C
_chemical_formula_sum   'Cu8 Ni16 C8'
_cell_volume   820.29935139
_cell_formula_units_Z   8
loop_
 _symmetry_equiv_pos_site_id
 _symmetry_equiv_pos_as_xyz
  1  'x, y, z'
loop_
 _atom_site_type_symbol
 _atom_site_label
 _atom_site_symmetry_multiplicity
 _atom_site_fract_x
 _atom_site_fract_y
 _atom_site_fract_z
 _atom_site_occupancy
  Ni  Ni0  1  0.40191400  0.19946900  0.27407400  1
  Ni  Ni1  1  0.90191400  0.80053100  0.22592600  1
  Ni  Ni2  1  0.59808600  0.80053100  0.72592600  1
  Ni  Ni3  1  0.09808600  0.19946900  0.77407400  1
  Ni  Ni4  1  0.84890500  0.20037300  0.27367500  1
  Ni  Ni5  1  0.34890500  0.79962700  0.22632500  1
  Ni  Ni6  1  0.15109500  0.79962700  0.72632500  1
  Ni  Ni7  1  0.65109500  0.20037300  0.77367500  1
  Ni  Ni8  1  0.37542200  0.07427300  0.42618800  1
  Ni  Ni9  1  0.87542200  0.92572700  0.07381200  1
  Ni  Ni10  1  0.62457800  0.92572700  0.57381200  1
  Ni  Ni11  1  0.12457800  0.07427300  0.92618800  1
  Ni  Ni12  1  0.87456000  0.07437600  0.42589300  1
  Ni  Ni13  1  0.37456000  0.92562400  0.07410700  1
  Ni  Ni14  1  0.12544000  0.92562400  0.57410700  1
  Ni  Ni15  1  0.62544000  0.07437600  0.92589300  1
  C  C16  1  0.87563200  0.67420600  0.49484200  1
  C  C17  1  0.37563200  0.32579400  0.00515800  1
  C  C18  1  0.12436800  0.32579400  0.50515800  1
  C  C19  1  0.62436800  0.67420600  0.99484200  1
  C  C20  1  0.62511200  0.32563700  0.50532000  1
  C  C21  1  0.12511200  0.67436300  0.99468000  1
  C  C22  1  0.37488800  0.67436300  0.49468000  1
  C  C23  1  0.87488800  0.32563700  0.00532000  1
  Cu  Cu24  1  0.87477900  0.41246900  0.59949600  1
  Cu  Cu25  1  0.37477900  0.58753100  0.90050400  1
  Cu  Cu26  1  0.12522100  0.58753100  0.40050400  1
  Cu  Cu27  1  0.62522100  0.41246900  0.09949600  1
  Cu  Cu28  1  0.62554900  0.58787400  0.40067300  1
  Cu  Cu29  1  0.12554900  0.41212600  0.09932700  1
  Cu  Cu30  1  0.37445100  0.41212600  0.59932700  1
  Cu  Cu31  1  0.87445100  0.58787400  0.90067300  1
