# generated using pymatgen
data_Cu2NiC16
_symmetry_space_group_name_H-M   'P 1'
_cell_length_a   9.01481792
_cell_length_b   8.99399485
_cell_length_c   22.85048694
_cell_angle_alpha   89.87165511
_cell_angle_beta   90.00000000
_cell_angle_gamma   120.07661643
_symmetry_Int_Tables_number   1
_chemical_formula_structural   Cu2NiC16
_chemical_formula_sum   'Cu12 Ni6 C96'
_cell_volume   1603.23955849
_cell_formula_units_Z   6
loop_
 _symmetry_equiv_pos_site_id
 _symmetry_equiv_pos_as_xyz
  1  'x, y, z'
loop_
 _atom_site_type_symbol
 _atom_site_label
 _atom_site_symmetry_multiplicity
 _atom_site_fract_x
 _atom_site_fract_y
 _atom_site_fract_z
 _atom_site_occupancy
  C  C0  1  0.99925116  0.63571579  0.23883312  1
  C  C1  1  0.63646463  0.63571579  0.73883312  1
  C  C2  1  0.65343696  0.95305712  0.57518082  1
  C  C3  1  0.29962116  0.95305712  0.07518082  1
  C  C4  1  0.69208404  0.02738671  0.90676780  1
  C  C5  1  0.33530167  0.02738671  0.40676780  1
  C  C6  1  0.97357540  0.98553397  0.49178949  1
  C  C7  1  0.01195857  0.98553397  0.99178949  1
  C  C8  1  0.65425649  0.30554442  0.82572268  1
  C  C9  1  0.65128893  0.30554442  0.32572268  1
  C  C10  1  0.32502828  0.65683138  0.16001003  1
  C  C11  1  0.33180210  0.65683138  0.66001003  1
  C  C12  1  0.99762086  0.00645326  0.35120410  1
  C  C13  1  0.00883240  0.00645326  0.85120410  1
  C  C14  1  0.66412578  0.32710501  0.68487905  1
  C  C15  1  0.66298023  0.32710501  0.18487905  1
  C  C16  1  0.31365052  0.66573484  0.01801654  1
  C  C17  1  0.35208332  0.66573484  0.51801654  1
  C  C18  1  0.98964882  0.99195904  0.64752510  1
  C  C19  1  0.00231022  0.99195904  0.14752510  1
  C  C20  1  0.67149812  0.34329212  0.98081829  1
  C  C21  1  0.67179499  0.34329212  0.48081829  1
  C  C22  1  0.34710626  0.68603062  0.31405265  1
  C  C23  1  0.33892336  0.68603062  0.81405265  1
  Ni  Ni24  1  0.30136750  0.01257413  0.25447255  1
  Ni  Ni25  1  0.71120663  0.01257413  0.75447255  1
  Ni  Ni26  1  0.65685577  0.62085877  0.58955704  1
  Ni  Ni27  1  0.96400400  0.62085877  0.08955704  1
  Ni  Ni28  1  0.32508840  0.96666917  0.92155029  1
  Ni  Ni29  1  0.64157977  0.96666917  0.42155029  1
  Cu  Cu30  1  0.70907414  0.70594191  0.25172171  1
  Cu  Cu31  1  0.99758352  0.29094472  0.25136627  1
  Cu  Cu32  1  0.29336120  0.29094472  0.75136627  1
  Cu  Cu33  1  0.99686777  0.70594191  0.75172171  1
  Cu  Cu34  1  0.96313273  0.34098243  0.58433271  1
  Cu  Cu35  1  0.37378897  0.04083501  0.58334918  1
  Cu  Cu36  1  0.66704704  0.04083501  0.08334918  1
  Cu  Cu37  1  0.37785070  0.34098243  0.08433271  1
  Cu  Cu38  1  0.62138581  0.66752365  0.91782831  1
  Cu  Cu39  1  0.04453430  0.37314732  0.91820589  1
  Cu  Cu40  1  0.32861203  0.37314732  0.41820589  1
  Cu  Cu41  1  0.04613684  0.66752365  0.41782831  1
  C  C42  1  0.20555370  0.01969495  0.31285288  1
  C  C43  1  0.81425265  0.79336337  0.30266477  1
  C  C44  1  0.97794672  0.18781803  0.30296870  1
  C  C45  1  0.20987130  0.18781803  0.80296870  1
  C  C46  1  0.97911072  0.79336337  0.80266477  1
  C  C47  1  0.81414125  0.01969495  0.81285288  1
  C  C48  1  0.80280747  0.97443647  0.69604711  1
  C  C49  1  0.19264354  0.20926027  0.69709053  1
  C  C50  1  0.02968820  0.81346506  0.69736416  1
  C  C51  1  0.78377686  0.81346506  0.19736416  1
  C  C52  1  0.01661673  0.20926027  0.19709053  1
  C  C53  1  0.17162900  0.97443647  0.19604711  1
  C  C54  1  0.87996896  0.35830484  0.63641366  1
  C  C55  1  0.48693124  0.12388426  0.63322381  1
  C  C56  1  0.64936925  0.52033406  0.64847895  1
  C  C57  1  0.87096581  0.52033406  0.14847895  1
  C  C58  1  0.63695402  0.12388426  0.13322381  1
  C  C59  1  0.47833688  0.35830484  0.13641366  1
  C  C60  1  0.45371084  0.30241672  0.03131967  1
  C  C61  1  0.84157154  0.52569818  0.03134912  1
  C  C62  1  0.68897474  0.14218456  0.02806945  1
  C  C63  1  0.45321081  0.14218456  0.52806945  1
  C  C64  1  0.68412764  0.52569818  0.53134912  1
  C  C65  1  0.84870687  0.30241672  0.53131967  1
  C  C66  1  0.53073136  0.68263764  0.96830763  1
  C  C67  1  0.14612437  0.45496583  0.97021706  1
  C  C68  1  0.31465493  0.86169119  0.97993450  1
  C  C69  1  0.54703527  0.86169119  0.47993450  1
  C  C70  1  0.30884046  0.45496583  0.47021706  1
  C  C71  1  0.15190527  0.68263764  0.46830763  1
  C  C72  1  0.11981573  0.63986514  0.36233918  1
  C  C73  1  0.50608889  0.86912714  0.36429001  1
  C  C74  1  0.35100749  0.47599861  0.36443152  1
  C  C75  1  0.12499012  0.47599861  0.86443152  1
  C  C76  1  0.36303725  0.86912714  0.86429001  1
  C  C77  1  0.52004842  0.63986514  0.86233918  1
  C  C78  1  0.03112119  0.82306136  0.41270110  1
  C  C79  1  0.82638996  0.98789204  0.41018583  1
  C  C80  1  0.18325383  0.19626948  0.41320373  1
  C  C81  1  0.01301565  0.19626948  0.91320373  1
  C  C82  1  0.16150208  0.98789204  0.91018583  1
  C  C83  1  0.79194017  0.82306136  0.91270110  1
  C  C84  1  0.97880883  0.18046178  0.58875237  1
  C  C85  1  0.20492552  0.03278516  0.58914320  1
  C  C86  1  0.83590894  0.82060497  0.58835376  1
  C  C87  1  0.98469603  0.82060497  0.08835376  1
  C  C88  1  0.82785964  0.03278516  0.08914320  1
  C  C89  1  0.20165295  0.18046178  0.08875237  1
  C  C90  1  0.68193564  0.17146998  0.74358811  1
  C  C91  1  0.46943231  0.31898628  0.74663202  1
  C  C92  1  0.84197354  0.53699339  0.74550871  1
  C  C93  1  0.69502085  0.53699339  0.24550871  1
  C  C94  1  0.84955497  0.31898628  0.24663202  1
  C  C95  1  0.48953534  0.17146998  0.24358811  1
  C  C96  1  0.64257951  0.51261614  0.92155321  1
  C  C97  1  0.86796926  0.35724308  0.92201325  1
  C  C98  1  0.51378218  0.15385607  0.92234231  1
  C  C99  1  0.64007489  0.15385607  0.42234231  1
  C  C100  1  0.48927482  0.35724308  0.42201325  1
  C  C101  1  0.87003764  0.51261614  0.42155321  1
  C  C102  1  0.35959511  0.49136434  0.07474103  1
  C  C103  1  0.15795868  0.65483700  0.08304271  1
  C  C104  1  0.51908026  0.86545869  0.07747175  1
  C  C105  1  0.34637743  0.86545869  0.57747175  1
  C  C106  1  0.49687732  0.65483700  0.58304271  1
  C  C107  1  0.13176823  0.49136434  0.57474103  1
  C  C108  1  0.30135760  0.82276015  0.25526576  1
  C  C109  1  0.53217102  0.68233058  0.25576876  1
  C  C110  1  0.15733198  0.46644181  0.25518606  1
  C  C111  1  0.30910883  0.46644181  0.75518606  1
  C  C112  1  0.15015856  0.68233058  0.75576876  1
  C  C113  1  0.52140155  0.82276015  0.75526576  1
