# generated using pymatgen
data_CuNiC11
_symmetry_space_group_name_H-M   'P 1'
_cell_length_a   5.72465064
_cell_length_b   5.72455476
_cell_length_c   5.95849544
_cell_angle_alpha   61.30531567
_cell_angle_beta   61.30784399
_cell_angle_gamma   60.00245352
_symmetry_Int_Tables_number   1
_chemical_formula_structural   CuNiC11
_chemical_formula_sum   'Cu1 Ni1 C11'
_cell_volume   140.74111107
_cell_formula_units_Z   1
loop_
 _symmetry_equiv_pos_site_id
 _symmetry_equiv_pos_as_xyz
  1  'x, y, z'
loop_
 _atom_site_type_symbol
 _atom_site_label
 _atom_site_symmetry_multiplicity
 _atom_site_fract_x
 _atom_site_fract_y
 _atom_site_fract_z
 _atom_site_occupancy
  Ni  Ni0  1  0.50000000  0.50000000  0.50000000  1
  C  C1  1  0.50000000  0.00000000  0.00000000  1
  C  C2  1  0.00000000  0.50000000  0.00000000  1
  C  C3  1  0.50000000  0.50000000  0.00000000  1
  Cu  Cu4  1  0.00000000  0.00000000  0.00000000  1
  C  C5  1  0.24850700  0.24842400  0.79261200  1
  C  C6  1  0.71021900  0.24869600  0.79233700  1
  C  C7  1  0.24854500  0.71029500  0.79245700  1
  C  C8  1  0.73238600  0.73239500  0.80257100  1
  C  C9  1  0.26761400  0.26760500  0.19742800  1
  C  C10  1  0.75145500  0.28970500  0.20754300  1
  C  C11  1  0.28978100  0.75130400  0.20766300  1
  C  C12  1  0.75149300  0.75157600  0.20738800  1
