# generated using pymatgen
data_Cu5NiC16
_symmetry_space_group_name_H-M   'P 1'
_cell_length_a   14.06538100
_cell_length_b   9.67226100
_cell_length_c   10.83134139
_cell_angle_alpha   67.18446364
_cell_angle_beta   90.00000000
_cell_angle_gamma   90.00000000
_symmetry_Int_Tables_number   1
_chemical_formula_structural   Cu5NiC16
_chemical_formula_sum   'Cu20 Ni4 C64'
_cell_volume   1358.24678693
_cell_formula_units_Z   4
loop_
 _symmetry_equiv_pos_site_id
 _symmetry_equiv_pos_as_xyz
  1  'x, y, z'
loop_
 _atom_site_type_symbol
 _atom_site_label
 _atom_site_symmetry_multiplicity
 _atom_site_fract_x
 _atom_site_fract_y
 _atom_site_fract_z
 _atom_site_occupancy
  C  C0  1  0.64432700  0.07237100  0.25024300  1
  C  C1  1  0.35567300  0.92762900  0.74975700  1
  C  C2  1  0.85567300  0.07237100  0.75024300  1
  C  C3  1  0.14432700  0.92762900  0.24975700  1
  Ni  Ni4  1  0.99932800  0.50331000  0.24762300  1
  Ni  Ni5  1  0.00067200  0.49669000  0.75237700  1
  Ni  Ni6  1  0.50067200  0.50331000  0.74762300  1
  Ni  Ni7  1  0.49932800  0.49669000  0.25237700  1
  Cu  Cu8  1  0.25834800  0.99655100  0.97705100  1
  Cu  Cu9  1  0.90739100  0.82535900  0.01682300  1
  Cu  Cu10  1  0.57433200  0.81494200  0.00488600  1
  Cu  Cu11  1  0.85253400  0.53056000  0.99624500  1
  Cu  Cu12  1  0.64130000  0.52193200  0.99119400  1
  Cu  Cu13  1  0.35870000  0.47806800  0.00880600  1
  Cu  Cu14  1  0.14746600  0.46944000  0.00375500  1
  Cu  Cu15  1  0.42566800  0.18505800  0.99511400  1
  Cu  Cu16  1  0.09260900  0.17464100  0.98317700  1
  Cu  Cu17  1  0.74165200  0.00344900  0.02294900  1
  Cu  Cu18  1  0.24165200  0.99655100  0.47705100  1
  Cu  Cu19  1  0.59260900  0.82535900  0.51682300  1
  Cu  Cu20  1  0.92566800  0.81494200  0.50488600  1
  Cu  Cu21  1  0.64746600  0.53056000  0.49624500  1
  Cu  Cu22  1  0.85870000  0.52193200  0.49119400  1
  Cu  Cu23  1  0.14130000  0.47806800  0.50880600  1
  Cu  Cu24  1  0.35253400  0.46944000  0.50375500  1
  Cu  Cu25  1  0.07433200  0.18505800  0.49511400  1
  Cu  Cu26  1  0.40739100  0.17464100  0.48317700  1
  Cu  Cu27  1  0.75834800  0.00344900  0.52294900  1
  C  C28  1  0.24434200  0.93300800  0.12412700  1
  C  C29  1  0.82968200  0.88027000  0.09354000  1
  C  C30  1  0.65511400  0.87719000  0.06930000  1
  C  C31  1  0.51091600  0.71909200  0.12521800  1
  C  C32  1  0.98172700  0.73498300  0.12225800  1
  C  C33  1  0.37198800  0.49779600  0.14054900  1
  C  C34  1  0.12753200  0.48319900  0.13601500  1
  C  C35  1  0.91762600  0.43912500  0.11191000  1
  C  C36  1  0.57734400  0.42750300  0.10682700  1
  C  C37  1  0.84666700  0.69873500  0.97996000  1
  C  C38  1  0.63714900  0.69271800  0.96471200  1
  C  C39  1  0.27303800  0.90476500  0.89663900  1
  C  C40  1  0.74717000  0.47064900  0.04170400  1
  C  C41  1  0.94341300  0.93887800  0.89031900  1
  C  C42  1  0.52309600  0.91812100  0.88729300  1
  C  C43  1  0.47690400  0.08187900  0.11270700  1
  C  C44  1  0.05658700  0.06112200  0.10968100  1
  C  C45  1  0.25283000  0.52935100  0.95829600  1
  C  C46  1  0.72696200  0.09523500  0.10336100  1
  C  C47  1  0.36285100  0.30728200  0.03528800  1
  C  C48  1  0.15333300  0.30126500  0.02004000  1
  C  C49  1  0.42265600  0.57249700  0.89317300  1
  C  C50  1  0.08237400  0.56087500  0.88809000  1
  C  C51  1  0.87246800  0.51680100  0.86398500  1
  C  C52  1  0.62801200  0.50220400  0.85945100  1
  C  C53  1  0.01827300  0.26501700  0.87774200  1
  C  C54  1  0.48908400  0.28090800  0.87478200  1
  C  C55  1  0.34488600  0.12281000  0.93070000  1
  C  C56  1  0.17031800  0.11973000  0.90646000  1
  C  C57  1  0.25565800  0.93300800  0.62412700  1
  C  C58  1  0.75565800  0.06699200  0.87587300  1
  C  C59  1  0.67031800  0.88027000  0.59354000  1
  C  C60  1  0.84488600  0.87719000  0.56930000  1
  C  C61  1  0.98908400  0.71909200  0.62521800  1
  C  C62  1  0.51827300  0.73498300  0.62225800  1
  C  C63  1  0.12801200  0.49779600  0.64054900  1
  C  C64  1  0.37246800  0.48319900  0.63601500  1
  C  C65  1  0.58237400  0.43912500  0.61191000  1
  C  C66  1  0.92265600  0.42750300  0.60682700  1
  C  C67  1  0.65333300  0.69873500  0.47996000  1
  C  C68  1  0.86285100  0.69271800  0.46471200  1
  C  C69  1  0.22696200  0.90476500  0.39663900  1
  C  C70  1  0.75283000  0.47064900  0.54170400  1
  C  C71  1  0.55658700  0.93887800  0.39031900  1
  C  C72  1  0.97690400  0.91812100  0.38729300  1
  C  C73  1  0.02309600  0.08187900  0.61270700  1
  C  C74  1  0.44341300  0.06112200  0.60968100  1
  C  C75  1  0.24717000  0.52935100  0.45829600  1
  C  C76  1  0.77303800  0.09523500  0.60336100  1
  C  C77  1  0.13714900  0.30728200  0.53528800  1
  C  C78  1  0.34666700  0.30126500  0.52004000  1
  C  C79  1  0.07734400  0.57249700  0.39317300  1
  C  C80  1  0.41762600  0.56087500  0.38809000  1
  C  C81  1  0.62753200  0.51680100  0.36398500  1
  C  C82  1  0.87198800  0.50220400  0.35945100  1
  C  C83  1  0.48172700  0.26501700  0.37774200  1
  C  C84  1  0.01091600  0.28090800  0.37478200  1
  C  C85  1  0.15511400  0.12281000  0.43070000  1
  C  C86  1  0.32968200  0.11973000  0.40646000  1
  C  C87  1  0.74434200  0.06699200  0.37587300  1
