# generated using pymatgen
data_CuNi3C10
_symmetry_space_group_name_H-M   'P 1'
_cell_length_a   10.46918746
_cell_length_b   10.46918746
_cell_length_c   10.59423764
_cell_angle_alpha   66.20308709
_cell_angle_beta   66.20308709
_cell_angle_gamma   53.74482706
_symmetry_Int_Tables_number   1
_chemical_formula_structural   CuNi3C10
_chemical_formula_sum   'Cu2 Ni6 C20'
_cell_volume   835.08485822
_cell_formula_units_Z   2
loop_
 _symmetry_equiv_pos_site_id
 _symmetry_equiv_pos_as_xyz
  1  'x, y, z'
loop_
 _atom_site_type_symbol
 _atom_site_label
 _atom_site_symmetry_multiplicity
 _atom_site_fract_x
 _atom_site_fract_y
 _atom_site_fract_z
 _atom_site_occupancy
  C  C0  1  0.15749100  0.69442400  0.79478700  1
  C  C1  1  0.30557600  0.84250900  0.20521300  1
  C  C2  1  0.84250900  0.30557600  0.20521300  1
  C  C3  1  0.69442400  0.15749100  0.79478700  1
  C  C4  1  0.42570300  0.42570300  0.22527700  1
  C  C5  1  0.57429700  0.57429700  0.77472300  1
  C  C6  1  0.28262300  0.28262300  0.78811500  1
  C  C7  1  0.71737700  0.71737700  0.21188500  1
  C  C8  1  0.36767700  0.89412300  0.49542700  1
  C  C9  1  0.10587700  0.63232300  0.50457300  1
  C  C10  1  0.63232300  0.10587700  0.50457300  1
  C  C11  1  0.89412300  0.36767700  0.49542700  1
  C  C12  1  0.17623000  0.69110000  0.24683100  1
  C  C13  1  0.69110000  0.17623000  0.24683100  1
  C  C14  1  0.82377000  0.30890000  0.75316900  1
  C  C15  1  0.95235000  0.44030100  0.23756100  1
  C  C16  1  0.55969900  0.04765000  0.76243900  1
  C  C17  1  0.04765000  0.55969900  0.76243900  1
  C  C18  1  0.44030100  0.95235000  0.23756100  1
  C  C19  1  0.30890000  0.82377000  0.75316900  1
  Ni  Ni20  1  0.25122900  0.25122900  0.50203700  1
  Ni  Ni21  1  0.74877100  0.74877100  0.49796300  1
  Ni  Ni22  1  0.50000000  0.50000000  0.50000000  1
  Ni  Ni23  1  0.61916400  0.61916400  0.01036600  1
  Ni  Ni24  1  0.38083600  0.38083600  0.98963400  1
  Ni  Ni25  1  0.00000000  0.00000000  0.50000000  1
  Cu  Cu26  1  0.12534500  0.12534500  0.01332200  1
  Cu  Cu27  1  0.87465500  0.87465500  0.98667800  1
