# generated using pymatgen
data_Cu2NiC6
_symmetry_space_group_name_H-M   'P 1'
_cell_length_a   3.19545108
_cell_length_b   6.72808798
_cell_length_c   5.91127146
_cell_angle_alpha   100.40612172
_cell_angle_beta   74.31880271
_cell_angle_gamma   89.99999913
_symmetry_Int_Tables_number   1
_chemical_formula_structural   Cu2NiC6
_chemical_formula_sum   'Cu2 Ni1 C6'
_cell_volume   120.18533947
_cell_formula_units_Z   1
loop_
 _symmetry_equiv_pos_site_id
 _symmetry_equiv_pos_as_xyz
  1  'x, y, z'
loop_
 _atom_site_type_symbol
 _atom_site_label
 _atom_site_symmetry_multiplicity
 _atom_site_fract_x
 _atom_site_fract_y
 _atom_site_fract_z
 _atom_site_occupancy
  C  C0  1  0.26780325  0.24614302  0.46439451  1
  C  C1  1  0.73219675  0.75385698  0.53560549  1
  Ni  Ni2  1  0.50000000  0.50000000  0.00000000  1
  Cu  Cu3  1  0.99447858  0.18001111  0.01104384  1
  Cu  Cu4  1  0.00552142  0.81998889  0.98895616  1
  C  C5  1  0.89343993  0.43318175  0.21312014  1
  C  C6  1  0.10656007  0.56681825  0.78687986  1
  C  C7  1  0.87229109  0.01199210  0.25541782  1
  C  C8  1  0.12770891  0.98800790  0.74458218  1
