# generated using pymatgen
data_Cu3Ni5C31
_symmetry_space_group_name_H-M   'P 1'
_cell_length_a   18.41776825
_cell_length_b   9.27840399
_cell_length_c   23.21818567
_cell_angle_alpha   90.25088576
_cell_angle_beta   89.99271835
_cell_angle_gamma   120.58023033
_symmetry_Int_Tables_number   1
_chemical_formula_structural   Cu3Ni5C31
_chemical_formula_sum   'Cu18 Ni30 C186'
_cell_volume   3415.81783108
_cell_formula_units_Z   6
loop_
 _symmetry_equiv_pos_site_id
 _symmetry_equiv_pos_as_xyz
  1  'x, y, z'
loop_
 _atom_site_type_symbol
 _atom_site_label
 _atom_site_symmetry_multiplicity
 _atom_site_fract_x
 _atom_site_fract_y
 _atom_site_fract_z
 _atom_site_occupancy
  Ni  Ni0  1  0.31437450  0.00071928  0.24664415  1
  Ni  Ni1  1  0.18452543  0.35535860  0.25138681  1
  Ni  Ni2  1  0.49357566  0.63851927  0.25211921  1
  Ni  Ni3  1  0.31077551  0.61568879  0.73894406  1
  Ni  Ni4  1  0.81274655  0.62742956  0.74704448  1
  Ni  Ni5  1  0.99758223  0.34363216  0.75225444  1
  Ni  Ni6  1  0.18287050  0.02018786  0.75344563  1
  Ni  Ni7  1  0.68448439  0.01328202  0.75174217  1
  Ni  Ni8  1  0.16383194  0.34650056  0.59037509  1
  Ni  Ni9  1  0.83252719  0.68821977  0.08773454  1
  Ni  Ni10  1  0.48704585  0.65993063  0.91668858  1
  Ni  Ni11  1  0.35765707  0.04977997  0.91779854  1
  Ni  Ni12  1  0.85127407  0.03000310  0.91782763  1
  Ni  Ni13  1  0.65836806  0.30162425  0.91825006  1
  Ni  Ni14  1  0.98613161  0.31239426  0.41274366  1
  Ni  Ni15  1  0.15881839  0.01687403  0.41345938  1
  Ni  Ni16  1  0.35231126  0.67263250  0.41711882  1
  Ni  Ni17  1  0.85637424  0.66548496  0.41406628  1
  Ni  Ni18  1  0.99668195  0.96786086  0.50310157  1
  Ni  Ni19  1  0.50499963  0.00027670  0.50408238  1
  Ni  Ni20  1  0.01240559  0.02386046  0.00534005  1
  Ni  Ni21  1  0.50338167  0.02246765  0.00876123  1
  Ni  Ni22  1  0.33135194  0.33294999  0.83515218  1
  Ni  Ni23  1  0.83099132  0.32837330  0.83060547  1
  Ni  Ni24  1  0.33251796  0.33333734  0.32804471  1
  Ni  Ni25  1  0.83153056  0.33264846  0.33370424  1
  Ni  Ni26  1  0.16184360  0.66663880  0.16453820  1
  Ni  Ni27  1  0.67527722  0.68561862  0.16197722  1
  Ni  Ni28  1  0.17452926  0.66980314  0.66225214  1
  Ni  Ni29  1  0.66047433  0.65457928  0.66446160  1
  Cu  Cu30  1  0.00027978  0.99778967  0.34674716  1
  Cu  Cu31  1  0.50414368  0.00862128  0.35117638  1
  Cu  Cu32  1  0.00456911  0.00494426  0.85259592  1
  Cu  Cu33  1  0.50101661  0.00540611  0.84737462  1
  Cu  Cu34  1  0.33783540  0.33799986  0.67967106  1
  Cu  Cu35  1  0.83035941  0.32692981  0.67940897  1
  Cu  Cu36  1  0.33009874  0.33275053  0.17981048  1
  Cu  Cu37  1  0.83198427  0.32323113  0.18254523  1
  Cu  Cu38  1  0.33342107  0.33361990  0.98609027  1
  Cu  Cu39  1  0.83806059  0.31788013  0.99350937  1
  Cu  Cu40  1  0.34197343  0.35330443  0.49126537  1
  Cu  Cu41  1  0.83467470  0.33665261  0.48578838  1
  Cu  Cu42  1  0.16418518  0.65953857  0.01856291  1
  Cu  Cu43  1  0.66518585  0.66861152  0.02056215  1
  Cu  Cu44  1  0.16870403  0.67729432  0.51971564  1
  Cu  Cu45  1  0.66400390  0.66858048  0.51837365  1
  Cu  Cu46  1  0.67070976  0.66943616  0.31466266  1
  Cu  Cu47  1  0.16488174  0.65492432  0.81572231  1
  C  C48  1  0.14379779  0.99620992  0.24955460  1
  C  C49  1  0.34316169  0.70087357  0.25868588  1
  C  C50  1  0.14620356  0.29038766  0.74578006  1
  C  C51  1  0.64384573  0.29191141  0.74867227  1
  C  C52  1  0.84474849  0.98695351  0.75737972  1
  C  C53  1  0.34425232  0.66322272  0.58917148  1
  C  C54  1  0.84366288  0.02700800  0.08766927  1
  C  C55  1  0.52205585  0.37947796  0.91179197  1
  C  C56  1  0.02180339  0.66506930  0.41191165  1
  C  C57  1  0.98542646  0.00300058  0.65906806  1
  C  C58  1  0.50447440  0.02508735  0.64490520  1
  C  C59  1  0.00274043  0.98884570  0.15001800  1
  C  C60  1  0.47981472  0.97215526  0.15730585  1
  C  C61  1  0.15567071  0.68145900  0.30321865  1
  C  C62  1  0.65804279  0.63238827  0.80485870  1
  C  C63  1  0.64454706  0.99437137  0.24800757  1
  C  C64  1  0.85191836  0.70571190  0.24548728  1
  C  C65  1  0.00434899  0.30297742  0.25175779  1
  C  C66  1  0.50112742  0.29666266  0.24692605  1
  C  C67  1  0.00083391  0.71578283  0.74576222  1
  C  C68  1  0.50580210  0.70569462  0.75201512  1
  C  C69  1  0.35195099  0.99663305  0.74697279  1
  C  C70  1  0.48833028  0.32396553  0.58682941  1
  C  C71  1  0.98403308  0.31318372  0.58722257  1
  C  C72  1  0.17388516  0.03069584  0.58632158  1
  C  C73  1  0.67394483  0.02780727  0.58779721  1
  C  C74  1  0.84188119  0.65941120  0.58821538  1
  C  C75  1  0.48472675  0.65115655  0.08692633  1
  C  C76  1  0.98582607  0.64806933  0.08772792  1
  C  C77  1  0.33750267  0.02516227  0.08514086  1
  C  C78  1  0.17393419  0.32064764  0.08830160  1
  C  C79  1  0.67854956  0.32474060  0.08289050  1
  C  C80  1  0.31739003  0.66558263  0.91579426  1
  C  C81  1  0.80960661  0.65907927  0.91257106  1
  C  C82  1  0.01209980  0.36248361  0.91533372  1
  C  C83  1  0.16838442  0.96399208  0.91636884  1
  C  C84  1  0.66891414  0.96185233  0.91209114  1
  C  C85  1  0.31080102  0.96172437  0.41154260  1
  C  C86  1  0.81722574  0.96771781  0.41814431  1
  C  C87  1  0.16843551  0.37365736  0.41557243  1
  C  C88  1  0.66878570  0.37299104  0.41855569  1
  C  C89  1  0.51457402  0.66546727  0.41432121  1
  C  C90  1  0.11418835  0.03607108  0.30856715  1
  C  C91  1  0.60692246  0.01282144  0.30109953  1
  C  C92  1  0.40045791  0.77983417  0.31395379  1
  C  C93  1  0.89581846  0.78409789  0.29963098  1
  C  C94  1  0.49170347  0.20045044  0.29919848  1
  C  C95  1  0.99458656  0.21726275  0.30670729  1
  C  C96  1  0.10353155  0.16671530  0.79843177  1
  C  C97  1  0.61362985  0.19017465  0.80703068  1
  C  C98  1  0.49289327  0.77208296  0.80665614  1
  C  C99  1  0.98487694  0.78036585  0.79876478  1
  C  C100  1  0.39437816  0.01080677  0.80229960  1
  C  C101  1  0.89941266  0.02025736  0.81370702  1
  C  C102  1  0.39878651  0.97844978  0.69772416  1
  C  C103  1  0.88992775  0.94327841  0.69910705  1
  C  C104  1  0.07658722  0.18853140  0.68647498  1
  C  C105  1  0.57855044  0.18323294  0.69219359  1
  C  C106  1  0.01162026  0.82558653  0.69475666  1
  C  C107  1  0.51919837  0.81744113  0.70321765  1
  C  C108  1  0.38458681  0.83338565  0.20048353  1
  C  C109  1  0.89924342  0.81255113  0.19366201  1
  C  C110  1  0.01761806  0.21572042  0.20288754  1
  C  C111  1  0.51029589  0.21362453  0.19470072  1
  C  C112  1  0.07913300  0.97797836  0.19368144  1
  C  C113  1  0.58885902  0.97004227  0.19654511  1
  C  C114  1  0.44769033  0.33544154  0.63876206  1
  C  C115  1  0.94523540  0.33534995  0.63900537  1
  C  C116  1  0.22350446  0.11426795  0.63858665  1
  C  C117  1  0.72137459  0.09910529  0.64146314  1
  C  C118  1  0.32708045  0.54079116  0.64446795  1
  C  C119  1  0.83342919  0.55840597  0.63885510  1
  C  C120  1  0.44272582  0.55198871  0.13871747  1
  C  C121  1  0.94375147  0.54820953  0.13829013  1
  C  C122  1  0.33127491  0.11009994  0.13687458  1
  C  C123  1  0.83055425  0.12598761  0.13748224  1
  C  C124  1  0.22277645  0.34629200  0.14132440  1
  C  C125  1  0.73465069  0.34604495  0.13166614  1
  C  C126  1  0.21528980  0.30007318  0.03721593  1
  C  C127  1  0.71763920  0.31110432  0.02791735  1
  C  C128  1  0.43664981  0.56986658  0.03379860  1
  C  C129  1  0.93422172  0.57680906  0.03527489  1
  C  C130  1  0.34677046  0.12109989  0.03215115  1
  C  C131  1  0.86313259  0.12010485  0.02558454  1
  C  C132  1  0.21764519  0.13313957  0.53442583  1
  C  C133  1  0.71734137  0.13252275  0.53753453  1
  C  C134  1  0.36114918  0.59479821  0.52888735  1
  C  C135  1  0.85415873  0.58696417  0.53473604  1
  C  C136  1  0.43867162  0.29951672  0.53464751  1
  C  C137  1  0.93559004  0.29496506  0.53456153  1
  C  C138  1  0.27184966  0.68320223  0.96466400  1
  C  C139  1  0.77084604  0.68285362  0.96443097  1
  C  C140  1  0.06309158  0.46029254  0.96465132  1
  C  C141  1  0.58191390  0.46544012  0.96545064  1
  C  C142  1  0.16539670  0.86156257  0.96543456  1
  C  C143  1  0.66254370  0.86280232  0.96289586  1
  C  C144  1  0.27188626  0.85491972  0.46153767  1
  C  C145  1  0.77496020  0.86451107  0.46874521  1
  C  C146  1  0.16208294  0.45581549  0.46794528  1
  C  C147  1  0.66345843  0.45874640  0.47018324  1
  C  C148  1  0.08061745  0.69892472  0.46612717  1
  C  C149  1  0.56374694  0.67018601  0.46452558  1
  C  C150  1  0.07527097  0.63683059  0.35323107  1
  C  C151  1  0.55474392  0.65821008  0.35974870  1
  C  C152  1  0.26027350  0.88171005  0.35690400  1
  C  C153  1  0.77018745  0.88823448  0.36485716  1
  C  C154  1  0.18082289  0.47386232  0.36295860  1
  C  C155  1  0.67646990  0.46995135  0.36595082  1
  C  C156  1  0.05087427  0.44600640  0.86007488  1
  C  C157  1  0.57443919  0.51291661  0.85291284  1
  C  C158  1  0.17457802  0.88848790  0.86099773  1
  C  C159  1  0.68106795  0.88936539  0.85839415  1
  C  C160  1  0.27377841  0.65159321  0.86071278  1
  C  C161  1  0.75809719  0.64037472  0.85860620  1
  C  C162  1  0.00547726  0.82249704  0.40870589  1
  C  C163  1  0.50526998  0.81603639  0.41659486  1
  C  C164  1  0.39638524  0.98529655  0.40726771  1
  C  C165  1  0.90315729  0.98731095  0.41601083  1
  C  C166  1  0.08905802  0.20686505  0.41268152  1
  C  C167  1  0.59467979  0.20275021  0.41670240  1
  C  C168  1  0.00275173  0.19370879  0.91850953  1
  C  C169  1  0.50572300  0.18956876  0.90874262  1
  C  C170  1  0.09377334  0.98269075  0.91834552  1
  C  C171  1  0.59015625  0.97047864  0.91070110  1
  C  C172  1  0.40350057  0.81817805  0.91566534  1
  C  C173  1  0.89444229  0.80866451  0.90861637  1
  C  C174  1  0.49610625  0.16627202  0.58932507  1
  C  C175  1  0.98628526  0.14997202  0.59210748  1
  C  C176  1  0.09063522  0.02585135  0.58820811  1
  C  C177  1  0.58961436  0.02104774  0.59147780  1
  C  C178  1  0.43108654  0.85298562  0.60262208  1
  C  C179  1  0.92387473  0.83302481  0.59427935  1
  C  C180  1  0.48810943  0.81849378  0.09070350  1
  C  C181  1  0.99151388  0.81919550  0.09273556  1
  C  C182  1  0.41710282  0.01298511  0.08877233  1
  C  C183  1  0.93163475  0.00586787  0.10182934  1
  C  C184  1  0.08945890  0.15976258  0.09309028  1
  C  C185  1  0.59396321  0.17405218  0.08726733  1
  C  C186  1  0.33901351  0.14036336  0.74191092  1
  C  C187  1  0.83315452  0.14478152  0.74437457  1
  C  C188  1  0.24121218  0.31886138  0.74213638  1
  C  C189  1  0.73917203  0.33466344  0.73802547  1
  C  C190  1  0.43308926  0.53591969  0.74483164  1
  C  C191  1  0.92851172  0.54208968  0.73823256  1
  C  C192  1  0.33175254  0.51926286  0.24615703  1
  C  C193  1  0.84371351  0.54024966  0.24133141  1
  C  C194  1  0.42327741  0.31072435  0.24340813  1
  C  C195  1  0.93471598  0.33373803  0.24456325  1
  C  C196  1  0.23914729  0.14417718  0.23885488  1
  C  C197  1  0.72992192  0.14093099  0.24351893  1
  C  C198  1  0.32724914  0.51696639  0.92102965  1
  C  C199  1  0.81306826  0.50288367  0.91582568  1
  C  C200  1  0.43038138  0.36979078  0.91156347  1
  C  C201  1  0.92600810  0.34203346  0.91670588  1
  C  C202  1  0.24816933  0.13147766  0.91967742  1
  C  C203  1  0.74346890  0.13615100  0.91730701  1
  C  C204  1  0.31407099  0.12466654  0.41719990  1
  C  C205  1  0.82823842  0.13755742  0.42245611  1
  C  C206  1  0.24237802  0.34729717  0.41961637  1
  C  C207  1  0.74870683  0.36621847  0.42082418  1
  C  C208  1  0.42775519  0.51343094  0.41520819  1
  C  C209  1  0.92991968  0.49016051  0.41117458  1
  C  C210  1  0.16036576  0.46369441  0.08219351  1
  C  C211  1  0.67453433  0.48116180  0.08170611  1
  C  C212  1  0.07121620  0.67471234  0.08270020  1
  C  C213  1  0.57017701  0.67619981  0.08433223  1
  C  C214  1  0.26274518  0.85554020  0.08229221  1
  C  C215  1  0.76651280  0.83469091  0.08560731  1
  C  C216  1  0.16150919  0.86183284  0.58358164  1
  C  C217  1  0.65883403  0.85661361  0.58166005  1
  C  C218  1  0.25518338  0.66563423  0.58651760  1
  C  C219  1  0.76846039  0.68135577  0.58373966  1
  C  C220  1  0.07149977  0.45365532  0.58276807  1
  C  C221  1  0.57419471  0.47086273  0.58336658  1
  C  C222  1  0.14983968  0.81842038  0.25016172  1
  C  C223  1  0.64776287  0.83649987  0.24960290  1
  C  C224  1  0.24616667  0.68711675  0.26335363  1
  C  C225  1  0.76808950  0.69169505  0.24396058  1
  C  C226  1  0.08954796  0.47283056  0.25329466  1
  C  C227  1  0.57436214  0.46997000  0.24944050  1
  C  C228  1  0.14973249  0.47033065  0.74451820  1
  C  C229  1  0.65074181  0.48220953  0.75094736  1
  C  C230  1  0.07993796  0.70915854  0.74862934  1
  C  C231  1  0.58856004  0.70268647  0.75486351  1
  C  C232  1  0.26690805  0.83945900  0.74693161  1
  C  C233  1  0.74739480  0.80504365  0.76144890  1
