# generated using pymatgen
data_Cu4(NiC13)5
_symmetry_space_group_name_H-M   'P 1'
_cell_length_a   17.58502492
_cell_length_b   8.82695487
_cell_length_c   22.60727972
_cell_angle_alpha   90.01655605
_cell_angle_beta   89.85531261
_cell_angle_gamma   120.35048916
_symmetry_Int_Tables_number   1
_chemical_formula_structural   Cu4(NiC13)5
_chemical_formula_sum   'Cu12 Ni15 C195'
_cell_volume   3028.21342720
_cell_formula_units_Z   3
loop_
 _symmetry_equiv_pos_site_id
 _symmetry_equiv_pos_as_xyz
  1  'x, y, z'
loop_
 _atom_site_type_symbol
 _atom_site_label
 _atom_site_symmetry_multiplicity
 _atom_site_fract_x
 _atom_site_fract_y
 _atom_site_fract_z
 _atom_site_occupancy
  C  C0  1  0.99928653  0.62430888  0.25450137  1
  C  C1  1  0.49682275  0.64177041  0.25186342  1
  C  C2  1  0.99708414  0.35750500  0.75024049  1
  C  C3  1  0.49960779  0.36435953  0.75173190  1
  C  C4  1  0.66482256  0.29961418  0.91679521  1
  C  C5  1  0.16648589  0.02875756  0.42803889  1
  C  C6  1  0.99874793  0.99293616  0.50324895  1
  C  C7  1  0.50822937  0.99799519  0.50319427  1
  C  C8  1  0.00662188  0.01566972  0.99893825  1
  C  C9  1  0.50126072  0.01052951  0.99736330  1
  C  C10  1  0.32793505  0.32024999  0.83470655  1
  C  C11  1  0.83175268  0.33246661  0.82482934  1
  C  C12  1  0.34069010  0.34447207  0.32972009  1
  C  C13  1  0.82375752  0.33074646  0.33635726  1
  C  C14  1  0.18463230  0.66248491  0.16812759  1
  C  C15  1  0.67377066  0.65256008  0.16452030  1
  C  C16  1  0.17433723  0.69648123  0.66675208  1
  C  C17  1  0.68312803  0.69254636  0.67372509  1
  C  C18  1  0.99683948  0.98728829  0.35316953  1
  C  C19  1  0.50085114  0.01755089  0.85085041  1
  C  C20  1  0.32038380  0.33728342  0.67652464  1
  C  C21  1  0.81902421  0.29964560  0.69720010  1
  C  C22  1  0.33126373  0.35675108  0.19048449  1
  C  C23  1  0.81609585  0.30067129  0.17089091  1
  C  C24  1  0.82411531  0.30649293  0.98843267  1
  C  C25  1  0.32902933  0.34586358  0.49722878  1
  C  C26  1  0.17096522  0.66422787  0.31804148  1
  C  C27  1  0.65936365  0.63363855  0.31551251  1
  C  C28  1  0.16387144  0.69180005  0.81348183  1
  C  C29  1  0.66777571  0.65305038  0.81091389  1
  Ni  Ni30  1  0.35030094  0.71428893  0.25281253  1
  Ni  Ni31  1  0.49732803  0.30414178  0.24719099  1
  Ni  Ni32  1  0.64300925  0.28882318  0.75226493  1
  Ni  Ni33  1  0.99991690  0.69221536  0.74661641  1
  Ni  Ni34  1  0.85234660  0.98855305  0.75306581  1
  Ni  Ni35  1  0.18508240  0.04439919  0.58358465  1
  Ni  Ni36  1  0.69456657  0.04673225  0.58303897  1
  Ni  Ni37  1  0.33391886  0.63192901  0.58313458  1
  Ni  Ni38  1  0.83215478  0.03805670  0.08178394  1
  Ni  Ni39  1  0.19426066  0.34129991  0.08390997  1
  Ni  Ni40  1  0.68442858  0.32872365  0.08203485  1
  Ni  Ni41  1  0.52229582  0.38002297  0.91317106  1
  Ni  Ni42  1  0.16351193  0.95490994  0.91728920  1
  Ni  Ni43  1  0.66499098  0.37335329  0.41681350  1
  Ni  Ni44  1  0.02411596  0.66590186  0.41105466  1
  Cu  Cu45  1  0.50005649  0.01876643  0.34974979  1
  Cu  Cu46  1  0.00048955  0.97976065  0.84920298  1
  Cu  Cu47  1  0.00149107  0.98916069  0.65053957  1
  Cu  Cu48  1  0.50512300  0.99864443  0.64519645  1
  Cu  Cu49  1  0.00029207  0.01093699  0.14279124  1
  Cu  Cu50  1  0.50074289  0.01345378  0.14968524  1
  Cu  Cu51  1  0.33010039  0.32611637  0.97600932  1
  Cu  Cu52  1  0.83174882  0.33763662  0.47739271  1
  Cu  Cu53  1  0.16620829  0.66415617  0.01790587  1
  Cu  Cu54  1  0.66677817  0.65907890  0.02130520  1
  Cu  Cu55  1  0.16565377  0.67477226  0.52303708  1
  Cu  Cu56  1  0.66611994  0.66666805  0.51937415  1
  C  C57  1  0.14307704  0.00082805  0.25114394  1
  C  C58  1  0.65490652  0.00614869  0.25196123  1
  C  C59  1  0.85469107  0.70937410  0.24995861  1
  C  C60  1  0.99820852  0.28766734  0.25389399  1
  C  C61  1  0.15488063  0.30430117  0.75233555  1
  C  C62  1  0.49486664  0.70215204  0.75293621  1
  C  C63  1  0.35235250  0.99858919  0.74958979  1
  C  C64  1  0.47612969  0.33485596  0.58454439  1
  C  C65  1  0.97572236  0.32651147  0.58390128  1
  C  C66  1  0.83413127  0.62579237  0.58367632  1
  C  C67  1  0.47637159  0.62596671  0.08458216  1
  C  C68  1  0.97696742  0.61655713  0.08631775  1
  C  C69  1  0.33272616  0.04349834  0.08482976  1
  C  C70  1  0.31445006  0.67627202  0.91084150  1
  C  C71  1  0.81514092  0.66208587  0.91863283  1
  C  C72  1  0.01483574  0.36904671  0.91563364  1
  C  C73  1  0.66645058  0.95542279  0.91544271  1
  C  C74  1  0.31417209  0.96456405  0.41740579  1
  C  C75  1  0.81346226  0.95274096  0.41079721  1
  C  C76  1  0.16619572  0.37178130  0.41431608  1
  C  C77  1  0.51527288  0.66139798  0.41519262  1
  C  C78  1  0.10274366  0.02782560  0.30544941  1
  C  C79  1  0.61437728  0.03630351  0.30534983  1
  C  C80  1  0.42120420  0.79795712  0.30799054  1
  C  C81  1  0.91359992  0.79564062  0.30223376  1
  C  C82  1  0.47822513  0.18893331  0.30756034  1
  C  C83  1  0.98759890  0.17687201  0.30618696  1
  C  C84  1  0.11462919  0.19268765  0.80555911  1
  C  C85  1  0.60239516  0.17039859  0.81246976  1
  C  C86  1  0.47958132  0.78552891  0.80482776  1
  C  C87  1  0.98126504  0.76882844  0.80736810  1
  C  C88  1  0.40841504  0.02696476  0.80267388  1
  C  C89  1  0.92406878  0.04636975  0.80795115  1
  C  C90  1  0.39018254  0.97032845  0.69507726  1
  C  C91  1  0.89590811  0.95624999  0.69275491  1
  C  C92  1  0.09684490  0.22942352  0.69894830  1
  C  C93  1  0.57186218  0.20180468  0.69685531  1
  C  C94  1  0.03220088  0.83170932  0.69165505  1
  C  C95  1  0.50503395  0.80065263  0.69688814  1
  C  C96  1  0.39509426  0.83010018  0.19238915  1
  C  C97  1  0.89651832  0.81530927  0.19534614  1
  C  C98  1  0.01103686  0.21002641  0.19832147  1
  C  C99  1  0.52801826  0.23034395  0.19159162  1
  C  C100  1  0.08202265  0.96291930  0.19923084  1
  C  C101  1  0.59590314  0.96377833  0.19898842  1
  C  C102  1  0.43580226  0.35376617  0.63976748  1
  C  C103  1  0.93812592  0.35286926  0.63727905  1
  C  C104  1  0.24724222  0.13276161  0.64056584  1
  C  C105  1  0.75413589  0.13755112  0.63986391  1
  C  C106  1  0.32240299  0.52242182  0.64303591  1
  C  C107  1  0.82860851  0.52679796  0.63589471  1
  C  C108  1  0.43987802  0.52474273  0.13954744  1
  C  C109  1  0.93668739  0.51681724  0.14255299  1
  C  C110  1  0.32636101  0.12909827  0.13757506  1
  C  C111  1  0.82395264  0.11924943  0.14473194  1
  C  C112  1  0.25066580  0.36710751  0.14283015  1
  C  C113  1  0.74410627  0.36769524  0.14160599  1
  C  C114  1  0.23425372  0.31501892  0.02278135  1
  C  C115  1  0.72825654  0.31033938  0.02026152  1
  C  C116  1  0.42402999  0.54186628  0.03059675  1
  C  C117  1  0.92461341  0.53489628  0.03316652  1
  C  C118  1  0.34561832  0.14263948  0.02871811  1
  C  C119  1  0.85492089  0.16447799  0.02479091  1
  C  C120  1  0.22790028  0.14652846  0.51988875  1
  C  C121  1  0.73272170  0.14929775  0.52000390  1
  C  C122  1  0.35703934  0.55792350  0.52350261  1
  C  C123  1  0.84758043  0.55536099  0.52661344  1
  C  C124  1  0.42483463  0.31738539  0.53014160  1
  C  C125  1  0.92611592  0.30714388  0.52785514  1
  C  C126  1  0.27996488  0.70625876  0.96843142  1
  C  C127  1  0.77786238  0.69219366  0.97355773  1
  C  C128  1  0.07057611  0.44885554  0.97059696  1
  C  C129  1  0.58757103  0.45830583  0.97098435  1
  C  C130  1  0.14761645  0.84063301  0.97849484  1
  C  C131  1  0.65802469  0.85878446  0.97156966  1
  C  C132  1  0.27496530  0.85792945  0.47148572  1
  C  C133  1  0.77773518  0.85255205  0.46714026  1
  C  C134  1  0.15351271  0.45057585  0.46840057  1
  C  C135  1  0.64849715  0.45834825  0.47659689  1
  C  C136  1  0.09148023  0.71844769  0.46729529  1
  C  C137  1  0.57179197  0.69161744  0.46857386  1
  C  C138  1  0.06877281  0.64233072  0.35046584  1
  C  C139  1  0.55913650  0.64938230  0.35977501  1
  C  C140  1  0.25773018  0.88199261  0.36434245  1
  C  C141  1  0.75686779  0.86566792  0.35935861  1
  C  C142  1  0.18055185  0.48004940  0.36097522  1
  C  C143  1  0.68222819  0.49220592  0.35837803  1
  C  C144  1  0.05991732  0.47118951  0.86171554  1
  C  C145  1  0.56740741  0.49620906  0.85427662  1
  C  C146  1  0.18050978  0.86717962  0.86048541  1
  C  C147  1  0.67941968  0.87297290  0.86356305  1
  C  C148  1  0.25554245  0.64659655  0.86078457  1
  C  C149  1  0.75930333  0.63213485  0.86635851  1
  C  C150  1  0.01491760  0.84405649  0.40596336  1
  C  C151  1  0.50470935  0.81812869  0.41221982  1
  C  C152  1  0.40078583  0.97460135  0.41277633  1
  C  C153  1  0.90327584  0.97340371  0.40554132  1
  C  C154  1  0.08496614  0.19306551  0.40799806  1
  C  C155  1  0.57729759  0.17495337  0.41298796  1
  C  C156  1  0.00329481  0.19037214  0.91324596  1
  C  C157  1  0.50940905  0.18088563  0.90978332  1
  C  C158  1  0.07698962  0.97995680  0.91356060  1
  C  C159  1  0.58550944  0.97115208  0.91271336  1
  C  C160  1  0.40374144  0.83295550  0.90419204  1
  C  C161  1  0.90288869  0.82459612  0.91400721  1
  C  C162  1  0.48495645  0.17647665  0.58582599  1
  C  C163  1  0.98413128  0.16642122  0.58663766  1
  C  C164  1  0.09051749  0.04187770  0.58610485  1
  C  C165  1  0.59627070  0.02559840  0.58686360  1
  C  C166  1  0.41644191  0.83376941  0.58835871  1
  C  C167  1  0.91117042  0.81045405  0.58437206  1
  C  C168  1  0.48335073  0.80099859  0.08848640  1
  C  C169  1  0.98900961  0.79683180  0.09064751  1
  C  C170  1  0.41003297  0.01443905  0.08556059  1
  C  C171  1  0.91523652  0.00164172  0.08504807  1
  C  C172  1  0.09663622  0.16166764  0.08833567  1
  C  C173  1  0.58986393  0.13999729  0.08614656  1
  C  C174  1  0.34627811  0.16100101  0.74527983  1
  C  C175  1  0.84766928  0.16655039  0.74822163  1
  C  C176  1  0.24181541  0.31616075  0.74516225  1
  C  C177  1  0.73873905  0.31165019  0.74658747  1
  C  C178  1  0.41806829  0.51748684  0.74735585  1
  C  C179  1  0.91483370  0.50118014  0.73553920  1
  C  C180  1  0.34156228  0.52128286  0.24865211  1
  C  C181  1  0.84862813  0.53555790  0.24572726  1
  C  C182  1  0.40988683  0.32155967  0.23762183  1
  C  C183  1  0.92033104  0.30998601  0.24945520  1
  C  C184  1  0.22995698  0.15603040  0.24431985  1
  C  C185  1  0.74187411  0.16895719  0.24413178  1
  C  C186  1  0.32371922  0.51794458  0.91637759  1
  C  C187  1  0.82497742  0.50434974  0.92449454  1
  C  C188  1  0.42802287  0.37369812  0.92133220  1
  C  C189  1  0.92939514  0.36372732  0.92182916  1
  C  C190  1  0.25092918  0.15102231  0.91779434  1
  C  C191  1  0.74528084  0.14122904  0.91979490  1
  C  C192  1  0.32437816  0.14115382  0.42267023  1
  C  C193  1  0.82482338  0.13115896  0.41541609  1
  C  C194  1  0.24358810  0.34536579  0.41901198  1
  C  C195  1  0.75249834  0.35380404  0.41830322  1
  C  C196  1  0.42957060  0.49625728  0.42079527  1
  C  C197  1  0.92939705  0.48621846  0.41978763  1
  C  C198  1  0.18123222  0.51552538  0.07806630  1
  C  C199  1  0.66992701  0.49728742  0.08170112  1
  C  C200  1  0.06680708  0.63655490  0.08323932  1
  C  C201  1  0.56568328  0.64918350  0.07840518  1
  C  C202  1  0.25026504  0.86578193  0.08082124  1
  C  C203  1  0.73885974  0.85326724  0.07687708  1
  C  C204  1  0.17015054  0.84585767  0.58214257  1
  C  C205  1  0.68190148  0.84560241  0.57796719  1
  C  C206  1  0.24004245  0.62804766  0.57622731  1
  C  C207  1  0.75141395  0.63596579  0.57953519  1
  C  C208  1  0.06612593  0.48387615  0.57734430  1
  C  C209  1  0.56585028  0.49530625  0.58117627  1
  C  C210  1  0.14900979  0.83901406  0.25506617  1
  C  C211  1  0.66559194  0.85179171  0.26034094  1
  C  C212  1  0.25424002  0.69873390  0.26166667  1
  C  C213  1  0.76848267  0.69695787  0.25577024  1
  C  C214  1  0.07899539  0.46526100  0.25699115  1
  C  C215  1  0.58101056  0.50905450  0.25516090  1
  C  C216  1  0.16599670  0.48035895  0.76056391  1
  C  C217  1  0.64764783  0.47880618  0.75440536  1
  C  C218  1  0.08433634  0.65786830  0.75459219  1
  C  C219  1  0.57623746  0.69184233  0.75732348  1
  C  C220  1  0.26406975  0.83908005  0.75598085  1
  C  C221  1  0.75566389  0.81977434  0.76281135  1
