# generated using pymatgen
data_Cu2NiC8
_symmetry_space_group_name_H-M   'P 1'
_cell_length_a   5.69954515
_cell_length_b   6.34629942
_cell_length_c   5.31152167
_cell_angle_alpha   106.82706520
_cell_angle_beta   90.24396010
_cell_angle_gamma   116.80688084
_symmetry_Int_Tables_number   1
_chemical_formula_structural   Cu2NiC8
_chemical_formula_sum   'Cu2 Ni1 C8'
_cell_volume   162.07748038
_cell_formula_units_Z   1
loop_
 _symmetry_equiv_pos_site_id
 _symmetry_equiv_pos_as_xyz
  1  'x, y, z'
loop_
 _atom_site_type_symbol
 _atom_site_label
 _atom_site_symmetry_multiplicity
 _atom_site_fract_x
 _atom_site_fract_y
 _atom_site_fract_z
 _atom_site_occupancy
  C  C0  1  0.70691595  0.41207306  0.93591043  1
  C  C1  1  0.29308415  0.58793096  0.56408703  1
  Ni  Ni2  1  0.50000057  0.00000307  0.25000140  1
  Cu  Cu3  1  0.00000250  0.00000463  0.24999769  1
  Cu  Cu4  1  -0.00000002  -0.00000033  0.74999673  1
  C  C5  1  0.68142827  0.85147736  0.98649627  1
  C  C6  1  0.82721090  0.14846380  0.51814452  1
  C  C7  1  0.17278878  0.85153416  0.98185494  1
  C  C8  1  0.14579467  0.29049877  0.04608068  1
  C  C9  1  0.85420430  0.70949784  0.45392356  1
  C  C10  1  0.31856795  0.14852069  0.51350275  1
