# generated using pymatgen
data_Cu2NiC16
_symmetry_space_group_name_H-M   'P 1'
_cell_length_a   5.81822525
_cell_length_b   6.45499618
_cell_length_c   6.45499618
_cell_angle_alpha   90.00000000
_cell_angle_beta   90.00000000
_cell_angle_gamma   90.00000000
_symmetry_Int_Tables_number   1
_chemical_formula_structural   Cu2NiC16
_chemical_formula_sum   'Cu2 Ni1 C16'
_cell_volume   242.42785001
_cell_formula_units_Z   1
loop_
 _symmetry_equiv_pos_site_id
 _symmetry_equiv_pos_as_xyz
  1  'x, y, z'
loop_
 _atom_site_type_symbol
 _atom_site_label
 _atom_site_symmetry_multiplicity
 _atom_site_fract_x
 _atom_site_fract_y
 _atom_site_fract_z
 _atom_site_occupancy
  C  C0  1  0.48263241  0.02291988  0.47708012  1
  C  C1  1  0.48263241  0.02291988  0.02291988  1
  C  C2  1  0.48263241  0.47708012  0.47708012  1
  C  C3  1  0.48263241  0.47708012  0.02291988  1
  Ni  Ni4  1  0.68345425  0.75000000  0.75000000  1
  C  C5  1  0.02298559  0.25000000  0.25000000  1
  C  C6  1  0.06954675  0.75000000  0.75000000  1
  Cu  Cu7  1  0.97649567  0.75000000  0.25000000  1
  Cu  Cu8  1  0.97649567  0.25000000  0.75000000  1
  C  C9  1  0.71850252  0.25000000  0.25000000  1
  C  C10  1  0.37532989  0.75000000  0.75000000  1
  C  C11  1  0.14820371  0.25000000  0.54322989  1
  C  C12  1  0.14820371  0.25000000  0.95677011  1
  C  C13  1  0.14820371  0.54322989  0.25000000  1
  C  C14  1  0.14820371  0.95677011  0.25000000  1
  C  C15  1  0.81241955  0.04098045  0.75000000  1
  C  C16  1  0.81241955  0.75000000  0.04098045  1
  C  C17  1  0.81241955  0.45901955  0.75000000  1
  C  C18  1  0.81241955  0.75000000  0.45901955  1
