# generated using pymatgen
data_CuNi
_symmetry_space_group_name_H-M   'P 1'
_cell_length_a   18.60348300
_cell_length_b   18.60348300
_cell_length_c   6.29021100
_cell_angle_alpha   90.00000000
_cell_angle_beta   90.00000000
_cell_angle_gamma   90.00000000
_symmetry_Int_Tables_number   1
_chemical_formula_structural   CuNi
_chemical_formula_sum   'Cu32 Ni32'
_cell_volume   2176.97648141
_cell_formula_units_Z   32
loop_
 _symmetry_equiv_pos_site_id
 _symmetry_equiv_pos_as_xyz
  1  'x, y, z'
loop_
 _atom_site_type_symbol
 _atom_site_label
 _atom_site_symmetry_multiplicity
 _atom_site_fract_x
 _atom_site_fract_y
 _atom_site_fract_z
 _atom_site_occupancy
  Ni  Ni0  1  0.82415700  0.09649100  0.75279300  1
  Ni  Ni1  1  0.09615200  0.67552500  0.75378100  1
  Ni  Ni2  1  0.17552500  0.40384800  0.25378100  1
  Ni  Ni3  1  0.82447500  0.59615200  0.25378100  1
  Ni  Ni4  1  0.32447500  0.90384800  0.24621900  1
  Ni  Ni5  1  0.40384800  0.17552500  0.74621900  1
  Ni  Ni6  1  0.59615200  0.82447500  0.74621900  1
  Ni  Ni7  1  0.67552500  0.09615200  0.24621900  1
  Ni  Ni8  1  0.59615200  0.17552500  0.74621900  1
  Ni  Ni9  1  0.40384800  0.82447500  0.74621900  1
  Ni  Ni10  1  0.32447500  0.09615200  0.24621900  1
  Ni  Ni11  1  0.67552500  0.90384800  0.24621900  1
  Ni  Ni12  1  0.17552500  0.59615200  0.25378100  1
  Ni  Ni13  1  0.09615200  0.32447500  0.75378100  1
  Ni  Ni14  1  0.90384800  0.67552500  0.75378100  1
  Ni  Ni15  1  0.82447500  0.40384800  0.25378100  1
  Ni  Ni16  1  0.90384800  0.32447500  0.75378100  1
  Ni  Ni17  1  0.17584300  0.90350900  0.75279300  1
  Ni  Ni18  1  0.40350900  0.32415700  0.25279300  1
  Ni  Ni19  1  0.59649100  0.67584300  0.25279300  1
  Ni  Ni20  1  0.09649100  0.82415700  0.24720700  1
  Ni  Ni21  1  0.32415700  0.40350900  0.74720700  1
  Ni  Ni22  1  0.67584300  0.59649100  0.74720700  1
  Ni  Ni23  1  0.90350900  0.17584300  0.24720700  1
  Ni  Ni24  1  0.67584300  0.40350900  0.74720700  1
  Ni  Ni25  1  0.32415700  0.59649100  0.74720700  1
  Ni  Ni26  1  0.09649100  0.17584300  0.24720700  1
  Ni  Ni27  1  0.90350900  0.82415700  0.24720700  1
  Ni  Ni28  1  0.40350900  0.67584300  0.25279300  1
  Ni  Ni29  1  0.17584300  0.09649100  0.75279300  1
  Ni  Ni30  1  0.82415700  0.90350900  0.75279300  1
  Ni  Ni31  1  0.59649100  0.32415700  0.25279300  1
  Cu  Cu32  1  0.75125700  0.24874300  0.50000000  1
  Cu  Cu33  1  0.74874300  0.74874300  0.00000000  1
  Cu  Cu34  1  0.25125700  0.25125700  0.00000000  1
  Cu  Cu35  1  0.24874300  0.75125700  0.50000000  1
  Cu  Cu36  1  0.74874300  0.25125700  0.00000000  1
  Cu  Cu37  1  0.75125700  0.75125700  0.50000000  1
  Cu  Cu38  1  0.24874300  0.24874300  0.50000000  1
  Cu  Cu39  1  0.25125700  0.74874300  0.00000000  1
  Cu  Cu40  1  0.00000000  0.00000000  0.23901300  1
  Cu  Cu41  1  0.50000000  0.50000000  0.73901300  1
  Cu  Cu42  1  0.50000000  0.50000000  0.26098700  1
  Cu  Cu43  1  0.00000000  0.00000000  0.76098700  1
  Cu  Cu44  1  0.50000000  0.00000000  0.24839100  1
  Cu  Cu45  1  0.50000000  0.00000000  0.74839100  1
  Cu  Cu46  1  0.00000000  0.50000000  0.25160900  1
  Cu  Cu47  1  0.16337300  0.50000000  0.75234600  1
  Cu  Cu48  1  0.50000000  0.33680300  0.76504900  1
  Cu  Cu49  1  0.50000000  0.66319700  0.76504900  1
  Cu  Cu50  1  0.16319700  0.00000000  0.26504900  1
  Cu  Cu51  1  0.83680300  0.00000000  0.26504900  1
  Cu  Cu52  1  0.33680300  0.50000000  0.23495100  1
  Cu  Cu53  1  0.00000000  0.16319700  0.73495100  1
  Cu  Cu54  1  0.00000000  0.83680300  0.73495100  1
  Cu  Cu55  1  0.66319700  0.50000000  0.23495100  1
  Cu  Cu56  1  0.50000000  0.83662700  0.24765400  1
  Cu  Cu57  1  0.50000000  0.16337300  0.24765400  1
  Cu  Cu58  1  0.66337300  0.00000000  0.74765400  1
  Cu  Cu59  1  0.33662700  0.00000000  0.74765400  1
  Cu  Cu60  1  0.83662700  0.50000000  0.75234600  1
  Cu  Cu61  1  0.00000000  0.66337300  0.25234600  1
  Cu  Cu62  1  0.00000000  0.33662700  0.25234600  1
  Cu  Cu63  1  0.00000000  0.50000000  0.75160900  1
