# generated using pymatgen
data_Cu2NiC12
_symmetry_space_group_name_H-M   'P 1'
_cell_length_a   6.51838519
_cell_length_b   6.06093714
_cell_length_c   5.86626630
_cell_angle_alpha   61.05692308
_cell_angle_beta   90.00000047
_cell_angle_gamma   119.48095624
_symmetry_Int_Tables_number   1
_chemical_formula_structural   Cu2NiC12
_chemical_formula_sum   'Cu2 Ni1 C12'
_cell_volume   167.70410184
_cell_formula_units_Z   1
loop_
 _symmetry_equiv_pos_site_id
 _symmetry_equiv_pos_as_xyz
  1  'x, y, z'
loop_
 _atom_site_type_symbol
 _atom_site_label
 _atom_site_symmetry_multiplicity
 _atom_site_fract_x
 _atom_site_fract_y
 _atom_site_fract_z
 _atom_site_occupancy
  Ni  Ni0  1  0.37123788  0.18500824  0.90749588  1
  Cu  Cu1  1  0.88330175  0.15925636  0.92037182  1
  Cu  Cu2  1  0.91880942  0.82297205  0.58851398  1
  C  C3  1  0.40278269  0.22814105  0.38592948  1
  C  C4  1  0.84779572  0.32512388  0.33743806  1
  C  C5  1  0.36909042  0.69160822  0.40135191  1
  C  C6  1  0.36909042  0.69160823  0.90703987  1
  C  C7  1  0.18358155  0.24468350  0.14185340  1
  C  C8  1  0.58059933  0.14998004  0.18867920  1
  C  C9  1  0.56372864  0.69552131  0.15223985  1
  C  C10  1  0.17457919  0.71198727  0.14400687  1
  C  C11  1  0.58059933  0.14998004  0.66133976  1
  C  C12  1  0.18358155  0.24468350  0.61346410  1
  C  C13  1  0.16357612  0.66866682  0.66566609  1
  C  C14  1  0.54306297  0.65577951  0.67210975  1
