# generated using pymatgen
data_Cu2Ni2C9
_symmetry_space_group_name_H-M   'P 1'
_cell_length_a   3.34109100
_cell_length_b   3.34125796
_cell_length_c   45.58404619
_cell_angle_alpha   89.99060255
_cell_angle_beta   89.99950445
_cell_angle_gamma   119.99947725
_symmetry_Int_Tables_number   1
_chemical_formula_structural   Cu2Ni2C9
_chemical_formula_sum   'Cu2 Ni2 C9'
_cell_volume   440.70105874
_cell_formula_units_Z   1
loop_
 _symmetry_equiv_pos_site_id
 _symmetry_equiv_pos_as_xyz
  1  'x, y, z'
loop_
 _atom_site_type_symbol
 _atom_site_label
 _atom_site_symmetry_multiplicity
 _atom_site_fract_x
 _atom_site_fract_y
 _atom_site_fract_z
 _atom_site_occupancy
  C  C0  1  0.99986500  0.99984600  0.19778600  1
  C  C1  1  0.66667200  0.33332800  0.04556600  1
  C  C2  1  0.66657100  0.33312800  0.12910700  1
  Ni  Ni3  1  0.33331300  0.66658500  0.08709700  1
  Ni  Ni4  1  0.66677200  0.33349600  0.28939800  1
  Cu  Cu5  1  0.33328000  0.66656600  0.46957800  1
  Cu  Cu6  1  0.66668900  0.33341700  0.65754200  1
  C  C7  1  0.33332100  0.66662500  0.69427800  1
  C  C8  1  0.66663700  0.33329900  0.43283900  1
  C  C9  1  0.66656600  0.33314100  0.50631300  1
  C  C10  1  0.33341800  0.66688600  0.62080500  1
  C  C11  1  0.33334600  0.66669500  0.32246400  1
  C  C12  1  0.33355000  0.66698700  0.25562900  1
