# generated using pymatgen
data_Cu12NiC6
_symmetry_space_group_name_H-M   'P 1'
_cell_length_a   9.34505154
_cell_length_b   9.34505154
_cell_length_c   9.34505199
_cell_angle_alpha   106.77183093
_cell_angle_beta   106.77183093
_cell_angle_gamma   106.77183497
_symmetry_Int_Tables_number   1
_chemical_formula_structural   Cu12NiC6
_chemical_formula_sum   'Cu12 Ni1 C6'
_cell_volume   683.84482754
_cell_formula_units_Z   1
loop_
 _symmetry_equiv_pos_site_id
 _symmetry_equiv_pos_as_xyz
  1  'x, y, z'
loop_
 _atom_site_type_symbol
 _atom_site_label
 _atom_site_symmetry_multiplicity
 _atom_site_fract_x
 _atom_site_fract_y
 _atom_site_fract_z
 _atom_site_occupancy
  C  C0  1  0.91528500  0.97541000  0.73750700  1
  C  C1  1  0.73750700  0.91528500  0.97541000  1
  C  C2  1  0.97541000  0.73750700  0.91528500  1
  C  C3  1  0.08471500  0.02459000  0.26249300  1
  C  C4  1  0.26249300  0.08471500  0.02459000  1
  C  C5  1  0.02459000  0.26249300  0.08471500  1
  Ni  Ni6  1  0.00000000  0.00000000  0.00000000  1
  Cu  Cu7  1  0.43549500  0.13935900  0.36200100  1
  Cu  Cu8  1  0.13935900  0.36200200  0.43549500  1
  Cu  Cu9  1  0.63799900  0.56450500  0.86064100  1
  Cu  Cu10  1  0.56450500  0.86064100  0.63799900  1
  Cu  Cu11  1  0.86064100  0.63799900  0.56450500  1
  Cu  Cu12  1  0.36200100  0.43549500  0.13935900  1
  Cu  Cu13  1  0.77637500  0.92198500  0.30379100  1
  Cu  Cu14  1  0.30379100  0.77637500  0.92198500  1
  Cu  Cu15  1  0.92198500  0.30379100  0.77637500  1
  Cu  Cu16  1  0.22362500  0.07801500  0.69620900  1
  Cu  Cu17  1  0.69620900  0.22362500  0.07801500  1
  Cu  Cu18  1  0.07801500  0.69620900  0.22362500  1
