# generated using pymatgen
data_Cu5NiC29
_symmetry_space_group_name_H-M   'P 1'
_cell_length_a   9.07350133
_cell_length_b   9.06701482
_cell_length_c   23.66863175
_cell_angle_alpha   90.01470471
_cell_angle_beta   89.92386322
_cell_angle_gamma   120.01137889
_symmetry_Int_Tables_number   1
_chemical_formula_structural   Cu5NiC29
_chemical_formula_sum   'Cu15 Ni3 C87'
_cell_volume   1686.13668552
_cell_formula_units_Z   3
loop_
 _symmetry_equiv_pos_site_id
 _symmetry_equiv_pos_as_xyz
  1  'x, y, z'
loop_
 _atom_site_type_symbol
 _atom_site_label
 _atom_site_symmetry_multiplicity
 _atom_site_fract_x
 _atom_site_fract_y
 _atom_site_fract_z
 _atom_site_occupancy
  C  C0  1  0.98843873  0.99139911  0.00418949  1
  C  C1  1  0.66898438  0.33313486  0.83363813  1
  C  C2  1  0.66149211  0.33428217  0.33678518  1
  C  C3  1  0.00253009  0.99948997  0.35626460  1
  C  C4  1  0.99801059  0.99977558  0.85956098  1
  C  C5  1  0.99767404  0.99632573  0.14890962  1
  C  C6  1  0.66069332  0.32422346  0.67669158  1
  C  C7  1  0.66913236  0.33476113  0.98040712  1
  C  C8  1  0.65761543  0.32792466  0.48978721  1
  C  C9  1  0.33457941  0.66807349  0.30820180  1
  C  C10  1  0.33423996  0.66734533  0.80457848  1
  C  C11  1  0.00422999  0.99953287  0.64775838  1
  C  C12  1  0.67414034  0.33228500  0.17881519  1
  C  C13  1  0.33264898  0.67054022  0.02454598  1
  C  C14  1  0.33319427  0.67099422  0.51796975  1
  Ni  Ni15  1  0.35650953  0.02254535  0.58322244  1
  Ni  Ni16  1  0.96403982  0.62314021  0.08061661  1
  Ni  Ni17  1  0.65981175  0.03668072  0.08066013  1
  Cu  Cu18  1  0.31369139  0.01871645  0.24680678  1
  Cu  Cu19  1  0.70416190  0.68552311  0.24706591  1
  Cu  Cu20  1  0.98546977  0.29516173  0.24722065  1
  Cu  Cu21  1  0.28560898  0.28102598  0.74804115  1
  Cu  Cu22  1  0.99343104  0.71253030  0.74794337  1
  Cu  Cu23  1  0.72062827  0.00575982  0.74780058  1
  Cu  Cu24  1  0.98116303  0.33370472  0.58324592  1
  Cu  Cu25  1  0.66633528  0.64772712  0.58344371  1
  Cu  Cu26  1  0.37981687  0.34517370  0.08191945  1
  Cu  Cu27  1  0.61315905  0.66754945  0.92011533  1
  Cu  Cu28  1  0.05476239  0.38567479  0.91973535  1
  Cu  Cu29  1  0.33027623  0.94627264  0.92002799  1
  Cu  Cu30  1  0.61826060  0.95403505  0.41833927  1
  Cu  Cu31  1  0.33670457  0.38449129  0.41862411  1
  Cu  Cu32  1  0.04541680  0.66185704  0.41868544  1
  C  C33  1  0.24981057  0.05920346  0.29854484  1
  C  C34  1  0.80876178  0.74782857  0.29871648  1
  C  C35  1  0.94400138  0.19054901  0.29862244  1
  C  C36  1  0.20655846  0.18286069  0.79917692  1
  C  C37  1  0.97566535  0.79195147  0.79921396  1
  C  C38  1  0.81665951  0.02241602  0.79935157  1
  C  C39  1  0.82465302  0.00261206  0.69631673  1
  C  C40  1  0.17734189  0.17598322  0.69627409  1
  C  C41  1  0.99662442  0.82191650  0.69641538  1
  C  C42  1  0.78504019  0.79218992  0.19808649  1
  C  C43  1  0.00948851  0.21535851  0.19773617  1
  C  C44  1  0.20819696  0.99403513  0.19766640  1
  C  C45  1  0.91788536  0.38215505  0.63223338  1
  C  C46  1  0.47080462  0.08452909  0.63429835  1
  C  C47  1  0.61963743  0.53603512  0.63239565  1
  C  C48  1  0.86510294  0.49842542  0.13363612  1
  C  C49  1  0.63423951  0.13518880  0.13384766  1
  C  C50  1  0.49433009  0.37259169  0.13256804  1
  C  C51  1  0.45163708  0.31646756  0.03138829  1
  C  C52  1  0.85762848  0.54540945  0.02933494  1
  C  C53  1  0.68130518  0.14018739  0.02914940  1
  C  C54  1  0.41816791  0.13797825  0.53248104  1
  C  C55  1  0.71651315  0.58538742  0.53457539  1
  C  C56  1  0.86913140  0.28613463  0.53438838  1
  C  C57  1  0.51120982  0.67014258  0.97182239  1
  C  C58  1  0.15881379  0.48770296  0.97127189  1
  C  C59  1  0.32770043  0.84099008  0.97202951  1
  C  C60  1  0.51247465  0.84460711  0.47057090  1
  C  C61  1  0.33339011  0.48893024  0.47058070  1
  C  C62  1  0.15560603  0.66540580  0.47051886  1
  C  C63  1  0.12490949  0.64316063  0.36794129  1
  C  C64  1  0.51877718  0.87496678  0.36784770  1
  C  C65  1  0.35482682  0.48241705  0.36773778  1
  C  C66  1  0.13749184  0.47602246  0.86774349  1
  C  C67  1  0.34041263  0.86385228  0.86846253  1
  C  C68  1  0.52391002  0.66070393  0.86807457  1
  C  C69  1  0.04550119  0.82273902  0.42042654  1
  C  C70  1  0.77851145  0.95328668  0.41990959  1
  C  C71  1  0.17716705  0.22195118  0.42009726  1
  C  C72  1  0.04736021  0.21886550  0.92432639  1
  C  C73  1  0.17060006  0.95167553  0.92456087  1
  C  C74  1  0.78027751  0.82631516  0.92453238  1
  C  C75  1  0.00945721  0.18641340  0.59799234  1
  C  C76  1  0.17152829  0.98935110  0.60076521  1
  C  C77  1  0.81187671  0.82419004  0.59835200  1
  C  C78  1  0.00533240  0.80286084  0.09225508  1
  C  C79  1  0.80243743  0.00127723  0.09172722  1
  C  C80  1  0.20734861  0.20673600  0.09188088  1
  C  C81  1  0.70374158  0.15823499  0.74144845  1
  C  C82  1  0.45523115  0.30089958  0.74066947  1
  C  C83  1  0.84292887  0.54386204  0.73988033  1
  C  C84  1  0.68585294  0.50830882  0.23413397  1
  C  C85  1  0.82291969  0.31177550  0.23534978  1
  C  C86  1  0.49008974  0.17899039  0.23425966  1
  C  C87  1  0.63039001  0.51532378  0.92328567  1
  C  C88  1  0.88411680  0.36604465  0.92243623  1
  C  C89  1  0.48056189  0.11660016  0.92379071  1
  C  C90  1  0.63723692  0.12343131  0.42631944  1
  C  C91  1  0.48956666  0.36832684  0.42557882  1
  C  C92  1  0.87739333  0.51087054  0.42764398  1
  C  C93  1  0.37256580  0.50873991  0.07454553  1
  C  C94  1  0.14115508  0.62590260  0.07205013  1
  C  C95  1  0.48762905  0.85687597  0.07260865  1
  C  C96  1  0.32269140  0.83750832  0.56598116  1
  C  C97  1  0.51999131  0.67635180  0.56881972  1
  C  C98  1  0.15720185  0.47853712  0.56847963  1
  C  C99  1  0.34705540  0.87868901  0.25429704  1
  C  C100  1  0.53102209  0.65241718  0.25452860  1
  C  C101  1  0.12324439  0.46923977  0.25445843  1
  C  C102  1  0.28551820  0.44148699  0.74546674  1
  C  C103  1  0.15381434  0.71233463  0.74548665  1
  C  C104  1  0.55845811  0.84629885  0.74568404  1
