# generated using pymatgen
data_Cu5NiC54
_symmetry_space_group_name_H-M   'P 1'
_cell_length_a   15.82003687
_cell_length_b   27.24372239
_cell_length_c   9.08081994
_cell_angle_alpha   89.78617781
_cell_angle_beta   125.08541125
_cell_angle_gamma   90.29087511
_symmetry_Int_Tables_number   1
_chemical_formula_structural   Cu5NiC54
_chemical_formula_sum   'Cu20 Ni4 C216'
_cell_volume   3202.60717128
_cell_formula_units_Z   4
loop_
 _symmetry_equiv_pos_site_id
 _symmetry_equiv_pos_as_xyz
  1  'x, y, z'
loop_
 _atom_site_type_symbol
 _atom_site_label
 _atom_site_symmetry_multiplicity
 _atom_site_fract_x
 _atom_site_fract_y
 _atom_site_fract_z
 _atom_site_occupancy
  C  C0  1  0.25556833  0.25443869  0.01461392  1
  C  C1  1  0.25891519  0.58915663  0.01802742  1
  C  C2  1  0.24762722  0.91489299  0.99790428  1
  C  C3  1  0.74878646  0.25618947  0.50259277  1
  C  C4  1  0.74283608  0.57655780  0.49687989  1
  C  C5  1  0.75075533  0.91464185  0.50657756  1
  C  C6  1  0.75891519  0.08915663  0.01802742  1
  C  C7  1  0.74762722  0.41489299  0.99790428  1
  C  C8  1  0.75556833  0.75443869  0.01461392  1
  C  C9  1  0.24283608  0.07655780  0.49687989  1
  C  C10  1  0.25075533  0.41464185  0.50657756  1
  C  C11  1  0.24878646  0.75618947  0.50259277  1
  C  C12  1  0.50245131  0.03822486  0.75398861  1
  C  C13  1  0.48818472  0.36330288  0.71856634  1
  C  C14  1  0.48910896  0.69807682  0.72604227  1
  C  C15  1  0.50087724  0.28879434  0.27004548  1
  C  C16  1  0.50126021  0.62410049  0.27658944  1
  C  C17  1  0.49998077  0.96405394  0.25433624  1
  C  C18  1  0.98910896  0.19807682  0.72604227  1
  C  C19  1  0.00245131  0.53822486  0.75398861  1
  C  C20  1  0.98818472  0.86330288  0.71856634  1
  C  C21  1  0.00126021  0.12410049  0.27658944  1
  C  C22  1  -0.00001923  0.46405394  0.25433624  1
  C  C23  1  0.00087724  0.78879434  0.27004548  1
  C  C24  1  0.80702276  0.65318494  0.24050774  1
  C  C25  1  0.81662842  0.98547168  0.25070301  1
  C  C26  1  0.20541200  0.30792555  0.29314817  1
  C  C27  1  0.20840777  0.64526241  0.28671495  1
  C  C28  1  0.81448138  0.02511881  0.68184484  1
  C  C29  1  0.81156821  0.69122716  0.67842396  1
  C  C30  1  0.30702276  0.15318494  0.24050774  1
  C  C31  1  0.31662842  0.48547168  0.25070301  1
  C  C32  1  0.70840777  0.14526241  0.28671495  1
  C  C33  1  0.70541200  0.80792555  0.29314817  1
  C  C34  1  0.31156821  0.19122716  0.67842396  1
  C  C35  1  0.31448138  0.52511881  0.68184484  1
  Ni  Ni36  1  0.89827363  0.08275749  0.43677210  1
  Ni  Ni37  1  0.89726118  0.74925850  0.43618361  1
  Ni  Ni38  1  0.39726118  0.24925850  0.43618361  1
  Ni  Ni39  1  0.39827363  0.58275749  0.43677210  1
  Cu  Cu40  1  0.10827958  0.25028387  0.57576445  1
  Cu  Cu41  1  0.10858051  0.58469379  0.57358955  1
  Cu  Cu42  1  0.10874533  0.91734528  0.57167454  1
  Cu  Cu43  1  0.88897307  0.25151287  0.93130026  1
  Cu  Cu44  1  0.89302365  0.58233097  0.93256342  1
  Cu  Cu45  1  0.89657386  0.91733222  0.93550461  1
  Cu  Cu46  1  0.89072449  0.41515649  0.43038081  1
  Cu  Cu47  1  0.10254318  0.08128597  0.05827058  1
  Cu  Cu48  1  0.10642331  0.41549473  0.06747305  1
  Cu  Cu49  1  0.10772099  0.75066414  0.06063927  1
  Cu  Cu50  1  0.60858051  0.08469379  0.57358955  1
  Cu  Cu51  1  0.60874533  0.41734528  0.57167454  1
  Cu  Cu52  1  0.60827958  0.75028387  0.57576445  1
  Cu  Cu53  1  0.39302365  0.08233097  0.93256342  1
  Cu  Cu54  1  0.39657386  0.41733222  0.93550461  1
  Cu  Cu55  1  0.38897307  0.75151287  0.93130026  1
  Cu  Cu56  1  0.39072449  0.91515649  0.43038081  1
  Cu  Cu57  1  0.60772099  0.25066414  0.06063927  1
  Cu  Cu58  1  0.60254318  0.58128597  0.05827058  1
  Cu  Cu59  1  0.60642331  0.91549473  0.06747305  1
  C  C60  1  0.00005181  0.31921921  0.75044560  1
  C  C61  1  0.00035420  0.65346909  0.74359143  1
  C  C62  1  0.99783342  0.98559795  0.73461121  1
  C  C63  1  0.00246371  0.01402708  0.24956925  1
  C  C64  1  0.00077633  0.34625600  0.25179535  1
  C  C65  1  0.00174833  0.68007964  0.24816731  1
  C  C66  1  0.50035420  0.15346909  0.74359143  1
  C  C67  1  0.49783342  0.48559795  0.73461121  1
  C  C68  1  0.50005181  0.81921921  0.75044560  1
  C  C69  1  0.50174833  0.18007964  0.24816731  1
  C  C70  1  0.50246371  0.51402708  0.24956925  1
  C  C71  1  0.50077633  0.84625600  0.25179535  1
  C  C72  1  0.35491096  0.29774499  0.75206365  1
  C  C73  1  0.35253800  0.63168929  0.74714936  1
  C  C74  1  0.35561271  0.96360547  0.75403088  1
  C  C75  1  0.64104982  0.29785293  0.73123973  1
  C  C76  1  0.64434681  0.63027034  0.74092356  1
  C  C77  1  0.64554052  0.96353966  0.74365576  1
  C  C78  1  0.64415282  0.03424729  0.24553306  1
  C  C79  1  0.64275251  0.36812249  0.24687777  1
  C  C80  1  0.64028530  0.70123396  0.24104560  1
  C  C81  1  0.35478979  0.03591168  0.25700382  1
  C  C82  1  0.35641344  0.36938911  0.25691795  1
  C  C83  1  0.35536941  0.70415641  0.25766574  1
  C  C84  1  0.85253800  0.13168929  0.74714936  1
  C  C85  1  0.85561271  0.46360547  0.75403088  1
  C  C86  1  0.85491096  0.79774499  0.75206365  1
  C  C87  1  0.14434681  0.13027034  0.74092356  1
  C  C88  1  0.14554052  0.46353966  0.74365576  1
  C  C89  1  0.14104982  0.79785293  0.73123973  1
  C  C90  1  0.14028530  0.20123396  0.24104560  1
  C  C91  1  0.14415282  0.53424729  0.24553306  1
  C  C92  1  0.14275251  0.86812249  0.24687777  1
  C  C93  1  0.85536941  0.20415641  0.25766574  1
  C  C94  1  0.85478979  0.53591168  0.25700382  1
  C  C95  1  0.85641344  0.86938911  0.25691795  1
  C  C96  1  0.15328019  0.19155291  0.74477757  1
  C  C97  1  0.14869899  0.52384262  0.74049850  1
  C  C98  1  0.14932097  0.85857408  0.74373945  1
  C  C99  1  0.84574194  0.19109999  0.76779129  1
  C  C100  1  0.84883162  0.52361750  0.75454462  1
  C  C101  1  0.84824264  0.85744460  0.77235433  1
  C  C102  1  0.84487472  0.14532780  0.25034054  1
  C  C103  1  0.84982354  0.47564266  0.26131142  1
  C  C104  1  0.84224638  0.81092898  0.24590861  1
  C  C105  1  0.14542605  0.14056593  0.23885011  1
  C  C106  1  0.15189884  0.47315042  0.24744349  1
  C  C107  1  0.14630170  0.80812653  0.23905426  1
  C  C108  1  0.64869899  0.02384262  0.74049850  1
  C  C109  1  0.64932097  0.35857408  0.74373945  1
  C  C110  1  0.65328019  0.69155291  0.74477757  1
  C  C111  1  0.34883162  0.02361750  0.75454462  1
  C  C112  1  0.34824264  0.35744460  0.77235433  1
  C  C113  1  0.34574194  0.69109999  0.76779129  1
  C  C114  1  0.34224638  0.31092898  0.24590861  1
  C  C115  1  0.34487472  0.64532780  0.25034054  1
  C  C116  1  0.34982354  0.97564266  0.26131142  1
  C  C117  1  0.64630170  0.30812653  0.23905426  1
  C  C118  1  0.64542605  0.64056593  0.23885011  1
  C  C119  1  0.65189884  0.97315042  0.24744349  1
  C  C120  1  0.41974356  0.18370402  0.56515385  1
  C  C121  1  0.41804284  0.51598824  0.55467323  1
  C  C122  1  0.43649893  0.85655670  0.57707163  1
  C  C123  1  0.56858028  0.18882329  0.92519164  1
  C  C124  1  0.56221049  0.52384833  0.91077071  1
  C  C125  1  0.56741673  0.85500381  0.93077958  1
  C  C126  1  0.56812409  0.14175514  0.42354167  1
  C  C127  1  0.56553622  0.47635787  0.42458134  1
  C  C128  1  0.56903749  0.80940337  0.42556545  1
  C  C129  1  0.44327501  0.14124431  0.07699837  1
  C  C130  1  0.44239567  0.47799403  0.07084208  1
  C  C131  1  0.43690307  0.81282038  0.07096989  1
  C  C132  1  0.91804284  0.01598824  0.55467323  1
  C  C133  1  0.93649893  0.35655670  0.57707163  1
  C  C134  1  0.91974356  0.68370402  0.56515385  1
  C  C135  1  0.06221049  0.02384833  0.91077071  1
  C  C136  1  0.06741673  0.35500381  0.93077958  1
  C  C137  1  0.06858028  0.68882329  0.92519164  1
  C  C138  1  0.06903749  0.30940337  0.42556545  1
  C  C139  1  0.06812409  0.64175514  0.42354167  1
  C  C140  1  0.06553622  0.97635787  0.42458134  1
  C  C141  1  0.93690307  0.31282038  0.07096989  1
  C  C142  1  0.94327501  0.64124431  0.07699837  1
  C  C143  1  0.94239567  0.97799403  0.07084208  1
  C  C144  1  0.25983765  0.26958766  0.74507701  1
  C  C145  1  0.25960262  0.60237234  0.74563958  1
  C  C146  1  0.25846913  0.93793610  0.74010638  1
  C  C147  1  0.74596105  0.27579450  0.76053276  1
  C  C148  1  0.75029499  0.61036896  0.76345614  1
  C  C149  1  0.74592511  0.94311563  0.75447607  1
  C  C150  1  0.73405908  0.05986483  0.23997982  1
  C  C151  1  0.74407666  0.39293083  0.26718867  1
  C  C152  1  0.73347020  0.72638325  0.24417817  1
  C  C153  1  0.25965953  0.06444290  0.24157208  1
  C  C154  1  0.25828568  0.39649345  0.24543852  1
  C  C155  1  0.25744758  0.72996365  0.24619848  1
  C  C156  1  0.75960262  0.10237234  0.74563958  1
  C  C157  1  0.75846913  0.43793610  0.74010638  1
  C  C158  1  0.75983765  0.76958766  0.74507701  1
  C  C159  1  0.25029499  0.11036896  0.76345614  1
  C  C160  1  0.24592511  0.44311563  0.75447607  1
  C  C161  1  0.24596105  0.77579450  0.76053276  1
  C  C162  1  0.23347020  0.22638325  0.24417817  1
  C  C163  1  0.23405908  0.55986483  0.23997982  1
  C  C164  1  0.24407666  0.89293083  0.26718867  1
  C  C165  1  0.75744758  0.22996365  0.24619848  1
  C  C166  1  0.75965953  0.56444290  0.24157208  1
  C  C167  1  0.75828568  0.89649345  0.24543852  1
  C  C168  1  0.35306004  0.28850933  0.57607354  1
  C  C169  1  0.34967359  0.62093927  0.57133021  1
  C  C170  1  0.36324822  0.95068369  0.58493995  1
  C  C171  1  0.63601224  0.28334311  0.90711152  1
  C  C172  1  0.64533325  0.61857394  0.92268270  1
  C  C173  1  0.64449108  0.95007930  0.92240137  1
  C  C174  1  0.64512521  0.04655162  0.42580100  1
  C  C175  1  0.63684039  0.38128465  0.41726956  1
  C  C176  1  0.64290479  0.71441914  0.42410295  1
  C  C177  1  0.35780015  0.04957097  0.08288753  1
  C  C178  1  0.35990845  0.39043876  0.08960267  1
  C  C179  1  0.35731254  0.72315140  0.08728453  1
  C  C180  1  0.84967359  0.12093927  0.57133021  1
  C  C181  1  0.86324822  0.45068369  0.58493995  1
  C  C182  1  0.85306004  0.78850933  0.57607354  1
  C  C183  1  0.14533325  0.11857394  0.92268270  1
  C  C184  1  0.14449108  0.45007930  0.92240137  1
  C  C185  1  0.13601224  0.78334311  0.90711152  1
  C  C186  1  0.14290479  0.21441914  0.42410295  1
  C  C187  1  0.14512521  0.54655162  0.42580100  1
  C  C188  1  0.13684039  0.88128465  0.41726956  1
  C  C189  1  0.85731254  0.22315140  0.08728453  1
  C  C190  1  0.85780015  0.54957097  0.08288753  1
  C  C191  1  0.85990845  0.89043876  0.08960267  1
  C  C192  1  0.46325441  0.27534519  0.93414538  1
  C  C193  1  0.46247859  0.60905236  0.92686088  1
  C  C194  1  0.46526055  0.94359679  0.93810824  1
  C  C195  1  0.53920158  0.27838702  0.55118646  1
  C  C196  1  0.54261239  0.61076625  0.56081242  1
  C  C197  1  0.53741671  0.94304678  0.56482147  1
  C  C198  1  0.52971582  0.04891988  0.06797621  1
  C  C199  1  0.53672126  0.38821723  0.06243827  1
  C  C200  1  0.52922443  0.72131234  0.06682720  1
  C  C201  1  0.46438845  0.05562210  0.43881701  1
  C  C202  1  0.46191428  0.39085646  0.44141075  1
  C  C203  1  0.46522539  0.72354427  0.44210610  1
  C  C204  1  0.96247859  0.10905236  0.92686088  1
  C  C205  1  0.96526055  0.44359679  0.93810824  1
  C  C206  1  0.96325441  0.77534519  0.93414538  1
  C  C207  1  0.04261239  0.11076625  0.56081242  1
  C  C208  1  0.03741671  0.44304678  0.56482147  1
  C  C209  1  0.03920158  0.77838702  0.55118646  1
  C  C210  1  0.02922443  0.22131234  0.06682720  1
  C  C211  1  0.02971582  0.54891988  0.06797621  1
  C  C212  1  0.03672126  0.88821723  0.06243827  1
  C  C213  1  0.96522539  0.22354427  0.44210610  1
  C  C214  1  0.96438845  0.55562210  0.43881701  1
  C  C215  1  0.96191428  0.89085646  0.44141075  1
  C  C216  1  0.08258095  0.28504112  0.74322018  1
  C  C217  1  0.08389543  0.61716892  0.74320958  1
  C  C218  1  0.08467660  0.95021337  0.74581768  1
  C  C219  1  0.91973933  0.28278630  0.75483229  1
  C  C220  1  0.92899882  0.61455401  0.77227548  1
  C  C221  1  0.92236195  0.94894165  0.76058582  1
  C  C222  1  0.91778895  0.04772868  0.24456798  1
  C  C223  1  0.92318427  0.38375413  0.26068525  1
  C  C224  1  0.91655810  0.71257367  0.24447542  1
  C  C225  1  0.08698641  0.04766358  0.24261512  1
  C  C226  1  0.08742991  0.37998947  0.24832633  1
  C  C227  1  0.08914925  0.71226140  0.24588347  1
  C  C228  1  0.58389543  0.11716892  0.74320958  1
  C  C229  1  0.58467660  0.45021337  0.74581768  1
  C  C230  1  0.58258095  0.78504112  0.74322018  1
  C  C231  1  0.42899882  0.11455401  0.77227548  1
  C  C232  1  0.42236195  0.44894165  0.76058582  1
  C  C233  1  0.41973933  0.78278630  0.75483229  1
  C  C234  1  0.41655810  0.21257367  0.24447542  1
  C  C235  1  0.41778895  0.54772868  0.24456798  1
  C  C236  1  0.42318427  0.88375413  0.26068525  1
  C  C237  1  0.58914925  0.21226140  0.24588347  1
  C  C238  1  0.58698641  0.54766358  0.24261512  1
  C  C239  1  0.58742991  0.87998947  0.24832633  1
