# generated using pymatgen
data_Cu(NiC11)3
_symmetry_space_group_name_H-M   'P 1'
_cell_length_a   8.61492072
_cell_length_b   8.61207466
_cell_length_c   8.38623792
_cell_angle_alpha   61.52873515
_cell_angle_beta   61.47253972
_cell_angle_gamma   60.78720308
_symmetry_Int_Tables_number   1
_chemical_formula_structural   Cu(NiC11)3
_chemical_formula_sum   'Cu1 Ni3 C33'
_cell_volume   452.40515038
_cell_formula_units_Z   1
loop_
 _symmetry_equiv_pos_site_id
 _symmetry_equiv_pos_as_xyz
  1  'x, y, z'
loop_
 _atom_site_type_symbol
 _atom_site_label
 _atom_site_symmetry_multiplicity
 _atom_site_fract_x
 _atom_site_fract_y
 _atom_site_fract_z
 _atom_site_occupancy
  C  C0  1  0.86872100  0.63256100  0.24802200  1
  C  C1  1  0.00309000  0.00563300  0.99517400  1
  C  C2  1  0.49118900  0.49432100  0.50831300  1
  Ni  Ni3  1  0.15238100  0.14097000  0.14404000  1
  Ni  Ni4  1  0.35834400  0.35241700  0.35794200  1
  Ni  Ni5  1  0.64229100  0.64906000  0.65206300  1
  Cu  Cu6  1  0.84739300  0.85988100  0.85196800  1
  C  C7  1  0.03936300  0.74794200  0.44369700  1
  C  C8  1  0.44801500  0.04145900  0.75296900  1
  C  C9  1  0.75524200  0.45062800  0.06174800  1
  C  C10  1  0.26109200  0.54089400  0.95571100  1
  C  C11  1  0.55014100  0.96187400  0.24734300  1
  C  C12  1  0.96208400  0.24458300  0.54275100  1
  C  C13  1  0.11505100  0.32257000  0.47760800  1
  C  C14  1  0.34797200  0.49552700  0.09932000  1
  C  C15  1  0.05697700  0.91148800  0.24491800  1
  C  C16  1  0.51559700  0.11238300  0.31520300  1
  C  C17  1  0.97580700  0.80763800  0.61213600  1
  C  C18  1  0.23559400  0.59320300  0.43029200  1
  C  C19  1  0.24798000  0.04942200  0.91521400  1
  C  C20  1  0.41545700  0.23985500  0.60332800  1
  C  C21  1  0.18889000  0.38814500  0.00268200  1
  C  C22  1  0.59611500  0.42318700  0.25747300  1
  C  C23  1  0.08527900  0.73037300  0.97354200  1
  C  C24  1  0.39476700  0.99914100  0.18254000  1
  C  C25  1  0.59613600  0.00383200  0.82611900  1
  C  C26  1  0.91361800  0.25321300  0.05680600  1
  C  C27  1  0.40453200  0.57159200  0.74902800  1
  C  C28  1  0.82280400  0.58916500  0.05774100  1
  C  C29  1  0.58392600  0.75677600  0.39404600  1
  C  C30  1  0.75692100  0.93417500  0.09255100  1
  C  C31  1  0.77202900  0.41711200  0.53749800  1
  C  C32  1  0.99720200  0.16333700  0.39678300  1
  C  C33  1  0.48973600  0.88879900  0.67873800  1
  C  C34  1  0.94580800  0.09853900  0.74724300  1
  C  C35  1  0.69875300  0.52310000  0.88514200  1
  C  C36  1  0.89338600  0.68333300  0.45231300  1
