# generated using pymatgen
data_Cu2NiC11
_symmetry_space_group_name_H-M   'P 1'
_cell_length_a   4.03957050
_cell_length_b   3.82031036
_cell_length_c   16.04626571
_cell_angle_alpha   89.99819569
_cell_angle_beta   90.19959971
_cell_angle_gamma   89.97893868
_symmetry_Int_Tables_number   1
_chemical_formula_structural   Cu2NiC11
_chemical_formula_sum   'Cu2 Ni1 C11'
_cell_volume   247.63108024
_cell_formula_units_Z   1
loop_
 _symmetry_equiv_pos_site_id
 _symmetry_equiv_pos_as_xyz
  1  'x, y, z'
loop_
 _atom_site_type_symbol
 _atom_site_label
 _atom_site_symmetry_multiplicity
 _atom_site_fract_x
 _atom_site_fract_y
 _atom_site_fract_z
 _atom_site_occupancy
  C  C0  1  0.49586257  0.49983351  0.24785585  1
  C  C1  1  0.50122351  0.50016463  0.73861820  1
  C  C2  1  0.49967405  0.50006277  0.50096020  1
  Ni  Ni3  1  0.50538348  0.99967680  0.05476212  1
  Cu  Cu4  1  0.99818329  -0.00004507  0.38496694  1
  Cu  Cu5  1  0.00001565  0.00030909  0.62245348  1
  C  C6  1  0.00329766  0.00004921  0.90768337  1
  C  C7  1  0.99636934  0.99990560  0.25917996  1
  C  C8  1  0.99879641  0.49992789  0.43358670  1
  C  C9  1  0.49859220  -0.00000573  0.41184193  1
  C  C10  1  0.49962720  0.00025787  0.59697128  1
  C  C11  1  0.50208113  0.49968510  0.08305942  1
  C  C12  1  0.99950067  0.50011523  0.60752976  1
  C  C13  1  0.00139184  0.00006410  0.76053079  1
