# generated using pymatgen
data_CuNiC14
_symmetry_space_group_name_H-M   'P 1'
_cell_length_a   7.12626174
_cell_length_b   7.12626174
_cell_length_c   7.12626174
_cell_angle_alpha   60.00000000
_cell_angle_beta   60.00000000
_cell_angle_gamma   60.00000000
_symmetry_Int_Tables_number   1
_chemical_formula_structural   CuNiC14
_chemical_formula_sum   'Cu1 Ni1 C14'
_cell_volume   255.90001444
_cell_formula_units_Z   1
loop_
 _symmetry_equiv_pos_site_id
 _symmetry_equiv_pos_as_xyz
  1  'x, y, z'
loop_
 _atom_site_type_symbol
 _atom_site_label
 _atom_site_symmetry_multiplicity
 _atom_site_fract_x
 _atom_site_fract_y
 _atom_site_fract_z
 _atom_site_occupancy
  C  C0  1  0.75000000  0.75000000  0.75000000  1
  C  C1  1  0.25000000  0.25000000  0.25000000  1
  Ni  Ni2  1  0.00000000  0.00000000  0.00000000  1
  Cu  Cu3  1  0.50000000  0.50000000  0.50000000  1
  C  C4  1  0.81318400  0.18681600  0.81318400  1
  C  C5  1  0.18681600  0.81318400  0.18681600  1
  C  C6  1  0.81318400  0.81318400  0.18681600  1
  C  C7  1  0.18681600  0.81318400  0.81318400  1
  C  C8  1  0.18681600  0.18681600  0.81318400  1
  C  C9  1  0.81318400  0.18681600  0.18681600  1
  C  C10  1  0.30393300  0.69606700  0.69606700  1
  C  C11  1  0.69606700  0.69606700  0.30393300  1
  C  C12  1  0.30393300  0.69606700  0.30393300  1
  C  C13  1  0.69606700  0.30393300  0.69606700  1
  C  C14  1  0.30393300  0.30393300  0.69606700  1
  C  C15  1  0.69606700  0.30393300  0.30393300  1
