# generated using pymatgen
data_Cu2NiC
_symmetry_space_group_name_H-M   'P 1'
_cell_length_a   6.92223800
_cell_length_b   7.26954600
_cell_length_c   10.65459400
_cell_angle_alpha   90.00000000
_cell_angle_beta   90.00000000
_cell_angle_gamma   90.00000000
_symmetry_Int_Tables_number   1
_chemical_formula_structural   Cu2NiC
_chemical_formula_sum   'Cu16 Ni8 C8'
_cell_volume   536.15544565
_cell_formula_units_Z   8
loop_
 _symmetry_equiv_pos_site_id
 _symmetry_equiv_pos_as_xyz
  1  'x, y, z'
loop_
 _atom_site_type_symbol
 _atom_site_label
 _atom_site_symmetry_multiplicity
 _atom_site_fract_x
 _atom_site_fract_y
 _atom_site_fract_z
 _atom_site_occupancy
  C  C0  1  0.15563800  0.29373100  0.62704100  1
  C  C1  1  0.65563800  0.20626900  0.37295900  1
  C  C2  1  0.84436200  0.79373100  0.87295900  1
  C  C3  1  0.34436200  0.70626900  0.12704100  1
  C  C4  1  0.84436200  0.70626900  0.37295900  1
  C  C5  1  0.34436200  0.79373100  0.62704100  1
  C  C6  1  0.15563800  0.20626900  0.12704100  1
  C  C7  1  0.65563800  0.29373100  0.87295900  1
  Ni  Ni8  1  0.66597000  0.39586600  0.61528000  1
  Ni  Ni9  1  0.33403000  0.60413400  0.38472000  1
  Ni  Ni10  1  0.83403000  0.89586600  0.61528000  1
  Ni  Ni11  1  0.66597000  0.10413400  0.11528000  1
  Ni  Ni12  1  0.16597000  0.39586600  0.88472000  1
  Ni  Ni13  1  0.16597000  0.10413400  0.38472000  1
  Ni  Ni14  1  0.33403000  0.89586600  0.88472000  1
  Ni  Ni15  1  0.83403000  0.60413400  0.11528000  1
  Cu  Cu16  1  0.92030400  0.56113000  0.21249000  1
  Cu  Cu17  1  0.42030400  0.93887000  0.78751000  1
  Cu  Cu18  1  0.07969600  0.06113000  0.28751000  1
  Cu  Cu19  1  0.42030400  0.56113000  0.28751000  1
  Cu  Cu20  1  0.57969600  0.43887000  0.71249000  1
  Cu  Cu21  1  0.07969600  0.43887000  0.78751000  1
  Cu  Cu22  1  0.57969600  0.06113000  0.21249000  1
  Cu  Cu23  1  0.92030400  0.93887000  0.71249000  1
  Cu  Cu24  1  0.74297100  0.62725500  0.01662600  1
  Cu  Cu25  1  0.24297100  0.87274500  0.98337400  1
  Cu  Cu26  1  0.25702900  0.12725500  0.48337400  1
  Cu  Cu27  1  0.75702900  0.37274500  0.51662600  1
  Cu  Cu28  1  0.25702900  0.37274500  0.98337400  1
  Cu  Cu29  1  0.75702900  0.12725500  0.01662600  1
  Cu  Cu30  1  0.74297100  0.87274500  0.51662600  1
  Cu  Cu31  1  0.24297100  0.62725500  0.48337400  1
