# generated using pymatgen
data_Cu3NiC35
_symmetry_space_group_name_H-M   'P 1'
_cell_length_a   8.88175630
_cell_length_b   8.88024493
_cell_length_c   22.13067625
_cell_angle_alpha   90.29638144
_cell_angle_beta   89.72802923
_cell_angle_gamma   119.95460041
_symmetry_Int_Tables_number   1
_chemical_formula_structural   Cu3NiC35
_chemical_formula_sum   'Cu9 Ni3 C105'
_cell_volume   1512.30868720
_cell_formula_units_Z   3
loop_
 _symmetry_equiv_pos_site_id
 _symmetry_equiv_pos_as_xyz
  1  'x, y, z'
loop_
 _atom_site_type_symbol
 _atom_site_label
 _atom_site_symmetry_multiplicity
 _atom_site_fract_x
 _atom_site_fract_y
 _atom_site_fract_z
 _atom_site_occupancy
  C  C0  1  0.00122040  0.63473124  0.25364232  1
  C  C1  1  0.30067568  0.33942873  0.58635223  1
  C  C2  1  0.03152024  0.69678222  0.58198792  1
  C  C3  1  0.66762998  0.95989182  0.58097117  1
  C  C4  1  0.66594981  0.70073307  0.08227584  1
  C  C5  1  0.03628369  0.33860584  0.08458105  1
  C  C6  1  0.97937128  0.68008625  0.91301233  1
  C  C7  1  0.32527807  0.29544239  0.91042222  1
  C  C8  1  0.69829107  0.67556506  0.41714066  1
  C  C9  1  0.00069618  0.00455459  0.49557036  1
  C  C10  1  0.00086724  0.99643024  0.99633059  1
  C  C11  1  0.66063820  0.32126632  0.82451406  1
  C  C12  1  0.65432793  0.30705792  0.33232939  1
  C  C13  1  0.33718705  0.67796395  0.17036866  1
  C  C14  1  0.33308814  0.65852176  0.66657662  1
  Ni  Ni15  1  0.67282435  0.33706651  0.97682133  1
  Ni  Ni16  1  0.68642090  0.33730357  0.47937166  1
  Ni  Ni17  1  0.33523991  0.66242202  0.81439754  1
  Cu  Cu18  1  0.00087299  0.00462660  0.35231267  1
  Cu  Cu19  1  0.00060723  0.00699731  0.84721369  1
  Cu  Cu20  1  0.99793593  0.00813604  0.65440088  1
  Cu  Cu21  1  0.00521296  0.99354003  0.15412949  1
  Cu  Cu22  1  0.66480592  0.34262994  0.68453565  1
  Cu  Cu23  1  0.66544569  0.33007727  0.18456354  1
  Cu  Cu24  1  0.32765564  0.67290866  0.01167850  1
  Cu  Cu25  1  0.33346175  0.66757015  0.51007682  1
  Cu  Cu26  1  0.33598582  0.67623370  0.32364725  1
  C  C27  1  0.29860492  0.29665000  0.75124763  1
  C  C28  1  0.96017293  0.33520478  0.58550134  1
  C  C29  1  0.66546244  0.62495218  0.58280466  1
  C  C30  1  0.96093252  0.62669956  0.08425746  1
  C  C31  1  0.62628964  0.67046893  0.91940762  1
  C  C32  1  0.04110802  0.37208107  0.91838755  1
  C  C33  1  0.33717169  0.95994629  0.91704929  1
  C  C34  1  0.62967892  0.96514019  0.41779289  1
  C  C35  1  0.03941035  0.66921361  0.41684329  1
  C  C36  1  0.29737564  0.00193102  0.25001213  1
  C  C37  1  0.69822916  0.70194627  0.24927855  1
  C  C38  1  0.00202783  0.29514252  0.24848020  1
  C  C39  1  0.00441483  0.70409529  0.75152299  1
  C  C40  1  0.69900153  0.99687802  0.75076657  1
  C  C41  1  0.37718013  0.04345388  0.58326611  1
  C  C42  1  0.66353472  0.04240112  0.08303566  1
  C  C43  1  0.37455798  0.33047118  0.08276630  1
  C  C44  1  0.33502373  0.36796162  0.41764673  1
  C  C45  1  0.21306387  0.02411843  0.30390966  1
  C  C46  1  0.81055519  0.78597931  0.30260576  1
  C  C47  1  0.98151105  0.18702638  0.30098684  1
  C  C48  1  0.21470879  0.19231950  0.80853603  1
  C  C49  1  0.98139766  0.78587379  0.80656374  1
  C  C50  1  0.80624400  0.01848174  0.80397376  1
  C  C51  1  0.76841051  0.96367241  0.69406778  1
  C  C52  1  0.19015191  0.22576354  0.69309151  1
  C  C53  1  0.03082294  0.80751346  0.69610962  1
  C  C54  1  0.77757906  0.80379010  0.19258622  1
  C  C55  1  0.02014911  0.21670339  0.19058061  1
  C  C56  1  0.19064559  0.97181502  0.19439910  1
  C  C57  1  0.87349356  0.36327518  0.63992330  1
  C  C58  1  0.48224216  0.11926270  0.63791210  1
  C  C59  1  0.62981757  0.50953105  0.63748542  1
  C  C60  1  0.87609061  0.51482754  0.14038011  1
  C  C61  1  0.64071341  0.12058151  0.13795078  1
  C  C62  1  0.48221465  0.35531733  0.13598038  1
  C  C63  1  0.46030031  0.31111006  0.02657902  1
  C  C64  1  0.83747816  0.52438720  0.02730347  1
  C  C65  1  0.68499440  0.15498767  0.02905056  1
  C  C66  1  0.46409783  0.15449647  0.52935337  1
  C  C67  1  0.68991638  0.53193218  0.52529806  1
  C  C68  1  0.84074418  0.31154437  0.52840331  1
  C  C69  1  0.55041860  0.69185650  0.97854404  1
  C  C70  1  0.14536630  0.44446240  0.97682038  1
  C  C71  1  0.29869041  0.85078876  0.97367502  1
  C  C72  1  0.55559020  0.85536021  0.47571975  1
  C  C73  1  0.30931121  0.44241300  0.47423582  1
  C  C74  1  0.14136064  0.69147371  0.47463637  1
  C  C75  1  0.10932725  0.63145194  0.35878033  1
  C  C76  1  0.51728824  0.88737137  0.36216054  1
  C  C77  1  0.37003699  0.48306734  0.36506698  1
  C  C78  1  0.13146537  0.50078047  0.86501183  1
  C  C79  1  0.36548867  0.86907975  0.86177404  1
  C  C80  1  0.50025503  0.63396393  0.86551125  1
  C  C81  1  0.00317553  0.82144365  0.41179992  1
  C  C82  1  0.81291887  0.98656308  0.41132923  1
  C  C83  1  0.18317113  0.19362477  0.41076993  1
  C  C84  1  0.01645334  0.19154790  0.90983670  1
  C  C85  1  0.18024474  0.98827356  0.90979045  1
  C  C86  1  0.81217437  0.81757068  0.91010592  1
  C  C87  1  0.97190166  0.16661700  0.58518737  1
  C  C88  1  0.20196164  0.02764678  0.58659841  1
  C  C89  1  0.83551188  0.80492340  0.58616630  1
  C  C90  1  0.96378482  0.80219906  0.08475454  1
  C  C91  1  0.82791231  0.03331702  0.08418181  1
  C  C92  1  0.19769492  0.17653812  0.08535763  1
  C  C93  1  0.67659301  0.14917988  0.74578864  1
  C  C94  1  0.48262767  0.32365349  0.74662606  1
  C  C95  1  0.85304914  0.52740444  0.74758963  1
  C  C96  1  0.68901331  0.52866739  0.24486235  1
  C  C97  1  0.84482159  0.31743842  0.24633229  1
  C  C98  1  0.47224392  0.15794905  0.24430689  1
  C  C99  1  0.63679256  0.49424442  0.92371398  1
  C  C100  1  0.85864136  0.36395069  0.92396556  1
  C  C101  1  0.50346441  0.14684065  0.92464481  1
  C  C102  1  0.64642403  0.14952780  0.42698960  1
  C  C103  1  0.49812032  0.35528287  0.42329455  1
  C  C104  1  0.84879361  0.50005136  0.42409392  1
  C  C105  1  0.35903352  0.49030210  0.07877371  1
  C  C106  1  0.13888266  0.63934414  0.07739612  1
  C  C107  1  0.51483268  0.86417824  0.07759484  1
  C  C108  1  0.35442549  0.86607862  0.57745181  1
  C  C109  1  0.50499315  0.64910857  0.57642675  1
  C  C110  1  0.14215899  0.49648523  0.57759876  1
  C  C111  1  0.31007276  0.84021175  0.25395529  1
  C  C112  1  0.52371440  0.68143474  0.25489846  1
  C  C113  1  0.15775630  0.47276095  0.25244999  1
  C  C114  1  0.31460114  0.48490669  0.76167653  1
  C  C115  1  0.16721468  0.69004178  0.75771851  1
  C  C116  1  0.52184525  0.83446722  0.75838047  1
