# generated using pymatgen
data_Cu(NiC8)2
_symmetry_space_group_name_H-M   'P 1'
_cell_length_a   8.96246627
_cell_length_b   8.96246596
_cell_length_c   23.03003066
_cell_angle_alpha   90.09241444
_cell_angle_beta   89.90758556
_cell_angle_gamma   120.50546407
_symmetry_Int_Tables_number   1
_chemical_formula_structural   Cu(NiC8)2
_chemical_formula_sum   'Cu6 Ni12 C96'
_cell_volume   1593.84032206
_cell_formula_units_Z   6
loop_
 _symmetry_equiv_pos_site_id
 _symmetry_equiv_pos_as_xyz
  1  'x, y, z'
loop_
 _atom_site_type_symbol
 _atom_site_label
 _atom_site_symmetry_multiplicity
 _atom_site_fract_x
 _atom_site_fract_y
 _atom_site_fract_z
 _atom_site_occupancy
  Ni  Ni0  1  0.36571176  0.36143108  0.24927871  1
  Ni  Ni1  1  0.63856892  0.63428824  0.74927871  1
  Ni  Ni2  1  0.03237876  0.69476408  0.58261171  1
  Ni  Ni3  1  0.30523592  0.96762124  0.08261171  1
  Ni  Ni4  1  0.69904476  0.02809808  0.91594571  1
  Ni  Ni5  1  0.97190192  0.30095524  0.41594571  1
  Ni  Ni6  1  0.99984818  0.99940943  0.49780811  1
  Ni  Ni7  1  0.00059057  0.00015182  0.99780811  1
  Ni  Ni8  1  0.66651518  0.33274243  0.83114111  1
  Ni  Ni9  1  0.66725757  0.33348482  0.33114111  1
  Ni  Ni10  1  0.33318118  0.66607643  0.16447511  1
  Ni  Ni11  1  0.33392357  0.66681882  0.66447511  1
  C  C12  1  0.00120512  0.00757408  0.64768970  1
  C  C13  1  0.99242592  0.99879488  0.14768970  1
  C  C14  1  0.66787212  0.34090708  0.98102270  1
  C  C15  1  0.65909292  0.33212788  0.48102270  1
  C  C16  1  0.33453812  0.67424108  0.31435670  1
  C  C17  1  0.32575892  0.66546188  0.81435670  1
  Cu  Cu18  1  0.99891801  0.99216245  0.35173016  1
  Cu  Cu19  1  0.00783755  0.00108199  0.85173016  1
  Cu  Cu20  1  0.66558501  0.32549545  0.68506316  1
  Cu  Cu21  1  0.67450455  0.33441499  0.18506316  1
  Cu  Cu22  1  0.33225101  0.65882945  0.01839716  1
  Cu  Cu23  1  0.34117055  0.66774899  0.51839716  1
  C  C24  1  0.29056150  0.99982710  0.24943688  1
  C  C25  1  0.70814355  0.70694391  0.25075469  1
  C  C26  1  0.99722712  0.28996880  0.25174007  1
  C  C27  1  0.29305609  0.29185644  0.75075469  1
  C  C28  1  0.00017290  0.70943850  0.74943688  1
  C  C29  1  0.71003120  0.00277288  0.75174007  1
  C  C30  1  0.95722850  0.33316010  0.58276988  1
  C  C31  1  0.37481055  0.04027691  0.58408769  1
  C  C32  1  0.66389412  0.62330180  0.58507307  1
  C  C33  1  0.95972309  0.62518944  0.08408769  1
  C  C34  1  0.66683990  0.04277150  0.08276988  1
  C  C35  1  0.37669820  0.33610588  0.08507307  1
  C  C36  1  0.62389450  0.66649410  0.91610388  1
  C  C37  1  0.04147655  0.37361091  0.91742169  1
  C  C38  1  0.33056012  0.95663580  0.91840707  1
  C  C39  1  0.62638909  0.95852344  0.41742169  1
  C  C40  1  0.33350590  0.37610550  0.41610388  1
  C  C41  1  0.04336420  0.66943988  0.41840707  1
  C  C42  1  0.20639758  0.03123916  0.30253842  1
  C  C43  1  0.81908734  0.79233376  0.30408988  1
  C  C44  1  0.97464751  0.18436910  0.30668896  1
  C  C45  1  0.20766624  0.18091266  0.80408988  1
  C  C46  1  0.96876084  0.79360242  0.80253842  1
  C  C47  1  0.81563090  0.02535249  0.80668896  1
  C  C48  1  0.79489899  0.96775503  0.69770863  1
  C  C49  1  0.17829172  0.20689747  0.69628229  1
  C  C50  1  0.02835733  0.82047017  0.69365699  1
  C  C51  1  0.79310253  0.82170828  0.19628229  1
  C  C52  1  0.03224497  0.20510101  0.19770863  1
  C  C53  1  0.17952983  0.97164267  0.19365699  1
  C  C54  1  0.87306458  0.36457216  0.63587142  1
  C  C55  1  0.48575434  0.12566676  0.63742288  1
  C  C56  1  0.64131451  0.51770210  0.64002196  1
  C  C57  1  0.87433324  0.51424566  0.13742288  1
  C  C58  1  0.63542784  0.12693542  0.13587142  1
  C  C59  1  0.48229790  0.35868549  0.14002196  1
  C  C60  1  0.46156599  0.30108803  0.03104163  1
  C  C61  1  0.84495872  0.54023047  0.02961529  1
  C  C62  1  0.69502433  0.15380317  0.02698999  1
  C  C63  1  0.45976953  0.15504128  0.52961529  1
  C  C64  1  0.69891197  0.53843401  0.53104163  1
  C  C65  1  0.84619683  0.30497567  0.52698999  1
  C  C66  1  0.53973058  0.69790616  0.96920542  1
  C  C67  1  0.15242034  0.45900076  0.97075688  1
  C  C68  1  0.30798051  0.85103610  0.97335596  1
  C  C69  1  0.54099924  0.84757966  0.47075688  1
  C  C70  1  0.30209384  0.46026942  0.46920542  1
  C  C71  1  0.14896390  0.69201949  0.47335596  1
  C  C72  1  0.12823199  0.63442203  0.36437563  1
  C  C73  1  0.51162472  0.87356447  0.36294929  1
  C  C74  1  0.36169033  0.48713717  0.36032399  1
  C  C75  1  0.12643553  0.48837528  0.86294929  1
  C  C76  1  0.36557797  0.87176801  0.86437563  1
  C  C77  1  0.51286283  0.63830967  0.86032399  1
  C  C78  1  0.02131583  0.82643213  0.41037711  1
  C  C79  1  0.81061025  0.98791701  0.41036697  1
  C  C80  1  0.16814704  0.19658636  0.40966373  1
  C  C81  1  0.01208299  0.18938975  0.91036697  1
  C  C82  1  0.17356787  0.97868417  0.91037711  1
  C  C83  1  0.80341364  0.83185296  0.90966373  1
  C  C84  1  0.97469652  0.17011521  0.58985967  1
  C  C85  1  0.18948131  0.01782677  0.59008651  1
  C  C86  1  0.83600340  0.80429107  0.59024254  1
  C  C87  1  0.98217323  0.81051869  0.09008651  1
  C  C88  1  0.82988479  0.02530348  0.08985967  1
  C  C89  1  0.19570893  0.16399660  0.09024254  1
  C  C90  1  0.68798283  0.15976513  0.74371011  1
  C  C91  1  0.47727725  0.32125001  0.74369997  1
  C  C92  1  0.83481404  0.52991936  0.74299673  1
  C  C93  1  0.67874999  0.52272275  0.24369997  1
  C  C94  1  0.84023487  0.31201717  0.24371011  1
  C  C95  1  0.47008064  0.16518596  0.24299673  1
  C  C96  1  0.64136352  0.50344821  0.92319267  1
  C  C97  1  0.85614831  0.35115977  0.92341951  1
  C  C98  1  0.50267040  0.13762407  0.92357554  1
  C  C99  1  0.64884023  0.14385169  0.42341951  1
  C  C100  1  0.49655179  0.35863648  0.42319267  1
  C  C101  1  0.86237593  0.49732960  0.42357554  1
  C  C102  1  0.35464883  0.49309913  0.07704411  1
  C  C103  1  0.14394325  0.65458401  0.07703397  1
  C  C104  1  0.50148004  0.86325336  0.07633073  1
  C  C105  1  0.34541599  0.85605675  0.57703397  1
  C  C106  1  0.50690087  0.64535117  0.57704411  1
  C  C107  1  0.13674664  0.49851996  0.57633073  1
  C  C108  1  0.30802952  0.83678221  0.25652667  1
  C  C109  1  0.52281431  0.68449377  0.25675351  1
  C  C110  1  0.16933640  0.47095807  0.25690954  1
  C  C111  1  0.31550623  0.47718569  0.75675351  1
  C  C112  1  0.16321779  0.69197048  0.75652667  1
  C  C113  1  0.52904193  0.83066360  0.75690954  1
