# generated using pymatgen
data_CuNiC11
_symmetry_space_group_name_H-M   'P 1'
_cell_length_a   5.71355110
_cell_length_b   5.63967097
_cell_length_c   5.93168287
_cell_angle_alpha   61.92586839
_cell_angle_beta   61.38689680
_cell_angle_gamma   60.37976080
_symmetry_Int_Tables_number   1
_chemical_formula_structural   CuNiC11
_chemical_formula_sum   'Cu1 Ni1 C11'
_cell_volume   138.84322106
_cell_formula_units_Z   1
loop_
 _symmetry_equiv_pos_site_id
 _symmetry_equiv_pos_as_xyz
  1  'x, y, z'
loop_
 _atom_site_type_symbol
 _atom_site_label
 _atom_site_symmetry_multiplicity
 _atom_site_fract_x
 _atom_site_fract_y
 _atom_site_fract_z
 _atom_site_occupancy
  Ni  Ni0  1  0.00000000  0.00000000  0.50000000  1
  C  C1  1  0.50000000  0.00000000  0.00000000  1
  C  C2  1  0.00000000  0.50000000  0.00000000  1
  C  C3  1  0.50000000  0.50000000  0.00000000  1
  Cu  Cu4  1  0.00000000  0.00000000  0.00000000  1
  C  C5  1  0.22850300  0.23046800  0.80992100  1
  C  C6  1  0.75090600  0.21690600  0.79332800  1
  C  C7  1  0.21565300  0.74730800  0.79122000  1
  C  C8  1  0.74972800  0.73665500  0.79293100  1
  C  C9  1  0.25027200  0.26334500  0.20706800  1
  C  C10  1  0.78434700  0.25269200  0.20878000  1
  C  C11  1  0.24909400  0.78309400  0.20667200  1
  C  C12  1  0.77149700  0.76953200  0.19007900  1
