# generated using pymatgen
data_Cu5NiC29
_symmetry_space_group_name_H-M   'P 1'
_cell_length_a   8.88252067
_cell_length_b   8.87806268
_cell_length_c   23.28484221
_cell_angle_alpha   89.89464793
_cell_angle_beta   90.24573523
_cell_angle_gamma   119.83652558
_symmetry_Int_Tables_number   1
_chemical_formula_structural   Cu5NiC29
_chemical_formula_sum   'Cu15 Ni3 C87'
_cell_volume   1592.82254425
_cell_formula_units_Z   3
loop_
 _symmetry_equiv_pos_site_id
 _symmetry_equiv_pos_as_xyz
  1  'x, y, z'
loop_
 _atom_site_type_symbol
 _atom_site_label
 _atom_site_symmetry_multiplicity
 _atom_site_fract_x
 _atom_site_fract_y
 _atom_site_fract_z
 _atom_site_occupancy
  C  C0  1  0.99909375  0.99363278  0.99720960  1
  C  C1  1  0.66004726  0.33218272  0.83779533  1
  C  C2  1  0.67203972  0.33219052  0.33036232  1
  C  C3  1  0.99887402  0.00456963  0.35104616  1
  C  C4  1  0.99900671  0.99294528  0.85417454  1
  C  C5  1  0.00068753  0.00030252  0.64827365  1
  C  C6  1  0.00068715  0.00567686  0.14978530  1
  C  C7  1  0.66594930  0.33287822  0.68482629  1
  C  C8  1  0.67311742  0.33356256  0.18392418  1
  C  C9  1  0.66006680  0.33317206  0.98002802  1
  C  C10  1  0.66669883  0.33291229  0.48292331  1
  C  C11  1  0.33866342  0.67283491  0.01690710  1
  C  C12  1  0.33282706  0.66677946  0.51943515  1
  C  C13  1  0.32814461  0.66080367  0.31115473  1
  C  C14  1  0.33974685  0.67206281  0.81736420  1
  Ni  Ni15  1  0.99742912  0.29198053  0.25060072  1
  Ni  Ni16  1  0.62643918  0.66642900  0.91671215  1
  Ni  Ni17  1  0.33392123  0.96019353  0.91670192  1
  Cu  Cu18  1  0.29402837  0.00154412  0.25051766  1
  Cu  Cu19  1  0.70741093  0.70606176  0.25048313  1
  Cu  Cu20  1  0.29196006  0.29358005  0.75026952  1
  Cu  Cu21  1  0.00074453  0.70524169  0.74956265  1
  Cu  Cu22  1  0.70829930  0.00050971  0.74976282  1
  Cu  Cu23  1  0.96015741  0.33333502  0.58340936  1
  Cu  Cu24  1  0.37302374  0.04010029  0.58331984  1
  Cu  Cu25  1  0.66719647  0.62706846  0.58334774  1
  Cu  Cu26  1  0.96150567  0.62820399  0.08285308  1
  Cu  Cu27  1  0.66693158  0.04039897  0.08274505  1
  Cu  Cu28  1  0.37287908  0.33372101  0.08375444  1
  Cu  Cu29  1  0.04013969  0.37384451  0.91661864  1
  Cu  Cu30  1  0.62401813  0.95750262  0.41627536  1
  Cu  Cu31  1  0.33448291  0.37424031  0.41689424  1
  Cu  Cu32  1  0.03998196  0.66781888  0.41638771  1
  C  C33  1  0.21704743  0.03084283  0.30285323  1
  C  C34  1  0.81643063  0.78043361  0.30272302  1
  C  C35  1  0.96282859  0.18009814  0.30512832  1
  C  C36  1  0.21382091  0.18292443  0.80115986  1
  C  C37  1  0.96696916  0.78206645  0.80042312  1
  C  C38  1  0.81860282  0.03318463  0.80102906  1
  C  C39  1  0.78663888  0.97491631  0.69711079  1
  C  C40  1  0.18877760  0.21569784  0.69716486  1
  C  C41  1  0.02707092  0.81015029  0.69696631  1
  C  C42  1  0.78521216  0.81000822  0.19839420  1
  C  C43  1  0.02781855  0.21230593  0.19668099  1
  C  C44  1  0.18733575  0.97082003  0.19853980  1
  C  C45  1  0.88227875  0.36520985  0.63472600  1
  C  C46  1  0.48293840  0.11757231  0.63489767  1
  C  C47  1  0.63551064  0.51739600  0.63486176  1
  C  C48  1  0.88393759  0.52454638  0.13541698  1
  C  C49  1  0.64006140  0.11766448  0.13522600  1
  C  C50  1  0.47869461  0.35991784  0.13622961  1
  C  C51  1  0.44984941  0.30125542  0.03250381  1
  C  C52  1  0.85095834  0.54963386  0.03156119  1
  C  C53  1  0.69885742  0.15096541  0.03157436  1
  C  C54  1  0.44964906  0.14873700  0.53138102  1
  C  C55  1  0.69852821  0.54991337  0.53141311  1
  C  C56  1  0.85142439  0.30139172  0.53121640  1
  C  C57  1  0.54749328  0.69427471  0.97124919  1
  C  C58  1  0.14468230  0.44944915  0.96897800  1
  C  C59  1  0.30009130  0.84994156  0.97097018  1
  C  C60  1  0.54619231  0.85398694  0.46886544  1
  C  C61  1  0.30748442  0.45233935  0.46914886  1
  C  C62  1  0.14438441  0.69466207  0.46906523  1
  C  C63  1  0.11766771  0.63561757  0.36535226  1
  C  C64  1  0.51446448  0.87952991  0.36471799  1
  C  C65  1  0.36719150  0.48382562  0.36555565  1
  C  C66  1  0.11513058  0.47747512  0.86399871  1
  C  C67  1  0.36133634  0.88239745  0.86146308  1
  C  C68  1  0.51745276  0.63220276  0.86168579  1
  C  C69  1  0.02131129  0.82271222  0.40891028  1
  C  C70  1  0.79661368  0.97448226  0.41024431  1
  C  C71  1  0.18090782  0.20090507  0.41021797  1
  C  C72  1  0.02246275  0.19892089  0.91077399  1
  C  C73  1  0.17201014  0.98289852  0.91177735  1
  C  C74  1  0.80670087  0.83273451  0.91156184  1
  C  C75  1  0.97732685  0.17746663  0.59082575  1
  C  C76  1  0.20039459  0.02326586  0.59075880  1
  C  C77  1  0.82255986  0.79957449  0.59094421  1
  C  C78  1  0.97818673  0.80438993  0.08946768  1
  C  C79  1  0.82513998  0.02185119  0.08835054  1
  C  C80  1  0.19812037  0.17384399  0.08913447  1
  C  C81  1  0.69112129  0.16008047  0.74368217  1
  C  C82  1  0.46836707  0.31024316  0.74405738  1
  C  C83  1  0.84114358  0.52977528  0.74320962  1
  C  C84  1  0.68620218  0.52917985  0.24469853  1
  C  C85  1  0.83272078  0.31098219  0.24534631  1
  C  C86  1  0.46760388  0.16019744  0.24448886  1
  C  C87  1  0.64962164  0.50491101  0.92141659  1
  C  C88  1  0.86540309  0.35577010  0.92229482  1
  C  C89  1  0.49974190  0.14063566  0.92175805  1
  C  C90  1  0.64219103  0.13461779  0.42223435  1
  C  C91  1  0.49352500  0.35654947  0.42304934  1
  C  C92  1  0.86397073  0.50903240  0.42264597  1
  C  C93  1  0.35342690  0.48772710  0.07662403  1
  C  C94  1  0.13334237  0.64416649  0.07606325  1
  C  C95  1  0.51218623  0.86814715  0.07701542  1
  C  C96  1  0.35662675  0.86734741  0.57578226  1
  C  C97  1  0.51098648  0.64385204  0.57567196  1
  C  C98  1  0.13250835  0.48913230  0.57570688  1
  C  C99  1  0.31433707  0.84780785  0.25770977  1
  C  C100  1  0.53679849  0.69283792  0.25781401  1
  C  C101  1  0.15944215  0.47095112  0.25775713  1
  C  C102  1  0.30924753  0.46607527  0.75677746  1
  C  C103  1  0.15428008  0.68543114  0.75672594  1
  C  C104  1  0.53579174  0.84653453  0.75551098  1
