# generated using pymatgen
data_Cu3NiC4
_symmetry_space_group_name_H-M   'P 1'
_cell_length_a   6.82948300
_cell_length_b   7.67521683
_cell_length_c   8.05212007
_cell_angle_alpha   113.61143182
_cell_angle_beta   110.09863519
_cell_angle_gamma   95.20606642
_symmetry_Int_Tables_number   1
_chemical_formula_structural   Cu3NiC4
_chemical_formula_sum   'Cu12 Ni4 C16'
_cell_volume   350.16289693
_cell_formula_units_Z   4
loop_
 _symmetry_equiv_pos_site_id
 _symmetry_equiv_pos_as_xyz
  1  'x, y, z'
loop_
 _atom_site_type_symbol
 _atom_site_label
 _atom_site_symmetry_multiplicity
 _atom_site_fract_x
 _atom_site_fract_y
 _atom_site_fract_z
 _atom_site_occupancy
  C  C0  1  0.57234600  0.76416300  0.87465900  1
  C  C1  1  0.42765400  0.23583700  0.12534100  1
  Ni  Ni2  1  0.11091100  0.75945500  0.96743100  1
  Ni  Ni3  1  0.88908900  0.24054500  0.03256900  1
  Ni  Ni4  1  0.69150500  0.74781500  0.33922600  1
  Ni  Ni5  1  0.30849500  0.25218500  0.66077400  1
  Cu  Cu6  1  0.13228400  0.56542800  0.90355700  1
  Cu  Cu7  1  0.86771600  0.43457200  0.09644300  1
  Cu  Cu8  1  0.64002800  0.92355800  0.43429400  1
  Cu  Cu9  1  0.35997200  0.07644200  0.56570600  1
  Cu  Cu10  1  0.89604200  0.75329600  0.62458400  1
  Cu  Cu11  1  0.10395800  0.24670400  0.37541600  1
  Cu  Cu12  1  0.38002300  0.66005200  0.44745400  1
  Cu  Cu13  1  0.61997700  0.33994800  0.55254600  1
  Cu  Cu14  1  0.20105200  0.72866300  0.52953100  1
  Cu  Cu15  1  0.79894800  0.27133700  0.47046900  1
  Cu  Cu16  1  0.97925800  0.80471200  0.19224200  1
  Cu  Cu17  1  0.02074200  0.19528800  0.80775800  1
  C  C18  1  0.75062200  0.75315400  0.17423200  1
  C  C19  1  0.30751300  0.88263800  0.97641600  1
  C  C20  1  0.10919200  0.24527800  0.17598600  1
  C  C21  1  0.89080800  0.75472200  0.82401400  1
  C  C22  1  0.87436100  0.16856700  0.81524300  1
  C  C23  1  0.12563900  0.83143300  0.18475700  1
  C  C24  1  0.64463000  0.26568000  0.43166300  1
  C  C25  1  0.35537000  0.73432000  0.56833700  1
  C  C26  1  0.50454800  0.57760400  0.27700200  1
  C  C27  1  0.49545200  0.42239600  0.72299800  1
  C  C28  1  0.91014700  0.75156200  0.50162100  1
  C  C29  1  0.08985300  0.24843800  0.49837900  1
  C  C30  1  0.69248700  0.11736200  0.02358400  1
  C  C31  1  0.24937800  0.24684600  0.82576800  1
