# generated using pymatgen
data_Cu(NiC4)2
_symmetry_space_group_name_H-M   'P 1'
_cell_length_a   6.80970336
_cell_length_b   6.81149129
_cell_length_c   6.81148802
_cell_angle_alpha   51.83833182
_cell_angle_beta   51.83537582
_cell_angle_gamma   51.83538517
_symmetry_Int_Tables_number   1
_chemical_formula_structural   Cu(NiC4)2
_chemical_formula_sum   'Cu1 Ni2 C8'
_cell_volume   180.50820624
_cell_formula_units_Z   1
loop_
 _symmetry_equiv_pos_site_id
 _symmetry_equiv_pos_as_xyz
  1  'x, y, z'
loop_
 _atom_site_type_symbol
 _atom_site_label
 _atom_site_symmetry_multiplicity
 _atom_site_fract_x
 _atom_site_fract_y
 _atom_site_fract_z
 _atom_site_occupancy
  Ni  Ni0  1  0.80060947  0.79999310  0.79999209  1
  Ni  Ni1  1  0.22009449  0.21949669  0.21949569  1
  Cu  Cu2  1  0.00784406  0.00768480  0.00768480  1
  C  C3  1  0.62824798  0.62714685  0.62714685  1
  C  C4  1  0.48639782  0.48636393  0.48636393  1
  C  C5  1  0.73584776  0.24945217  0.73521291  1
  C  C6  1  0.26304111  0.26368565  0.74237173  1
  C  C7  1  0.25024278  0.73538789  0.73538789  1
  C  C8  1  0.74159768  0.26341429  0.26341329  1
  C  C9  1  0.73584776  0.73521191  0.24945317  1
  C  C10  1  0.26304111  0.74237073  0.26368665  1
