# generated using pymatgen
data_Cu2Ni2C33
_symmetry_space_group_name_H-M   'P 1'
_cell_length_a   8.83331759
_cell_length_b   8.80188955
_cell_length_c   22.53065082
_cell_angle_alpha   90.20623551
_cell_angle_beta   89.85074178
_cell_angle_gamma   119.89757389
_symmetry_Int_Tables_number   1
_chemical_formula_structural   Cu2Ni2C33
_chemical_formula_sum   'Cu6 Ni6 C99'
_cell_volume   1518.61764507
_cell_formula_units_Z   3
loop_
 _symmetry_equiv_pos_site_id
 _symmetry_equiv_pos_as_xyz
  1  'x, y, z'
loop_
 _atom_site_type_symbol
 _atom_site_label
 _atom_site_symmetry_multiplicity
 _atom_site_fract_x
 _atom_site_fract_y
 _atom_site_fract_z
 _atom_site_occupancy
  C  C0  1  0.01050175  0.36836264  0.75365432  1
  C  C1  1  0.67912008  0.98051607  0.58674484  1
  C  C2  1  0.68025784  0.70259929  0.08698186  1
  C  C3  1  0.01681671  0.00559895  0.50827072  1
  C  C4  1  0.01192508  0.01348344  0.00752398  1
  C  C5  1  0.66154559  0.34165673  0.84318530  1
  C  C6  1  0.65442871  0.32399267  0.34176349  1
  C  C7  1  0.32861410  0.67700413  0.17684526  1
  C  C8  1  0.33389852  0.67078232  0.67616635  1
  Ni  Ni9  1  0.00508903  0.99916100  0.64755231  1
  Ni  Ni10  1  0.00504709  0.00089364  0.14761766  1
  Ni  Ni11  1  0.67137686  0.33587456  0.98081603  1
  Ni  Ni12  1  0.66127931  0.32899450  0.48060641  1
  Ni  Ni13  1  0.34482712  0.67337579  0.31364779  1
  Ni  Ni14  1  0.33844847  0.66744749  0.81437997  1
  Cu  Cu15  1  0.99947819  0.99724261  0.35420880  1
  Cu  Cu16  1  0.99429015  0.99740270  0.85350102  1
  Cu  Cu17  1  0.66181421  0.33460427  0.68701594  1
  Cu  Cu18  1  0.66218334  0.33142767  0.18707916  1
  Cu  Cu19  1  0.33079653  0.66118145  0.02083522  1
  Cu  Cu20  1  0.33657073  0.66039613  0.52075265  1
  C  C21  1  0.28734423  0.99411781  0.24786659  1
  C  C22  1  0.70677556  0.71022723  0.24594829  1
  C  C23  1  0.28762668  0.28928750  0.74857520  1
  C  C24  1  0.00354494  0.71174398  0.74765176  1
  C  C25  1  0.70304917  0.99405803  0.74632666  1
  C  C26  1  0.95564330  0.33361133  0.58167996  1
  C  C27  1  0.37129526  0.04383293  0.58035908  1
  C  C28  1  0.67387338  0.62490814  0.57978378  1
  C  C29  1  0.95584903  0.62333921  0.08176220  1
  C  C30  1  0.67003569  0.04636806  0.08025629  1
  C  C31  1  0.37183689  0.32405775  0.08044635  1
  C  C32  1  0.62143388  0.66098641  0.91483036  1
  C  C33  1  0.03834127  0.37637749  0.91242284  1
  C  C34  1  0.62322204  0.96075926  0.41468005  1
  C  C35  1  0.33777904  0.37713327  0.41217490  1
  C  C36  1  0.00125108  0.29178703  0.24927824  1
  C  C37  1  0.33423041  0.95768044  0.91529765  1
  C  C38  1  0.04372740  0.66258078  0.41490375  1
  C  C39  1  0.19837526  0.02555623  0.30534116  1
  C  C40  1  0.82980428  0.80853893  0.30177889  1
  C  C41  1  0.97444203  0.17994200  0.30421752  1
  C  C42  1  0.19882705  0.17064007  0.80563582  1
  C  C43  1  0.97473332  0.79996125  0.80538159  1
  C  C44  1  0.83071704  0.02759515  0.80193794  1
  C  C45  1  0.78720381  0.97771165  0.68988423  1
  C  C46  1  0.17354789  0.20398621  0.69546787  1
  C  C47  1  0.02275612  0.81749712  0.69376531  1
  C  C48  1  0.79040535  0.81217228  0.18997518  1
  C  C49  1  0.02002476  0.20770297  0.19657214  1
  C  C50  1  0.18282056  0.98046156  0.19397997  1
  C  C51  1  0.87134247  0.36359090  0.64055188  1
  C  C52  1  0.49605651  0.13289758  0.63735233  1
  C  C53  1  0.64227165  0.50756603  0.63748552  1
  C  C54  1  0.86688776  0.50364735  0.13882405  1
  C  C55  1  0.63963832  0.13398765  0.13793616  1
  C  C56  1  0.49583698  0.36352083  0.13759127  1
  C  C57  1  0.46123804  0.30725673  0.02636040  1
  C  C58  1  0.84200782  0.53882203  0.02867349  1
  C  C59  1  0.68994095  0.15251060  0.02653788  1
  C  C60  1  0.46097001  0.14956815  0.52649477  1
  C  C61  1  0.69257246  0.53793009  0.52588551  1
  C  C62  1  0.83974768  0.30684961  0.52958290  1
  C  C63  1  0.53688954  0.69231877  0.97374540  1
  C  C64  1  0.16286653  0.47532092  0.96835151  1
  C  C65  1  0.30856619  0.84625012  0.97024077  1
  C  C66  1  0.53568032  0.84262808  0.47307017  1
  C  C67  1  0.30772683  0.46710559  0.47058070  1
  C  C68  1  0.15536686  0.69295457  0.46976344  1
  C  C69  1  0.12748893  0.64587800  0.36211086  1
  C  C70  1  0.51259882  0.87087810  0.36190164  1
  C  C71  1  0.34880411  0.48353287  0.35930012  1
  C  C72  1  0.12254933  0.47820600  0.85656187  1
  C  C73  1  0.35047060  0.87233800  0.86258370  1
  C  C74  1  0.51396046  0.64831059  0.86200055  1
  C  C75  1  0.03140905  0.83136331  0.41207928  1
  C  C76  1  0.80740973  0.96691080  0.40940465  1
  C  C77  1  0.16207398  0.19104203  0.40928112  1
  C  C78  1  0.03318197  0.19255999  0.91065767  1
  C  C79  1  0.16741235  0.96853660  0.91323346  1
  C  C80  1  0.80775503  0.83688311  0.91013801  1
  C  C81  1  0.98111161  0.17619177  0.59011968  1
  C  C82  1  0.18986114  0.01345662  0.58974563  1
  C  C83  1  0.81946624  0.81276493  0.58869135  1
  C  C84  1  0.98146543  0.80604854  0.09086067  1
  C  C85  1  0.81935043  0.00927807  0.08985289  1
  C  C86  1  0.18901390  0.17725039  0.09050609  1
  C  C87  1  0.70211795  0.17516711  0.74484059  1
  C  C88  1  0.47129018  0.30073293  0.74350501  1
  C  C89  1  0.82915257  0.52440567  0.74447261  1
  C  C90  1  0.70153708  0.52645967  0.24386242  1
  C  C91  1  0.83383195  0.30104262  0.24674658  1
  C  C92  1  0.47432610  0.16886095  0.24377544  1
  C  C93  1  0.64866075  0.50608669  0.92251704  1
  C  C94  1  0.85642933  0.34593702  0.92204036  1
  C  C95  1  0.48403270  0.13269320  0.92278632  1
  C  C96  1  0.65915812  0.14594720  0.42315875  1
  C  C97  1  0.49249052  0.35116963  0.42118167  1
  C  C98  1  0.86816253  0.51460798  0.42275201  1
  C  C99  1  0.36827896  0.50567087  0.07711840  1
  C  C100  1  0.14005080  0.63549155  0.07627727  1
  C  C101  1  0.49554864  0.85822176  0.07622446  1
  C  C102  1  0.36769225  0.85979113  0.57739781  1
  C  C103  1  0.49679283  0.63579857  0.57704961  1
  C  C104  1  0.13968312  0.50593651  0.57567238  1
  C  C105  1  0.31161659  0.83771019  0.25708299  1
  C  C106  1  0.52392204  0.67880973  0.25471683  1
  C  C107  1  0.14955251  0.46759260  0.25737627  1
  C  C108  1  0.31338324  0.47212223  0.75738420  1
  C  C109  1  0.15348166  0.67522178  0.75659124  1
  C  C110  1  0.52232544  0.84371299  0.75674769  1
