# generated using pymatgen
data_Cu2NiC16
_symmetry_space_group_name_H-M   'P 1'
_cell_length_a   8.92994317
_cell_length_b   8.92994286
_cell_length_c   22.40356978
_cell_angle_alpha   90.00000000
_cell_angle_beta   90.00000000
_cell_angle_gamma   120.00000109
_symmetry_Int_Tables_number   1
_chemical_formula_structural   Cu2NiC16
_chemical_formula_sum   'Cu12 Ni6 C96'
_cell_volume   1547.19561689
_cell_formula_units_Z   6
loop_
 _symmetry_equiv_pos_site_id
 _symmetry_equiv_pos_as_xyz
  1  'x, y, z'
loop_
 _atom_site_type_symbol
 _atom_site_label
 _atom_site_symmetry_multiplicity
 _atom_site_fract_x
 _atom_site_fract_y
 _atom_site_fract_z
 _atom_site_occupancy
  C  C0  1  0.98679425  0.69430023  0.91679352  1
  C  C1  1  0.70750498  0.01320575  0.91679352  1
  C  C2  1  0.30569977  0.29249502  0.91679352  1
  C  C3  1  0.98679425  0.29249502  0.41679352  1
  C  C4  1  0.30569977  0.01320575  0.41679352  1
  C  C5  1  0.70750498  0.69430023  0.41679352  1
  C  C6  1  -0.00000000  -0.00000000  0.49852923  1
  C  C7  1  -0.00000000  -0.00000000  0.99852923  1
  C  C8  1  0.66666700  0.33333300  0.82189007  1
  C  C9  1  0.66666700  0.33333300  0.32189007  1
  C  C10  1  0.33333300  0.66666700  0.15698881  1
  C  C11  1  0.33333300  0.66666700  0.65698881  1
  C  C12  1  0.66666700  0.33333300  0.98000283  1
  C  C13  1  0.66666700  0.33333300  0.48000283  1
  C  C14  1  0.33333300  0.66666700  0.31701647  1
  C  C15  1  0.33333300  0.66666700  0.81701647  1
  C  C16  1  -0.00000000  -0.00000000  0.35111027  1
  C  C17  1  -0.00000000  -0.00000000  0.85111027  1
  C  C18  1  -0.00000000  -0.00000000  0.64986613  1
  C  C19  1  -0.00000000  -0.00000000  0.14986613  1
  C  C20  1  0.66666700  0.33333300  0.68227123  1
  C  C21  1  0.66666700  0.33333300  0.18227123  1
  C  C22  1  0.33333300  0.66666700  0.00820000  1
  C  C23  1  0.33333300  0.66666700  0.50820000  1
  Ni  Ni24  1  0.62581893  0.66848663  0.91994805  1
  Ni  Ni25  1  0.04266670  0.37418107  0.91994805  1
  Ni  Ni26  1  0.33151337  0.95733330  0.91994805  1
  Ni  Ni27  1  0.62581893  0.95733330  0.41994805  1
  Ni  Ni28  1  0.33151337  0.37418107  0.41994805  1
  Ni  Ni29  1  0.04266670  0.66848663  0.41994805  1
  Cu  Cu30  1  0.29887536  0.99785844  0.24934107  1
  Cu  Cu31  1  0.69898307  0.70112464  0.24934107  1
  Cu  Cu32  1  0.00214156  0.30101693  0.24934107  1
  Cu  Cu33  1  0.29887536  0.30101693  0.74934107  1
  Cu  Cu34  1  0.00214156  0.70112464  0.74934107  1
  Cu  Cu35  1  0.69898307  0.99785844  0.74934107  1
  Cu  Cu36  1  0.95894319  0.33096699  0.58607533  1
  Cu  Cu37  1  0.37202480  0.04105681  0.58607533  1
  Cu  Cu38  1  0.66903301  0.62797520  0.58607533  1
  Cu  Cu39  1  0.95894319  0.62797520  0.08607533  1
  Cu  Cu40  1  0.66903301  0.04105681  0.08607533  1
  Cu  Cu41  1  0.37202480  0.33096699  0.08607533  1
  C  C42  1  0.22223023  0.01517327  0.30555825  1
  C  C43  1  0.79294305  0.77776977  0.30555825  1
  C  C44  1  0.98482673  0.20705695  0.30555825  1
  C  C45  1  0.22223023  0.20705695  0.80555825  1
  C  C46  1  0.98482673  0.77776977  0.80555825  1
  C  C47  1  0.79294305  0.01517327  0.80555825  1
  C  C48  1  0.78291083  0.97429183  0.69652869  1
  C  C49  1  0.19138100  0.21708917  0.69652869  1
  C  C50  1  0.02570817  0.80861900  0.69652869  1
  C  C51  1  0.78291083  0.80861900  0.19652869  1
  C  C52  1  0.02570817  0.21708917  0.19652869  1
  C  C53  1  0.19138100  0.97429183  0.19652869  1
  C  C54  1  0.86746754  0.34267018  0.63878041  1
  C  C55  1  0.47520364  0.13253246  0.63878041  1
  C  C56  1  0.65732982  0.52479636  0.63878041  1
  C  C57  1  0.86746754  0.52479636  0.13878041  1
  C  C58  1  0.65732982  0.13253246  0.13878041  1
  C  C59  1  0.47520364  0.34267018  0.13878041  1
  C  C60  1  0.47115089  0.32094335  0.03001131  1
  C  C61  1  0.84979346  0.52884911  0.03001131  1
  C  C62  1  0.67905665  0.15020654  0.03001131  1
  C  C63  1  0.47115089  0.15020654  0.53001131  1
  C  C64  1  0.67905665  0.52884911  0.53001131  1
  C  C65  1  0.84979346  0.32094335  0.53001131  1
  C  C66  1  0.55750279  0.72270444  0.97640046  1
  C  C67  1  0.16520065  0.44249721  0.97640046  1
  C  C68  1  0.27729556  0.83479935  0.97640046  1
  C  C69  1  0.55750279  0.83479935  0.47640046  1
  C  C70  1  0.27729556  0.44249721  0.47640046  1
  C  C71  1  0.16520065  0.72270444  0.47640046  1
  C  C72  1  0.13319257  0.62187159  0.36146931  1
  C  C73  1  0.48867802  0.86680743  0.36146931  1
  C  C74  1  0.37812841  0.51132198  0.36146931  1
  C  C75  1  0.13319257  0.51132198  0.86146931  1
  C  C76  1  0.37812841  0.86680743  0.86146931  1
  C  C77  1  0.48867802  0.62187159  0.86146931  1
  C  C78  1  0.99882437  0.81828486  0.40611188  1
  C  C79  1  0.81946049  0.00117563  0.40611188  1
  C  C80  1  0.18171514  0.18053951  0.40611188  1
  C  C81  1  0.99882437  0.18053951  0.90611188  1
  C  C82  1  0.18171514  0.00117563  0.90611188  1
  C  C83  1  0.81946049  0.81828486  0.90611188  1
  C  C84  1  0.96286457  0.16744042  0.58438302  1
  C  C85  1  0.20457585  0.03713543  0.58438302  1
  C  C86  1  0.83255958  0.79542415  0.58438302  1
  C  C87  1  0.96286457  0.79542415  0.08438302  1
  C  C88  1  0.83255958  0.03713543  0.08438302  1
  C  C89  1  0.20457585  0.16744042  0.08438302  1
  C  C90  1  0.67188200  0.14806013  0.74441688  1
  C  C91  1  0.47617913  0.32811800  0.74441688  1
  C  C92  1  0.85193987  0.52382087  0.74441688  1
  C  C93  1  0.67188200  0.52382087  0.24441688  1
  C  C94  1  0.85193987  0.32811800  0.24441688  1
  C  C95  1  0.47617913  0.14806013  0.24441688  1
  C  C96  1  0.62767983  0.48288307  0.92684187  1
  C  C97  1  0.85520425  0.37232017  0.92684187  1
  C  C98  1  0.51711693  0.14479575  0.92684187  1
  C  C99  1  0.62767983  0.14479575  0.42684187  1
  C  C100  1  0.51711693  0.37232017  0.42684187  1
  C  C101  1  0.85520425  0.48288307  0.42684187  1
  C  C102  1  0.35738235  0.48574213  0.08191050  1
  C  C103  1  0.12835878  0.64261765  0.08191050  1
  C  C104  1  0.51425787  0.87164122  0.08191050  1
  C  C105  1  0.35738235  0.87164122  0.58191050  1
  C  C106  1  0.51425787  0.64261765  0.58191050  1
  C  C107  1  0.12835878  0.48574213  0.58191050  1
  C  C108  1  0.31324781  0.83346073  0.25347144  1
  C  C109  1  0.52021192  0.68675219  0.25347144  1
  C  C110  1  0.16653927  0.47978808  0.25347144  1
  C  C111  1  0.31324781  0.47978808  0.75347144  1
  C  C112  1  0.16653927  0.68675219  0.75347144  1
  C  C113  1  0.52021192  0.83346073  0.75347144  1
