# generated using pymatgen
data_Cu4NiC13
_symmetry_space_group_name_H-M   'P 1'
_cell_length_a   9.01848900
_cell_length_b   7.43223300
_cell_length_c   16.56194441
_cell_angle_alpha   69.59335932
_cell_angle_beta   90.00000000
_cell_angle_gamma   90.00000000
_symmetry_Int_Tables_number   1
_chemical_formula_structural   Cu4NiC13
_chemical_formula_sum   'Cu16 Ni4 C52'
_cell_volume   1040.43743031
_cell_formula_units_Z   4
loop_
 _symmetry_equiv_pos_site_id
 _symmetry_equiv_pos_as_xyz
  1  'x, y, z'
loop_
 _atom_site_type_symbol
 _atom_site_label
 _atom_site_symmetry_multiplicity
 _atom_site_fract_x
 _atom_site_fract_y
 _atom_site_fract_z
 _atom_site_occupancy
  C  C0  1  0.58651600  0.92664600  0.07227300  1
  C  C1  1  0.08651600  0.07335400  0.42772700  1
  C  C2  1  0.91348400  0.92664600  0.57227300  1
  C  C3  1  0.41348400  0.07335400  0.92772700  1
  Ni  Ni4  1  0.64816200  0.33241500  0.64111800  1
  Ni  Ni5  1  0.85183800  0.33241500  0.14111800  1
  Ni  Ni6  1  0.14816200  0.66758500  0.85888200  1
  Ni  Ni7  1  0.35183800  0.66758500  0.35888200  1
  Cu  Cu8  1  0.05875300  0.66223500  0.21633800  1
  Cu  Cu9  1  0.27115500  0.35284100  0.57754100  1
  Cu  Cu10  1  0.23941400  0.76323300  0.05624300  1
  Cu  Cu11  1  0.03914700  0.07604500  0.69326000  1
  Cu  Cu12  1  0.73941400  0.23676700  0.44375700  1
  Cu  Cu13  1  0.55875300  0.33776500  0.28366200  1
  Cu  Cu14  1  0.53914700  0.92395500  0.80674000  1
  Cu  Cu15  1  0.22884500  0.35284100  0.07754100  1
  Cu  Cu16  1  0.77115500  0.64715900  0.92245900  1
  Cu  Cu17  1  0.46085300  0.07604500  0.19326000  1
  Cu  Cu18  1  0.44124700  0.66223500  0.71633800  1
  Cu  Cu19  1  0.26058600  0.76323300  0.55624300  1
  Cu  Cu20  1  0.96085300  0.92395500  0.30674000  1
  Cu  Cu21  1  0.76058600  0.23676700  0.94375700  1
  Cu  Cu22  1  0.72884500  0.64715900  0.42245900  1
  Cu  Cu23  1  0.94124700  0.33776500  0.78366200  1
  C  C24  1  0.37925900  0.88054500  0.04320500  1
  C  C25  1  0.14908500  0.79634000  0.13451700  1
  C  C26  1  0.15806100  0.56480400  0.29185800  1
  C  C27  1  0.04179400  0.17845100  0.76421100  1
  C  C28  1  0.27765700  0.39200500  0.48228900  1
  C  C29  1  0.78613100  0.46141900  0.40138700  1
  C  C30  1  0.40577400  0.27009400  0.63212400  1
  C  C31  1  0.45271300  0.46291200  0.31050100  1
  C  C32  1  0.13179000  0.21622800  0.61351100  1
  C  C33  1  0.62576900  0.10809400  0.76710600  1
  C  C34  1  0.95271300  0.53708800  0.18949900  1
  C  C35  1  0.28613100  0.53858100  0.09861300  1
  C  C36  1  0.77765700  0.60799500  0.01771100  1
  C  C37  1  0.88871300  0.06087700  0.65792700  1
  C  C38  1  0.63758200  0.20579100  0.51863000  1
  C  C39  1  0.65806100  0.43519600  0.20814200  1
  C  C40  1  0.13758200  0.79420900  0.98137000  1
  C  C41  1  0.38871300  0.93912300  0.84207300  1
  C  C42  1  0.64908500  0.20366000  0.36548300  1
  C  C43  1  0.12576900  0.89190600  0.73289400  1
  C  C44  1  0.63179000  0.78377200  0.88648900  1
  C  C45  1  0.87925900  0.11945500  0.45679500  1
  C  C46  1  0.90577400  0.72990600  0.86787600  1
  C  C47  1  0.45820600  0.17845100  0.26421100  1
  C  C48  1  0.54179400  0.82154900  0.73578900  1
  C  C49  1  0.09422600  0.27009400  0.13212400  1
  C  C50  1  0.12074100  0.88054500  0.54320500  1
  C  C51  1  0.36821000  0.21622800  0.11351100  1
  C  C52  1  0.87423100  0.10809400  0.26710600  1
  C  C53  1  0.35091500  0.79634000  0.63451700  1
  C  C54  1  0.61128700  0.06087700  0.15792700  1
  C  C55  1  0.86241800  0.20579100  0.01863000  1
  C  C56  1  0.34193900  0.56480400  0.79185800  1
  C  C57  1  0.36241800  0.79420900  0.48137000  1
  C  C58  1  0.11128700  0.93912300  0.34207300  1
  C  C59  1  0.22234300  0.39200500  0.98228900  1
  C  C60  1  0.71386900  0.46141900  0.90138700  1
  C  C61  1  0.04728700  0.46291200  0.81050100  1
  C  C62  1  0.37423100  0.89190600  0.23289400  1
  C  C63  1  0.86821000  0.78377200  0.38648900  1
  C  C64  1  0.54728700  0.53708800  0.68949900  1
  C  C65  1  0.59422600  0.72990600  0.36787600  1
  C  C66  1  0.21386900  0.53858100  0.59861300  1
  C  C67  1  0.72234300  0.60799500  0.51771100  1
  C  C68  1  0.95820600  0.82154900  0.23578900  1
  C  C69  1  0.84193900  0.43519600  0.70814200  1
  C  C70  1  0.85091500  0.20366000  0.86548300  1
  C  C71  1  0.62074100  0.11945500  0.95679500  1
