# generated using pymatgen
data_Cu3Ni3C31
_symmetry_space_group_name_H-M   'P 1'
_cell_length_a   9.13094533
_cell_length_b   9.20636846
_cell_length_c   23.35248163
_cell_angle_alpha   89.58932068
_cell_angle_beta   90.39898718
_cell_angle_gamma   120.31848015
_symmetry_Int_Tables_number   1
_chemical_formula_structural   Cu3Ni3C31
_chemical_formula_sum   'Cu9 Ni9 C93'
_cell_volume   1694.53536893
_cell_formula_units_Z   3
loop_
 _symmetry_equiv_pos_site_id
 _symmetry_equiv_pos_as_xyz
  1  'x, y, z'
loop_
 _atom_site_type_symbol
 _atom_site_label
 _atom_site_symmetry_multiplicity
 _atom_site_fract_x
 _atom_site_fract_y
 _atom_site_fract_z
 _atom_site_occupancy
  C  C0  1  0.34823094  0.35187973  0.23779417  1
  C  C1  1  0.63294830  0.62016991  0.75959813  1
  C  C2  1  0.97091095  0.28860214  0.41890228  1
  C  C3  1  0.99123867  0.01391062  0.50234885  1
  C  C4  1  0.99173443  0.98010806  0.00407675  1
  C  C5  1  0.65950166  0.34448818  0.83356897  1
  C  C6  1  0.67442437  0.31563356  0.32992504  1
  C  C7  1  0.28940951  0.64489510  0.16212266  1
  C  C8  1  0.27094661  0.62889002  0.66743346  1
  C  C9  1  0.99440839  0.00140733  0.35675495  1
  C  C10  1  0.67981964  0.33593809  0.68630368  1
  C  C11  1  0.69441780  0.34944047  0.17375367  1
  C  C12  1  0.00833986  0.99328054  0.85555005  1
  C  C13  1  0.01704534  0.01790407  0.64895295  1
  C  C14  1  0.00959087  0.01308315  0.14411145  1
  C  C15  1  0.66464902  0.35895638  0.98375770  1
  C  C16  1  0.65949855  0.31655699  0.48015380  1
  C  C17  1  0.33807420  0.66043627  0.01721496  1
  C  C18  1  0.33970818  0.65938207  0.51899377  1
  C  C19  1  0.34126980  0.66277391  0.31582954  1
  C  C20  1  0.32389391  0.65439701  0.81263260  1
  Ni  Ni21  1  0.00518562  0.30501526  0.25276570  1
  Ni  Ni22  1  0.28581289  0.29321230  0.75477943  1
  Ni  Ni23  1  0.01459564  0.72514254  0.75076089  1
  Ni  Ni24  1  0.97096424  0.33028344  0.58106843  1
  Ni  Ni25  1  0.98136429  0.65121843  0.07987873  1
  Ni  Ni26  1  0.36526144  0.33629204  0.08493135  1
  Ni  Ni27  1  0.62781658  0.67170539  0.91402907  1
  Ni  Ni28  1  0.61258319  0.95867557  0.41937648  1
  Ni  Ni29  1  0.35196628  0.38468595  0.41798525  1
  Cu  Cu30  1  0.29017111  0.98644262  0.24767292  1
  Cu  Cu31  1  0.69240140  0.70489699  0.24834098  1
  Cu  Cu32  1  0.71262203  0.98637425  0.75380244  1
  Cu  Cu33  1  0.35968946  0.02795891  0.58064193  1
  Cu  Cu34  1  0.67364846  0.63856790  0.58200760  1
  Cu  Cu35  1  0.66782588  0.03063135  0.07795321  1
  Cu  Cu36  1  0.03729041  0.37408936  0.91647346  1
  Cu  Cu37  1  0.34255055  0.96045108  0.91561919  1
  Cu  Cu38  1  0.04295354  0.64996627  0.41991438  1
  C  C39  1  0.21190367  0.00225703  0.30001130  1
  C  C40  1  0.78793058  0.77369712  0.30108294  1
  C  C41  1  0.99695130  0.21615962  0.31381691  1
  C  C42  1  0.17952423  0.18369054  0.80979947  1
  C  C43  1  0.99352052  0.82060652  0.80669347  1
  C  C44  1  0.81232015  0.99910755  0.80532457  1
  C  C45  1  0.79640663  0.97361910  0.70107472  1
  C  C46  1  0.17872066  0.20289156  0.69565135  1
  C  C47  1  0.02298384  0.83353984  0.69335161  1
  C  C48  1  0.78476169  0.80427087  0.19727116  1
  C  C49  1  0.02227675  0.18992046  0.19981081  1
  C  C50  1  0.18197939  0.97197632  0.19649279  1
  C  C51  1  0.89637715  0.36027255  0.63927182  1
  C  C52  1  0.45560358  0.09339231  0.63358535  1
  C  C53  1  0.63896732  0.54810715  0.63706234  1
  C  C54  1  0.93619124  0.54462113  0.13848488  1
  C  C55  1  0.62879287  0.08304214  0.13193966  1
  C  C56  1  0.45539473  0.36594063  0.14635027  1
  C  C57  1  0.47497171  0.31143814  0.03352587  1
  C  C58  1  0.84181385  0.53652503  0.02906938  1
  C  C59  1  0.69405445  0.14682988  0.03005478  1
  C  C60  1  0.45193071  0.14335770  0.53135692  1
  C  C61  1  0.68623384  0.53926958  0.53476085  1
  C  C62  1  0.84531481  0.31096469  0.52576116  1
  C  C63  1  0.52348568  0.68901126  0.96666188  1
  C  C64  1  0.14378324  0.46069744  0.96688715  1
  C  C65  1  0.31585457  0.85580551  0.96658174  1
  C  C66  1  0.50550890  0.85539485  0.47466675  1
  C  C67  1  0.32813122  0.48926896  0.46951501  1
  C  C68  1  0.14007967  0.66058769  0.47162476  1
  C  C69  1  0.12759301  0.63527266  0.36734647  1
  C  C70  1  0.50628165  0.86396553  0.36079369  1
  C  C71  1  0.36319588  0.49029988  0.35814976  1
  C  C72  1  0.11930165  0.48100795  0.86444026  1
  C  C73  1  0.35538416  0.87556921  0.86387950  1
  C  C74  1  0.51430542  0.64836516  0.85559849  1
  C  C75  1  0.01901141  0.79393406  0.41819680  1
  C  C76  1  0.80344524  0.98928893  0.42331780  1
  C  C77  1  0.18201744  0.20152402  0.42052251  1
  C  C78  1  0.02357456  0.20824901  0.91116937  1
  C  C79  1  0.19061472  0.98316670  0.91094689  1
  C  C80  1  0.81824423  0.83854376  0.91060901  1
  C  C81  1  0.98135879  0.15662914  0.58736198  1
  C  C82  1  0.19212183  0.01996144  0.58457248  1
  C  C83  1  0.83022793  0.80561810  0.58528773  1
  C  C84  1  0.97667813  0.82501203  0.08998207  1
  C  C85  1  0.82423599  0.01817670  0.08515641  1
  C  C86  1  0.17546374  0.16587492  0.08755896  1
  C  C87  1  0.68679269  0.13044536  0.75274570  1
  C  C88  1  0.47670607  0.32558071  0.75417448  1
  C  C89  1  0.84085548  0.54260583  0.75180689  1
  C  C90  1  0.64931861  0.52701433  0.24497847  1
  C  C91  1  0.84155933  0.32875236  0.24940598  1
  C  C92  1  0.45809818  0.14023961  0.24250309  1
  C  C93  1  0.64289215  0.49977297  0.92280873  1
  C  C94  1  0.86668416  0.35394617  0.92236591  1
  C  C95  1  0.49611634  0.12916658  0.92150099  1
  C  C96  1  0.63884504  0.15211445  0.42216513  1
  C  C97  1  0.52537137  0.37851172  0.42691718  1
  C  C98  1  0.87434518  0.48991953  0.42231767  1
  C  C99  1  0.33802920  0.49533376  0.07004237  1
  C  C100  1  0.16818257  0.68731636  0.06170671  1
  C  C101  1  0.52504284  0.85906614  0.06613040  1
  C  C102  1  0.32950812  0.85722685  0.57103297  1
  C  C103  1  0.52784192  0.66707270  0.57259018  1
  C  C104  1  0.16102707  0.49607222  0.57389973  1
  C  C105  1  0.30374298  0.83237257  0.25039567  1
  C  C106  1  0.52684696  0.70442937  0.25154713  1
  C  C107  1  0.18783642  0.48919654  0.25334182  1
  C  C108  1  0.30328234  0.48309884  0.75760138  1
  C  C109  1  0.18540696  0.71072111  0.75830602  1
  C  C110  1  0.54411224  0.82692532  0.75616973  1
