# generated using pymatgen
data_Cu7(Ni3C19)5
_symmetry_space_group_name_H-M   'P 1'
_cell_length_a   9.21053580
_cell_length_b   9.18252283
_cell_length_c   22.52098351
_cell_angle_alpha   89.93590792
_cell_angle_beta   90.02600280
_cell_angle_gamma   120.01574781
_symmetry_Int_Tables_number   1
_chemical_formula_structural   Cu7(Ni3C19)5
_chemical_formula_sum   'Cu7 Ni15 C95'
_cell_volume   1649.28490009
_cell_formula_units_Z   1
loop_
 _symmetry_equiv_pos_site_id
 _symmetry_equiv_pos_as_xyz
  1  'x, y, z'
loop_
 _atom_site_type_symbol
 _atom_site_label
 _atom_site_symmetry_multiplicity
 _atom_site_fract_x
 _atom_site_fract_y
 _atom_site_fract_z
 _atom_site_occupancy
  Ni  Ni0  1  0.98068265  0.64334207  0.24156701  1
  Ni  Ni1  1  0.66674426  0.65433029  0.74916630  1
  Ni  Ni2  1  0.98829102  0.33300720  0.75025342  1
  Ni  Ni3  1  0.34533209  0.01179926  0.75053931  1
  Ni  Ni4  1  0.29548478  0.33786848  0.58179086  1
  Ni  Ni5  1  0.04560935  0.70596175  0.58219681  1
  Ni  Ni6  1  0.65816741  0.95689804  0.58220325  1
  Ni  Ni7  1  0.65065385  0.67399707  0.07640995  1
  Ni  Ni8  1  0.31419817  0.01001625  0.40709696  1
  Ni  Ni9  1  0.98232856  0.99863605  0.49448058  1
  Ni  Ni10  1  0.01770570  0.01514775  0.98893647  1
  Ni  Ni11  1  0.66766584  0.33422119  0.83546423  1
  Ni  Ni12  1  0.66001691  0.32592745  0.32373729  1
  Ni  Ni13  1  0.32698095  0.67012700  0.15703330  1
  Ni  Ni14  1  0.33339746  0.66707179  0.66340604  1
  Cu  Cu15  1  0.99419336  0.00470288  0.35216068  1
  Cu  Cu16  1  0.99853929  0.99854177  0.85314618  1
  Cu  Cu17  1  0.00002851  0.00026044  0.65123560  1
  Cu  Cu18  1  0.66678530  0.33285921  0.68401902  1
  Cu  Cu19  1  0.66064200  0.32144379  0.18606365  1
  Cu  Cu20  1  0.32600570  0.66740880  0.01892013  1
  Cu  Cu21  1  0.33525507  0.66350898  0.51153988  1
  C  C22  1  0.00277086  0.00821328  0.14691543  1
  C  C23  1  0.66587846  0.32911948  0.98280177  1
  C  C24  1  0.67093543  0.33846808  0.47707751  1
  C  C25  1  0.33762213  0.66269559  0.31376745  1
  C  C26  1  0.33245154  0.66642766  0.82502669  1
  C  C27  1  0.28646147  0.98445982  0.25406320  1
  C  C28  1  0.70174448  0.71489312  0.24978194  1
  C  C29  1  0.01717494  0.30530721  0.25132728  1
  C  C30  1  0.30502917  0.31693643  0.74958444  1
  C  C31  1  0.01276808  0.69478875  0.74945858  1
  C  C32  1  0.68227457  0.98672565  0.74950800  1
  C  C33  1  0.95783915  0.32721614  0.58117249  1
  C  C34  1  0.36911714  0.04243055  0.57960584  1
  C  C35  1  0.67337546  0.63132757  0.58151611  1
  C  C36  1  0.95497432  0.63656946  0.08805071  1
  C  C37  1  0.68322692  0.04395873  0.08480624  1
  C  C38  1  0.36808095  0.31956448  0.08488810  1
  C  C39  1  0.62646151  0.65190680  0.92417602  1
  C  C40  1  0.02486878  0.37279076  0.92205698  1
  C  C41  1  0.34826666  0.97644976  0.92142134  1
  C  C42  1  0.62473078  0.97271930  0.41854611  1
  C  C43  1  0.34835875  0.37391327  0.41836887  1
  C  C44  1  0.03116798  0.65319239  0.41663066  1
  C  C45  1  0.21266888  0.99618100  0.31207668  1
  C  C46  1  0.81023081  0.79192687  0.30299602  1
  C  C47  1  0.99224749  0.20943307  0.30699716  1
  C  C48  1  0.20741909  0.18431504  0.79594442  1
  C  C49  1  0.97743671  0.79096297  0.79627680  1
  C  C50  1  0.81449940  0.02267144  0.79601139  1
  C  C51  1  0.73515848  0.94777512  0.68873750  1
  C  C52  1  0.21303321  0.26546208  0.68878749  1
  C  C53  1  0.05139196  0.78763622  0.68880388  1
  C  C54  1  0.79339857  0.83343253  0.19307492  1
  C  C55  1  0.03412654  0.20227601  0.19614166  1
  C  C56  1  0.15817560  0.96276358  0.20100206  1
  C  C57  1  0.87953011  0.33483198  0.63945260  1
  C  C58  1  0.45808025  0.12410039  0.63723697  1
  C  C59  1  0.66692355  0.54608600  0.63992491  1
  C  C60  1  0.87927375  0.55010839  0.14598399  1
  C  C61  1  0.65942404  0.11584566  0.14059145  1
  C  C62  1  0.47271646  0.34944388  0.13906887  1
  C  C63  1  0.46553216  0.29422025  0.02963549  1
  C  C64  1  0.82578450  0.52935549  0.03512251  1
  C  C65  1  0.70024788  0.16428886  0.02983061  1
  C  C66  1  0.48412009  0.15667967  0.52461242  1
  C  C67  1  0.67157534  0.51242936  0.52773642  1
  C  C68  1  0.84108948  0.32919004  0.52730383  1
  C  C69  1  0.55484235  0.66939863  0.98153444  1
  C  C70  1  0.12280288  0.44780444  0.97686327  1
  C  C71  1  0.32961912  0.88084764  0.97661494  1
  C  C72  1  0.55393116  0.89166121  0.47804062  1
  C  C73  1  0.32852636  0.43776404  0.47777442  1
  C  C74  1  0.12139615  0.67332077  0.47493904  1
  C  C75  1  0.13646565  0.63388090  0.36329833  1
  C  C76  1  0.49399514  0.86003196  0.36695787  1
  C  C77  1  0.36195433  0.50034934  0.36629643  1
  C  C78  1  0.12900213  0.49639909  0.86620156  1
  C  C79  1  0.36370569  0.87051121  0.86569391  1
  C  C80  1  0.49744816  0.63580230  0.87108215  1
  C  C81  1  0.01002783  0.80475079  0.40843334  1
  C  C82  1  0.80006535  0.00543446  0.41101740  1
  C  C83  1  0.20989782  0.19468574  0.40916387  1
  C  C84  1  0.98759168  0.19591088  0.90980850  1
  C  C85  1  0.20834340  0.01346930  0.91025068  1
  C  C86  1  0.80063520  0.79476759  0.91148714  1
  C  C87  1  0.95924368  0.16127075  0.57442428  1
  C  C88  1  0.20047773  0.03843675  0.57339843  1
  C  C89  1  0.83800573  0.79916053  0.57413920  1
  C  C90  1  0.95431809  0.81246854  0.08943491  1
  C  C91  1  0.85926267  0.04539840  0.08899825  1
  C  C92  1  0.19228209  0.14873798  0.09203209  1
  C  C93  1  0.64230208  0.13060890  0.74929195  1
  C  C94  1  0.48794229  0.35500075  0.74941393  1
  C  C95  1  0.86841311  0.51107768  0.74943127  1
  C  C96  1  0.67029766  0.53775526  0.24177282  1
  C  C97  1  0.88370898  0.35406886  0.24235568  1
  C  C98  1  0.46370392  0.12599436  0.24623675  1
  C  C99  1  0.62783717  0.47946012  0.92477113  1
  C  C100  1  0.85297955  0.37537230  0.92498219  1
  C  C101  1  0.52300227  0.14932342  0.92295125  1
  C  C102  1  0.62181986  0.14608735  0.41675665  1
  C  C103  1  0.52064134  0.37218539  0.41811411  1
  C  C104  1  0.85344333  0.48569401  0.41887786  1
  C  C105  1  0.33903090  0.46606681  0.07566968  1
  C  C106  1  0.13155078  0.67108914  0.08014764  1
  C  C107  1  0.54882555  0.86153946  0.07640411  1
  C  C108  1  0.34713611  0.86492953  0.57766574  1
  C  C109  1  0.51795488  0.65192415  0.57844177  1
  C  C110  1  0.13444856  0.48232943  0.57803216  1
  C  C111  1  0.28510950  0.80689447  0.25577310  1
  C  C112  1  0.52526804  0.70820273  0.25921453  1
  C  C113  1  0.19279722  0.48029005  0.25598184  1
  C  C114  1  0.31149637  0.48997452  0.76542667  1
  C  C115  1  0.18090126  0.69066531  0.76410285  1
  C  C116  1  0.51117775  0.81793405  0.76502952  1
