# generated using pymatgen
data_Cu2Ni2C11
_symmetry_space_group_name_H-M   'P 1'
_cell_length_a   6.08278357
_cell_length_b   6.08278353
_cell_length_c   6.88059739
_cell_angle_alpha   90.00000000
_cell_angle_beta   90.00000000
_cell_angle_gamma   119.84978012
_symmetry_Int_Tables_number   1
_chemical_formula_structural   Cu2Ni2C11
_chemical_formula_sum   'Cu2 Ni2 C11'
_cell_volume   220.80907236
_cell_formula_units_Z   1
loop_
 _symmetry_equiv_pos_site_id
 _symmetry_equiv_pos_as_xyz
  1  'x, y, z'
loop_
 _atom_site_type_symbol
 _atom_site_label
 _atom_site_symmetry_multiplicity
 _atom_site_fract_x
 _atom_site_fract_y
 _atom_site_fract_z
 _atom_site_occupancy
  C  C0  1  0.55698516  0.44301484  0.96803706  1
  C  C1  1  0.55698516  0.44301484  0.53196294  1
  C  C2  1  0.36337605  0.63662395  0.25000000  1
  Ni  Ni3  1  0.88335980  0.11664020  0.75000000  1
  Ni  Ni4  1  0.09410358  0.90589642  0.25000000  1
  Cu  Cu5  1  0.19422428  0.80577572  0.75000000  1
  Cu  Cu6  1  0.82276641  0.17723359  0.25000000  1
  C  C7  1  0.72940653  0.75777318  0.25000000  1
  C  C8  1  0.24222682  0.27059347  0.25000000  1
  C  C9  1  0.22601572  0.77398428  0.44761231  1
  C  C10  1  0.22601572  0.77398428  0.05238769  1
  C  C11  1  0.77642795  0.22357205  0.55223866  1
  C  C12  1  0.77642795  0.22357205  0.94776134  1
  C  C13  1  0.21030669  0.24196081  0.75000000  1
  C  C14  1  0.75803919  0.78969331  0.75000000  1
