# generated using pymatgen
data_Cu5(Ni7C12)2
_symmetry_space_group_name_H-M   'P 1'
_cell_length_a   5.94114600
_cell_length_b   10.17861400
_cell_length_c   14.34867500
_cell_angle_alpha   90.00000000
_cell_angle_beta   90.00000000
_cell_angle_gamma   90.00000000
_symmetry_Int_Tables_number   1
_chemical_formula_structural   Cu5(Ni7C12)2
_chemical_formula_sum   'Cu10 Ni28 C48'
_cell_volume   867.70214083
_cell_formula_units_Z   2
loop_
 _symmetry_equiv_pos_site_id
 _symmetry_equiv_pos_as_xyz
  1  'x, y, z'
loop_
 _atom_site_type_symbol
 _atom_site_label
 _atom_site_symmetry_multiplicity
 _atom_site_fract_x
 _atom_site_fract_y
 _atom_site_fract_z
 _atom_site_occupancy
  Ni  Ni0  1  0.75612800  0.41887400  0.66956400  1
  Ni  Ni1  1  0.75612800  0.58112600  0.33043600  1
  Ni  Ni2  1  0.24387200  0.91887400  0.83043600  1
  Ni  Ni3  1  0.24387200  0.08112600  0.16956400  1
  Ni  Ni4  1  0.24387200  0.58112600  0.33043600  1
  Ni  Ni5  1  0.24387200  0.41887400  0.66956400  1
  Ni  Ni6  1  0.75612800  0.08112600  0.16956400  1
  Ni  Ni7  1  0.75612800  0.91887400  0.83043600  1
  Ni  Ni8  1  0.00000000  0.32060800  0.32402900  1
  Ni  Ni9  1  0.00000000  0.67939200  0.67597100  1
  Ni  Ni10  1  0.00000000  0.82060800  0.17597100  1
  Ni  Ni11  1  0.00000000  0.17939200  0.82402900  1
  Ni  Ni12  1  0.75971700  0.24659500  0.50240300  1
  Ni  Ni13  1  0.75971700  0.75340500  0.49759700  1
  Ni  Ni14  1  0.24028300  0.74659500  0.99759700  1
  Ni  Ni15  1  0.24028300  0.25340500  0.00240300  1
  Ni  Ni16  1  0.24028300  0.75340500  0.49759700  1
  Ni  Ni17  1  0.24028300  0.24659500  0.50240300  1
  Ni  Ni18  1  0.75971700  0.25340500  0.00240300  1
  Ni  Ni19  1  0.75971700  0.74659500  0.99759700  1
  Ni  Ni20  1  0.50000000  0.50000000  0.50000000  1
  Ni  Ni21  1  0.50000000  0.00000000  0.00000000  1
  Ni  Ni22  1  0.50000000  0.85450100  0.32542300  1
  Ni  Ni23  1  0.50000000  0.14549900  0.67457700  1
  Ni  Ni24  1  0.50000000  0.35450100  0.17457700  1
  Ni  Ni25  1  0.50000000  0.64549900  0.82542300  1
  Ni  Ni26  1  0.50000000  0.00000000  0.50000000  1
  Ni  Ni27  1  0.50000000  0.50000000  0.00000000  1
  Cu  Cu28  1  0.00000000  0.49781000  0.12472600  1
  Cu  Cu29  1  0.00000000  0.50219000  0.87527400  1
  Cu  Cu30  1  0.00000000  0.99781000  0.37527400  1
  Cu  Cu31  1  0.00000000  0.00219000  0.62472600  1
  Cu  Cu32  1  0.50000000  0.67409500  0.18862700  1
  Cu  Cu33  1  0.50000000  0.32590500  0.81137300  1
  Cu  Cu34  1  0.50000000  0.17409500  0.31137300  1
  Cu  Cu35  1  0.50000000  0.82590500  0.68862700  1
  Cu  Cu36  1  0.00000000  0.50000000  0.50000000  1
  Cu  Cu37  1  0.00000000  0.00000000  0.00000000  1
  C  C38  1  0.71772900  0.24722000  0.26213000  1
  C  C39  1  0.71772900  0.75278000  0.73787000  1
  C  C40  1  0.28227100  0.74722000  0.23787000  1
  C  C41  1  0.28227100  0.25278000  0.76213000  1
  C  C42  1  0.28227100  0.75278000  0.73787000  1
  C  C43  1  0.28227100  0.24722000  0.26213000  1
  C  C44  1  0.71772900  0.25278000  0.76213000  1
  C  C45  1  0.71772900  0.74722000  0.23787000  1
  C  C46  1  0.78515700  0.07475200  0.92641500  1
  C  C47  1  0.78515700  0.92524800  0.07358500  1
  C  C48  1  0.21484300  0.57475200  0.57358500  1
  C  C49  1  0.21484300  0.42524800  0.42641500  1
  C  C50  1  0.21484300  0.92524800  0.07358500  1
  C  C51  1  0.21484300  0.07475200  0.92641500  1
  C  C52  1  0.78515700  0.42524800  0.42641500  1
  C  C53  1  0.78515700  0.57475200  0.57358500  1
  C  C54  1  0.76560700  0.07877200  0.58744500  1
  C  C55  1  0.76560700  0.92122800  0.41255500  1
  C  C56  1  0.23439300  0.57877200  0.91255500  1
  C  C57  1  0.23439300  0.42122800  0.08744500  1
  C  C58  1  0.23439300  0.92122800  0.41255500  1
  C  C59  1  0.23439300  0.07877200  0.58744500  1
  C  C60  1  0.76560700  0.42122800  0.08744500  1
  C  C61  1  0.76560700  0.57877200  0.91255500  1
  C  C62  1  0.50000000  0.97170400  0.74021100  1
  C  C63  1  0.50000000  0.02829600  0.25978900  1
  C  C64  1  0.50000000  0.47170400  0.75978900  1
  C  C65  1  0.50000000  0.52829600  0.24021100  1
  C  C66  1  0.50000000  0.66953000  0.07502700  1
  C  C67  1  0.50000000  0.33047000  0.92497300  1
  C  C68  1  0.50000000  0.16953000  0.42497300  1
  C  C69  1  0.50000000  0.83047000  0.57502700  1
  C  C70  1  0.50000000  0.67228100  0.41406800  1
  C  C71  1  0.50000000  0.32771900  0.58593200  1
  C  C72  1  0.50000000  0.17228100  0.08593200  1
  C  C73  1  0.50000000  0.82771900  0.91406800  1
  C  C74  1  0.00000000  0.99573800  0.25839600  1
  C  C75  1  0.00000000  0.00426200  0.74160400  1
  C  C76  1  0.00000000  0.65299700  0.08597900  1
  C  C77  1  0.00000000  0.34700300  0.91402100  1
  C  C78  1  0.00000000  0.15299700  0.41402100  1
  C  C79  1  0.00000000  0.84700300  0.58597900  1
  C  C80  1  0.00000000  0.64644700  0.42423700  1
  C  C81  1  0.00000000  0.35355300  0.57576300  1
  C  C82  1  0.00000000  0.14644700  0.07576300  1
  C  C83  1  0.00000000  0.85355300  0.92423700  1
  C  C84  1  0.00000000  0.50426200  0.75839600  1
  C  C85  1  0.00000000  0.49573800  0.24160400  1
