# generated using pymatgen
data_CuNiC8
_symmetry_space_group_name_H-M   'P 1'
_cell_length_a   6.58871872
_cell_length_b   6.58871872
_cell_length_c   14.51090600
_cell_angle_alpha   90.00000000
_cell_angle_beta   90.00000000
_cell_angle_gamma   120.00000725
_symmetry_Int_Tables_number   1
_chemical_formula_structural   CuNiC8
_chemical_formula_sum   'Cu2 Ni2 C16'
_cell_volume   545.54058347
_cell_formula_units_Z   2
loop_
 _symmetry_equiv_pos_site_id
 _symmetry_equiv_pos_as_xyz
  1  'x, y, z'
loop_
 _atom_site_type_symbol
 _atom_site_label
 _atom_site_symmetry_multiplicity
 _atom_site_fract_x
 _atom_site_fract_y
 _atom_site_fract_z
 _atom_site_occupancy
  Ni  Ni0  1  0.00000000  0.00000000  0.25000000  1
  Ni  Ni1  1  0.00000000  0.00000000  0.75000000  1
  Cu  Cu2  1  0.66666700  0.33333300  0.25000000  1
  Cu  Cu3  1  0.33333300  0.66666700  0.75000000  1
  C  C4  1  0.66666700  0.33333300  0.67128600  1
  C  C5  1  0.66666700  0.33333300  0.82871400  1
  C  C6  1  0.33333300  0.66666700  0.32871400  1
  C  C7  1  0.33333300  0.66666700  0.17128600  1
  C  C8  1  0.98188100  0.32059600  0.87306800  1
  C  C9  1  0.33871500  0.32059600  0.62693200  1
  C  C10  1  0.98188100  0.66128500  0.62693200  1
  C  C11  1  0.67940400  0.01811900  0.62693200  1
  C  C12  1  0.32059600  0.33871500  0.12693200  1
  C  C13  1  0.66128500  0.98188100  0.12693200  1
  C  C14  1  0.01811900  0.67940400  0.12693200  1
  C  C15  1  0.66128500  0.67940400  0.37306800  1
  C  C16  1  0.01811900  0.33871500  0.37306800  1
  C  C17  1  0.32059600  0.98188100  0.37306800  1
  C  C18  1  0.67940400  0.66128500  0.87306800  1
  C  C19  1  0.33871500  0.01811900  0.87306800  1
