# generated using pymatgen
data_Cu2NiC10
_symmetry_space_group_name_H-M   'P 1'
_cell_length_a   5.67652323
_cell_length_b   5.65385235
_cell_length_c   6.35667358
_cell_angle_alpha   90.00000000
_cell_angle_beta   90.00000000
_cell_angle_gamma   59.15847048
_symmetry_Int_Tables_number   1
_chemical_formula_structural   Cu2NiC10
_chemical_formula_sum   'Cu2 Ni1 C10'
_cell_volume   175.16279818
_cell_formula_units_Z   1
loop_
 _symmetry_equiv_pos_site_id
 _symmetry_equiv_pos_as_xyz
  1  'x, y, z'
loop_
 _atom_site_type_symbol
 _atom_site_label
 _atom_site_symmetry_multiplicity
 _atom_site_fract_x
 _atom_site_fract_y
 _atom_site_fract_z
 _atom_site_occupancy
  Ni  Ni0  1  0.84256401  0.83157043  0.75000000  1
  C  C1  1  0.39169004  0.39301190  0.25000000  1
  C  C2  1  0.57276418  0.57077558  0.75000000  1
  Cu  Cu3  1  0.08129021  0.08499815  0.02449986  1
  Cu  Cu4  1  0.08129021  0.08499815  0.47550014  1
  C  C5  1  0.23264953  0.75552374  0.25000000  1
  C  C6  1  0.21271288  0.78226624  0.75000000  1
  C  C7  1  0.28238739  0.28559939  0.03628668  1
  C  C8  1  0.28238739  0.28559939  0.46371332  1
  C  C9  1  0.68592210  0.68097060  0.54678192  1
  C  C10  1  0.68592210  0.68097060  0.95321808  1
  C  C11  1  0.75242462  0.23378620  0.25000000  1
  C  C12  1  0.77932833  0.20909662  0.75000000  1
