# generated using pymatgen
data_Cu(Ni2C7)3
_symmetry_space_group_name_H-M   'P 1'
_cell_length_a   8.28714160
_cell_length_b   8.28714160
_cell_length_c   10.10521302
_cell_angle_alpha   87.03676349
_cell_angle_beta   87.03676349
_cell_angle_gamma   63.34904010
_symmetry_Int_Tables_number   1
_chemical_formula_structural   Cu(Ni2C7)3
_chemical_formula_sum   'Cu2 Ni12 C42'
_cell_volume   619.11466167
_cell_formula_units_Z   2
loop_
 _symmetry_equiv_pos_site_id
 _symmetry_equiv_pos_as_xyz
  1  'x, y, z'
loop_
 _atom_site_type_symbol
 _atom_site_label
 _atom_site_symmetry_multiplicity
 _atom_site_fract_x
 _atom_site_fract_y
 _atom_site_fract_z
 _atom_site_occupancy
  C  C0  1  0.02982700  0.97017300  0.75000000  1
  C  C1  1  0.97017300  0.02982700  0.25000000  1
  C  C2  1  0.97199800  0.53419200  0.69309600  1
  C  C3  1  0.46580800  0.02800200  0.80690400  1
  C  C4  1  0.02800200  0.46580800  0.30690400  1
  C  C5  1  0.53419200  0.97199800  0.19309600  1
  C  C6  1  0.30268100  0.10072800  0.48702200  1
  C  C7  1  0.89927200  0.69731900  0.01297800  1
  C  C8  1  0.10072800  0.30268100  0.98702200  1
  C  C9  1  0.69731900  0.89927200  0.51297800  1
  Ni  Ni10  1  0.76849100  0.49234100  0.92596100  1
  Ni  Ni11  1  0.50765900  0.23150900  0.57403900  1
  Ni  Ni12  1  0.23150900  0.50765900  0.07403900  1
  Ni  Ni13  1  0.49234100  0.76849100  0.42596100  1
  Ni  Ni14  1  0.31455100  0.57828600  0.63146200  1
  Ni  Ni15  1  0.42171400  0.68544900  0.86853800  1
  Ni  Ni16  1  0.68544900  0.42171400  0.36853800  1
  Ni  Ni17  1  0.57828600  0.31455100  0.13146200  1
  Ni  Ni18  1  0.17703200  0.69652300  0.52311300  1
  Ni  Ni19  1  0.30347700  0.82296800  0.97688700  1
  Ni  Ni20  1  0.82296800  0.30347700  0.47688700  1
  Ni  Ni21  1  0.69652300  0.17703200  0.02311300  1
  Cu  Cu22  1  0.34493100  0.65506900  0.25000000  1
  Cu  Cu23  1  0.65506900  0.34493100  0.75000000  1
  C  C24  1  0.88201000  0.50212100  0.93618800  1
  C  C25  1  0.49787900  0.11799000  0.56381200  1
  C  C26  1  0.11799000  0.49787900  0.06381200  1
  C  C27  1  0.50212100  0.88201000  0.43618800  1
  C  C28  1  0.18604800  0.66796100  0.61875900  1
  C  C29  1  0.33203900  0.81395200  0.88124100  1
  C  C30  1  0.81395200  0.33203900  0.38124100  1
  C  C31  1  0.66796100  0.18604800  0.11875900  1
  C  C32  1  0.59476200  0.47926000  0.85570800  1
  C  C33  1  0.31930400  0.83463600  0.18968000  1
  C  C34  1  0.40523800  0.52074000  0.14429200  1
  C  C35  1  0.47926000  0.59476200  0.35570800  1
  C  C36  1  0.83463600  0.31930400  0.68968000  1
  C  C37  1  0.68069600  0.16536400  0.81032000  1
  C  C38  1  0.16536400  0.68069600  0.31032000  1
  C  C39  1  0.52074000  0.40523800  0.64429200  1
  C  C40  1  0.02185500  0.25824000  0.15203000  1
  C  C41  1  0.67711200  0.79500800  0.67856100  1
  C  C42  1  0.79500800  0.67711200  0.17856100  1
  C  C43  1  0.32288800  0.20499200  0.32143900  1
  C  C44  1  0.13599800  0.33372800  0.52362200  1
  C  C45  1  0.66627200  0.86400200  0.97637800  1
  C  C46  1  0.86400200  0.66627200  0.47637800  1
  C  C47  1  0.33372800  0.13599800  0.02362200  1
  C  C48  1  0.04446100  0.13704300  0.92243200  1
  C  C49  1  0.86295700  0.95553900  0.57756800  1
  C  C50  1  0.95553900  0.86295700  0.07756800  1
  C  C51  1  0.13704300  0.04446100  0.42243200  1
  C  C52  1  0.97814500  0.74176000  0.84797000  1
  C  C53  1  0.25824000  0.02185500  0.65203000  1
  C  C54  1  0.74176000  0.97814500  0.34797000  1
  C  C55  1  0.20499200  0.32288800  0.82143900  1
