# generated using pymatgen
data_Cu3NiC15
_symmetry_space_group_name_H-M   'P 1'
_cell_length_a   8.89920466
_cell_length_b   8.89920437
_cell_length_c   22.41555090
_cell_angle_alpha   90.13162010
_cell_angle_beta   89.86837988
_cell_angle_gamma   120.20777526
_symmetry_Int_Tables_number   1
_chemical_formula_structural   Cu3NiC15
_chemical_formula_sum   'Cu18 Ni6 C90'
_cell_volume   1534.14995591
_cell_formula_units_Z   6
loop_
 _symmetry_equiv_pos_site_id
 _symmetry_equiv_pos_as_xyz
  1  'x, y, z'
loop_
 _atom_site_type_symbol
 _atom_site_label
 _atom_site_symmetry_multiplicity
 _atom_site_fract_x
 _atom_site_fract_y
 _atom_site_fract_z
 _atom_site_occupancy
  C  C0  1  0.36348657  0.35789586  0.24973432  1
  C  C1  1  0.64210414  0.63651343  0.74973432  1
  C  C2  1  0.03015357  0.69122886  0.58306732  1
  C  C3  1  0.30877114  0.96984643  0.08306732  1
  C  C4  1  0.69681957  0.02456286  0.91640132  1
  C  C5  1  0.97543714  0.30318043  0.41640132  1
  C  C6  1  0.99905447  0.99802778  0.49890739  1
  C  C7  1  0.00197222  0.00094553  0.99890739  1
  C  C8  1  0.66572147  0.33136078  0.83224039  1
  C  C9  1  0.66863922  0.33427853  0.33224039  1
  C  C10  1  0.33238747  0.66469478  0.16557439  1
  C  C11  1  0.33530522  0.66761253  0.66557439  1
  C  C12  1  0.00298743  0.01165223  0.64804633  1
  C  C13  1  0.98834777  0.99701257  0.14804633  1
  C  C14  1  0.66965443  0.34498523  0.98137933  1
  C  C15  1  0.65501477  0.33034557  0.48137933  1
  C  C16  1  0.33632043  0.67831923  0.31471333  1
  C  C17  1  0.32168077  0.66367957  0.81471333  1
  Ni  Ni18  1  0.99788465  0.99068885  0.35053440  1
  Ni  Ni19  1  0.00931115  0.00211535  0.85053440  1
  Ni  Ni20  1  0.66455165  0.32402185  0.68386740  1
  Ni  Ni21  1  0.67597815  0.33544835  0.18386740  1
  Ni  Ni22  1  0.33121765  0.65735585  0.01720140  1
  Ni  Ni23  1  0.34264415  0.66878235  0.51720140  1
  Cu  Cu24  1  0.28962251  0.99353443  0.24801159  1
  Cu  Cu25  1  0.70052559  0.70797185  0.24992616  1
  Cu  Cu26  1  0.00416385  0.29612836  0.25209030  1
  Cu  Cu27  1  0.29202815  0.29947441  0.74992616  1
  Cu  Cu28  1  0.00646557  0.71037749  0.74801159  1
  Cu  Cu29  1  0.70387164  0.99583615  0.75209030  1
  Cu  Cu30  1  0.95628951  0.32686743  0.58134459  1
  Cu  Cu31  1  0.36719259  0.04130485  0.58325916  1
  Cu  Cu32  1  0.67083085  0.62946136  0.58542330  1
  Cu  Cu33  1  0.95869515  0.63280741  0.08325916  1
  Cu  Cu34  1  0.67313257  0.04371049  0.08134459  1
  Cu  Cu35  1  0.37053864  0.32916915  0.08542330  1
  Cu  Cu36  1  0.62295551  0.66020143  0.91467859  1
  Cu  Cu37  1  0.03385859  0.37463885  0.91659316  1
  Cu  Cu38  1  0.33749685  0.96279536  0.91875730  1
  Cu  Cu39  1  0.62536115  0.96614141  0.41659316  1
  Cu  Cu40  1  0.33979857  0.37704449  0.41467859  1
  Cu  Cu41  1  0.03720464  0.66250315  0.41875730  1
  C  C42  1  0.21556515  0.03486456  0.30303155  1
  C  C43  1  0.80499140  0.77916482  0.30670356  1
  C  C44  1  0.98105153  0.19862683  0.31061326  1
  C  C45  1  0.22083518  0.19500860  0.80670356  1
  C  C46  1  0.96513544  0.78443485  0.80303155  1
  C  C47  1  0.80137317  0.01894847  0.81061326  1
  C  C48  1  0.80885813  0.97373837  0.69849893  1
  C  C49  1  0.17290435  0.19752018  0.69487973  1
  C  C50  1  0.03148505  0.82466455  0.69137070  1
  C  C51  1  0.80247982  0.82709565  0.19487973  1
  C  C52  1  0.02626163  0.19114187  0.19849893  1
  C  C53  1  0.17533545  0.96851495  0.19137070  1
  C  C54  1  0.88223215  0.36819756  0.63636455  1
  C  C55  1  0.47165840  0.11249782  0.64003656  1
  C  C56  1  0.64771853  0.53195983  0.64394626  1
  C  C57  1  0.88750218  0.52834160  0.14003656  1
  C  C58  1  0.63180244  0.11776785  0.13636455  1
  C  C59  1  0.46804017  0.35228147  0.14394626  1
  C  C60  1  0.47552513  0.30707137  0.03183193  1
  C  C61  1  0.83957135  0.53085318  0.02821273  1
  C  C62  1  0.69815205  0.15799755  0.02470370  1
  C  C63  1  0.46914682  0.16042865  0.52821273  1
  C  C64  1  0.69292863  0.52447487  0.53183193  1
  C  C65  1  0.84200245  0.30184795  0.52470370  1
  C  C66  1  0.54889815  0.70153156  0.96969855  1
  C  C67  1  0.13832440  0.44583182  0.97337056  1
  C  C68  1  0.31438453  0.86529383  0.97728026  1
  C  C69  1  0.55416818  0.86167560  0.47337056  1
  C  C70  1  0.29846844  0.45110185  0.46969855  1
  C  C71  1  0.13470617  0.68561547  0.47728026  1
  C  C72  1  0.14219113  0.64040537  0.36516593  1
  C  C73  1  0.50623735  0.86418718  0.36154673  1
  C  C74  1  0.36481805  0.49133155  0.35803770  1
  C  C75  1  0.13581282  0.49376265  0.86154673  1
  C  C76  1  0.35959463  0.85780887  0.86516593  1
  C  C77  1  0.50866845  0.63518195  0.85803770  1
  C  C78  1  0.01083607  0.81765382  0.41241115  1
  C  C79  1  0.81242154  0.00206004  0.41013929  1
  C  C80  1  0.17995091  0.19359071  0.40953593  1
  C  C81  1  0.99793996  0.18757846  0.91013929  1
  C  C82  1  0.18234618  0.98916393  0.91241115  1
  C  C83  1  0.80640929  0.82004909  0.90953593  1
  C  C84  1  0.96650650  0.15794830  0.59045709  1
  C  C85  1  0.18746262  0.03194099  0.58736920  1
  C  C86  1  0.84552578  0.80761157  0.58773911  1
  C  C87  1  0.96805901  0.81253738  0.08736920  1
  C  C88  1  0.84205170  0.03349350  0.09045709  1
  C  C89  1  0.19238843  0.15447422  0.08773911  1
  C  C90  1  0.67750307  0.15098682  0.74574415  1
  C  C91  1  0.47908854  0.33539304  0.74347229  1
  C  C92  1  0.84661791  0.52692371  0.74286893  1
  C  C93  1  0.66460696  0.52091146  0.24347229  1
  C  C94  1  0.84901318  0.32249693  0.24574415  1
  C  C95  1  0.47307629  0.15338209  0.24286893  1
  C  C96  1  0.63317350  0.49128130  0.92379009  1
  C  C97  1  0.85412962  0.36527399  0.92070220  1
  C  C98  1  0.51219278  0.14094457  0.92107211  1
  C  C99  1  0.63472601  0.14587038  0.42070220  1
  C  C100  1  0.50871870  0.36682650  0.42379009  1
  C  C101  1  0.85905543  0.48780722  0.42107211  1
  C  C102  1  0.34416907  0.48432082  0.07907815  1
  C  C103  1  0.14575454  0.66872704  0.07680629  1
  C  C104  1  0.51328391  0.86025771  0.07620293  1
  C  C105  1  0.33127296  0.85424546  0.57680629  1
  C  C106  1  0.51567918  0.65583093  0.57907815  1
  C  C107  1  0.13974229  0.48671609  0.57620293  1
  C  C108  1  0.29983950  0.82461530  0.25712409  1
  C  C109  1  0.52079562  0.69860799  0.25403620  1
  C  C110  1  0.17885878  0.47427857  0.25440611  1
  C  C111  1  0.30139201  0.47920438  0.75403620  1
  C  C112  1  0.17538470  0.70016050  0.75712409  1
  C  C113  1  0.52572143  0.82114122  0.75440611  1
