# generated using pymatgen
data_Cu2NiC16
_symmetry_space_group_name_H-M   'P 1'
_cell_length_a   4.83525030
_cell_length_b   4.75770618
_cell_length_c   8.72610685
_cell_angle_alpha   89.56906586
_cell_angle_beta   90.30244985
_cell_angle_gamma   92.03191772
_symmetry_Int_Tables_number   1
_chemical_formula_structural   Cu2NiC16
_chemical_formula_sum   'Cu2 Ni1 C16'
_cell_volume   200.60705463
_cell_formula_units_Z   1
loop_
 _symmetry_equiv_pos_site_id
 _symmetry_equiv_pos_as_xyz
  1  'x, y, z'
loop_
 _atom_site_type_symbol
 _atom_site_label
 _atom_site_symmetry_multiplicity
 _atom_site_fract_x
 _atom_site_fract_y
 _atom_site_fract_z
 _atom_site_occupancy
  Ni  Ni0  1  0.00513400  0.50143900  0.00378100  1
  C  C1  1  0.99974800  0.00070400  0.33749800  1
  C  C2  1  0.99990500  0.99577000  0.67124900  1
  C  C3  1  0.51333100  0.48448600  0.17976900  1
  C  C4  1  0.50015800  0.50040100  0.82921900  1
  Cu  Cu5  1  0.99951100  0.00014100  0.00362100  1
  Cu  Cu6  1  0.47144100  0.52735200  0.50452400  1
  C  C7  1  0.15699000  0.78972800  0.15967400  1
  C  C8  1  0.16127700  0.78044700  0.84358200  1
  C  C9  1  0.19064800  0.79275400  0.50617900  1
  C  C10  1  0.33132600  0.27963200  0.00364800  1
  C  C11  1  0.31979800  0.30565400  0.34798900  1
  C  C12  1  0.31984000  0.30625000  0.66353000  1
  C  C13  1  0.67447200  0.69958200  0.34661900  1
  C  C14  1  0.67471700  0.69954300  0.66337400  1
  C  C15  1  0.67146600  0.71479100  0.00305000  1
  C  C16  1  0.82804000  0.18604300  0.50825900  1
  C  C17  1  0.84081200  0.22310400  0.16303400  1
  C  C18  1  0.84138600  0.21217800  0.84711200  1
