# generated using pymatgen
data_Cu6NiC18
_symmetry_space_group_name_H-M   'P 1'
_cell_length_a   8.65238904
_cell_length_b   9.17911171
_cell_length_c   9.51166994
_cell_angle_alpha   73.73406213
_cell_angle_beta   107.41713534
_cell_angle_gamma   154.81485933
_symmetry_Int_Tables_number   1
_chemical_formula_structural   Cu6NiC18
_chemical_formula_sum   'Cu6 Ni1 C18'
_cell_volume   306.65037460
_cell_formula_units_Z   1
loop_
 _symmetry_equiv_pos_site_id
 _symmetry_equiv_pos_as_xyz
  1  'x, y, z'
loop_
 _atom_site_type_symbol
 _atom_site_label
 _atom_site_symmetry_multiplicity
 _atom_site_fract_x
 _atom_site_fract_y
 _atom_site_fract_z
 _atom_site_occupancy
  Ni  Ni0  1  0.52541100  0.27993100  0.99671200  1
  Cu  Cu1  1  0.79929500  0.22636000  0.78607700  1
  Cu  Cu2  1  0.18205600  0.73834000  0.21070400  1
  Cu  Cu3  1  0.86722500  0.21348300  0.49629500  1
  Cu  Cu4  1  0.12940000  0.76590400  0.49994400  1
  Cu  Cu5  1  0.88200700  0.18130500  0.18144600  1
  Cu  Cu6  1  0.10032400  0.76672000  0.79806400  1
  C  C7  1  0.68293400  0.75896200  0.11303400  1
  C  C8  1  0.97118200  0.90499300  0.23842100  1
  C  C9  1  0.14418100  0.19034800  0.99279900  1
  C  C10  1  0.20656200  0.28516600  0.82540800  1
  C  C11  1  0.90105500  0.21002200  0.97300500  1
  C  C12  1  0.06247200  0.77062600  0.00280100  1
  C  C13  1  0.95720600  0.20349100  0.68814300  1
  C  C14  1  0.04929900  0.78587300  0.30185200  1
  C  C15  1  0.98327200  0.19034600  0.38445100  1
  C  C16  1  0.00238800  0.79006700  0.60596700  1
  C  C17  1  0.91908500  0.96600100  0.16861500  1
  C  C18  1  0.30888900  0.30721700  0.92601500  1
  C  C19  1  0.60991900  0.26419400  0.82737300  1
  C  C20  1  0.35155700  0.70229200  0.16684000  1
  C  C21  1  0.68179600  0.25222600  0.53333100  1
  C  C22  1  0.30295500  0.72423600  0.44289900  1
  C  C23  1  0.69897800  0.23684600  0.19298800  1
  C  C24  1  0.26659700  0.73375100  0.74133700  1
