# generated using pymatgen
data_Cu7Ni2C61
_symmetry_space_group_name_H-M   'P 1'
_cell_length_a   17.80411614
_cell_length_b   8.93959488
_cell_length_c   23.03274460
_cell_angle_alpha   89.94757472
_cell_angle_beta   90.11020366
_cell_angle_gamma   120.17013867
_symmetry_Int_Tables_number   1
_chemical_formula_structural   Cu7Ni2C61
_chemical_formula_sum   'Cu21 Ni6 C183'
_cell_volume   3169.32409777
_cell_formula_units_Z   3
loop_
 _symmetry_equiv_pos_site_id
 _symmetry_equiv_pos_as_xyz
  1  'x, y, z'
loop_
 _atom_site_type_symbol
 _atom_site_label
 _atom_site_symmetry_multiplicity
 _atom_site_fract_x
 _atom_site_fract_y
 _atom_site_fract_z
 _atom_site_occupancy
  C  C0  1  0.99747734  0.00271024  0.49624524  1
  C  C1  1  0.49862883  0.00319203  0.99272863  1
  C  C2  1  0.33815746  0.32201441  0.83135233  1
  C  C3  1  0.82342811  0.33282820  0.83362770  1
  C  C4  1  0.32520026  0.31770053  0.34042591  1
  C  C5  1  0.83546401  0.35353040  0.34008476  1
  C  C6  1  0.50002780  0.99292593  0.35948235  1
  C  C7  1  0.00061798  0.00530121  0.85726239  1
  C  C8  1  0.50010013  0.00495886  0.64295576  1
  C  C9  1  0.99896650  0.99527576  0.14327835  1
  C  C10  1  0.32447910  0.33471555  0.68905232  1
  C  C11  1  0.83370575  0.31236080  0.68771332  1
  C  C12  1  0.33011224  0.34448547  0.19069600  1
  C  C13  1  0.82518941  0.31336903  0.19099564  1
  C  C14  1  0.32589884  0.32895241  0.97213638  1
  C  C15  1  0.83016015  0.31993449  0.47420701  1
  C  C16  1  0.17093162  0.67122539  0.02170646  1
  C  C17  1  0.67694999  0.67221909  0.02134666  1
  C  C18  1  0.17074822  0.67250411  0.52544188  1
  C  C19  1  0.67302298  0.67033417  0.52256694  1
  C  C20  1  0.16624925  0.68647409  0.31195837  1
  C  C21  1  0.68067289  0.67855526  0.30883011  1
  C  C22  1  0.17913652  0.68177646  0.80720237  1
  C  C23  1  0.66450279  0.64443596  0.80985767  1
  Ni  Ni24  1  0.00115062  0.97969778  0.35641771  1
  Ni  Ni25  1  0.50128039  0.02260853  0.85458040  1
  Ni  Ni26  1  0.99269241  0.01531667  0.64823354  1
  Ni  Ni27  1  0.49521744  0.98615599  0.15310736  1
  Ni  Ni28  1  0.83313822  0.33228786  0.97967655  1
  Ni  Ni29  1  0.33209279  0.33233636  0.47983523  1
  Cu  Cu30  1  0.14144623  0.00440784  0.25106475  1
  Cu  Cu31  1  0.63910324  0.99152389  0.25123337  1
  Cu  Cu32  1  0.35341678  0.71450092  0.25185965  1
  Cu  Cu33  1  0.86013546  0.70953867  0.24845572  1
  Cu  Cu34  1  0.14096845  0.28687213  0.75117029  1
  Cu  Cu35  1  0.64570608  0.27819860  0.75050427  1
  Cu  Cu36  1  0.36090535  0.01241915  0.74849422  1
  Cu  Cu37  1  0.85332920  0.99396903  0.75232343  1
  Cu  Cu38  1  0.97763626  0.33199021  0.58036694  1
  Cu  Cu39  1  0.68870839  0.04411771  0.58196247  1
  Cu  Cu40  1  0.33679367  0.62156705  0.58010338  1
  Cu  Cu41  1  0.83454935  0.05051176  0.08104506  1
  Cu  Cu42  1  0.18951073  0.33420232  0.08300885  1
  Cu  Cu43  1  0.31508226  0.67793341  0.91574804  1
  Cu  Cu44  1  0.81147055  0.65764834  0.91482286  1
  Cu  Cu45  1  0.52522722  0.38429542  0.91992709  1
  Cu  Cu46  1  0.16215995  0.94148552  0.91657737  1
  Cu  Cu47  1  0.30975636  0.96163428  0.41798410  1
  Cu  Cu48  1  0.81569542  0.95561477  0.41645620  1
  Cu  Cu49  1  0.66478425  0.38320114  0.41693685  1
  Cu  Cu50  1  0.02456845  0.66610144  0.41954675  1
  C  C51  1  0.99945055  0.28765843  0.24910635  1
  C  C52  1  0.49977127  0.29171146  0.25126429  1
  C  C53  1  -0.00027743  0.71202201  0.75182611  1
  C  C54  1  0.49867279  0.70938313  0.74961654  1
  C  C55  1  0.47883187  0.33565687  0.58348276  1
  C  C56  1  0.18490150  0.03878673  0.58439199  1
  C  C57  1  0.83494306  0.61726998  0.58144820  1
  C  C58  1  0.47673328  0.61852424  0.08069969  1
  C  C59  1  0.97866829  0.62223730  0.08352791  1
  C  C60  1  0.33618263  0.05061722  0.08128956  1
  C  C61  1  0.68336280  0.32836290  0.08413382  1
  C  C62  1  0.02597891  0.38492725  0.91538536  1
  C  C63  1  0.66639921  0.94796607  0.91696196  1
  C  C64  1  0.16677761  0.38635358  0.41683448  1
  C  C65  1  0.52546855  0.66550234  0.41525614  1
  C  C66  1  0.11494527  0.06693648  0.30804864  1
  C  C67  1  0.59575491  0.03468796  0.30621967  1
  C  C68  1  0.42195683  0.81147518  0.30506243  1
  C  C69  1  0.91279888  0.76667837  0.30771535  1
  C  C70  1  0.48025981  0.17424895  0.30122897  1
  C  C71  1  0.97634875  0.18087020  0.30097871  1
  C  C72  1  0.09803853  0.16252137  0.80809799  1
  C  C73  1  0.61653512  0.16525249  0.80890718  1
  C  C74  1  0.47629402  0.77038271  0.80202611  1
  C  C75  1  0.98483833  0.79567916  0.80340566  1
  C  C76  1  0.41038733  0.05728802  0.80919081  1
  C  C77  1  0.92075985  0.03170982  0.80682042  1
  C  C78  1  0.40649653  0.97724532  0.69351439  1
  C  C79  1  0.88086299  0.93954942  0.69388674  1
  C  C80  1  0.09326506  0.21606070  0.69089039  1
  C  C81  1  0.58233813  0.18183996  0.69541890  1
  C  C82  1  0.01745756  0.81353362  0.69856543  1
  C  C83  1  0.51157803  0.81514135  0.69747787  1
  C  C84  1  0.38084255  0.81704913  0.19134104  1
  C  C85  1  0.90567931  0.83412488  0.19250006  1
  C  C86  1  0.01072751  0.20575156  0.19634613  1
  C  C87  1  0.51858968  0.22813958  0.19702250  1
  C  C88  1  0.08179586  0.98034043  0.19441975  1
  C  C89  1  0.59349895  0.96694235  0.18939844  1
  C  C90  1  0.43442881  0.35835024  0.63406057  1
  C  C91  1  0.93190117  0.35721159  0.63980240  1
  C  C92  1  0.23986437  0.13146703  0.63684615  1
  C  C93  1  0.75322738  0.13266014  0.63914499  1
  C  C94  1  0.31973586  0.49341591  0.63740862  1
  C  C95  1  0.82114459  0.51317212  0.63392504  1
  C  C96  1  0.43736028  0.51754768  0.13525330  1
  C  C97  1  0.93478736  0.51019341  0.13381986  1
  C  C98  1  0.32627676  0.13266867  0.13389501  1
  C  C99  1  0.81789598  0.14524181  0.13745448  1
  C  C100  1  0.25582328  0.37238668  0.13901823  1
  C  C101  1  0.73729520  0.34900245  0.13655103  1
  C  C102  1  0.23903743  0.30512678  0.02837554  1
  C  C103  1  0.72102986  0.30116237  0.03117989  1
  C  C104  1  0.42022358  0.52400246  0.03025837  1
  C  C105  1  0.92738443  0.55838928  0.02992028  1
  C  C106  1  0.34513834  0.15207600  0.02850738  1
  C  C107  1  0.85601039  0.16649099  0.02418208  1
  C  C108  1  0.22245004  0.14371084  0.53177787  1
  C  C109  1  0.73330401  0.16746573  0.52599740  1
  C  C110  1  0.35971806  0.54713208  0.52436493  1
  C  C111  1  0.84131897  0.53485589  0.52793264  1
  C  C112  1  0.42759602  0.29689879  0.52990574  1
  C  C113  1  0.91249488  0.31502490  0.52624726  1
  C  C114  1  0.25958543  0.69002398  0.97258835  1
  C  C115  1  0.76727423  0.68669197  0.97487560  1
  C  C116  1  0.07460557  0.46573614  0.97074704  1
  C  C117  1  0.58556041  0.49660615  0.97589339  1
  C  C118  1  0.15083948  0.82860751  0.97544036  1
  C  C119  1  0.66515604  0.85392605  0.97207512  1
  C  C120  1  0.26591974  0.84554906  0.47579019  1
  C  C121  1  0.75928437  0.82910868  0.47228186  1
  C  C122  1  0.16486879  0.47271490  0.47174196  1
  C  C123  1  0.64970137  0.47211646  0.47505117  1
  C  C124  1  0.08731755  0.67699206  0.47349524  1
  C  C125  1  0.57354547  0.68251613  0.47009734  1
  C  C126  1  0.06638081  0.63779118  0.35911324  1
  C  C127  1  0.57001545  0.65022849  0.36402322  1
  C  C128  1  0.24695996  0.86270091  0.36066189  1
  C  C129  1  0.75877407  0.86042409  0.35790621  1
  C  C130  1  0.17233630  0.48814219  0.36468014  1
  C  C131  1  0.67753463  0.50296667  0.36006828  1
  C  C132  1  0.07004680  0.49214394  0.86481643  1
  C  C133  1  0.56490725  0.49678174  0.86017960  1
  C  C134  1  0.17975945  0.85437272  0.86065595  1
  C  C135  1  0.67164740  0.85810455  0.86513753  1
  C  C136  1  0.25713431  0.65263989  0.85771554  1
  C  C137  1  0.74450296  0.62905439  0.86108897  1
  C  C138  1  0.02286921  0.84331280  0.42233359  1
  C  C139  1  0.52020205  0.82877028  0.41132522  1
  C  C140  1  0.40253152  0.97077108  0.40302436  1
  C  C141  1  0.91064134  0.98335509  0.41553217  1
  C  C142  1  0.08711846  0.21572053  0.41617098  1
  C  C143  1  0.58004021  0.19355813  0.40405048  1
  C  C144  1  0.02088636  0.21290581  0.91167349  1
  C  C145  1  0.52166409  0.20228263  0.92228817  1
  C  C146  1  0.07989227  0.96775449  0.90577789  1
  C  C147  1  0.58653954  0.95770080  0.91851501  1
  C  C148  1  0.41108642  0.83843625  0.91557748  1
  C  C149  1  0.90321137  0.83540155  0.90379393  1
  C  C150  1  0.49263434  0.18567671  0.59253608  1
  C  C151  1  0.98270457  0.15713026  0.57914949  1
  C  C152  1  0.09587979  0.00339637  0.59177431  1
  C  C153  1  0.59512418  0.02294780  0.59636481  1
  C  C154  1  0.41769181  0.81051806  0.59819868  1
  C  C155  1  0.91248084  0.79065920  0.58523198  1
  C  C156  1  0.48253440  0.79005988  0.08241203  1
  C  C157  1  0.99300800  0.80037135  0.09234207  1
  C  C158  1  0.41320848  0.02858057  0.08434702  1
  C  C159  1  0.91524709  0.02078740  0.09766000  1
  C  C160  1  0.09619039  0.16679042  0.09589380  1
  C  C161  1  0.59360746  0.18236314  0.09020984  1
  C  C162  1  0.34419753  0.17320678  0.73282899  1
  C  C163  1  0.84879077  0.17621759  0.74552711  1
  C  C164  1  0.24274777  0.31812946  0.74548114  1
  C  C165  1  0.74572456  0.32671846  0.73471344  1
  C  C166  1  0.42298545  0.52557245  0.73899251  1
  C  C167  1  0.91997594  0.53731038  0.74686162  1
  C  C168  1  0.35034160  0.52188955  0.24322794  1
  C  C169  1  0.84347907  0.51587768  0.23152478  1
  C  C170  1  0.42025076  0.30798055  0.24218630  1
  C  C171  1  0.92284293  0.31848747  0.23804729  1
  C  C172  1  0.24282827  0.16243303  0.23380302  1
  C  C173  1  0.74106427  0.16604450  0.24499560  1
  C  C174  1  0.31444949  0.49212411  0.92465759  1
  C  C175  1  0.82014656  0.48720779  0.91885373  1
  C  C176  1  0.42762269  0.36398953  0.92924148  1
  C  C177  1  0.93780220  0.36059165  0.91771256  1
  C  C178  1  0.25057894  0.13369794  0.92528126  1
  C  C179  1  0.74546686  0.12260043  0.91763551  1
  C  C180  1  0.32195342  0.15343674  0.41880573  1
  C  C181  1  0.81230353  0.13578895  0.42167024  1
  C  C182  1  0.24606560  0.36957224  0.41637755  1
  C  C183  1  0.75180226  0.36914707  0.42427276  1
  C  C184  1  0.43718579  0.51500398  0.41651744  1
  C  C185  1  0.92678383  0.49244476  0.42501236  1
  C  C186  1  0.17921436  0.50342743  0.07047013  1
  C  C187  1  0.68139648  0.49381042  0.07890756  1
  C  C188  1  0.06513227  0.63662591  0.07624954  1
  C  C189  1  0.56347031  0.63761812  0.07445160  1
  C  C190  1  0.25515341  0.87399049  0.07553284  1
  C  C191  1  0.74625172  0.86071473  0.07333672  1
  C  C192  1  0.18679640  0.87505152  0.58090046  1
  C  C193  1  0.67704365  0.85258452  0.56971568  1
  C  C194  1  0.24988431  0.63537917  0.57241615  1
  C  C195  1  0.75479031  0.63840210  0.57577292  1
  C  C196  1  0.07255010  0.50526194  0.57093351  1
  C  C197  1  0.56497363  0.49391601  0.57665012  1
  C  C198  1  0.15136667  0.83231513  0.25858059  1
  C  C199  1  0.65087327  0.82655369  0.26576533  1
  C  C200  1  0.25558787  0.66616251  0.26929785  1
  C  C201  1  0.76178609  0.68422791  0.25528542  1
  C  C202  1  0.07672350  0.45952608  0.25538263  1
  C  C203  1  0.57256258  0.46701694  0.26277098  1
  C  C204  1  0.15167527  0.47517886  0.76585981  1
  C  C205  1  0.65026727  0.46796080  0.75917564  1
  C  C206  1  0.07385345  0.68446888  0.76406409  1
  C  C207  1  0.57641150  0.69233452  0.75702498  1
  C  C208  1  0.26221849  0.83913255  0.75553531  1
  C  C209  1  0.75559155  0.84300926  0.77058182  1
