# generated using pymatgen
data_Cu(NiC4)2
_symmetry_space_group_name_H-M   'P 1'
_cell_length_a   7.34252300
_cell_length_b   7.77302600
_cell_length_c   10.63958700
_cell_angle_alpha   90.00000000
_cell_angle_beta   90.00000000
_cell_angle_gamma   90.00000000
_symmetry_Int_Tables_number   1
_chemical_formula_structural   Cu(NiC4)2
_chemical_formula_sum   'Cu4 Ni8 C32'
_cell_volume   607.23976864
_cell_formula_units_Z   4
loop_
 _symmetry_equiv_pos_site_id
 _symmetry_equiv_pos_as_xyz
  1  'x, y, z'
loop_
 _atom_site_type_symbol
 _atom_site_label
 _atom_site_symmetry_multiplicity
 _atom_site_fract_x
 _atom_site_fract_y
 _atom_site_fract_z
 _atom_site_occupancy
  Ni  Ni0  1  0.00000000  0.50000000  0.00000000  1
  Ni  Ni1  1  0.50000000  0.50000000  0.00000000  1
  Ni  Ni2  1  0.00000000  0.00000000  0.50000000  1
  Ni  Ni3  1  0.50000000  0.00000000  0.50000000  1
  Ni  Ni4  1  0.25000000  0.21625100  0.76162900  1
  Ni  Ni5  1  0.25000000  0.28374900  0.26162900  1
  Ni  Ni6  1  0.75000000  0.71625100  0.73837100  1
  Ni  Ni7  1  0.75000000  0.78374900  0.23837100  1
  Cu  Cu8  1  0.25000000  0.72225600  0.76761600  1
  Cu  Cu9  1  0.75000000  0.22225600  0.73238400  1
  Cu  Cu10  1  0.75000000  0.27774400  0.23238400  1
  Cu  Cu11  1  0.25000000  0.77774400  0.26761600  1
  C  C12  1  0.50000000  0.50000000  0.50000000  1
  C  C13  1  0.00000000  0.50000000  0.50000000  1
  C  C14  1  0.50000000  0.00000000  0.00000000  1
  C  C15  1  0.00000000  0.00000000  0.00000000  1
  C  C16  1  0.53035300  0.26431100  0.62146500  1
  C  C17  1  0.03035300  0.73568900  0.37853500  1
  C  C18  1  0.46964700  0.76431100  0.87853500  1
  C  C19  1  0.96964700  0.23568900  0.12146500  1
  C  C20  1  0.46964700  0.73568900  0.37853500  1
  C  C21  1  0.96964700  0.26431100  0.62146500  1
  C  C22  1  0.53035300  0.23568900  0.12146500  1
  C  C23  1  0.03035300  0.76431100  0.87853500  1
  C  C24  1  0.44673300  0.64398500  0.64359000  1
  C  C25  1  0.94673300  0.35601500  0.35641000  1
  C  C26  1  0.55326700  0.14398500  0.85641000  1
  C  C27  1  0.05326700  0.85601500  0.14359000  1
  C  C28  1  0.55326700  0.35601500  0.35641000  1
  C  C29  1  0.05326700  0.64398500  0.64359000  1
  C  C30  1  0.44673300  0.85601500  0.14359000  1
  C  C31  1  0.94673300  0.14398500  0.85641000  1
  C  C32  1  0.25000000  0.06500600  0.96691400  1
  C  C33  1  0.75000000  0.93499400  0.03308600  1
  C  C34  1  0.75000000  0.56500600  0.53308600  1
  C  C35  1  0.25000000  0.43499400  0.46691400  1
  C  C36  1  0.25000000  0.94835900  0.67127700  1
  C  C37  1  0.75000000  0.05164100  0.32872300  1
  C  C38  1  0.75000000  0.44835900  0.82872300  1
  C  C39  1  0.25000000  0.55164100  0.17127700  1
  C  C40  1  0.25000000  0.48317900  0.85550100  1
  C  C41  1  0.75000000  0.51682100  0.14449900  1
  C  C42  1  0.75000000  0.98317900  0.64449900  1
  C  C43  1  0.25000000  0.01682100  0.35550100  1
