# generated using pymatgen
data_Cu4NiC14
_symmetry_space_group_name_H-M   'P 1'
_cell_length_a   3.99245869
_cell_length_b   6.62194864
_cell_length_c   10.85011169
_cell_angle_alpha   90.20541364
_cell_angle_beta   90.00209370
_cell_angle_gamma   90.01114381
_symmetry_Int_Tables_number   1
_chemical_formula_structural   Cu4NiC14
_chemical_formula_sum   'Cu4 Ni1 C14'
_cell_volume   286.85184547
_cell_formula_units_Z   1
loop_
 _symmetry_equiv_pos_site_id
 _symmetry_equiv_pos_as_xyz
  1  'x, y, z'
loop_
 _atom_site_type_symbol
 _atom_site_label
 _atom_site_symmetry_multiplicity
 _atom_site_fract_x
 _atom_site_fract_y
 _atom_site_fract_z
 _atom_site_occupancy
  C  C0  1  0.00047287  0.35239488  0.74871920  1
  C  C1  1  0.99960670  0.81766805  0.24892866  1
  Ni  Ni2  1  0.00012657  0.32492097  0.25098792  1
  Cu  Cu3  1  0.50007485  0.19950385  0.04552189  1
  Cu  Cu4  1  0.50008801  0.19824100  0.45526045  1
  Cu  Cu5  1  0.50023676  0.76338045  0.57175485  1
  Cu  Cu6  1  0.50016884  0.76155987  0.92689209  1
  C  C7  1  0.00000701  0.20810791  0.41495927  1
  C  C8  1  0.49976989  0.89629524  0.39681174  1
  C  C9  1  0.49975319  0.89873433  0.10172039  1
  C  C10  1  -0.00000828  0.20956333  0.08608691  1
  C  C11  1  0.49982408  0.09734226  0.61866829  1
  C  C12  1  -0.00002523  0.76935770  0.57044685  1
  C  C13  1  0.99994603  0.76844675  0.92928733  1
  C  C14  1  0.50009662  0.33577609  0.25021992  1
  C  C15  1  0.50003660  0.48117686  0.98347370  1
  C  C16  1  0.49978578  0.09772587  0.88273403  1
  C  C17  1  0.49995838  0.67304396  0.75011311  1
  C  C18  1  0.50008133  0.48009263  0.51741040  1
