# generated using pymatgen
data_Cu5NiC48
_symmetry_space_group_name_H-M   'P 1'
_cell_length_a   8.77967354
_cell_length_b   8.77967326
_cell_length_c   22.81647324
_cell_angle_alpha   90.00000000
_cell_angle_beta   90.00000000
_cell_angle_gamma   120.00000105
_symmetry_Int_Tables_number   1
_chemical_formula_structural   Cu5NiC48
_chemical_formula_sum   'Cu10 Ni2 C96'
_cell_volume   1523.12611496
_cell_formula_units_Z   2
loop_
 _symmetry_equiv_pos_site_id
 _symmetry_equiv_pos_as_xyz
  1  'x, y, z'
loop_
 _atom_site_type_symbol
 _atom_site_label
 _atom_site_symmetry_multiplicity
 _atom_site_fract_x
 _atom_site_fract_y
 _atom_site_fract_z
 _atom_site_occupancy
  C  C0  1  -0.00000000  -0.00000000  0.49891568  1
  C  C1  1  -0.00000000  -0.00000000  0.99891568  1
  C  C2  1  0.66666700  0.33333300  0.82711626  1
  C  C3  1  0.66666700  0.33333300  0.32711626  1
  C  C4  1  0.33333300  0.66666700  0.16658796  1
  C  C5  1  0.33333300  0.66666700  0.66658796  1
  Ni  Ni6  1  0.66666700  0.33333300  0.68719341  1
  Ni  Ni7  1  0.66666700  0.33333300  0.18719341  1
  Cu  Cu8  1  -0.00000000  0.00000000  0.35574859  1
  Cu  Cu9  1  0.00000000  -0.00000000  0.85574859  1
  Cu  Cu10  1  -0.00000000  0.00000000  0.64556603  1
  Cu  Cu11  1  -0.00000000  0.00000000  0.14556603  1
  Cu  Cu12  1  0.66666700  0.33333300  0.97793032  1
  Cu  Cu13  1  0.66666700  0.33333300  0.47793032  1
  Cu  Cu14  1  0.33333300  0.66666700  0.02023083  1
  Cu  Cu15  1  0.33333300  0.66666700  0.52023083  1
  Cu  Cu16  1  0.33333300  0.66666700  0.31191717  1
  Cu  Cu17  1  0.33333300  0.66666700  0.81191717  1
  C  C18  1  0.61878499  0.66592850  0.91637601  1
  C  C19  1  0.04714250  0.38121501  0.91637601  1
  C  C20  1  0.33407150  0.95285750  0.91637601  1
  C  C21  1  0.61878499  0.95285750  0.41637601  1
  C  C22  1  0.33407150  0.38121501  0.41637601  1
  C  C23  1  0.04714250  0.66592850  0.41637601  1
  C  C24  1  0.29136168  0.00321924  0.24986192  1
  C  C25  1  0.71185756  0.70863832  0.24986192  1
  C  C26  1  0.99678076  0.28814244  0.24986192  1
  C  C27  1  0.29136168  0.28814244  0.74986192  1
  C  C28  1  0.99678076  0.70863832  0.74986192  1
  C  C29  1  0.71185756  0.00321924  0.74986192  1
  C  C30  1  0.95332883  0.33484511  0.58551066  1
  C  C31  1  0.38151729  0.04667117  0.58551066  1
  C  C32  1  0.66515489  0.61848271  0.58551066  1
  C  C33  1  0.95332883  0.61848271  0.08551066  1
  C  C34  1  0.66515489  0.04667117  0.08551066  1
  C  C35  1  0.38151729  0.33484511  0.08551066  1
  C  C36  1  0.19282111  0.01861794  0.30418734  1
  C  C37  1  0.82579683  0.80717889  0.30418734  1
  C  C38  1  0.98138206  0.17420317  0.30418734  1
  C  C39  1  0.19282111  0.17420317  0.80418734  1
  C  C40  1  0.98138206  0.80717889  0.80418734  1
  C  C41  1  0.82579683  0.01861794  0.80418734  1
  C  C42  1  0.80389716  0.97355034  0.69503171  1
  C  C43  1  0.16965317  0.19610284  0.69503171  1
  C  C44  1  0.02644966  0.83034683  0.69503171  1
  C  C45  1  0.80389716  0.83034683  0.19503171  1
  C  C46  1  0.02644966  0.19610284  0.19503171  1
  C  C47  1  0.16965317  0.97355034  0.19503171  1
  C  C48  1  0.87684936  0.36552060  0.63959389  1
  C  C49  1  0.48867224  0.12315064  0.63959389  1
  C  C50  1  0.63447940  0.51132776  0.63959389  1
  C  C51  1  0.87684936  0.51132776  0.13959389  1
  C  C52  1  0.63447940  0.12315064  0.13959389  1
  C  C53  1  0.48867224  0.36552060  0.13959389  1
  C  C54  1  0.46349509  0.30427714  0.02915019  1
  C  C55  1  0.84078305  0.53650491  0.02915019  1
  C  C56  1  0.69572286  0.15921695  0.02915019  1
  C  C57  1  0.46349509  0.15921695  0.52915019  1
  C  C58  1  0.69572286  0.53650491  0.52915019  1
  C  C59  1  0.84078305  0.30427714  0.52915019  1
  C  C60  1  0.53102071  0.69892570  0.97417034  1
  C  C61  1  0.16790399  0.46897929  0.97417034  1
  C  C62  1  0.30107430  0.83209601  0.97417034  1
  C  C63  1  0.53102071  0.83209601  0.47417034  1
  C  C64  1  0.30107430  0.46897929  0.47417034  1
  C  C65  1  0.16790399  0.69892570  0.47417034  1
  C  C66  1  0.13588536  0.63326166  0.35830073  1
  C  C67  1  0.49737530  0.86411464  0.35830073  1
  C  C68  1  0.36673834  0.50262470  0.35830073  1
  C  C69  1  0.13588536  0.50262470  0.85830073  1
  C  C70  1  0.36673834  0.86411464  0.85830073  1
  C  C71  1  0.49737530  0.63326166  0.85830073  1
  C  C72  1  0.02483409  0.83760580  0.40748951  1
  C  C73  1  0.81277171  0.97516591  0.40748951  1
  C  C74  1  0.16239420  0.18722829  0.40748951  1
  C  C75  1  0.02483409  0.18722829  0.90748951  1
  C  C76  1  0.16239420  0.97516591  0.90748951  1
  C  C77  1  0.81277171  0.83760580  0.90748951  1
  C  C78  1  0.97608574  0.16711983  0.59107795  1
  C  C79  1  0.19103409  0.02391426  0.59107795  1
  C  C80  1  0.83288017  0.80896591  0.59107795  1
  C  C81  1  0.97608574  0.80896591  0.09107795  1
  C  C82  1  0.83288017  0.02391426  0.09107795  1
  C  C83  1  0.19103409  0.16711983  0.09107795  1
  C  C84  1  0.69425591  0.16334327  0.74526028  1
  C  C85  1  0.46908836  0.30574409  0.74526028  1
  C  C86  1  0.83665673  0.53091164  0.74526028  1
  C  C87  1  0.69425591  0.53091164  0.24526028  1
  C  C88  1  0.83665673  0.30574409  0.24526028  1
  C  C89  1  0.46908836  0.16334327  0.24526028  1
  C  C90  1  0.64060486  0.49453905  0.92638717  1
  C  C91  1  0.85393520  0.35939514  0.92638717  1
  C  C92  1  0.50546095  0.14606480  0.92638717  1
  C  C93  1  0.64060486  0.14606480  0.42638717  1
  C  C94  1  0.50546095  0.35939514  0.42638717  1
  C  C95  1  0.85393520  0.49453905  0.42638717  1
  C  C96  1  0.35171010  0.49419285  0.07536995  1
  C  C97  1  0.14248175  0.64828990  0.07536995  1
  C  C98  1  0.50580715  0.85751825  0.07536995  1
  C  C99  1  0.35171010  0.85751825  0.57536995  1
  C  C100  1  0.50580715  0.64828990  0.57536995  1
  C  C101  1  0.14248175  0.49419285  0.57536995  1
  C  C102  1  0.29841660  0.82911040  0.25516362  1
  C  C103  1  0.53069279  0.70158340  0.25516362  1
  C  C104  1  0.17088960  0.46930721  0.25516362  1
  C  C105  1  0.29841660  0.46930721  0.75516362  1
  C  C106  1  0.17088960  0.70158340  0.75516362  1
  C  C107  1  0.53069279  0.82911040  0.75516362  1
