# generated using pymatgen
data_Cu3NiC
_symmetry_space_group_name_H-M   'P 1'
_cell_length_a   9.52529817
_cell_length_b   7.14228800
_cell_length_c   8.24341312
_cell_angle_alpha   90.00000000
_cell_angle_beta   102.90277733
_cell_angle_gamma   90.00000000
_symmetry_Int_Tables_number   1
_chemical_formula_structural   Cu3NiC
_chemical_formula_sum   'Cu36 Ni12 C12'
_cell_volume   546.65888600
_cell_formula_units_Z   12
loop_
 _symmetry_equiv_pos_site_id
 _symmetry_equiv_pos_as_xyz
  1  'x, y, z'
loop_
 _atom_site_type_symbol
 _atom_site_label
 _atom_site_symmetry_multiplicity
 _atom_site_fract_x
 _atom_site_fract_y
 _atom_site_fract_z
 _atom_site_occupancy
  C  C0  1  0.52689600  0.00000000  0.70015900  1
  C  C1  1  0.47310400  0.00000000  0.29984100  1
  C  C2  1  0.02689600  0.50000000  0.70015900  1
  C  C3  1  0.97310400  0.50000000  0.29984100  1
  C  C4  1  0.15819200  0.00000000  0.34582900  1
  C  C5  1  0.84180800  0.00000000  0.65417100  1
  C  C6  1  0.65819200  0.50000000  0.34582900  1
  C  C7  1  0.34180800  0.50000000  0.65417100  1
  C  C8  1  0.00000000  0.22998300  0.00000000  1
  C  C9  1  0.00000000  0.77001700  0.00000000  1
  C  C10  1  0.50000000  0.72998300  0.00000000  1
  C  C11  1  0.50000000  0.27001700  0.00000000  1
  Ni  Ni12  1  0.13462500  0.17566800  0.70092800  1
  Ni  Ni13  1  0.86537500  0.17566800  0.29907200  1
  Ni  Ni14  1  0.86537500  0.82433200  0.29907200  1
  Ni  Ni15  1  0.13462500  0.82433200  0.70092800  1
  Ni  Ni16  1  0.63462500  0.67566800  0.70092800  1
  Ni  Ni17  1  0.36537500  0.67566800  0.29907200  1
  Ni  Ni18  1  0.36537500  0.32433200  0.29907200  1
  Ni  Ni19  1  0.63462500  0.32433200  0.70092800  1
  Ni  Ni20  1  0.25103300  0.00000000  0.95675200  1
  Ni  Ni21  1  0.74896700  0.00000000  0.04324800  1
  Ni  Ni22  1  0.75103300  0.50000000  0.95675200  1
  Ni  Ni23  1  0.24896700  0.50000000  0.04324800  1
  Cu  Cu24  1  0.24887600  0.16092800  0.84652000  1
  Cu  Cu25  1  0.75112400  0.16092800  0.15348000  1
  Cu  Cu26  1  0.75112400  0.83907200  0.15348000  1
  Cu  Cu27  1  0.24887600  0.83907200  0.84652000  1
  Cu  Cu28  1  0.74887600  0.66092800  0.84652000  1
  Cu  Cu29  1  0.25112400  0.66092800  0.15348000  1
  Cu  Cu30  1  0.25112400  0.33907200  0.15348000  1
  Cu  Cu31  1  0.74887600  0.33907200  0.84652000  1
  Cu  Cu32  1  0.33625000  0.17821400  0.38777400  1
  Cu  Cu33  1  0.66375000  0.17821400  0.61222600  1
  Cu  Cu34  1  0.66375000  0.82178600  0.61222600  1
  Cu  Cu35  1  0.33625000  0.82178600  0.38777400  1
  Cu  Cu36  1  0.83625000  0.67821400  0.38777400  1
  Cu  Cu37  1  0.16375000  0.67821400  0.61222600  1
  Cu  Cu38  1  0.16375000  0.32178600  0.61222600  1
  Cu  Cu39  1  0.83625000  0.32178600  0.38777400  1
  Cu  Cu40  1  0.99949600  0.20016900  0.25897300  1
  Cu  Cu41  1  0.00050400  0.20016900  0.74102700  1
  Cu  Cu42  1  0.00050400  0.79983100  0.74102700  1
  Cu  Cu43  1  0.99949600  0.79983100  0.25897300  1
  Cu  Cu44  1  0.49949600  0.70016900  0.25897300  1
  Cu  Cu45  1  0.50050400  0.70016900  0.74102700  1
  Cu  Cu46  1  0.50050400  0.29983100  0.74102700  1
  Cu  Cu47  1  0.49949600  0.29983100  0.25897300  1
  Cu  Cu48  1  0.14125400  0.00000000  0.03487100  1
  Cu  Cu49  1  0.85874600  0.00000000  0.96512900  1
  Cu  Cu50  1  0.64125400  0.50000000  0.03487100  1
  Cu  Cu51  1  0.35874600  0.50000000  0.96512900  1
  Cu  Cu52  1  0.38613700  0.00000000  0.05359200  1
  Cu  Cu53  1  0.61386300  0.00000000  0.94640800  1
  Cu  Cu54  1  0.88613700  0.50000000  0.05359200  1
  Cu  Cu55  1  0.11386300  0.50000000  0.94640800  1
  Cu  Cu56  1  0.13760900  0.00000000  0.60532200  1
  Cu  Cu57  1  0.86239100  0.00000000  0.39467800  1
  Cu  Cu58  1  0.63760900  0.50000000  0.60532200  1
  Cu  Cu59  1  0.36239100  0.50000000  0.39467800  1
