# generated using pymatgen
data_Cu(NiC17)2
_symmetry_space_group_name_H-M   'P 1'
_cell_length_a   8.74907574
_cell_length_b   8.71022224
_cell_length_c   22.44445906
_cell_angle_alpha   90.10834021
_cell_angle_beta   89.84838439
_cell_angle_gamma   119.86059548
_symmetry_Int_Tables_number   1
_chemical_formula_structural   Cu(NiC17)2
_chemical_formula_sum   'Cu3 Ni6 C102'
_cell_volume   1483.33049994
_cell_formula_units_Z   3
loop_
 _symmetry_equiv_pos_site_id
 _symmetry_equiv_pos_as_xyz
  1  'x, y, z'
loop_
 _atom_site_type_symbol
 _atom_site_label
 _atom_site_symmetry_multiplicity
 _atom_site_fract_x
 _atom_site_fract_y
 _atom_site_fract_z
 _atom_site_occupancy
  C  C0  1  0.36057080  0.99209529  0.75273661  1
  C  C1  1  0.67261918  0.97185748  0.58720153  1
  C  C2  1  0.67510618  0.70147621  0.08406083  1
  C  C3  1  0.01585670  0.00096884  0.50610915  1
  C  C4  1  0.01293518  0.00822074  0.00591609  1
  C  C5  1  0.67693229  0.34442970  0.84093322  1
  C  C6  1  0.66498519  0.33186085  0.33993714  1
  C  C7  1  0.32263776  0.66607097  0.17473302  1
  C  C8  1  0.32513676  0.64734822  0.67332929  1
  C  C9  1  0.00050952  0.00007746  0.35592426  1
  C  C10  1  0.99448960  -0.00052975  0.85647004  1
  C  C11  1  0.66837192  0.33245506  0.68840277  1
  C  C12  1  0.67170248  0.33460009  0.18996964  1
  C  C13  1  0.32666379  0.66659921  0.02190172  1
  C  C14  1  0.32953530  0.66715037  0.52126276  1
  Ni  Ni15  1  0.00429602  0.99928553  0.64836203  1
  Ni  Ni16  1  0.00802441  0.00157129  0.14832892  1
  Ni  Ni17  1  0.66873406  0.33750096  0.98167353  1
  Ni  Ni18  1  0.65872772  0.32986027  0.48038561  1
  Ni  Ni19  1  0.33292044  0.66677476  0.31458223  1
  Ni  Ni20  1  0.33970493  0.66574343  0.81470825  1
  Cu  Cu21  1  0.70781039  0.98881160  0.74678129  1
  Cu  Cu22  1  0.36791503  0.05164011  0.58175863  1
  Cu  Cu23  1  0.95201001  0.62679740  0.08220308  1
  C  C24  1  0.28481986  0.99061328  0.24926122  1
  C  C25  1  0.70498854  0.71595271  0.24855227  1
  C  C26  1  0.00957730  0.29098141  0.24865255  1
  C  C27  1  0.28230904  0.29295274  0.74946243  1
  C  C28  1  0.00371437  0.71237209  0.75029553  1
  C  C29  1  0.95228890  0.33015149  0.58087919  1
  C  C30  1  0.67321557  0.62220936  0.58023910  1
  C  C31  1  0.67451004  0.05207412  0.08159006  1
  C  C32  1  0.37511270  0.32304575  0.08198169  1
  C  C33  1  0.61714088  0.65574496  0.91633926  1
  C  C34  1  0.04211543  0.38484243  0.91424397  1
  C  C35  1  0.34338146  0.96397119  0.91452031  1
  C  C36  1  0.61750589  0.95962161  0.41483727  1
  C  C37  1  0.34301838  0.38430537  0.41390509  1
  C  C38  1  0.03819662  0.65495365  0.41447848  1
  C  C39  1  0.19580586  0.02102194  0.30549511  1
  C  C40  1  0.82679493  0.80576416  0.30376445  1
  C  C41  1  0.97925846  0.17406172  0.30532730  1
  C  C42  1  0.20264826  0.16972484  0.80524784  1
  C  C43  1  0.97609473  0.80181114  0.80660084  1
  C  C44  1  0.83527881  0.02395434  0.80583872  1
  C  C45  1  0.79411577  0.96710622  0.68647782  1
  C  C46  1  0.17572089  0.20850990  0.69364095  1
  C  C47  1  0.04223280  0.83045201  0.69567948  1
  C  C48  1  0.78690609  0.81943256  0.19123376  1
  C  C49  1  0.03055120  0.20344513  0.19310993  1
  C  C50  1  0.17536169  0.96543643  0.19387772  1
  C  C51  1  0.86863265  0.36395074  0.63825120  1
  C  C52  1  0.49661343  0.13219335  0.64226707  1
  C  C53  1  0.64306473  0.50793449  0.63735271  1
  C  C54  1  0.86053980  0.49905476  0.14168480  1
  C  C55  1  0.63709539  0.13190511  0.13851360  1
  C  C56  1  0.49665842  0.36160662  0.13783585  1
  C  C57  1  0.45547572  0.29506423  0.02594603  1
  C  C58  1  0.82564701  0.54046567  0.02579925  1
  C  C59  1  0.69637015  0.15917845  0.02617216  1
  C  C60  1  0.46480595  0.16408280  0.52418010  1
  C  C61  1  0.70019316  0.53887219  0.52523538  1
  C  C62  1  0.83777877  0.30113033  0.52677451  1
  C  C63  1  0.53863632  0.68909089  0.97433791  1
  C  C64  1  0.15961245  0.47202740  0.97121221  1
  C  C65  1  0.31376449  0.84039910  0.96995619  1
  C  C66  1  0.53622513  0.84572273  0.47294564  1
  C  C67  1  0.31019137  0.46864038  0.47085342  1
  C  C68  1  0.15823932  0.68948718  0.47115931  1
  C  C69  1  0.12613296  0.63283575  0.35958422  1
  C  C70  1  0.50535711  0.86950134  0.36077316  1
  C  C71  1  0.36245460  0.49260463  0.35879494  1
  C  C72  1  0.13079975  0.49519374  0.85951926  1
  C  C73  1  0.36395273  0.88007435  0.85733823  1
  C  C74  1  0.50890108  0.63796256  0.86137568  1
  C  C75  1  0.02567246  0.82949968  0.41001575  1
  C  C76  1  0.80351906  0.97131952  0.40924891  1
  C  C77  1  0.17031362  0.19627396  0.40933425  1
  C  C78  1  0.03250928  0.19912257  0.91084440  1
  C  C79  1  0.17062941  0.97591402  0.91182140  1
  C  C80  1  0.80501976  0.82854667  0.91101201  1
  C  C81  1  0.96964566  0.16563587  0.58858078  1
  C  C82  1  0.17339045  0.02051717  0.59016660  1
  C  C83  1  0.82625878  0.81173458  0.58683995  1
  C  C84  1  0.97198303  0.81999609  0.09079922  1
  C  C85  1  0.83151616  0.02273902  0.08968288  1
  C  C86  1  0.18927131  0.16981909  0.09051418  1
  C  C87  1  0.69073368  0.17229356  0.74405905  1
  C  C88  1  0.46946707  0.30706490  0.74392293  1
  C  C89  1  0.83171260  0.53103222  0.74514328  1
  C  C90  1  0.69011833  0.52752827  0.24480653  1
  C  C91  1  0.83419561  0.30124319  0.24488395  1
  C  C92  1  0.46954148  0.16306261  0.24446576  1
  C  C93  1  0.63970671  0.49358667  0.92097178  1
  C  C94  1  0.85747367  0.35697947  0.92186809  1
  C  C95  1  0.50497176  0.14528188  0.92321602  1
  C  C96  1  0.64640209  0.14615112  0.42140260  1
  C  C97  1  0.50327922  0.36074155  0.42010144  1
  C  C98  1  0.85546406  0.49662454  0.42325983  1
  C  C99  1  0.36895263  0.50192477  0.07630326  1
  C  C100  1  0.14767088  0.64158964  0.07735179  1
  C  C101  1  0.50643741  0.86010590  0.07600524  1
  C  C102  1  0.36233262  0.85559249  0.57592531  1
  C  C103  1  0.50083602  0.63852836  0.57559932  1
  C  C104  1  0.13831547  0.49863526  0.57673089  1
  C  C105  1  0.30786600  0.82934772  0.25717766  1
  C  C106  1  0.52159313  0.69240077  0.25664539  1
  C  C107  1  0.16739438  0.47616736  0.25589529  1
  C  C108  1  0.30431945  0.47579196  0.75763572  1
  C  C109  1  0.16452950  0.68918656  0.75820861  1
  C  C110  1  0.50758860  0.82852959  0.75515912  1
