# generated using pymatgen
data_Cu8Ni2C
_symmetry_space_group_name_H-M   'P 1'
_cell_length_a   12.27950200
_cell_length_b   12.27950200
_cell_length_c   7.71761300
_cell_angle_alpha   90.00000000
_cell_angle_beta   90.00000000
_cell_angle_gamma   90.00000000
_symmetry_Int_Tables_number   1
_chemical_formula_structural   Cu8Ni2C
_chemical_formula_sum   'Cu32 Ni8 C4'
_cell_volume   1163.70930093
_cell_formula_units_Z   4
loop_
 _symmetry_equiv_pos_site_id
 _symmetry_equiv_pos_as_xyz
  1  'x, y, z'
loop_
 _atom_site_type_symbol
 _atom_site_label
 _atom_site_symmetry_multiplicity
 _atom_site_fract_x
 _atom_site_fract_y
 _atom_site_fract_z
 _atom_site_occupancy
  C  C0  1  0.91640000  0.41640000  0.25000000  1
  C  C1  1  0.58360000  0.91640000  0.75000000  1
  C  C2  1  0.41640000  0.08360000  0.75000000  1
  C  C3  1  0.08360000  0.58360000  0.25000000  1
  Ni  Ni4  1  0.07396600  0.82580000  0.07582700  1
  Ni  Ni5  1  0.57396600  0.67420000  0.57582700  1
  Ni  Ni6  1  0.42603400  0.32580000  0.57582700  1
  Ni  Ni7  1  0.32580000  0.57396600  0.42417300  1
  Ni  Ni8  1  0.67420000  0.42603400  0.42417300  1
  Ni  Ni9  1  0.92603400  0.17420000  0.07582700  1
  Ni  Ni10  1  0.82580000  0.92603400  0.92417300  1
  Ni  Ni11  1  0.17420000  0.07396600  0.92417300  1
  Cu  Cu12  1  0.05781300  0.44144000  0.48311600  1
  Cu  Cu13  1  0.94218700  0.55856000  0.48311600  1
  Cu  Cu14  1  0.44144000  0.94218700  0.51688400  1
  Cu  Cu15  1  0.55856000  0.05781300  0.51688400  1
  Cu  Cu16  1  0.18128100  0.71136100  0.01026000  1
  Cu  Cu17  1  0.28863900  0.18128100  0.98974000  1
  Cu  Cu18  1  0.71136100  0.81871900  0.98974000  1
  Cu  Cu19  1  0.81871900  0.28863900  0.01026000  1
  Cu  Cu20  1  0.78863900  0.31871900  0.48974000  1
  Cu  Cu21  1  0.21136100  0.68128100  0.48974000  1
  Cu  Cu22  1  0.31871900  0.21136100  0.51026000  1
  Cu  Cu23  1  0.68128100  0.78863900  0.51026000  1
  Cu  Cu24  1  0.14688100  0.97739300  0.15015800  1
  Cu  Cu25  1  0.02260700  0.14688100  0.84984200  1
  Cu  Cu26  1  0.97739300  0.85311900  0.84984200  1
  Cu  Cu27  1  0.85311900  0.02260700  0.15015800  1
  Cu  Cu28  1  0.52260700  0.35311900  0.34984200  1
  Cu  Cu29  1  0.47739300  0.64688100  0.34984200  1
  Cu  Cu30  1  0.35311900  0.47739300  0.65015800  1
  Cu  Cu31  1  0.64688100  0.52260700  0.65015800  1
  Cu  Cu32  1  0.77578900  0.00740900  0.71235700  1
  Cu  Cu33  1  0.94144000  0.55781300  0.01688400  1
  Cu  Cu34  1  0.44218700  0.94144000  0.98311600  1
  Cu  Cu35  1  0.55781300  0.05856000  0.98311600  1
  Cu  Cu36  1  0.05856000  0.44218700  0.01688400  1
  Cu  Cu37  1  0.00740900  0.22421100  0.28764300  1
  Cu  Cu38  1  0.99259100  0.77578900  0.28764300  1
  Cu  Cu39  1  0.22421100  0.99259100  0.71235700  1
  Cu  Cu40  1  0.27578900  0.49259100  0.21235700  1
  Cu  Cu41  1  0.50740900  0.27578900  0.78764300  1
  Cu  Cu42  1  0.49259100  0.72421100  0.78764300  1
  Cu  Cu43  1  0.72421100  0.50740900  0.21235700  1
