# generated using pymatgen
data_Cu(Ni2C11)3
_symmetry_space_group_name_H-M   'P 1'
_cell_length_a   15.78744464
_cell_length_b   9.07357360
_cell_length_c   9.08906557
_cell_angle_alpha   90.49154408
_cell_angle_beta   125.02062740
_cell_angle_gamma   89.68035073
_symmetry_Int_Tables_number   1
_chemical_formula_structural   Cu(Ni2C11)3
_chemical_formula_sum   'Cu2 Ni12 C66'
_cell_volume   1066.22367139
_cell_formula_units_Z   2
loop_
 _symmetry_equiv_pos_site_id
 _symmetry_equiv_pos_as_xyz
  1  'x, y, z'
loop_
 _atom_site_type_symbol
 _atom_site_label
 _atom_site_symmetry_multiplicity
 _atom_site_fract_x
 _atom_site_fract_y
 _atom_site_fract_z
 _atom_site_occupancy
  Ni  Ni0  1  0.25060633  0.75027007  0.99897289  1
  Ni  Ni1  1  0.74565009  0.74851801  0.48607418  1
  Ni  Ni2  1  0.75060633  0.25027007  0.99897289  1
  Ni  Ni3  1  0.24565009  0.24851801  0.48607418  1
  Ni  Ni4  1  0.50542615  0.09197022  0.76399012  1
  Ni  Ni5  1  0.50156275  0.88270468  0.23429688  1
  Ni  Ni6  1  0.00542615  0.59197022  0.76399012  1
  Ni  Ni7  1  0.00156275  0.38270468  0.23429688  1
  Ni  Ni8  1  0.80156326  0.93086330  0.20787797  1
  Ni  Ni9  1  0.18544534  0.07305398  0.80335957  1
  Ni  Ni10  1  0.30156326  0.43086330  0.20787797  1
  Ni  Ni11  1  0.68544534  0.57305398  0.80335957  1
  Cu  Cu12  1  0.10484144  0.24435609  0.06802030  1
  Cu  Cu13  1  0.60484144  0.74435609  0.06802030  1
  C  C14  1  0.10640000  0.75094168  0.56365641  1
  C  C15  1  0.89442335  0.75329296  0.92896917  1
  C  C16  1  0.89298195  0.25001956  0.43577495  1
  C  C17  1  0.60640000  0.25094168  0.56365641  1
  C  C18  1  0.39442335  0.25329296  0.92896917  1
  C  C19  1  0.39298195  0.75001956  0.43577495  1
  C  C20  1  0.99652425  0.95930998  0.74668801  1
  C  C21  1  0.00069649  0.04166676  0.25404320  1
  C  C22  1  0.49652425  0.45930998  0.74668801  1
  C  C23  1  0.50069649  0.54166676  0.25404320  1
  C  C24  1  0.35571187  0.89312156  0.76133193  1
  C  C25  1  0.64699710  0.89533783  0.74903050  1
  C  C26  1  0.64609087  0.11339989  0.24397961  1
  C  C27  1  0.35675527  0.10174071  0.25196360  1
  C  C28  1  0.85571187  0.39312156  0.76133193  1
  C  C29  1  0.14699710  0.39533783  0.74903050  1
  C  C30  1  0.14609087  0.61339989  0.24397961  1
  C  C31  1  0.85675527  0.60174071  0.25196360  1
  C  C32  1  0.15232959  0.57445394  0.72923607  1
  C  C33  1  0.84898247  0.57602629  0.75737325  1
  C  C34  1  0.85619520  0.42002582  0.26082665  1
  C  C35  1  0.15739781  0.43618013  0.25039218  1
  C  C36  1  0.65232959  0.07445394  0.72923607  1
  C  C37  1  0.34898247  0.07602629  0.75737325  1
  C  C38  1  0.35619520  0.92002582  0.26082665  1
  C  C39  1  0.65739781  0.93618013  0.25039218  1
  C  C40  1  0.42713894  0.56390856  0.56590515  1
  C  C41  1  0.57395156  0.56329097  0.91569614  1
  C  C42  1  0.56038587  0.43493877  0.43120574  1
  C  C43  1  0.43384542  0.42653061  0.08007277  1
  C  C44  1  0.92713894  0.06390856  0.56590515  1
  C  C45  1  0.07395156  0.06329097  0.91569614  1
  C  C46  1  0.06038587  0.93493877  0.43120574  1
  C  C47  1  0.93384542  0.92653061  0.08007277  1
  C  C48  1  0.25001662  0.83467605  0.73801277  1
  C  C49  1  0.74315377  0.81032966  0.76029253  1
  C  C50  1  0.74429154  0.18964898  0.25607928  1
  C  C51  1  0.26640531  0.18716836  0.24921530  1
  C  C52  1  0.75001662  0.33467605  0.73801277  1
  C  C53  1  0.24315377  0.31032966  0.76029253  1
  C  C54  1  0.24429154  0.68964898  0.25607928  1
  C  C55  1  0.76640531  0.68716836  0.24921530  1
  C  C56  1  0.36386724  0.85056081  0.59077295  1
  C  C57  1  0.64930260  0.87069544  0.92701717  1
  C  C58  1  0.64313773  0.16709911  0.41382407  1
  C  C59  1  0.35532397  0.13981189  0.07079612  1
  C  C60  1  0.86386724  0.35056081  0.59077295  1
  C  C61  1  0.14930260  0.37069544  0.92701717  1
  C  C62  1  0.14313773  0.66709911  0.41382407  1
  C  C63  1  0.85532397  0.63981189  0.07079612  1
  C  C64  1  0.45772572  0.83600024  0.94517390  1
  C  C65  1  0.53825769  0.82287830  0.57264466  1
  C  C66  1  0.53598072  0.17055625  0.06035934  1
  C  C67  1  0.46954546  0.15801298  0.42773139  1
  C  C68  1  0.95772572  0.33600024  0.94517390  1
  C  C69  1  0.03825769  0.32287830  0.57264466  1
  C  C70  1  0.03598072  0.67055625  0.06035934  1
  C  C71  1  0.96954546  0.65801298  0.42773139  1
  C  C72  1  0.07313717  0.84497803  0.72985336  1
  C  C73  1  0.91760977  0.85152193  0.75972928  1
  C  C74  1  0.91159110  0.13689100  0.25688670  1
  C  C75  1  0.07875021  0.15324859  0.25287396  1
  C  C76  1  0.57313717  0.34497803  0.72985336  1
  C  C77  1  0.41760977  0.35152193  0.75972928  1
  C  C78  1  0.41159110  0.63689100  0.25688670  1
  C  C79  1  0.57875021  0.65324859  0.25287396  1
