# generated using pymatgen
data_Cu3NiC5
_symmetry_space_group_name_H-M   'P 1'
_cell_length_a   7.15788600
_cell_length_b   7.68841200
_cell_length_c   8.24036883
_cell_angle_alpha   71.52528897
_cell_angle_beta   90.00000000
_cell_angle_gamma   90.00000000
_symmetry_Int_Tables_number   1
_chemical_formula_structural   Cu3NiC5
_chemical_formula_sum   'Cu12 Ni4 C20'
_cell_volume   430.11912188
_cell_formula_units_Z   4
loop_
 _symmetry_equiv_pos_site_id
 _symmetry_equiv_pos_as_xyz
  1  'x, y, z'
loop_
 _atom_site_type_symbol
 _atom_site_label
 _atom_site_symmetry_multiplicity
 _atom_site_fract_x
 _atom_site_fract_y
 _atom_site_fract_z
 _atom_site_occupancy
  C  C0  1  0.35968500  0.62646600  0.65402500  1
  C  C1  1  0.85968500  0.37353400  0.84597500  1
  C  C2  1  0.64031500  0.37353400  0.34597500  1
  C  C3  1  0.14031500  0.62646600  0.15402500  1
  Ni  Ni4  1  0.34882300  0.27214400  0.00501300  1
  Ni  Ni5  1  0.84882300  0.72785600  0.49498700  1
  Ni  Ni6  1  0.65117700  0.72785600  0.99498700  1
  Ni  Ni7  1  0.15117700  0.27214400  0.50501300  1
  Cu  Cu8  1  0.26094400  0.11121300  0.99568900  1
  Cu  Cu9  1  0.76094400  0.88878700  0.50431100  1
  Cu  Cu10  1  0.73905600  0.88878700  0.00431100  1
  Cu  Cu11  1  0.23905600  0.11121300  0.49568900  1
  Cu  Cu12  1  0.39400300  0.99583800  0.29844400  1
  Cu  Cu13  1  0.89400300  0.00416200  0.20155600  1
  Cu  Cu14  1  0.60599700  0.00416200  0.70155600  1
  Cu  Cu15  1  0.10599700  0.99583800  0.79844400  1
  Cu  Cu16  1  0.54700000  0.19189400  0.72766900  1
  Cu  Cu17  1  0.04700000  0.80810600  0.77233100  1
  Cu  Cu18  1  0.45300000  0.80810600  0.27233100  1
  Cu  Cu19  1  0.95300000  0.19189400  0.22766900  1
  C  C20  1  0.20039200  0.42744000  0.95766500  1
  C  C21  1  0.11626700  0.85998600  0.85090900  1
  C  C22  1  0.88373300  0.14001400  0.14909100  1
  C  C23  1  0.38373300  0.85998600  0.35090900  1
  C  C24  1  0.99662400  0.32058500  0.36619400  1
  C  C25  1  0.49662400  0.67941500  0.13380600  1
  C  C26  1  0.00337600  0.67941500  0.63380600  1
  C  C27  1  0.50337600  0.32058500  0.86619400  1
  C  C28  1  0.07782800  0.22774600  0.68826200  1
  C  C29  1  0.57782800  0.77225400  0.81173800  1
  C  C30  1  0.92217200  0.77225400  0.31173800  1
  C  C31  1  0.42217200  0.22774600  0.18826200  1
  C  C32  1  0.79960800  0.57256000  0.04233500  1
  C  C33  1  0.29960800  0.42744000  0.45766500  1
  C  C34  1  0.61626700  0.14001400  0.64909100  1
  C  C35  1  0.70039200  0.57256000  0.54233500  1
