# generated using pymatgen
data_Cu2(Ni3C20)5
_symmetry_space_group_name_H-M   'P 1'
_cell_length_a   9.10577360
_cell_length_b   9.11372548
_cell_length_c   22.68893189
_cell_angle_alpha   90.13035216
_cell_angle_beta   89.95084487
_cell_angle_gamma   119.92330778
_symmetry_Int_Tables_number   1
_chemical_formula_structural   Cu2(Ni3C20)5
_chemical_formula_sum   'Cu2 Ni15 C100'
_cell_volume   1631.89207328
_cell_formula_units_Z   1
loop_
 _symmetry_equiv_pos_site_id
 _symmetry_equiv_pos_as_xyz
  1  'x, y, z'
loop_
 _atom_site_type_symbol
 _atom_site_label
 _atom_site_symmetry_multiplicity
 _atom_site_fract_x
 _atom_site_fract_y
 _atom_site_fract_z
 _atom_site_occupancy
  Ni  Ni0  1  0.63366658  0.01910347  0.24569216  1
  Ni  Ni1  1  0.38332847  0.36878304  0.24261403  1
  Ni  Ni2  1  0.98593449  0.61322832  0.24189106  1
  Ni  Ni3  1  0.63143632  0.61650504  0.74320179  1
  Ni  Ni4  1  0.98002435  0.36913842  0.74401914  1
  Ni  Ni5  1  0.38484190  0.01319478  0.74148626  1
  Ni  Ni6  1  0.02300826  0.68267259  0.58391878  1
  Ni  Ni7  1  0.65765243  0.97783104  0.58431042  1
  Ni  Ni8  1  0.02143844  0.34025595  0.08538868  1
  Ni  Ni9  1  0.01132245  0.01185583  0.49781085  1
  Ni  Ni10  1  0.99823741  0.98823701  0.99924178  1
  Ni  Ni11  1  0.67368333  0.33223553  0.83319124  1
  Ni  Ni12  1  0.66766322  0.32826466  0.33372713  1
  Ni  Ni13  1  0.34353798  0.67442870  0.16126363  1
  Ni  Ni14  1  0.33316324  0.65211175  0.66249937  1
  Cu  Cu15  1  0.66681446  0.33474096  0.68188327  1
  Cu  Cu16  1  0.66475826  0.33367128  0.18099566  1
  C  C17  1  0.00300067  0.00459835  0.35926592  1
  C  C18  1  0.99568487  0.99691423  0.85970682  1
  C  C19  1  0.99826013  0.99671918  0.64365167  1
  C  C20  1  0.00958332  0.00070225  0.14329807  1
  C  C21  1  0.66432869  0.33869938  0.97984995  1
  C  C22  1  0.66555308  0.33145409  0.48018811  1
  C  C23  1  0.33300802  0.66755417  0.01647331  1
  C  C24  1  0.33359690  0.66471968  0.51584689  1
  C  C25  1  0.32882523  0.66440081  0.31469407  1
  C  C26  1  0.33317669  0.67088001  0.81504139  1
  C  C27  1  0.28450535  0.99268286  0.25281348  1
  C  C28  1  0.00612001  0.28963330  0.25121678  1
  C  C29  1  0.00660056  0.71617241  0.75227849  1
  C  C30  1  0.70837542  0.99214458  0.75220784  1
  C  C31  1  0.96718917  0.33642968  0.58471150  1
  C  C32  1  0.37033891  0.03594287  0.58425278  1
  C  C33  1  0.66022092  0.62669501  0.58543986  1
  C  C34  1  0.96544759  0.63097636  0.08476697  1
  C  C35  1  0.37090967  0.33822523  0.08537755  1
  C  C36  1  0.62215597  0.66247246  0.91557874  1
  C  C37  1  0.03838162  0.37620160  0.91624725  1
  C  C38  1  0.33805117  0.96325885  0.91680581  1
  C  C39  1  0.62368283  0.96154170  0.41557152  1
  C  C40  1  0.33966991  0.37669844  0.41501711  1
  C  C41  1  0.03636824  0.66268554  0.41689119  1
  C  C42  1  0.71455259  0.72442088  0.25197805  1
  C  C43  1  0.27629431  0.28574654  0.75283761  1
  C  C44  1  0.66485025  0.03305276  0.08362881  1
  C  C45  1  0.17358270  0.99855381  0.30854748  1
  C  C46  1  0.81866790  0.81572916  0.30741171  1
  C  C47  1  0.99432889  0.16979541  0.30728439  1
  C  C48  1  0.18441310  0.18236718  0.80785964  1
  C  C49  1  0.00479965  0.83080977  0.80771157  1
  C  C50  1  0.82920721  0.00473956  0.80793016  1
  C  C51  1  0.80458959  0.97418352  0.69172546  1
  C  C52  1  0.16829687  0.19470415  0.69640532  1
  C  C53  1  0.02848173  0.82972559  0.69139009  1
  C  C54  1  0.80341155  0.83304377  0.19598934  1
  C  C55  1  0.02473274  0.19485517  0.19080045  1
  C  C56  1  0.16529690  0.97165411  0.19298231  1
  C  C57  1  0.91850086  0.39173225  0.64556777  1
  C  C58  1  0.47588489  0.08309957  0.64456565  1
  C  C59  1  0.62493428  0.53998026  0.64844228  1
  C  C60  1  0.91858054  0.52656312  0.14525177  1
  C  C61  1  0.63167351  0.08732685  0.14340281  1
  C  C62  1  0.45771650  0.37184333  0.14832411  1
  C  C63  1  0.47850769  0.31224109  0.03091593  1
  C  C64  1  0.83326500  0.51846016  0.03062657  1
  C  C65  1  0.69365711  0.16202485  0.03350806  1
  C  C66  1  0.47742650  0.16688216  0.52985052  1
  C  C67  1  0.69623894  0.52354353  0.53219506  1
  C  C68  1  0.82905909  0.30199116  0.53115833  1
  C  C69  1  0.52339972  0.68668283  0.97082817  1
  C  C70  1  0.15930192  0.47132203  0.97286530  1
  C  C71  1  0.31106452  0.83607959  0.97085576  1
  C  C72  1  0.52933304  0.84421867  0.47271912  1
  C  C73  1  0.31471022  0.47795000  0.46977775  1
  C  C74  1  0.15769082  0.69041515  0.47324583  1
  C  C75  1  0.13671616  0.63948748  0.35814397  1
  C  C76  1  0.50313745  0.86208769  0.35694523  1
  C  C77  1  0.36009772  0.49292074  0.35571603  1
  C  C78  1  0.13629977  0.49798718  0.85761319  1
  C  C79  1  0.36223868  0.86650465  0.85706459  1
  C  C80  1  0.50566803  0.63914066  0.85605190  1
  C  C81  1  0.01725041  0.83113675  0.41035092  1
  C  C82  1  0.81109622  0.97815249  0.41004359  1
  C  C83  1  0.16826696  0.18881902  0.41116052  1
  C  C84  1  0.02327589  0.18977147  0.90999581  1
  C  C85  1  0.16988750  0.98285930  0.91074019  1
  C  C86  1  0.81167971  0.83115101  0.91106880  1
  C  C87  1  0.97187334  0.15726409  0.58920658  1
  C  C88  1  0.18027293  0.01822670  0.58818744  1
  C  C89  1  0.84138810  0.81653393  0.58778850  1
  C  C90  1  0.97180600  0.81560851  0.08849283  1
  C  C91  1  0.83487340  0.02655783  0.08610037  1
  C  C92  1  0.17657767  0.16256801  0.08691412  1
  C  C93  1  0.68552319  0.15547803  0.75405128  1
  C  C94  1  0.45265480  0.30553596  0.75087942  1
  C  C95  1  0.83954638  0.53332037  0.75527850  1
  C  C96  1  0.69487650  0.54800283  0.25017178  1
  C  C97  1  0.84274561  0.31275106  0.25356246  1
  C  C98  1  0.46811741  0.15857037  0.25353766  1
  C  C99  1  0.64001030  0.49337734  0.92382179  1
  C  C100  1  0.85166166  0.35697203  0.92466821  1
  C  C101  1  0.50878425  0.14644672  0.92510903  1
  C  C102  1  0.64063197  0.14749902  0.42275926  1
  C  C103  1  0.50802211  0.36059525  0.42379474  1
  C  C104  1  0.85303560  0.49170657  0.42391619  1
  C  C105  1  0.33124309  0.49308893  0.07173307  1
  C  C106  1  0.15588890  0.66232333  0.06914147  1
  C  C107  1  0.51501365  0.85304301  0.07035202  1
  C  C108  1  0.33439694  0.84285791  0.56981718  1
  C  C109  1  0.51128254  0.67367000  0.57134795  1
  C  C110  1  0.15491743  0.49652789  0.56889577  1
  C  C111  1  0.29343652  0.81454393  0.25417877  1
  C  C112  1  0.53622633  0.71316687  0.25450500  1
  C  C113  1  0.18687829  0.47511559  0.25453119  1
  C  C114  1  0.28550508  0.46270100  0.75441924  1
  C  C115  1  0.18405593  0.70452368  0.75453271  1
  C  C116  1  0.52374287  0.81100442  0.75449825  1
