# generated using pymatgen
data_Cu4NiC
_symmetry_space_group_name_H-M   'P 1'
_cell_length_a   8.97890659
_cell_length_b   8.97890629
_cell_length_c   23.85036266
_cell_angle_alpha   90.00000000
_cell_angle_beta   90.00000000
_cell_angle_gamma   120.00000113
_symmetry_Int_Tables_number   1
_chemical_formula_structural   Cu4NiC
_chemical_formula_sum   'Cu72 Ni18 C18'
_cell_volume   1665.22340588
_cell_formula_units_Z   18
loop_
 _symmetry_equiv_pos_site_id
 _symmetry_equiv_pos_as_xyz
  1  'x, y, z'
loop_
 _atom_site_type_symbol
 _atom_site_label
 _atom_site_symmetry_multiplicity
 _atom_site_fract_x
 _atom_site_fract_y
 _atom_site_fract_z
 _atom_site_occupancy
  C  C0  1  -0.00000000  0.00000000  0.49974930  1
  C  C1  1  -0.00000000  0.00000000  0.99974930  1
  C  C2  1  0.66666700  0.33333300  0.83308230  1
  C  C3  1  0.66666700  0.33333300  0.33308230  1
  C  C4  1  0.33333300  0.66666700  0.16641630  1
  C  C5  1  0.33333300  0.66666700  0.66641630  1
  C  C6  1  -0.00000000  0.00000000  0.35183713  1
  C  C7  1  -0.00000000  0.00000000  0.85183713  1
  C  C8  1  0.66666700  0.33333300  0.68517013  1
  C  C9  1  0.66666700  0.33333300  0.18517013  1
  C  C10  1  0.33333300  0.66666700  0.01850413  1
  C  C11  1  0.33333300  0.66666700  0.51850413  1
  C  C12  1  -0.00000000  0.00000000  0.65284036  1
  C  C13  1  -0.00000000  0.00000000  0.15284036  1
  C  C14  1  0.66666700  0.33333300  0.98617336  1
  C  C15  1  0.66666700  0.33333300  0.48617336  1
  C  C16  1  0.33333300  0.66666700  0.31950736  1
  C  C17  1  0.33333300  0.66666700  0.81950736  1
  Ni  Ni18  1  0.29389888  0.98635795  0.25043229  1
  Ni  Ni19  1  0.69245907  0.70610112  0.25043229  1
  Ni  Ni20  1  0.01364205  0.30754093  0.25043229  1
  Ni  Ni21  1  0.29389888  0.30754093  0.75043229  1
  Ni  Ni22  1  0.01364205  0.70610112  0.75043229  1
  Ni  Ni23  1  0.69245907  0.98635795  0.75043229  1
  Ni  Ni24  1  0.96056588  0.31969095  0.58376529  1
  Ni  Ni25  1  0.35912607  0.03943412  0.58376529  1
  Ni  Ni26  1  0.68030905  0.64087393  0.58376529  1
  Ni  Ni27  1  0.96056588  0.64087393  0.08376529  1
  Ni  Ni28  1  0.68030905  0.03943412  0.08376529  1
  Ni  Ni29  1  0.35912607  0.31969095  0.08376529  1
  Ni  Ni30  1  0.62723188  0.65302495  0.91709929  1
  Ni  Ni31  1  0.02579207  0.37276812  0.91709929  1
  Ni  Ni32  1  0.34697505  0.97420793  0.91709929  1
  Ni  Ni33  1  0.62723188  0.97420793  0.41709929  1
  Ni  Ni34  1  0.34697505  0.37276812  0.41709929  1
  Ni  Ni35  1  0.02579207  0.65302495  0.41709929  1
  Cu  Cu36  1  0.20714979  0.00078209  0.30006608  1
  Cu  Cu37  1  0.79363230  0.79285021  0.30006608  1
  Cu  Cu38  1  0.99921791  0.20636770  0.30006608  1
  Cu  Cu39  1  0.20714979  0.20636770  0.80006608  1
  Cu  Cu40  1  0.99921791  0.79285021  0.80006608  1
  Cu  Cu41  1  0.79363230  0.00078209  0.80006608  1
  Cu  Cu42  1  0.77394057  0.96721409  0.69786436  1
  Cu  Cu43  1  0.19327352  0.22605943  0.69786436  1
  Cu  Cu44  1  0.03278591  0.80672648  0.69786436  1
  Cu  Cu45  1  0.77394057  0.80672648  0.19786436  1
  Cu  Cu46  1  0.03278591  0.22605943  0.19786436  1
  Cu  Cu47  1  0.19327352  0.96721409  0.19786436  1
  Cu  Cu48  1  0.87381679  0.33411509  0.63339908  1
  Cu  Cu49  1  0.46029930  0.12618321  0.63339908  1
  Cu  Cu50  1  0.66588491  0.53970070  0.63339908  1
  Cu  Cu51  1  0.87381679  0.53970070  0.13339908  1
  Cu  Cu52  1  0.66588491  0.12618321  0.13339908  1
  Cu  Cu53  1  0.46029930  0.33411509  0.13339908  1
  Cu  Cu54  1  0.44060757  0.30054709  0.03119736  1
  Cu  Cu55  1  0.85994052  0.55939243  0.03119736  1
  Cu  Cu56  1  0.69945291  0.14005948  0.03119736  1
  Cu  Cu57  1  0.44060757  0.14005948  0.53119736  1
  Cu  Cu58  1  0.69945291  0.55939243  0.53119736  1
  Cu  Cu59  1  0.85994052  0.30054709  0.53119736  1
  Cu  Cu60  1  0.54048279  0.66744909  0.96673308  1
  Cu  Cu61  1  0.12696530  0.45951721  0.96673308  1
  Cu  Cu62  1  0.33255091  0.87303470  0.96673308  1
  Cu  Cu63  1  0.54048279  0.87303470  0.46673308  1
  Cu  Cu64  1  0.33255091  0.45951721  0.46673308  1
  Cu  Cu65  1  0.12696530  0.66744909  0.46673308  1
  Cu  Cu66  1  0.10727357  0.63388109  0.36453136  1
  Cu  Cu67  1  0.52660652  0.89272643  0.36453136  1
  Cu  Cu68  1  0.36611891  0.47339348  0.36453136  1
  Cu  Cu69  1  0.10727357  0.47339348  0.86453136  1
  Cu  Cu70  1  0.36611891  0.89272643  0.86453136  1
  Cu  Cu71  1  0.52660652  0.63388109  0.86453136  1
  Cu  Cu72  1  0.00323808  0.80446408  0.41333522  1
  Cu  Cu73  1  0.80122601  0.99676192  0.41333522  1
  Cu  Cu74  1  0.19553592  0.19877399  0.41333522  1
  Cu  Cu75  1  0.00323808  0.19877399  0.91333522  1
  Cu  Cu76  1  0.19553592  0.99676192  0.91333522  1
  Cu  Cu77  1  0.80122601  0.80446408  0.91333522  1
  Cu  Cu78  1  0.97390725  0.15929418  0.58682645  1
  Cu  Cu79  1  0.18538693  0.02609275  0.58682645  1
  Cu  Cu80  1  0.84070582  0.81461307  0.58682645  1
  Cu  Cu81  1  0.97390725  0.81461307  0.08682645  1
  Cu  Cu82  1  0.84070582  0.02609275  0.08682645  1
  Cu  Cu83  1  0.18538693  0.15929418  0.08682645  1
  Cu  Cu84  1  0.66990508  0.13779708  0.74666822  1
  Cu  Cu85  1  0.46789301  0.33009492  0.74666822  1
  Cu  Cu86  1  0.86220292  0.53210699  0.74666822  1
  Cu  Cu87  1  0.66990508  0.53210699  0.24666822  1
  Cu  Cu88  1  0.86220292  0.33009492  0.24666822  1
  Cu  Cu89  1  0.46789301  0.13779708  0.24666822  1
  Cu  Cu90  1  0.64057425  0.49262718  0.92015945  1
  Cu  Cu91  1  0.85205393  0.35942575  0.92015945  1
  Cu  Cu92  1  0.50737282  0.14794607  0.92015945  1
  Cu  Cu93  1  0.64057425  0.14794607  0.42015945  1
  Cu  Cu94  1  0.50737282  0.35942575  0.42015945  1
  Cu  Cu95  1  0.85205393  0.49262718  0.42015945  1
  Cu  Cu96  1  0.33657108  0.47113108  0.08000222  1
  Cu  Cu97  1  0.13455901  0.66342892  0.08000222  1
  Cu  Cu98  1  0.52886892  0.86544099  0.08000222  1
  Cu  Cu99  1  0.33657108  0.86544099  0.58000222  1
  Cu  Cu100  1  0.52886892  0.66342892  0.58000222  1
  Cu  Cu101  1  0.13455901  0.47113108  0.58000222  1
  Cu  Cu102  1  0.30724025  0.82596118  0.25349345  1
  Cu  Cu103  1  0.51871993  0.69275975  0.25349345  1
  Cu  Cu104  1  0.17403882  0.48128007  0.25349345  1
  Cu  Cu105  1  0.30724025  0.48128007  0.75349345  1
  Cu  Cu106  1  0.17403882  0.69275975  0.75349345  1
  Cu  Cu107  1  0.51871993  0.82596118  0.75349345  1
