# generated using pymatgen
data_Cu2Ni12C13
_symmetry_space_group_name_H-M   'P 1'
_cell_length_a   10.54614500
_cell_length_b   10.54614500
_cell_length_c   10.54614500
_cell_angle_alpha   90.00000000
_cell_angle_beta   90.00000000
_cell_angle_gamma   90.00000000
_symmetry_Int_Tables_number   1
_chemical_formula_structural   Cu2Ni12C13
_chemical_formula_sum   'Cu8 Ni48 C52'
_cell_volume   1172.95463188
_cell_formula_units_Z   4
loop_
 _symmetry_equiv_pos_site_id
 _symmetry_equiv_pos_as_xyz
  1  'x, y, z'
loop_
 _atom_site_type_symbol
 _atom_site_label
 _atom_site_symmetry_multiplicity
 _atom_site_fract_x
 _atom_site_fract_y
 _atom_site_fract_z
 _atom_site_occupancy
  C  C0  1  0.00000000  0.00000000  0.00000000  1
  C  C1  1  0.50000000  0.00000000  0.50000000  1
  C  C2  1  0.50000000  0.50000000  0.00000000  1
  C  C3  1  0.00000000  0.50000000  0.50000000  1
  Ni  Ni4  1  0.25880300  0.03058400  0.42610600  1
  Ni  Ni5  1  0.75880300  0.46941600  0.57389400  1
  Ni  Ni6  1  0.74119700  0.53058400  0.07389400  1
  Ni  Ni7  1  0.46941600  0.57389400  0.75880300  1
  Ni  Ni8  1  0.07389400  0.74119700  0.53058400  1
  Ni  Ni9  1  0.57389400  0.75880300  0.46941600  1
  Ni  Ni10  1  0.03058400  0.42610600  0.25880300  1
  Ni  Ni11  1  0.42610600  0.25880300  0.03058400  1
  Ni  Ni12  1  0.53058400  0.07389400  0.74119700  1
  Ni  Ni13  1  0.96941600  0.92610600  0.24119700  1
  Ni  Ni14  1  0.92610600  0.24119700  0.96941600  1
  Ni  Ni15  1  0.24119700  0.96941600  0.92610600  1
  Ni  Ni16  1  0.25880300  0.46941600  0.92610600  1
  Ni  Ni17  1  0.53058400  0.42610600  0.24119700  1
  Ni  Ni18  1  0.92610600  0.25880300  0.46941600  1
  Ni  Ni19  1  0.42610600  0.24119700  0.53058400  1
  Ni  Ni20  1  0.96941600  0.57389400  0.74119700  1
  Ni  Ni21  1  0.57389400  0.74119700  0.96941600  1
  Ni  Ni22  1  0.46941600  0.92610600  0.25880300  1
  Ni  Ni23  1  0.03058400  0.07389400  0.75880300  1
  Ni  Ni24  1  0.07389400  0.75880300  0.03058400  1
  Ni  Ni25  1  0.75880300  0.03058400  0.07389400  1
  Ni  Ni26  1  0.57888500  0.03169900  0.25471600  1
  Ni  Ni27  1  0.07888500  0.46830100  0.74528400  1
  Ni  Ni28  1  0.42111500  0.53169900  0.24528400  1
  Ni  Ni29  1  0.46830100  0.74528400  0.07888500  1
  Ni  Ni30  1  0.24528400  0.42111500  0.53169900  1
  Ni  Ni31  1  0.74528400  0.07888500  0.46830100  1
  Ni  Ni32  1  0.03169900  0.25471600  0.57888500  1
  Ni  Ni33  1  0.25471600  0.57888500  0.03169900  1
  Ni  Ni34  1  0.53169900  0.24528400  0.42111500  1
  Ni  Ni35  1  0.96830100  0.75471600  0.92111500  1
  Ni  Ni36  1  0.75471600  0.92111500  0.96830100  1
  Ni  Ni37  1  0.92111500  0.96830100  0.75471600  1
  Ni  Ni38  1  0.42111500  0.96830100  0.74528400  1
  Ni  Ni39  1  0.92111500  0.53169900  0.25471600  1
  Ni  Ni40  1  0.57888500  0.46830100  0.75471600  1
  Ni  Ni41  1  0.53169900  0.25471600  0.92111500  1
  Ni  Ni42  1  0.75471600  0.57888500  0.46830100  1
  Ni  Ni43  1  0.25471600  0.92111500  0.53169900  1
  Ni  Ni44  1  0.96830100  0.74528400  0.42111500  1
  Ni  Ni45  1  0.74528400  0.42111500  0.96830100  1
  Ni  Ni46  1  0.46830100  0.75471600  0.57888500  1
  Ni  Ni47  1  0.03169900  0.24528400  0.07888500  1
  Ni  Ni48  1  0.24528400  0.07888500  0.03169900  1
  Ni  Ni49  1  0.07888500  0.03169900  0.24528400  1
  Ni  Ni50  1  0.74119700  0.96941600  0.57389400  1
  Ni  Ni51  1  0.24119700  0.53058400  0.42610600  1
  Cu  Cu52  1  0.24761300  0.74761300  0.75238700  1
  Cu  Cu53  1  0.75238700  0.24761300  0.74761300  1
  Cu  Cu54  1  0.74761300  0.75238700  0.24761300  1
  Cu  Cu55  1  0.25238700  0.25238700  0.25238700  1
  Cu  Cu56  1  0.74761300  0.74761300  0.74761300  1
  Cu  Cu57  1  0.75238700  0.25238700  0.24761300  1
  Cu  Cu58  1  0.24761300  0.75238700  0.25238700  1
  Cu  Cu59  1  0.25238700  0.24761300  0.75238700  1
  C  C60  1  0.95981500  0.03585900  0.80785900  1
  C  C61  1  0.80785900  0.95981500  0.03585900  1
  C  C62  1  0.03585900  0.80785900  0.95981500  1
  C  C63  1  0.46414100  0.19214100  0.45981500  1
  C  C64  1  0.30785900  0.54018500  0.96414100  1
  C  C65  1  0.96414100  0.30785900  0.54018500  1
  C  C66  1  0.95981500  0.46414100  0.30785900  1
  C  C67  1  0.19214100  0.45981500  0.46414100  1
  C  C68  1  0.53585900  0.69214100  0.04018500  1
  C  C69  1  0.45981500  0.46414100  0.19214100  1
  C  C70  1  0.04018500  0.53585900  0.69214100  1
  C  C71  1  0.54018500  0.96414100  0.30785900  1
  C  C72  1  0.54018500  0.53585900  0.80785900  1
  C  C73  1  0.46414100  0.30785900  0.95981500  1
  C  C74  1  0.80785900  0.54018500  0.53585900  1
  C  C75  1  0.30785900  0.95981500  0.46414100  1
  C  C76  1  0.03585900  0.69214100  0.45981500  1
  C  C77  1  0.69214100  0.45981500  0.03585900  1
  C  C78  1  0.53585900  0.80785900  0.54018500  1
  C  C79  1  0.96414100  0.19214100  0.04018500  1
  C  C80  1  0.19214100  0.04018500  0.96414100  1
  C  C81  1  0.04018500  0.96414100  0.19214100  1
  C  C82  1  0.67098600  0.13973000  0.16735900  1
  C  C83  1  0.17098600  0.36027000  0.83264100  1
  C  C84  1  0.32901400  0.63973000  0.33264100  1
  C  C85  1  0.36027000  0.83264100  0.17098600  1
  C  C86  1  0.33264100  0.32901400  0.63973000  1
  C  C87  1  0.83264100  0.17098600  0.36027000  1
  C  C88  1  0.13973000  0.16735900  0.67098600  1
  C  C89  1  0.16735900  0.67098600  0.13973000  1
  C  C90  1  0.63973000  0.33264100  0.32901400  1
  C  C91  1  0.86027000  0.66735900  0.82901400  1
  C  C92  1  0.66735900  0.82901400  0.86027000  1
  C  C93  1  0.82901400  0.86027000  0.66735900  1
  C  C94  1  0.32901400  0.86027000  0.83264100  1
  C  C95  1  0.82901400  0.63973000  0.16735900  1
  C  C96  1  0.67098600  0.36027000  0.66735900  1
  C  C97  1  0.63973000  0.16735900  0.82901400  1
  C  C98  1  0.66735900  0.67098600  0.36027000  1
  C  C99  1  0.16735900  0.82901400  0.63973000  1
  C  C100  1  0.86027000  0.83264100  0.32901400  1
  C  C101  1  0.83264100  0.32901400  0.86027000  1
  C  C102  1  0.36027000  0.66735900  0.67098600  1
  C  C103  1  0.13973000  0.33264100  0.17098600  1
  C  C104  1  0.33264100  0.17098600  0.13973000  1
  C  C105  1  0.17098600  0.13973000  0.33264100  1
  C  C106  1  0.45981500  0.03585900  0.69214100  1
  C  C107  1  0.69214100  0.04018500  0.53585900  1
