# generated using pymatgen
data_Cu2NiC14
_symmetry_space_group_name_H-M   'P 1'
_cell_length_a   3.31177632
_cell_length_b   5.43589490
_cell_length_c   12.85419767
_cell_angle_alpha   81.12241593
_cell_angle_beta   90.00000000
_cell_angle_gamma   90.00000000
_symmetry_Int_Tables_number   1
_chemical_formula_structural   Cu2NiC14
_chemical_formula_sum   'Cu2 Ni1 C14'
_cell_volume   228.63509673
_cell_formula_units_Z   1
loop_
 _symmetry_equiv_pos_site_id
 _symmetry_equiv_pos_as_xyz
  1  'x, y, z'
loop_
 _atom_site_type_symbol
 _atom_site_label
 _atom_site_symmetry_multiplicity
 _atom_site_fract_x
 _atom_site_fract_y
 _atom_site_fract_z
 _atom_site_occupancy
  Ni  Ni0  1  0.25000000  0.00436778  0.53964061  1
  C  C1  1  0.24999900  0.41658180  0.09744684  1
  C  C2  1  0.75000000  0.59972884  0.89410982  1
  C  C3  1  0.75000000  0.49617385  0.61659637  1
  C  C4  1  0.24999900  0.46590341  0.37412734  1
  Cu  Cu5  1  0.75000000  0.86114217  0.16806289  1
  Cu  Cu6  1  0.24999900  0.15739372  0.82817825  1
  C  C7  1  0.75000000  0.43697090  0.76565347  1
  C  C8  1  0.24999900  0.58635674  0.23017916  1
  C  C9  1  0.75000000  0.60888345  0.06000860  1
  C  C10  1  0.24999900  0.40945822  0.93510231  1
  C  C11  1  0.75000000  0.55705830  0.43157979  1
  C  C12  1  0.24999900  0.33128114  0.59742698  1
  C  C13  1  0.24999900  0.14354094  0.39120920  1
  C  C14  1  0.75000000  0.83676440  0.59461033  1
  C  C15  1  0.75000000  0.93888043  0.84832125  1
  C  C16  1  0.24999900  0.08006791  0.14336980  1
