# generated using pymatgen
data_Cu4Ni2C9
_symmetry_space_group_name_H-M   'P 1'
_cell_length_a   3.13383902
_cell_length_b   8.57078884
_cell_length_c   8.36927650
_cell_angle_alpha   77.57665965
_cell_angle_beta   84.75743942
_cell_angle_gamma   97.99986421
_symmetry_Int_Tables_number   1
_chemical_formula_structural   Cu4Ni2C9
_chemical_formula_sum   'Cu4 Ni2 C9'
_cell_volume   215.67713624
_cell_formula_units_Z   1
loop_
 _symmetry_equiv_pos_site_id
 _symmetry_equiv_pos_as_xyz
  1  'x, y, z'
loop_
 _atom_site_type_symbol
 _atom_site_label
 _atom_site_symmetry_multiplicity
 _atom_site_fract_x
 _atom_site_fract_y
 _atom_site_fract_z
 _atom_site_occupancy
  C  C0  1  0.50138759  0.48895345  0.51649539  1
  Ni  Ni1  1  0.23916542  0.19149259  0.22148786  1
  Ni  Ni2  1  0.76228021  0.78638947  0.81161879  1
  Cu  Cu3  1  0.64803755  0.15734901  0.56819030  1
  Cu  Cu4  1  0.10048465  0.53335503  0.18792082  1
  Cu  Cu5  1  0.90187128  0.44466885  0.84523219  1
  Cu  Cu6  1  0.35436095  0.82056963  0.46490788  1
  C  C7  1  0.00762613  0.60280501  0.61103998  1
  C  C8  1  0.48760751  0.29733714  0.73471314  1
  C  C9  1  0.51542650  0.68070622  0.29843215  1
  C  C10  1  0.99516348  0.37496368  0.42203634  1
  C  C11  1  0.33753054  0.91792225  0.68674151  1
  C  C12  1  0.81227343  0.32400885  0.09932591  1
  C  C13  1  0.66366520  0.05986487  0.34620695  1
  C  C14  1  0.18943155  0.65391494  0.93376078  1
