# generated using pymatgen
data_Cu3Ni3C31
_symmetry_space_group_name_H-M   'P 1'
_cell_length_a   9.01242590
_cell_length_b   9.06700054
_cell_length_c   22.92709456
_cell_angle_alpha   89.84340859
_cell_angle_beta   90.17535347
_cell_angle_gamma   120.13320722
_symmetry_Int_Tables_number   1
_chemical_formula_structural   Cu3Ni3C31
_chemical_formula_sum   'Cu9 Ni9 C93'
_cell_volume   1620.30973058
_cell_formula_units_Z   3
loop_
 _symmetry_equiv_pos_site_id
 _symmetry_equiv_pos_as_xyz
  1  'x, y, z'
loop_
 _atom_site_type_symbol
 _atom_site_label
 _atom_site_symmetry_multiplicity
 _atom_site_fract_x
 _atom_site_fract_y
 _atom_site_fract_z
 _atom_site_occupancy
  C  C0  1  0.34763003  0.35415182  0.23592357  1
  C  C1  1  0.63817327  0.62398921  0.75766902  1
  C  C2  1  0.97179291  0.28912758  0.41574885  1
  C  C3  1  0.99085212  0.01255886  0.49717835  1
  C  C4  1  0.99080371  0.96917261  0.00386108  1
  C  C5  1  0.66260849  0.34403981  0.82956014  1
  C  C6  1  0.66696617  0.30482246  0.32790355  1
  C  C7  1  0.26408464  0.63689256  0.16114132  1
  C  C8  1  0.25391610  0.62014917  0.66706506  1
  C  C9  1  0.01074549  0.99492386  0.85374578  1
  C  C10  1  0.01323164  0.01397759  0.64600374  1
  C  C11  1  0.00558539  0.01067144  0.14498395  1
  C  C12  1  0.66686017  0.35615560  0.98169319  1
  C  C13  1  0.66251361  0.31994869  0.47807338  1
  C  C14  1  0.34232723  0.65977123  0.02205320  1
  C  C15  1  0.33336547  0.65533745  0.51828125  1
  C  C16  1  0.33898238  0.66267997  0.31378407  1
  C  C17  1  0.32831021  0.65541695  0.81053321  1
  C  C18  1  0.99275252  0.01232852  0.35378226  1
  C  C19  1  0.67887849  0.33973173  0.68735888  1
  C  C20  1  0.69400715  0.35507581  0.17944675  1
  Ni  Ni21  1  0.99141747  0.29957425  0.25328717  1
  Ni  Ni22  1  0.29662643  0.29086356  0.75057099  1
  Ni  Ni23  1  0.00637792  0.71292650  0.74782358  1
  Ni  Ni24  1  0.96178402  0.33189088  0.58275154  1
  Ni  Ni25  1  0.97201763  0.64105270  0.08254037  1
  Ni  Ni26  1  0.37784279  0.33549783  0.08847761  1
  Ni  Ni27  1  0.63330306  0.67399965  0.91360730  1
  Ni  Ni28  1  0.62183893  0.95396297  0.41769520  1
  Ni  Ni29  1  0.34009684  0.37142193  0.41404099  1
  Cu  Cu30  1  0.28545306  0.99326093  0.25066785  1
  Cu  Cu31  1  0.70566691  0.70840167  0.25192649  1
  Cu  Cu32  1  0.71315071  0.99858355  0.75202082  1
  Cu  Cu33  1  0.37132809  0.03679313  0.58367287  1
  Cu  Cu34  1  0.66844990  0.62898326  0.58396523  1
  Cu  Cu35  1  0.66799176  0.04501691  0.08120135  1
  Cu  Cu36  1  0.04031603  0.37342584  0.91729101  1
  Cu  Cu37  1  0.34265650  0.95861932  0.91647092  1
  Cu  Cu38  1  0.04363558  0.66588349  0.41701176  1
  C  C39  1  0.19687263  0.00326877  0.30334348  1
  C  C40  1  0.80542307  0.78555366  0.30554843  1
  C  C41  1  0.97990032  0.21521619  0.31741229  1
  C  C42  1  0.19641565  0.18482265  0.80874085  1
  C  C43  1  0.98356455  0.81080994  0.80496417  1
  C  C44  1  0.81597712  0.01420642  0.80467717  1
  C  C45  1  0.79635442  0.98015748  0.69880676  1
  C  C46  1  0.18038513  0.20269767  0.69219645  1
  C  C47  1  0.01332851  0.82280729  0.69019567  1
  C  C48  1  0.79741159  0.80282623  0.19896424  1
  C  C49  1  0.01584412  0.18394451  0.20205599  1
  C  C50  1  0.18308403  0.97638940  0.19709913  1
  C  C51  1  0.87614818  0.35416645  0.64167037  1
  C  C52  1  0.46655562  0.11455752  0.63753905  1
  C  C53  1  0.63935263  0.54027554  0.64069684  1
  C  C54  1  0.91882914  0.52770592  0.14168328  1
  C  C55  1  0.63343523  0.11061928  0.13481498  1
  C  C56  1  0.47540918  0.35330846  0.15023165  1
  C  C57  1  0.47772772  0.31197681  0.03264548  1
  C  C58  1  0.84709168  0.53565193  0.02674217  1
  C  C59  1  0.69338309  0.15193403  0.02918724  1
  C  C60  1  0.46112501  0.14442548  0.53163795  1
  C  C61  1  0.67850828  0.52752980  0.53539800  1
  C  C62  1  0.85234862  0.32114924  0.52350052  1
  C  C63  1  0.52272230  0.68348000  0.96796969  1
  C  C64  1  0.14117599  0.46306854  0.96944844  1
  C  C65  1  0.31958336  0.85596370  0.96861353  1
  C  C66  1  0.51501676  0.85200273  0.47530654  1
  C  C67  1  0.30418279  0.47315282  0.46702681  1
  C  C68  1  0.14239641  0.68470080  0.47078201  1
  C  C69  1  0.12834428  0.63900581  0.36536570  1
  C  C70  1  0.50805261  0.86207058  0.35915577  1
  C  C71  1  0.35253814  0.47793029  0.35361084  1
  C  C72  1  0.12407462  0.48014101  0.86427097  1
  C  C73  1  0.34841118  0.86908828  0.86312780  1
  C  C74  1  0.52558971  0.65780309  0.85332543  1
  C  C75  1  0.02162599  0.81343486  0.41051103  1
  C  C76  1  0.81130482  0.97227630  0.41879573  1
  C  C77  1  0.17312779  0.18010424  0.41543353  1
  C  C78  1  0.03161214  0.20689081  0.91273150  1
  C  C79  1  0.19120497  0.98530474  0.91306764  1
  C  C80  1  0.82537782  0.84474872  0.91322970  1
  C  C81  1  0.97469663  0.15638051  0.58559573  1
  C  C82  1  0.19914685  0.02392558  0.58453668  1
  C  C83  1  0.82617167  0.79924541  0.58472015  1
  C  C84  1  0.96576745  0.81753050  0.09028832  1
  C  C85  1  0.82393048  0.02861251  0.08799496  1
  C  C86  1  0.18242488  0.16874991  0.09046350  1
  C  C87  1  0.68703193  0.14526025  0.75026678  1
  C  C88  1  0.48789950  0.31488452  0.74654024  1
  C  C89  1  0.83296798  0.52584520  0.75041663  1
  C  C90  1  0.66326759  0.52744677  0.25044039  1
  C  C91  1  0.81937119  0.31376956  0.24741950  1
  C  C92  1  0.45401749  0.15161658  0.24776723  1
  C  C93  1  0.64724982  0.49857030  0.91873977  1
  C  C94  1  0.86468430  0.34725925  0.92082725  1
  C  C95  1  0.50152329  0.12798474  0.91992513  1
  C  C96  1  0.65537466  0.15299368  0.42024468  1
  C  C97  1  0.51917765  0.37258014  0.42412252  1
  C  C98  1  0.87348002  0.50460319  0.42119705  1
  C  C99  1  0.35489614  0.50394222  0.07930327  1
  C  C100  1  0.16705593  0.68173226  0.06851699  1
  C  C101  1  0.52043366  0.86990861  0.07234939  1
  C  C102  1  0.34580665  0.86343499  0.57748786  1
  C  C103  1  0.51834851  0.65451473  0.57541331  1
  C  C104  1  0.15499200  0.50179359  0.57797342  1
  C  C105  1  0.30474341  0.83981179  0.25281109  1
  C  C106  1  0.53773302  0.70658194  0.25282704  1
  C  C107  1  0.17436200  0.48816445  0.25132349  1
  C  C108  1  0.32055851  0.48563006  0.75437429  1
  C  C109  1  0.18237379  0.70318949  0.75519552  1
  C  C110  1  0.54338800  0.83715503  0.75524639  1
