# generated using pymatgen
data_Cu2NiC16
_symmetry_space_group_name_H-M   'P 1'
_cell_length_a   9.09500173
_cell_length_b   9.03821492
_cell_length_c   23.31857015
_cell_angle_alpha   89.72328663
_cell_angle_beta   90.00000000
_cell_angle_gamma   120.20805749
_symmetry_Int_Tables_number   1
_chemical_formula_structural   Cu2NiC16
_chemical_formula_sum   'Cu12 Ni6 C96'
_cell_volume   1656.52076529
_cell_formula_units_Z   6
loop_
 _symmetry_equiv_pos_site_id
 _symmetry_equiv_pos_as_xyz
  1  'x, y, z'
loop_
 _atom_site_type_symbol
 _atom_site_label
 _atom_site_symmetry_multiplicity
 _atom_site_fract_x
 _atom_site_fract_y
 _atom_site_fract_z
 _atom_site_occupancy
  C  C0  1  0.00280632  0.64080753  0.24304906  1
  C  C1  1  0.63800121  0.64080753  0.74304906  1
  C  C2  1  0.65945543  0.95740417  0.57967553  1
  C  C3  1  0.29794974  0.95740417  0.07967553  1
  C  C4  1  0.69016424  0.02707369  0.91029365  1
  C  C5  1  0.33690845  0.02707369  0.41029365  1
  C  C6  1  0.97997378  0.98823204  0.49371567  1
  C  C7  1  0.00825825  0.98823204  0.99371567  1
  C  C8  1  0.65752933  0.31336782  0.82712689  1
  C  C9  1  0.65583949  0.31336782  0.32712689  1
  C  C10  1  0.33263902  0.65932694  0.16093625  1
  C  C11  1  0.32668691  0.65932694  0.66093625  1
  C  C12  1  0.00077887  0.99922761  0.64916716  1
  C  C13  1  0.99844874  0.99922761  0.14916716  1
  C  C14  1  0.67177043  0.34651954  0.98276571  1
  C  C15  1  0.67475010  0.34651954  0.48276571  1
  C  C16  1  0.34640021  0.67707571  0.31573804  1
  C  C17  1  0.33067450  0.67707571  0.81573804  1
  C  C18  1  0.99274577  0.00480726  0.34964465  1
  C  C19  1  0.01206149  0.00480726  0.84964465  1
  C  C20  1  0.66701986  0.32807366  0.68276317  1
  C  C21  1  0.66105480  0.32807366  0.18276317  1
  C  C22  1  0.31236628  0.66169681  0.01593947  1
  C  C23  1  0.34932953  0.66169681  0.51593947  1
  Ni  Ni24  1  0.30040823  0.01040568  0.25196594  1
  Ni  Ni25  1  0.70999745  0.01040568  0.75196594  1
  Ni  Ni26  1  0.65680728  0.62638245  0.58761115  1
  Ni  Ni27  1  0.96957617  0.62638245  0.08761115  1
  Ni  Ni28  1  0.32563062  0.96334602  0.92036327  1
  Ni  Ni29  1  0.63771440  0.96334602  0.42036327  1
  Cu  Cu30  1  0.70891116  0.69948255  0.25126507  1
  Cu  Cu31  1  0.99175143  0.29378444  0.25121156  1
  Cu  Cu32  1  0.30203301  0.29378444  0.75121156  1
  Cu  Cu33  1  0.99057138  0.69948255  0.75126507  1
  Cu  Cu34  1  0.96790097  0.34424503  0.58455100  1
  Cu  Cu35  1  0.37510523  0.03465039  0.58299038  1
  Cu  Cu36  1  0.65954616  0.03465039  0.08299038  1
  Cu  Cu37  1  0.37634506  0.34424503  0.08455100  1
  Cu  Cu38  1  0.62926376  0.67487246  0.91645097  1
  Cu  Cu39  1  0.04113312  0.36437653  0.91794661  1
  Cu  Cu40  1  0.32324241  0.36437653  0.41794661  1
  Cu  Cu41  1  0.04560770  0.67487246  0.41645097  1
  C  C42  1  0.21012887  0.02424905  0.30636230  1
  C  C43  1  0.81532953  0.78810348  0.30177183  1
  C  C44  1  0.97418501  0.18877115  0.30229674  1
  C  C45  1  0.21458615  0.18877115  0.80229674  1
  C  C46  1  0.97277394  0.78810348  0.80177183  1
  C  C47  1  0.81412018  0.02424905  0.80636230  1
  C  C48  1  0.79150761  0.97950441  0.69758602  1
  C  C49  1  0.20284596  0.21767762  0.69872313  1
  C  C50  1  0.02057143  0.80320705  0.69867886  1
  C  C51  1  0.78263562  0.80320705  0.19867886  1
  C  C52  1  0.01483165  0.21767762  0.19872313  1
  C  C53  1  0.18799680  0.97950441  0.19758602  1
  C  C54  1  0.88117371  0.36051055  0.63581871  1
  C  C55  1  0.48701744  0.12422468  0.63237069  1
  C  C56  1  0.64454002  0.52521325  0.64265493  1
  C  C57  1  0.88067423  0.52521325  0.14265493  1
  C  C58  1  0.63720824  0.12422468  0.13237069  1
  C  C59  1  0.47933784  0.36051055  0.13581871  1
  C  C60  1  0.45056698  0.30901352  0.03282519  1
  C  C61  1  0.86081929  0.54186501  0.03395793  1
  C  C62  1  0.68344897  0.13291115  0.02887595  1
  C  C63  1  0.44946318  0.13291115  0.52887595  1
  C  C64  1  0.68104672  0.54186501  0.53395793  1
  C  C65  1  0.85844754  0.30901352  0.53282519  1
  C  C66  1  0.53825231  0.69113280  0.96623293  1
  C  C67  1  0.14333690  0.45016233  0.96882661  1
  C  C68  1  0.30787329  0.85916484  0.97541902  1
  C  C69  1  0.55129056  0.85916484  0.47541902  1
  C  C70  1  0.30682443  0.45016233  0.46882661  1
  C  C71  1  0.15287949  0.69113280  0.46623293  1
  C  C72  1  0.11767577  0.64923983  0.36255571  1
  C  C73  1  0.51872038  0.87813779  0.36786097  1
  C  C74  1  0.34777303  0.46530491  0.36538032  1
  C  C75  1  0.11753089  0.46530491  0.86538032  1
  C  C76  1  0.35941641  0.87813779  0.86786097  1
  C  C77  1  0.53156306  0.64923983  0.86255571  1
  C  C78  1  0.03620122  0.83477819  0.41162627  1
  C  C79  1  0.81366523  0.98208017  0.41092059  1
  C  C80  1  0.17239706  0.18922190  0.41296671  1
  C  C81  1  0.01682484  0.18922190  0.91296671  1
  C  C82  1  0.16841494  0.98208017  0.91092059  1
  C  C83  1  0.79857698  0.83477819  0.91162627  1
  C  C84  1  0.98104793  0.18500204  0.58931076  1
  C  C85  1  0.20477261  0.01616443  0.58888138  1
  C  C86  1  0.81610746  0.81333415  0.58837285  1
  C  C87  1  0.99722669  0.81333415  0.08837285  1
  C  C88  1  0.81139181  0.01616443  0.08888138  1
  C  C89  1  0.20395411  0.18500204  0.08931076  1
  C  C90  1  0.68664963  0.16624801  0.74381730  1
  C  C91  1  0.47536752  0.31626181  0.74635012  1
  C  C92  1  0.83057431  0.53177776  0.74564547  1
  C  C93  1  0.70120445  0.53177776  0.24564547  1
  C  C94  1  0.84089529  0.31626181  0.24635012  1
  C  C95  1  0.47959938  0.16624801  0.24381730  1
  C  C96  1  0.65373947  0.52473177  0.92076126  1
  C  C97  1  0.86512923  0.34133987  0.92213866  1
  C  C98  1  0.49566977  0.14079823  0.92310338  1
  C  C99  1  0.64512946  0.14079823  0.42310338  1
  C  C100  1  0.47621163  0.34133987  0.42213866  1
  C  C101  1  0.87099330  0.52473177  0.42076126  1
  C  C102  1  0.35924679  0.49523810  0.07677867  1
  C  C103  1  0.15057247  0.64965513  0.08121120  1
  C  C104  1  0.50314729  0.86343616  0.07842763  1
  C  C105  1  0.36028787  0.86343616  0.57842763  1
  C  C106  1  0.49908166  0.64965513  0.58121120  1
  C  C107  1  0.13599031  0.49523810  0.57677867  1
  C  C108  1  0.30623404  0.83867136  0.25483459  1
  C  C109  1  0.53461317  0.67269824  0.25569305  1
  C  C110  1  0.14532824  0.46971093  0.25579108  1
  C  C111  1  0.32438169  0.46971093  0.75579108  1
  C  C112  1  0.13808407  0.67269824  0.75569305  1
  C  C113  1  0.53243632  0.83867136  0.75483459  1
