# generated using pymatgen
data_Cu3NiC31
_symmetry_space_group_name_H-M   'P 1'
_cell_length_a   8.78758518
_cell_length_b   8.78758490
_cell_length_c   22.92909244
_cell_angle_alpha   90.00000000
_cell_angle_beta   90.00000000
_cell_angle_gamma   120.00000106
_symmetry_Int_Tables_number   1
_chemical_formula_structural   Cu3NiC31
_chemical_formula_sum   'Cu9 Ni3 C93'
_cell_volume   1533.40393687
_cell_formula_units_Z   3
loop_
 _symmetry_equiv_pos_site_id
 _symmetry_equiv_pos_as_xyz
  1  'x, y, z'
loop_
 _atom_site_type_symbol
 _atom_site_label
 _atom_site_symmetry_multiplicity
 _atom_site_fract_x
 _atom_site_fract_y
 _atom_site_fract_z
 _atom_site_occupancy
  Ni  Ni0  1  -0.00000000  -0.00000000  0.99774152  1
  Ni  Ni1  1  0.66666700  0.33333300  0.83559084  1
  Ni  Ni2  1  0.66666700  0.33333300  0.33336960  1
  C  C3  1  -0.00000000  -0.00000000  0.35496579  1
  C  C4  1  -0.00000000  -0.00000000  0.85191641  1
  C  C5  1  0.66666700  0.33333300  0.98119458  1
  Cu  Cu6  1  -0.00000000  -0.00000000  0.64605290  1
  Cu  Cu7  1  -0.00000000  -0.00000000  0.14856765  1
  Cu  Cu8  1  0.66666700  0.33333300  0.68609862  1
  Cu  Cu9  1  0.66666700  0.33333300  0.18456138  1
  Cu  Cu10  1  0.66666700  0.33333300  0.48044456  1
  Cu  Cu11  1  0.33333300  0.66666700  0.02055867  1
  Cu  Cu12  1  0.33333300  0.66666700  0.52031987  1
  Cu  Cu13  1  0.33333300  0.66666700  0.31174037  1
  Cu  Cu14  1  0.33333300  0.66666700  0.81250692  1
  C  C15  1  0.28916190  0.00108522  0.25146087  1
  C  C16  1  0.71192332  0.71083810  0.25146087  1
  C  C17  1  0.99891478  0.28807668  0.25146087  1
  C  C18  1  0.28864158  0.28808377  0.75106480  1
  C  C19  1  0.99944219  0.71135842  0.75106480  1
  C  C20  1  0.71191623  0.00055781  0.75106480  1
  C  C21  1  0.95705311  0.33325302  0.58333061  1
  C  C22  1  0.37620091  0.04294689  0.58333061  1
  C  C23  1  0.66674698  0.62379909  0.58333061  1
  C  C24  1  0.95532216  0.62284795  0.08200631  1
  C  C25  1  0.66752679  0.04467784  0.08200631  1
  C  C26  1  0.37715205  0.33247321  0.08200631  1
  C  C27  1  0.62723069  0.66667874  0.91665490  1
  C  C28  1  0.03944704  0.37276931  0.91665490  1
  C  C29  1  0.33332126  0.96055296  0.91665490  1
  C  C30  1  0.62674096  0.95685683  0.41603258  1
  C  C31  1  0.33011487  0.37325904  0.41603258  1
  C  C32  1  0.04314317  0.66988513  0.41603258  1
  C  C33  1  0.20948706  0.03071515  0.30297187  1
  C  C34  1  0.82122809  0.79051294  0.30297187  1
  C  C35  1  0.96928485  0.17877191  0.30297187  1
  C  C36  1  0.20997114  0.17903618  0.80284229  1
  C  C37  1  0.96906503  0.79002886  0.80284229  1
  C  C38  1  0.82096382  0.03093497  0.80284229  1
  C  C39  1  0.79134411  0.97428488  0.69772235  1
  C  C40  1  0.18294077  0.20865589  0.69772235  1
  C  C41  1  0.02571512  0.81705923  0.69772235  1
  C  C42  1  0.79069035  0.81647342  0.19791418  1
  C  C43  1  0.02578308  0.20930965  0.19791418  1
  C  C44  1  0.18352658  0.97421692  0.19791418  1
  C  C45  1  0.87554613  0.36237874  0.63546701  1
  C  C46  1  0.48683361  0.12445387  0.63546701  1
  C  C47  1  0.63762126  0.51316639  0.63546701  1
  C  C48  1  0.87584708  0.51672475  0.13542883  1
  C  C49  1  0.64087867  0.12415292  0.13542883  1
  C  C50  1  0.48327525  0.35912133  0.13542883  1
  C  C51  1  0.45691324  0.30248416  0.03046459  1
  C  C52  1  0.84557193  0.54308676  0.03046459  1
  C  C53  1  0.69751584  0.15442807  0.03046459  1
  C  C54  1  0.45777217  0.15368197  0.53122520  1
  C  C55  1  0.69591080  0.54222783  0.53122520  1
  C  C56  1  0.84631803  0.30408920  0.53122520  1
  C  C57  1  0.54316767  0.69342860  0.96917598  1
  C  C58  1  0.15025993  0.45683233  0.96917598  1
  C  C59  1  0.30657140  0.84974007  0.96917598  1
  C  C60  1  0.54239488  0.85004165  0.46882980  1
  C  C61  1  0.30764576  0.45760512  0.46882980  1
  C  C62  1  0.14995835  0.69235424  0.46882980  1
  C  C63  1  0.12353057  0.63620161  0.36415065  1
  C  C64  1  0.51267004  0.87646943  0.36415065  1
  C  C65  1  0.36379839  0.48732996  0.36415065  1
  C  C66  1  0.12347915  0.48357015  0.86417610  1
  C  C67  1  0.36009000  0.87652085  0.86417610  1
  C  C68  1  0.51642985  0.63991000  0.86417610  1
  C  C69  1  0.02402482  0.82345642  0.40755275  1
  C  C70  1  0.79943160  0.97597518  0.40755275  1
  C  C71  1  0.17654358  0.20056840  0.40755275  1
  C  C72  1  0.02400061  0.19833808  0.90978180  1
  C  C73  1  0.17433747  0.97599939  0.90978180  1
  C  C74  1  0.80166192  0.82566253  0.90978180  1
  C  C75  1  0.97511621  0.17701644  0.59216828  1
  C  C76  1  0.20190024  0.02488379  0.59216828  1
  C  C77  1  0.82298356  0.79809976  0.59216828  1
  C  C78  1  0.97598463  0.80129977  0.09034553  1
  C  C79  1  0.82531514  0.02401537  0.09034553  1
  C  C80  1  0.19870023  0.17468486  0.09034553  1
  C  C81  1  0.69076747  0.15845871  0.74290831  1
  C  C82  1  0.46769224  0.30923253  0.74290831  1
  C  C83  1  0.84154129  0.53230776  0.74290831  1
  C  C84  1  0.69052393  0.53191489  0.24309858  1
  C  C85  1  0.84139196  0.30947607  0.24309858  1
  C  C86  1  0.46808511  0.15860804  0.24309858  1
  C  C87  1  0.64270946  0.50774917  0.92359748  1
  C  C88  1  0.86504071  0.35729054  0.92359748  1
  C  C89  1  0.49225083  0.13495929  0.92359748  1
  C  C90  1  0.64216074  0.13398591  0.42357709  1
  C  C91  1  0.49182616  0.35783926  0.42357709  1
  C  C92  1  0.86601409  0.50817384  0.42357709  1
  C  C93  1  0.35736915  0.48857120  0.07477782  1
  C  C94  1  0.13120105  0.64263085  0.07477782  1
  C  C95  1  0.51142880  0.86879895  0.07477782  1
  C  C96  1  0.35812474  0.86854647  0.57453120  1
  C  C97  1  0.51042073  0.64187526  0.57453120  1
  C  C98  1  0.13145353  0.48957927  0.57453120  1
  C  C99  1  0.30923624  0.84485691  0.25859539  1
  C  C100  1  0.53561967  0.69076376  0.25859539  1
  C  C101  1  0.15514309  0.46438033  0.25859539  1
  C  C102  1  0.30929638  0.46434310  0.75849228  1
  C  C103  1  0.15504572  0.69070362  0.75849228  1
  C  C104  1  0.53565690  0.84495428  0.75849228  1
