# generated using pymatgen
data_CuNi2C15
_symmetry_space_group_name_H-M   'P 1'
_cell_length_a   8.95509290
_cell_length_b   8.96035230
_cell_length_c   23.11893905
_cell_angle_alpha   89.87607518
_cell_angle_beta   90.00000000
_cell_angle_gamma   119.98058530
_symmetry_Int_Tables_number   1
_chemical_formula_structural   CuNi2C15
_chemical_formula_sum   'Cu6 Ni12 C90'
_cell_volume   1606.85722126
_cell_formula_units_Z   6
loop_
 _symmetry_equiv_pos_site_id
 _symmetry_equiv_pos_as_xyz
  1  'x, y, z'
loop_
 _atom_site_type_symbol
 _atom_site_label
 _atom_site_symmetry_multiplicity
 _atom_site_fract_x
 _atom_site_fract_y
 _atom_site_fract_z
 _atom_site_occupancy
  C  C0  1  0.01563785  0.00931681  0.49834584  1
  C  C1  1  0.99367895  0.00931681  0.99834584  1
  C  C2  1  0.68230485  0.34264981  0.83167884  1
  C  C3  1  0.66034595  0.34264981  0.33167884  1
  C  C4  1  0.34897085  0.67598381  0.16501284  1
  C  C5  1  0.32701195  0.67598381  0.66501284  1
  C  C6  1  0.01054313  0.99307670  0.35461658  1
  C  C7  1  0.98253357  0.99307670  0.85461658  1
  C  C8  1  0.67721013  0.32640970  0.68794958  1
  C  C9  1  0.64920057  0.32640970  0.18794958  1
  C  C10  1  0.34387613  0.65974370  0.02128358  1
  C  C11  1  0.31586657  0.65974370  0.52128358  1
  C  C12  1  0.99642047  0.99235271  0.64505393  1
  C  C13  1  0.99593224  0.99235271  0.14505393  1
  C  C14  1  0.66308747  0.32568571  0.97838693  1
  C  C15  1  0.66259924  0.32568571  0.47838693  1
  C  C16  1  0.32975347  0.65901971  0.31172093  1
  C  C17  1  0.32926524  0.65901971  0.81172093  1
  Ni  Ni18  1  0.28855717  0.99558599  0.25010722  1
  Ni  Ni19  1  0.71187483  0.71036461  0.25133296  1
  Ni  Ni20  1  0.99848978  0.71036461  0.75133296  1
  Ni  Ni21  1  0.70702882  0.99558599  0.75010722  1
  Ni  Ni22  1  0.95522417  0.32891899  0.58344022  1
  Ni  Ni23  1  0.37854183  0.04369761  0.58466596  1
  Ni  Ni24  1  0.66515678  0.04369761  0.08466596  1
  Ni  Ni25  1  0.37369582  0.32891899  0.08344022  1
  Ni  Ni26  1  0.62189017  0.66225299  0.91677422  1
  Ni  Ni27  1  0.04520783  0.37703161  0.91799996  1
  Ni  Ni28  1  0.33182278  0.37703161  0.41799996  1
  Ni  Ni29  1  0.04036182  0.66225299  0.41677422  1
  Cu  Cu30  1  0.00036923  0.28705253  0.24973890  1
  Cu  Cu31  1  0.28668330  0.28705253  0.74973890  1
  Cu  Cu32  1  0.66703623  0.62038553  0.58307190  1
  Cu  Cu33  1  0.95335030  0.62038553  0.08307190  1
  Cu  Cu34  1  0.33370223  0.95371953  0.91640590  1
  Cu  Cu35  1  0.62001630  0.95371953  0.41640590  1
  C  C36  1  0.20273622  0.02952358  0.30626571  1
  C  C37  1  0.82507932  0.80925939  0.30701413  1
  C  C38  1  0.97501043  0.18546877  0.30223243  1
  C  C39  1  0.21045835  0.18546877  0.80223243  1
  C  C40  1  0.98418007  0.80925939  0.80701413  1
  C  C41  1  0.82678736  0.02952358  0.80626571  1
  C  C42  1  0.80817005  0.97296040  0.69319627  1
  C  C43  1  0.17959295  0.20788133  0.69725083  1
  C  C44  1  0.02904358  0.83425381  0.69290451  1
  C  C45  1  0.80521023  0.83425381  0.19290451  1
  C  C46  1  0.02828838  0.20788133  0.19725083  1
  C  C47  1  0.16479036  0.97296040  0.19319627  1
  C  C48  1  0.86940322  0.36285658  0.63959871  1
  C  C49  1  0.49174632  0.14259239  0.64034713  1
  C  C50  1  0.64167743  0.51880177  0.63556543  1
  C  C51  1  0.87712535  0.51880177  0.13556543  1
  C  C52  1  0.65084707  0.14259239  0.14034713  1
  C  C53  1  0.49345436  0.36285658  0.13959871  1
  C  C54  1  0.47483705  0.30629340  0.02652927  1
  C  C55  1  0.84625995  0.54121433  0.03058383  1
  C  C56  1  0.69571058  0.16758681  0.02623751  1
  C  C57  1  0.47187723  0.16758681  0.52623751  1
  C  C58  1  0.69495538  0.54121433  0.53058383  1
  C  C59  1  0.83145736  0.30629340  0.52652927  1
  C  C60  1  0.53606922  0.69619058  0.97293271  1
  C  C61  1  0.15841232  0.47592639  0.97368113  1
  C  C62  1  0.30834343  0.85213577  0.96889943  1
  C  C63  1  0.54379135  0.85213577  0.46889943  1
  C  C64  1  0.31751307  0.47592639  0.47368113  1
  C  C65  1  0.16012036  0.69619058  0.47293271  1
  C  C66  1  0.14150305  0.63962740  0.35986327  1
  C  C67  1  0.51292595  0.87454833  0.36391783  1
  C  C68  1  0.36237658  0.50092081  0.35957151  1
  C  C69  1  0.13854323  0.50092081  0.85957151  1
  C  C70  1  0.36162138  0.87454833  0.86391783  1
  C  C71  1  0.49812336  0.63962740  0.85986327  1
  C  C72  1  0.01324564  0.82790752  0.41115797  1
  C  C73  1  0.79540009  0.98110705  0.40940298  1
  C  C74  1  0.15970742  0.19152327  0.41007777  1
  C  C75  1  0.03181584  0.19152327  0.91007777  1
  C  C76  1  0.18570696  0.98110705  0.90940298  1
  C  C77  1  0.81466188  0.82790752  0.91115797  1
  C  C78  1  0.96987377  0.15364722  0.59142477  1
  C  C79  1  0.18424581  0.02368799  0.59196170  1
  C  C80  1  0.82770498  0.79503032  0.58791551  1
  C  C81  1  0.96732533  0.79503032  0.08791551  1
  C  C82  1  0.83944217  0.02368799  0.09196170  1
  C  C83  1  0.18377345  0.15364722  0.09142477  1
  C  C84  1  0.67991264  0.16124052  0.74449097  1
  C  C85  1  0.46206709  0.31444005  0.74273598  1
  C  C86  1  0.82637442  0.52485627  0.74341077  1
  C  C87  1  0.69848284  0.52485627  0.24341077  1
  C  C88  1  0.85237396  0.31444005  0.24273598  1
  C  C89  1  0.48132888  0.16124052  0.24449097  1
  C  C90  1  0.63654077  0.48698022  0.92475777  1
  C  C91  1  0.85091281  0.35702099  0.92529470  1
  C  C92  1  0.49437198  0.12836332  0.92124851  1
  C  C93  1  0.63399233  0.12836332  0.42124851  1
  C  C94  1  0.50610917  0.35702099  0.42529470  1
  C  C95  1  0.85044045  0.48698022  0.42475777  1
  C  C96  1  0.34657864  0.49457452  0.07782497  1
  C  C97  1  0.12873309  0.64777405  0.07606998  1
  C  C98  1  0.49304042  0.85819027  0.07674477  1
  C  C99  1  0.36514884  0.85819027  0.57674477  1
  C  C100  1  0.51903996  0.64777405  0.57606998  1
  C  C101  1  0.14799488  0.49457452  0.57782497  1
  C  C102  1  0.30320677  0.82031422  0.25809177  1
  C  C103  1  0.51757881  0.69035499  0.25862870  1
  C  C104  1  0.16103798  0.46169732  0.25458251  1
  C  C105  1  0.30065833  0.46169732  0.75458251  1
  C  C106  1  0.17277517  0.69035499  0.75862870  1
  C  C107  1  0.51710645  0.82031422  0.75809177  1
