# generated using pymatgen
data_CuNiC18
_symmetry_space_group_name_H-M   'P 1'
_cell_length_a   15.85771822
_cell_length_b   9.17842666
_cell_length_c   9.14299688
_cell_angle_alpha   90.00000000
_cell_angle_beta   124.92339037
_cell_angle_gamma   90.00000000
_symmetry_Int_Tables_number   1
_chemical_formula_structural   CuNiC18
_chemical_formula_sum   'Cu4 Ni4 C72'
_cell_volume   1091.10879222
_cell_formula_units_Z   4
loop_
 _symmetry_equiv_pos_site_id
 _symmetry_equiv_pos_as_xyz
  1  'x, y, z'
loop_
 _atom_site_type_symbol
 _atom_site_label
 _atom_site_symmetry_multiplicity
 _atom_site_fract_x
 _atom_site_fract_y
 _atom_site_fract_z
 _atom_site_occupancy
  C  C0  1  0.25429786  0.72764889  0.99878728  1
  C  C1  1  0.75429786  0.77235111  0.49878728  1
  C  C2  1  0.75429786  0.22764889  0.99878728  1
  C  C3  1  0.25429786  0.27235111  0.49878728  1
  C  C4  1  0.49923219  0.11120228  0.74488001  1
  C  C5  1  0.49923219  0.88879772  0.24488001  1
  C  C6  1  0.99923219  0.61120228  0.74488001  1
  C  C7  1  0.99923219  0.38879772  0.24488001  1
  C  C8  1  0.19057683  0.94414966  0.29447719  1
  C  C9  1  0.19057683  0.05585034  0.79447719  1
  C  C10  1  0.69057683  0.44414966  0.29447719  1
  C  C11  1  0.69057683  0.55585034  0.79447719  1
  Ni  Ni12  1  0.10655320  0.74917254  0.56746595  1
  Ni  Ni13  1  0.10655320  0.25082746  0.06746595  1
  Ni  Ni14  1  0.60655320  0.24917254  0.56746595  1
  Ni  Ni15  1  0.60655320  0.75082746  0.06746595  1
  Cu  Cu16  1  0.89296966  0.75398655  0.93375956  1
  Cu  Cu17  1  0.89296966  0.24601345  0.43375956  1
  Cu  Cu18  1  0.39296966  0.25398655  0.93375956  1
  Cu  Cu19  1  0.39296966  0.74601345  0.43375956  1
  C  C20  1  0.99547660  0.95938130  0.75440357  1
  C  C21  1  0.99547660  0.04061870  0.25440357  1
  C  C22  1  0.49547660  0.45938130  0.75440357  1
  C  C23  1  0.49547660  0.54061870  0.25440357  1
  C  C24  1  0.35489944  0.89865157  0.75622872  1
  C  C25  1  0.64533332  0.89054303  0.74363465  1
  C  C26  1  0.64533332  0.10945697  0.24363465  1
  C  C27  1  0.35489944  0.10134843  0.25622872  1
  C  C28  1  0.85489944  0.39865157  0.75622872  1
  C  C29  1  0.14533332  0.39054303  0.74363465  1
  C  C30  1  0.14533332  0.60945697  0.24363465  1
  C  C31  1  0.85489944  0.60134843  0.25622872  1
  C  C32  1  0.15381140  0.56652538  0.74569507  1
  C  C33  1  0.85004550  0.57930635  0.75642150  1
  C  C34  1  0.85004550  0.42069365  0.25642150  1
  C  C35  1  0.15381140  0.43347462  0.24569507  1
  C  C36  1  0.65381140  0.06652538  0.74569507  1
  C  C37  1  0.35004550  0.07930635  0.75642150  1
  C  C38  1  0.35004550  0.92069365  0.25642150  1
  C  C39  1  0.65381140  0.93347462  0.24569507  1
  C  C40  1  0.43290895  0.57452292  0.58135577  1
  C  C41  1  0.56568161  0.55536872  0.93258862  1
  C  C42  1  0.56568161  0.44463128  0.43258862  1
  C  C43  1  0.43290895  0.42547708  0.08135577  1
  C  C44  1  0.93290895  0.07452292  0.58135577  1
  C  C45  1  0.06568161  0.05536872  0.93258862  1
  C  C46  1  0.06568161  0.94463128  0.43258862  1
  C  C47  1  0.93290895  0.92547708  0.08135577  1
  C  C48  1  0.25635581  0.83904455  0.75141298  1
  C  C49  1  0.74067573  0.80516293  0.75542036  1
  C  C50  1  0.74067573  0.19483707  0.25542036  1
  C  C51  1  0.25635581  0.16095545  0.25141298  1
  C  C52  1  0.75635581  0.33904455  0.75141298  1
  C  C53  1  0.24067573  0.30516293  0.75542036  1
  C  C54  1  0.24067573  0.69483707  0.25542036  1
  C  C55  1  0.75635581  0.66095545  0.25141298  1
  C  C56  1  0.35494572  0.85771928  0.57773650  1
  C  C57  1  0.64497260  0.84010863  0.91220637  1
  C  C58  1  0.64497260  0.15989137  0.41220637  1
  C  C59  1  0.35494572  0.14228072  0.07773650  1
  C  C60  1  0.85494572  0.35771928  0.57773650  1
  C  C61  1  0.14497260  0.34010863  0.91220637  1
  C  C62  1  0.14497260  0.65989137  0.41220637  1
  C  C63  1  0.85494572  0.64228072  0.07773650  1
  C  C64  1  0.46108633  0.84249402  0.93568771  1
  C  C65  1  0.53543012  0.82946821  0.56115551  1
  C  C66  1  0.53543012  0.17053179  0.06115551  1
  C  C67  1  0.46108633  0.15750598  0.43568771  1
  C  C68  1  0.96108633  0.34249402  0.93568771  1
  C  C69  1  0.03543012  0.32946821  0.56115551  1
  C  C70  1  0.03543012  0.67053179  0.06115551  1
  C  C71  1  0.96108633  0.65750598  0.43568771  1
  C  C72  1  0.07346451  0.85285156  0.74109387  1
  C  C73  1  0.91128262  0.85546473  0.75558881  1
  C  C74  1  0.91128262  0.14453527  0.25558881  1
  C  C75  1  0.07346451  0.14714844  0.24109387  1
  C  C76  1  0.57346451  0.35285156  0.74109387  1
  C  C77  1  0.41128262  0.35546473  0.75558881  1
  C  C78  1  0.41128262  0.64453527  0.25558881  1
  C  C79  1  0.57346451  0.64714844  0.24109387  1
