# generated using pymatgen
data_Cu2Ni2C7
_symmetry_space_group_name_H-M   'P 1'
_cell_length_a   5.90131714
_cell_length_b   5.75018014
_cell_length_c   5.80099226
_cell_angle_alpha   53.87515550
_cell_angle_beta   54.07299473
_cell_angle_gamma   52.30486640
_symmetry_Int_Tables_number   1
_chemical_formula_structural   Cu2Ni2C7
_chemical_formula_sum   'Cu2 Ni2 C7'
_cell_volume   117.66589128
_cell_formula_units_Z   1
loop_
 _symmetry_equiv_pos_site_id
 _symmetry_equiv_pos_as_xyz
  1  'x, y, z'
loop_
 _atom_site_type_symbol
 _atom_site_label
 _atom_site_symmetry_multiplicity
 _atom_site_fract_x
 _atom_site_fract_y
 _atom_site_fract_z
 _atom_site_occupancy
  C  C0  1  0.70718944  0.71418197  0.71974108  1
  Ni  Ni1  1  0.50922586  0.52193885  0.53970275  1
  Ni  Ni2  1  0.32805324  0.36538931  0.32168972  1
  Cu  Cu3  1  0.96620390  0.91517902  0.93021372  1
  Cu  Cu4  1  0.08841430  0.12804546  0.11529125  1
  C  C5  1  0.34360092  0.92162343  0.56130756  1
  C  C6  1  0.93570131  0.55461084  0.32549330  1
  C  C7  1  0.59214339  0.31446814  0.92162767  1
  C  C8  1  0.69999057  0.15008402  0.45419966  1
  C  C9  1  0.43869177  0.71668321  0.14753439  1
  C  C10  1  0.14078429  0.45970575  0.71320189  1
