# generated using pymatgen
data_Cu12Ni3C4
_symmetry_space_group_name_H-M   'P 1'
_cell_length_a   9.62295900
_cell_length_b   12.17667200
_cell_length_c   17.01644500
_cell_angle_alpha   90.00000000
_cell_angle_beta   90.00000000
_cell_angle_gamma   90.00000000
_symmetry_Int_Tables_number   1
_chemical_formula_structural   Cu12Ni3C4
_chemical_formula_sum   'Cu96 Ni24 C32'
_cell_volume   1993.91241501
_cell_formula_units_Z   8
loop_
 _symmetry_equiv_pos_site_id
 _symmetry_equiv_pos_as_xyz
  1  'x, y, z'
loop_
 _atom_site_type_symbol
 _atom_site_label
 _atom_site_symmetry_multiplicity
 _atom_site_fract_x
 _atom_site_fract_y
 _atom_site_fract_z
 _atom_site_occupancy
  C  C0  1  0.83287700  0.60648900  0.26903000  1
  C  C1  1  0.33287700  0.39351100  0.23097000  1
  C  C2  1  0.66712300  0.10648900  0.73097000  1
  C  C3  1  0.16712300  0.89351100  0.76903000  1
  C  C4  1  0.16712300  0.39351100  0.73097000  1
  C  C5  1  0.66712300  0.60648900  0.76903000  1
  C  C6  1  0.33287700  0.89351100  0.26903000  1
  C  C7  1  0.83287700  0.10648900  0.23097000  1
  C  C8  1  0.10081900  0.75998700  0.07049500  1
  C  C9  1  0.60081900  0.24001300  0.42950500  1
  C  C10  1  0.39918100  0.25998700  0.92950500  1
  C  C11  1  0.89918100  0.74001300  0.57049500  1
  C  C12  1  0.89918100  0.24001300  0.92950500  1
  C  C13  1  0.39918100  0.75998700  0.57049500  1
  C  C14  1  0.60081900  0.74001300  0.07049500  1
  C  C15  1  0.10081900  0.25998700  0.42950500  1
  C  C16  1  0.61804100  0.42028300  0.99729300  1
  C  C17  1  0.11804100  0.57971700  0.50270700  1
  C  C18  1  0.88195900  0.92028300  0.00270700  1
  C  C19  1  0.38195900  0.07971700  0.49729300  1
  C  C20  1  0.38195900  0.57971700  0.00270700  1
  C  C21  1  0.88195900  0.42028300  0.49729300  1
  C  C22  1  0.11804100  0.07971700  0.99729300  1
  C  C23  1  0.61804100  0.92028300  0.50270700  1
  C  C24  1  0.87847800  0.42159600  0.05579900  1
  C  C25  1  0.37847800  0.57840400  0.44420100  1
  C  C26  1  0.62152200  0.92159600  0.94420100  1
  C  C27  1  0.12152200  0.07840400  0.55579900  1
  C  C28  1  0.12152200  0.57840400  0.94420100  1
  C  C29  1  0.62152200  0.42159600  0.55579900  1
  C  C30  1  0.37847800  0.07840400  0.05579900  1
  C  C31  1  0.87847800  0.92159600  0.44420100  1
  Ni  Ni32  1  0.16956000  0.65838700  0.16585800  1
  Ni  Ni33  1  0.66956000  0.34161300  0.33414200  1
  Ni  Ni34  1  0.33044000  0.15838700  0.83414200  1
  Ni  Ni35  1  0.83044000  0.84161300  0.66585800  1
  Ni  Ni36  1  0.83044000  0.34161300  0.83414200  1
  Ni  Ni37  1  0.33044000  0.65838700  0.66585800  1
  Ni  Ni38  1  0.66956000  0.84161300  0.16585800  1
  Ni  Ni39  1  0.16956000  0.15838700  0.33414200  1
  Ni  Ni40  1  0.09277500  0.48378800  0.39763600  1
  Ni  Ni41  1  0.59277500  0.51621200  0.10236400  1
  Ni  Ni42  1  0.40722500  0.98378800  0.60236400  1
  Ni  Ni43  1  0.90722500  0.01621200  0.89763600  1
  Ni  Ni44  1  0.90722500  0.51621200  0.60236400  1
  Ni  Ni45  1  0.40722500  0.48378800  0.89763600  1
  Ni  Ni46  1  0.59277500  0.01621200  0.39763600  1
  Ni  Ni47  1  0.09277500  0.98378800  0.10236400  1
  Ni  Ni48  1  0.98294800  0.36361500  0.15926600  1
  Ni  Ni49  1  0.48294800  0.63638500  0.34073400  1
  Ni  Ni50  1  0.51705200  0.86361500  0.84073400  1
  Ni  Ni51  1  0.01705200  0.13638500  0.65926600  1
  Ni  Ni52  1  0.01705200  0.63638500  0.84073400  1
  Ni  Ni53  1  0.51705200  0.36361500  0.65926600  1
  Ni  Ni54  1  0.48294800  0.13638500  0.15926600  1
  Ni  Ni55  1  0.98294800  0.86361500  0.34073400  1
  Cu  Cu56  1  0.03566100  0.66632300  0.20673100  1
  Cu  Cu57  1  0.53566100  0.33367700  0.29326900  1
  Cu  Cu58  1  0.46433900  0.16632300  0.79326900  1
  Cu  Cu59  1  0.96433900  0.83367700  0.70673100  1
  Cu  Cu60  1  0.96433900  0.33367700  0.79326900  1
  Cu  Cu61  1  0.46433900  0.66632300  0.70673100  1
  Cu  Cu62  1  0.53566100  0.83367700  0.20673100  1
  Cu  Cu63  1  0.03566100  0.16632300  0.29326900  1
  Cu  Cu64  1  0.76873900  0.75966800  0.19382500  1
  Cu  Cu65  1  0.26873900  0.24033200  0.30617500  1
  Cu  Cu66  1  0.73126100  0.25966800  0.80617500  1
  Cu  Cu67  1  0.23126100  0.74033200  0.69382500  1
  Cu  Cu68  1  0.23126100  0.24033200  0.80617500  1
  Cu  Cu69  1  0.73126100  0.75966800  0.69382500  1
  Cu  Cu70  1  0.26873900  0.74033200  0.19382500  1
  Cu  Cu71  1  0.76873900  0.25966800  0.30617500  1
  Cu  Cu72  1  0.14154300  0.68417400  0.07633300  1
  Cu  Cu73  1  0.64154300  0.31582600  0.42366700  1
  Cu  Cu74  1  0.35845700  0.18417400  0.92366700  1
  Cu  Cu75  1  0.85845700  0.81582600  0.57633300  1
  Cu  Cu76  1  0.85845700  0.31582600  0.92366700  1
  Cu  Cu77  1  0.35845700  0.68417400  0.57633300  1
  Cu  Cu78  1  0.64154300  0.81582600  0.07633300  1
  Cu  Cu79  1  0.14154300  0.18417400  0.42366700  1
  Cu  Cu80  1  0.22687200  0.54769700  0.16407700  1
  Cu  Cu81  1  0.72687200  0.45230300  0.33592300  1
  Cu  Cu82  1  0.27312800  0.04769700  0.83592300  1
  Cu  Cu83  1  0.77312800  0.95230300  0.66407700  1
  Cu  Cu84  1  0.77312800  0.45230300  0.83592300  1
  Cu  Cu85  1  0.27312800  0.54769700  0.66407700  1
  Cu  Cu86  1  0.72687200  0.95230300  0.16407700  1
  Cu  Cu87  1  0.22687200  0.04769700  0.33592300  1
  Cu  Cu88  1  0.69652000  0.54595300  0.16053400  1
  Cu  Cu89  1  0.19652000  0.45404700  0.33946600  1
  Cu  Cu90  1  0.80348000  0.04595300  0.83946600  1
  Cu  Cu91  1  0.30348000  0.95404700  0.66053400  1
  Cu  Cu92  1  0.30348000  0.45404700  0.83946600  1
  Cu  Cu93  1  0.80348000  0.54595300  0.66053400  1
  Cu  Cu94  1  0.19652000  0.95404700  0.16053400  1
  Cu  Cu95  1  0.69652000  0.04595300  0.33946600  1
  Cu  Cu96  1  0.98698800  0.55999400  0.36939500  1
  Cu  Cu97  1  0.48698800  0.44000600  0.13060500  1
  Cu  Cu98  1  0.51301200  0.05999400  0.63060500  1
  Cu  Cu99  1  0.01301200  0.94000600  0.86939500  1
  Cu  Cu100  1  0.01301200  0.44000600  0.63060500  1
  Cu  Cu101  1  0.51301200  0.55999400  0.86939500  1
  Cu  Cu102  1  0.48698800  0.94000600  0.36939500  1
  Cu  Cu103  1  0.98698800  0.05999400  0.13060500  1
  Cu  Cu104  1  0.03017000  0.38860400  0.43803300  1
  Cu  Cu105  1  0.53017000  0.61139600  0.06196700  1
  Cu  Cu106  1  0.46983000  0.88860400  0.56196700  1
  Cu  Cu107  1  0.96983000  0.11139600  0.93803300  1
  Cu  Cu108  1  0.96983000  0.61139600  0.56196700  1
  Cu  Cu109  1  0.46983000  0.38860400  0.93803300  1
  Cu  Cu110  1  0.53017000  0.11139600  0.43803300  1
  Cu  Cu111  1  0.03017000  0.88860400  0.06196700  1
  Cu  Cu112  1  0.68161300  0.45041100  0.03895100  1
  Cu  Cu113  1  0.18161300  0.54958900  0.46104900  1
  Cu  Cu114  1  0.81838700  0.95041100  0.96104900  1
  Cu  Cu115  1  0.31838700  0.04958900  0.53895100  1
  Cu  Cu116  1  0.31838700  0.54958900  0.96104900  1
  Cu  Cu117  1  0.81838700  0.45041100  0.53895100  1
  Cu  Cu118  1  0.18161300  0.04958900  0.03895100  1
  Cu  Cu119  1  0.68161300  0.95041100  0.46104900  1
  Cu  Cu120  1  0.13009900  0.33531900  0.16754200  1
  Cu  Cu121  1  0.63009900  0.66468100  0.33245800  1
  Cu  Cu122  1  0.36990100  0.83531900  0.83245800  1
  Cu  Cu123  1  0.86990100  0.16468100  0.66754200  1
  Cu  Cu124  1  0.86990100  0.66468100  0.83245800  1
  Cu  Cu125  1  0.36990100  0.33531900  0.66754200  1
  Cu  Cu126  1  0.63009900  0.16468100  0.16754200  1
  Cu  Cu127  1  0.13009900  0.83531900  0.33245800  1
  Cu  Cu128  1  0.93910900  0.44534200  0.21737900  1
  Cu  Cu129  1  0.43910900  0.55465800  0.28262100  1
  Cu  Cu130  1  0.56089100  0.94534200  0.78262100  1
  Cu  Cu131  1  0.06089100  0.05465800  0.71737900  1
  Cu  Cu132  1  0.06089100  0.55465800  0.78262100  1
  Cu  Cu133  1  0.56089100  0.44534200  0.71737900  1
  Cu  Cu134  1  0.43910900  0.05465800  0.21737900  1
  Cu  Cu135  1  0.93910900  0.94534200  0.28262100  1
  Cu  Cu136  1  0.97575100  0.41770300  0.07483900  1
  Cu  Cu137  1  0.47575100  0.58229700  0.42516100  1
  Cu  Cu138  1  0.52424900  0.91770300  0.92516100  1
  Cu  Cu139  1  0.02424900  0.08229700  0.57483900  1
  Cu  Cu140  1  0.02424900  0.58229700  0.92516100  1
  Cu  Cu141  1  0.52424900  0.41770300  0.57483900  1
  Cu  Cu142  1  0.47575100  0.08229700  0.07483900  1
  Cu  Cu143  1  0.97575100  0.91770300  0.42516100  1
  Cu  Cu144  1  0.89178700  0.26762000  0.15677800  1
  Cu  Cu145  1  0.39178700  0.73238000  0.34322200  1
  Cu  Cu146  1  0.60821300  0.76762000  0.84322200  1
  Cu  Cu147  1  0.10821300  0.23238000  0.65677800  1
  Cu  Cu148  1  0.10821300  0.73238000  0.84322200  1
  Cu  Cu149  1  0.60821300  0.26762000  0.65677800  1
  Cu  Cu150  1  0.39178700  0.23238000  0.15677800  1
  Cu  Cu151  1  0.89178700  0.76762000  0.34322200  1
