# generated using pymatgen
data_Cu5Ni3C17
_symmetry_space_group_name_H-M   'P 1'
_cell_length_a   5.77382926
_cell_length_b   5.86715559
_cell_length_c   9.36565811
_cell_angle_alpha   90.01618705
_cell_angle_beta   85.25070429
_cell_angle_gamma   120.52597883
_symmetry_Int_Tables_number   1
_chemical_formula_structural   Cu5Ni3C17
_chemical_formula_sum   'Cu5 Ni3 C17'
_cell_volume   272.03557179
_cell_formula_units_Z   1
loop_
 _symmetry_equiv_pos_site_id
 _symmetry_equiv_pos_as_xyz
  1  'x, y, z'
loop_
 _atom_site_type_symbol
 _atom_site_label
 _atom_site_symmetry_multiplicity
 _atom_site_fract_x
 _atom_site_fract_y
 _atom_site_fract_z
 _atom_site_occupancy
  C  C0  1  0.59840800  0.79931300  0.39433300  1
  Ni  Ni1  1  0.68941300  0.84501700  0.99890900  1
  Ni  Ni2  1  0.84374600  0.67258700  0.69895400  1
  Ni  Ni3  1  0.84371500  0.17064500  0.69897700  1
  Cu  Cu4  1  0.15365300  0.82036700  0.20032700  1
  Cu  Cu5  1  0.32874400  0.66413000  0.73654500  1
  Cu  Cu6  1  0.15331500  0.33368100  0.20022200  1
  Cu  Cu7  1  0.34378100  0.17173500  0.73026300  1
  Cu  Cu8  1  0.66185500  0.33102900  0.98555700  1
  C  C9  1  0.21917000  0.86791500  0.62461000  1
  C  C10  1  0.98141300  0.49109500  0.29256900  1
  C  C11  1  0.31388700  0.65709600  0.09315800  1
  C  C12  1  0.95600800  0.97824200  0.27803500  1
  C  C13  1  0.97982700  0.98970100  0.82419800  1
  C  C14  1  0.21920800  0.35081800  0.62464000  1
  C  C15  1  0.39566400  0.95627500  0.31199800  1
  C  C16  1  0.39557900  0.43980900  0.31206200  1
  C  C17  1  0.31160100  0.15598100  0.08252600  1
  C  C18  1  0.66559300  0.83254500  0.60156100  1
  C  C19  1  0.50628800  0.48825400  0.84790100  1
  C  C20  1  0.50647600  0.01757000  0.84800100  1
  C  C21  1  0.66065100  0.33007000  0.61047000  1
  C  C22  1  0.81878200  0.64043700  0.07985400  1
  C  C23  1  0.96759000  0.48367500  0.83342400  1
  C  C24  1  0.81896600  0.17887600  0.08006100  1
