# generated using pymatgen
data_Cu4Ni8C7
_symmetry_space_group_name_H-M   'P 1'
_cell_length_a   8.33130386
_cell_length_b   5.81303235
_cell_length_c   5.92212218
_cell_angle_alpha   65.65738257
_cell_angle_beta   62.88441825
_cell_angle_gamma   64.35966249
_symmetry_Int_Tables_number   1
_chemical_formula_structural   Cu4Ni8C7
_chemical_formula_sum   'Cu4 Ni8 C7'
_cell_volume   221.73537445
_cell_formula_units_Z   1
loop_
 _symmetry_equiv_pos_site_id
 _symmetry_equiv_pos_as_xyz
  1  'x, y, z'
loop_
 _atom_site_type_symbol
 _atom_site_label
 _atom_site_symmetry_multiplicity
 _atom_site_fract_x
 _atom_site_fract_y
 _atom_site_fract_z
 _atom_site_occupancy
  C  C0  1  0.00103094  0.01700576  0.48807846  1
  C  C1  1  0.81058569  0.64049867  0.65930536  1
  C  C2  1  0.65610452  0.32608108  0.31869635  1
  C  C3  1  0.35258214  0.65186698  0.66718944  1
  C  C4  1  0.21758368  0.35554525  0.35476616  1
  C  C5  1  0.50479940  0.99553623  -0.00027649  1
  C  C6  1  0.99663157  0.00008178  0.00622649  1
  Ni  Ni7  1  0.70525462  0.02149328  0.64021615  1
  Ni  Ni8  1  0.36530835  0.36771090  0.98615486  1
  Ni  Ni9  1  0.92765346  0.25229565  0.17386773  1
  Ni  Ni10  1  0.38690946  0.41999518  0.48527208  1
  Ni  Ni11  1  0.30069437  0.97240918  0.36116538  1
  Ni  Ni12  1  0.62931379  0.62396104  0.00949926  1
  Ni  Ni13  1  0.98761554  0.27342571  0.66398147  1
  Ni  Ni14  1  0.03037725  0.72107742  0.33838103  1
  Cu  Cu15  1  0.30147271  0.90625071  0.84863615  1
  Cu  Cu16  1  0.64746342  0.58303428  0.51326725  1
  Cu  Cu17  1  0.69750307  0.04980261  0.13070309  1
  Cu  Cu18  1  0.03945204  0.75049928  0.81915575  1
