# generated using pymatgen
data_Cu2Ni2C13
_symmetry_space_group_name_H-M   'P 1'
_cell_length_a   4.12946600
_cell_length_b   4.12711300
_cell_length_c   16.20195100
_cell_angle_alpha   90.00000000
_cell_angle_beta   90.00000000
_cell_angle_gamma   90.00000000
_symmetry_Int_Tables_number   1
_chemical_formula_structural   Cu2Ni2C13
_chemical_formula_sum   'Cu2 Ni2 C13'
_cell_volume   276.12617000
_cell_formula_units_Z   1
loop_
 _symmetry_equiv_pos_site_id
 _symmetry_equiv_pos_as_xyz
  1  'x, y, z'
loop_
 _atom_site_type_symbol
 _atom_site_label
 _atom_site_symmetry_multiplicity
 _atom_site_fract_x
 _atom_site_fract_y
 _atom_site_fract_z
 _atom_site_occupancy
  C  C0  1  0.25000000  0.25000000  0.81510600  1
  C  C1  1  0.75000000  0.75000000  0.18490800  1
  C  C2  1  0.25000000  0.25000000  0.61729900  1
  C  C3  1  0.75000000  0.75000000  0.38264200  1
  C  C4  1  0.25000000  0.75000000  0.50005500  1
  Ni  Ni5  1  0.75000000  0.75000000  0.69698800  1
  Ni  Ni6  1  0.25000000  0.25000000  0.30299500  1
  Cu  Cu7  1  0.25000000  0.75000000  0.99996700  1
  Cu  Cu8  1  0.75000000  0.25000000  0.99996700  1
  C  C9  1  0.75000000  0.75000000  0.89815100  1
  C  C10  1  0.25000000  0.25000000  0.10181600  1
  C  C11  1  0.25000000  0.75000000  0.69653500  1
  C  C12  1  0.75000000  0.25000000  0.70766100  1
  C  C13  1  0.75000000  0.25000000  0.29235400  1
  C  C14  1  0.25000000  0.75000000  0.30346200  1
  C  C15  1  0.75000000  0.75000000  0.54862700  1
  C  C16  1  0.25000000  0.25000000  0.45146500  1
