# generated using pymatgen
data_Cu2Ni4C7
_symmetry_space_group_name_H-M   'P 1'
_cell_length_a   3.33808069
_cell_length_b   3.33808464
_cell_length_c   44.98813616
_cell_angle_alpha   89.80912742
_cell_angle_beta   90.19424953
_cell_angle_gamma   120.00070594
_symmetry_Int_Tables_number   1
_chemical_formula_structural   Cu2Ni4C7
_chemical_formula_sum   'Cu2 Ni4 C7'
_cell_volume   434.12665081
_cell_formula_units_Z   1
loop_
 _symmetry_equiv_pos_site_id
 _symmetry_equiv_pos_as_xyz
  1  'x, y, z'
loop_
 _atom_site_type_symbol
 _atom_site_label
 _atom_site_symmetry_multiplicity
 _atom_site_fract_x
 _atom_site_fract_y
 _atom_site_fract_z
 _atom_site_occupancy
  C  C0  1  0.66677400  0.33323900  0.56702800  1
  C  C1  1  0.66531300  0.33457000  0.05159500  1
  C  C2  1  0.66782300  0.33216000  0.13602500  1
  C  C3  1  0.33322400  0.66670800  0.09381800  1
  C  C4  1  0.66743600  0.33262400  0.28187400  1
  C  C5  1  0.33297400  0.66697000  0.46433700  1
  C  C6  1  0.66435100  0.33571100  0.66660000  1
  Ni  Ni7  1  0.33515300  0.66496800  0.31896800  1
  Ni  Ni8  1  0.66526700  0.33461400  0.42710900  1
  Ni  Ni9  1  0.66736300  0.33264200  0.50178000  1
  Ni  Ni10  1  0.33304400  0.66694500  0.24475400  1
  Cu  Cu11  1  0.33207100  0.66804800  0.70031300  1
  Cu  Cu12  1  0.32992000  0.67008500  0.63267000  1
