# generated using pymatgen
data_Cu5(Ni3C10)2
_symmetry_space_group_name_H-M   'P 1'
_cell_length_a   15.91082321
_cell_length_b   15.91082325
_cell_length_c   15.91082312
_cell_angle_alpha   60.00000028
_cell_angle_beta   60.00000019
_cell_angle_gamma   60.00000022
_symmetry_Int_Tables_number   1
_chemical_formula_structural   Cu5(Ni3C10)2
_chemical_formula_sum   'Cu40 Ni48 C160'
_cell_volume   2848.15062758
_cell_formula_units_Z   8
loop_
 _symmetry_equiv_pos_site_id
 _symmetry_equiv_pos_as_xyz
  1  'x, y, z'
loop_
 _atom_site_type_symbol
 _atom_site_label
 _atom_site_symmetry_multiplicity
 _atom_site_fract_x
 _atom_site_fract_y
 _atom_site_fract_z
 _atom_site_occupancy
  C  C0  1  0.99923751  0.92674621  0.19036480  1
  C  C1  1  0.57325379  0.30963520  0.11634851  1
  C  C2  1  0.11634851  0.50076249  0.57325379  1
  C  C3  1  0.57325379  0.11634851  0.50076249  1
  C  C4  1  0.30963520  0.50076249  0.11634851  1
  C  C5  1  0.30963520  0.11634851  0.57325379  1
  C  C6  1  0.11634851  0.30963520  0.50076249  1
  C  C7  1  0.19036480  0.99923751  0.92674621  1
  C  C8  1  0.92674621  0.19036480  0.99923751  1
  C  C9  1  0.38365149  0.99923751  0.19036479  1
  C  C10  1  0.92674621  0.38365149  0.19036480  1
  C  C11  1  0.38365149  0.92674621  0.99923751  1
  C  C12  1  0.19036480  0.92674621  0.38365149  1
  C  C13  1  0.99923751  0.19036480  0.38365149  1
  C  C14  1  0.99923751  0.38365149  0.92674621  1
  C  C15  1  0.11634851  0.57325379  0.30963520  1
  C  C16  1  0.50076249  0.11634851  0.30963521  1
  C  C17  1  0.50076249  0.57325379  0.11634851  1
  C  C18  1  0.57325379  0.50076249  0.30963521  1
  C  C19  1  0.30963520  0.57325379  0.50076249  1
  C  C20  1  0.50076249  0.30963520  0.57325379  1
  C  C21  1  0.19036480  0.38365149  0.99923751  1
  C  C22  1  0.38365149  0.19036480  0.92674621  1
  C  C23  1  0.92674621  0.99923751  0.38365149  1
  C  C24  1  0.00076249  0.07325379  0.80963520  1
  C  C25  1  0.42674621  0.69036480  0.88365149  1
  C  C26  1  0.88365149  0.49923751  0.42674621  1
  C  C27  1  0.42674621  0.88365149  0.49923751  1
  C  C28  1  0.69036480  0.49923751  0.88365149  1
  C  C29  1  0.69036480  0.88365149  0.42674621  1
  C  C30  1  0.88365149  0.69036480  0.49923751  1
  C  C31  1  0.80963520  0.00076249  0.07325379  1
  C  C32  1  0.07325379  0.80963520  0.00076249  1
  C  C33  1  0.61634851  0.00076249  0.80963521  1
  C  C34  1  0.07325379  0.61634851  0.80963520  1
  C  C35  1  0.61634851  0.07325379  0.00076249  1
  C  C36  1  0.80963520  0.07325379  0.61634851  1
  C  C37  1  0.00076249  0.80963520  0.61634851  1
  C  C38  1  0.00076249  0.61634851  0.07325379  1
  C  C39  1  0.88365149  0.42674621  0.69036480  1
  C  C40  1  0.49923751  0.88365149  0.69036479  1
  C  C41  1  0.49923751  0.42674621  0.88365149  1
  C  C42  1  0.42674621  0.49923751  0.69036479  1
  C  C43  1  0.69036480  0.42674621  0.49923751  1
  C  C44  1  0.49923751  0.69036480  0.42674621  1
  C  C45  1  0.80963520  0.61634851  0.00076249  1
  C  C46  1  0.61634851  0.80963520  0.07325379  1
  C  C47  1  0.07325379  0.00076249  0.61634851  1
  C  C48  1  0.87919400  0.97579462  0.19380295  1
  C  C49  1  0.52420538  0.30619705  0.04879157  1
  C  C50  1  0.04879157  0.62080600  0.52420538  1
  C  C51  1  0.52420538  0.04879157  0.62080600  1
  C  C52  1  0.30619705  0.62080600  0.04879157  1
  C  C53  1  0.30619705  0.04879157  0.52420538  1
  C  C54  1  0.04879157  0.30619705  0.62080600  1
  C  C55  1  0.19380295  0.87919400  0.97579462  1
  C  C56  1  0.97579462  0.19380295  0.87919400  1
  C  C57  1  0.45120843  0.87919400  0.19380295  1
  C  C58  1  0.97579462  0.45120843  0.19380295  1
  C  C59  1  0.45120843  0.97579462  0.87919400  1
  C  C60  1  0.19380295  0.97579462  0.45120843  1
  C  C61  1  0.87919400  0.19380295  0.45120843  1
  C  C62  1  0.87919400  0.45120843  0.97579462  1
  C  C63  1  0.04879157  0.52420538  0.30619705  1
  C  C64  1  0.62080600  0.04879157  0.30619705  1
  C  C65  1  0.62080600  0.52420538  0.04879157  1
  C  C66  1  0.52420538  0.62080600  0.30619705  1
  C  C67  1  0.30619705  0.52420538  0.62080600  1
  C  C68  1  0.62080600  0.30619705  0.52420538  1
  C  C69  1  0.19380295  0.45120843  0.87919400  1
  C  C70  1  0.45120843  0.19380295  0.97579462  1
  C  C71  1  0.97579462  0.87919400  0.45120843  1
  C  C72  1  0.12080600  0.02420538  0.80619705  1
  C  C73  1  0.47579462  0.69380295  0.95120843  1
  C  C74  1  0.95120843  0.37919400  0.47579462  1
  C  C75  1  0.47579462  0.95120843  0.37919400  1
  C  C76  1  0.69380295  0.37919400  0.95120843  1
  C  C77  1  0.69380295  0.95120843  0.47579462  1
  C  C78  1  0.95120843  0.69380295  0.37919400  1
  C  C79  1  0.80619705  0.12080600  0.02420538  1
  C  C80  1  0.02420538  0.80619705  0.12080600  1
  C  C81  1  0.54879157  0.12080600  0.80619705  1
  C  C82  1  0.02420538  0.54879157  0.80619705  1
  C  C83  1  0.54879157  0.02420538  0.12080600  1
  C  C84  1  0.80619705  0.02420538  0.54879157  1
  C  C85  1  0.12080600  0.80619705  0.54879157  1
  C  C86  1  0.12080600  0.54879157  0.02420538  1
  C  C87  1  0.95120843  0.47579462  0.69380295  1
  C  C88  1  0.37919400  0.95120843  0.69380295  1
  C  C89  1  0.37919400  0.47579462  0.95120843  1
  C  C90  1  0.47579462  0.37919400  0.69380295  1
  C  C91  1  0.69380295  0.47579462  0.37919400  1
  C  C92  1  0.37919400  0.69380295  0.47579462  1
  C  C93  1  0.80619705  0.54879157  0.12080600  1
  C  C94  1  0.54879157  0.80619705  0.02420538  1
  C  C95  1  0.02420538  0.12080600  0.54879157  1
  C  C96  1  0.93897886  0.05320919  0.16351609  1
  C  C97  1  0.44679081  0.33648391  0.15570414  1
  C  C98  1  0.15570414  0.56102114  0.44679081  1
  C  C99  1  0.44679081  0.15570414  0.56102114  1
  C  C100  1  0.33648391  0.56102114  0.15570414  1
  C  C101  1  0.33648391  0.15570414  0.44679081  1
  C  C102  1  0.15570414  0.33648391  0.56102114  1
  C  C103  1  0.16351609  0.93897886  0.05320919  1
  C  C104  1  0.05320919  0.16351609  0.93897886  1
  C  C105  1  0.34429586  0.93897886  0.16351609  1
  C  C106  1  0.05320919  0.34429586  0.16351609  1
  C  C107  1  0.34429586  0.05320919  0.93897886  1
  C  C108  1  0.16351609  0.05320919  0.34429586  1
  C  C109  1  0.93897886  0.16351609  0.34429586  1
  C  C110  1  0.93897886  0.34429586  0.05320919  1
  C  C111  1  0.15570414  0.44679081  0.33648391  1
  C  C112  1  0.56102114  0.15570414  0.33648391  1
  C  C113  1  0.56102114  0.44679081  0.15570414  1
  C  C114  1  0.44679081  0.56102114  0.33648391  1
  C  C115  1  0.33648391  0.44679081  0.56102114  1
  C  C116  1  0.56102114  0.33648391  0.44679081  1
  C  C117  1  0.16351609  0.34429586  0.93897886  1
  C  C118  1  0.34429586  0.16351609  0.05320919  1
  C  C119  1  0.05320919  0.93897886  0.34429586  1
  C  C120  1  0.06102114  0.94679081  0.83648391  1
  C  C121  1  0.55320919  0.66351609  0.84429586  1
  C  C122  1  0.84429586  0.43897886  0.55320919  1
  C  C123  1  0.55320919  0.84429586  0.43897886  1
  C  C124  1  0.66351609  0.43897886  0.84429586  1
  C  C125  1  0.66351609  0.84429586  0.55320919  1
  C  C126  1  0.84429586  0.66351609  0.43897886  1
  C  C127  1  0.83648391  0.06102114  0.94679081  1
  C  C128  1  0.94679081  0.83648391  0.06102114  1
  C  C129  1  0.65570414  0.06102114  0.83648391  1
  C  C130  1  0.94679081  0.65570414  0.83648391  1
  C  C131  1  0.65570414  0.94679081  0.06102114  1
  C  C132  1  0.83648391  0.94679081  0.65570414  1
  C  C133  1  0.06102114  0.83648391  0.65570414  1
  C  C134  1  0.06102114  0.65570414  0.94679081  1
  C  C135  1  0.84429586  0.55320919  0.66351609  1
  C  C136  1  0.43897886  0.84429586  0.66351609  1
  C  C137  1  0.43897886  0.55320919  0.84429586  1
  C  C138  1  0.55320919  0.43897886  0.66351609  1
  C  C139  1  0.66351609  0.55320919  0.43897886  1
  C  C140  1  0.43897886  0.66351609  0.55320919  1
  C  C141  1  0.83648391  0.65570414  0.06102114  1
  C  C142  1  0.65570414  0.83648391  0.94679081  1
  C  C143  1  0.94679081  0.06102114  0.65570414  1
  Ni  Ni144  1  0.94848811  0.98910166  0.15382239  1
  Ni  Ni145  1  0.51089834  0.34617761  0.09141217  1
  Ni  Ni146  1  0.09141217  0.55151189  0.51089834  1
  Ni  Ni147  1  0.51089834  0.09141217  0.55151189  1
  Ni  Ni148  1  0.34617761  0.55151189  0.09141217  1
  Ni  Ni149  1  0.34617761  0.09141217  0.51089834  1
  Ni  Ni150  1  0.09141217  0.34617761  0.55151189  1
  Ni  Ni151  1  0.15382239  0.94848811  0.98910166  1
  Ni  Ni152  1  0.98910166  0.15382239  0.94848811  1
  Ni  Ni153  1  0.40858783  0.94848811  0.15382239  1
  Ni  Ni154  1  0.98910166  0.40858783  0.15382239  1
  Ni  Ni155  1  0.40858783  0.98910166  0.94848811  1
  Ni  Ni156  1  0.15382239  0.98910166  0.40858783  1
  Ni  Ni157  1  0.94848811  0.15382239  0.40858783  1
  Ni  Ni158  1  0.94848811  0.40858783  0.98910166  1
  Ni  Ni159  1  0.09141217  0.51089834  0.34617761  1
  Ni  Ni160  1  0.55151189  0.09141217  0.34617761  1
  Ni  Ni161  1  0.55151189  0.51089834  0.09141217  1
  Ni  Ni162  1  0.51089834  0.55151189  0.34617761  1
  Ni  Ni163  1  0.34617761  0.51089834  0.55151189  1
  Ni  Ni164  1  0.55151189  0.34617761  0.51089834  1
  Ni  Ni165  1  0.15382239  0.40858783  0.94848811  1
  Ni  Ni166  1  0.40858783  0.15382239  0.98910166  1
  Ni  Ni167  1  0.98910166  0.94848811  0.40858783  1
  Ni  Ni168  1  0.05151189  0.01089834  0.84617761  1
  Ni  Ni169  1  0.48910166  0.65382239  0.90858783  1
  Ni  Ni170  1  0.90858783  0.44848811  0.48910166  1
  Ni  Ni171  1  0.48910166  0.90858783  0.44848811  1
  Ni  Ni172  1  0.65382239  0.44848811  0.90858783  1
  Ni  Ni173  1  0.65382239  0.90858783  0.48910166  1
  Ni  Ni174  1  0.90858783  0.65382239  0.44848811  1
  Ni  Ni175  1  0.84617761  0.05151189  0.01089834  1
  Ni  Ni176  1  0.01089834  0.84617761  0.05151189  1
  Ni  Ni177  1  0.59141217  0.05151189  0.84617761  1
  Ni  Ni178  1  0.01089834  0.59141217  0.84617761  1
  Ni  Ni179  1  0.59141217  0.01089834  0.05151189  1
  Ni  Ni180  1  0.84617761  0.01089834  0.59141217  1
  Ni  Ni181  1  0.05151189  0.84617761  0.59141217  1
  Ni  Ni182  1  0.05151189  0.59141217  0.01089834  1
  Ni  Ni183  1  0.90858783  0.48910166  0.65382239  1
  Ni  Ni184  1  0.44848811  0.90858783  0.65382239  1
  Ni  Ni185  1  0.44848811  0.48910166  0.90858783  1
  Ni  Ni186  1  0.48910166  0.44848811  0.65382239  1
  Ni  Ni187  1  0.65382239  0.48910166  0.44848811  1
  Ni  Ni188  1  0.44848811  0.65382239  0.48910166  1
  Ni  Ni189  1  0.84617761  0.59141217  0.05151189  1
  Ni  Ni190  1  0.59141217  0.84617761  0.01089834  1
  Ni  Ni191  1  0.01089834  0.05151189  0.59141217  1
  Cu  Cu192  1  0.19106128  0.19106128  0.19106128  1
  Cu  Cu193  1  0.30893872  0.30893872  0.57318383  1
  Cu  Cu194  1  0.57318383  0.30893872  0.30893872  1
  Cu  Cu195  1  0.30893872  0.57318383  0.30893872  1
  Cu  Cu196  1  0.92681617  0.19106128  0.19106128  1
  Cu  Cu197  1  0.19106128  0.92681617  0.19106128  1
  Cu  Cu198  1  0.19106128  0.19106128  0.92681617  1
  Cu  Cu199  1  0.30893872  0.30893872  0.30893872  1
  Cu  Cu200  1  0.80893872  0.80893872  0.80893872  1
  Cu  Cu201  1  0.69106128  0.69106128  0.42681617  1
  Cu  Cu202  1  0.42681617  0.69106128  0.69106128  1
  Cu  Cu203  1  0.69106128  0.42681617  0.69106128  1
  Cu  Cu204  1  0.07318383  0.80893872  0.80893872  1
  Cu  Cu205  1  0.80893872  0.07318383  0.80893872  1
  Cu  Cu206  1  0.80893872  0.80893872  0.07318383  1
  Cu  Cu207  1  0.69106128  0.69106128  0.69106128  1
  Cu  Cu208  1  0.75000000  0.09638840  0.40361160  1
  Cu  Cu209  1  0.40361160  0.09638840  0.25000000  1
  Cu  Cu210  1  0.25000000  0.75000000  0.40361160  1
  Cu  Cu211  1  0.40361160  0.25000000  0.75000000  1
  Cu  Cu212  1  0.09638840  0.75000000  0.25000000  1
  Cu  Cu213  1  0.09638840  0.25000000  0.40361160  1
  Cu  Cu214  1  0.25000000  0.09638840  0.75000000  1
  Cu  Cu215  1  0.40361160  0.75000000  0.09638840  1
  Cu  Cu216  1  0.09638840  0.40361160  0.75000000  1
  Cu  Cu217  1  0.75000000  0.40361160  0.25000000  1
  Cu  Cu218  1  0.75000000  0.25000000  0.09638840  1
  Cu  Cu219  1  0.25000000  0.40361160  0.09638840  1
  Cu  Cu220  1  0.25000000  0.90361160  0.59638840  1
  Cu  Cu221  1  0.59638840  0.90361160  0.75000000  1
  Cu  Cu222  1  0.75000000  0.25000000  0.59638840  1
  Cu  Cu223  1  0.59638840  0.75000000  0.25000000  1
  Cu  Cu224  1  0.90361160  0.25000000  0.75000000  1
  Cu  Cu225  1  0.90361160  0.75000000  0.59638840  1
  Cu  Cu226  1  0.75000000  0.90361160  0.25000000  1
  Cu  Cu227  1  0.59638840  0.25000000  0.90361160  1
  Cu  Cu228  1  0.90361160  0.59638840  0.25000000  1
  Cu  Cu229  1  0.25000000  0.59638840  0.75000000  1
  Cu  Cu230  1  0.25000000  0.75000000  0.90361160  1
  Cu  Cu231  1  0.75000000  0.59638840  0.90361160  1
  C  C232  1  0.00000000  0.00000000  0.00000000  1
  C  C233  1  0.50000000  0.50000000  0.00000000  1
  C  C234  1  0.00000000  0.50000000  0.50000000  1
  C  C235  1  0.50000000  0.00000000  0.50000000  1
  C  C236  1  0.50000000  0.00000000  0.00000000  1
  C  C237  1  0.00000000  0.50000000  0.00000000  1
  C  C238  1  0.00000000  0.00000000  0.50000000  1
  C  C239  1  0.50000000  0.50000000  0.50000000  1
  C  C240  1  0.25000000  0.25000000  0.25000000  1
  C  C241  1  0.25000000  0.25000000  0.75000000  1
  C  C242  1  0.75000000  0.25000000  0.25000000  1
  C  C243  1  0.25000000  0.75000000  0.25000000  1
  C  C244  1  0.75000000  0.75000000  0.75000000  1
  C  C245  1  0.75000000  0.75000000  0.25000000  1
  C  C246  1  0.25000000  0.75000000  0.75000000  1
  C  C247  1  0.75000000  0.25000000  0.75000000  1
