# generated using pymatgen
data_Cu2Ni3C32
_symmetry_space_group_name_H-M   'P 1'
_cell_length_a   9.04787545
_cell_length_b   9.03754483
_cell_length_c   23.50553588
_cell_angle_alpha   90.07520039
_cell_angle_beta   89.94734233
_cell_angle_gamma   119.72145444
_symmetry_Int_Tables_number   1
_chemical_formula_structural   Cu2Ni3C32
_chemical_formula_sum   'Cu6 Ni9 C96'
_cell_volume   1669.20479571
_cell_formula_units_Z   3
loop_
 _symmetry_equiv_pos_site_id
 _symmetry_equiv_pos_as_xyz
  1  'x, y, z'
loop_
 _atom_site_type_symbol
 _atom_site_label
 _atom_site_symmetry_multiplicity
 _atom_site_fract_x
 _atom_site_fract_y
 _atom_site_fract_z
 _atom_site_occupancy
  Ni  Ni0  1  0.00407600  0.36366300  0.75094414  1
  Ni  Ni1  1  0.66830896  0.96268353  0.58344690  1
  Ni  Ni2  1  0.03869728  0.33258513  0.08363560  1
  Ni  Ni3  1  0.00706068  0.99284638  0.50068759  1
  Ni  Ni4  1  0.00783494  0.99492175  0.99987239  1
  Ni  Ni5  1  0.65785865  0.32601474  0.83399728  1
  Ni  Ni6  1  0.67923861  0.33705273  0.33313919  1
  Ni  Ni7  1  0.34595165  0.66941438  0.16729850  1
  Ni  Ni8  1  0.33441242  0.66724912  0.66681375  1
  Cu  Cu9  1  0.00892621  0.99696018  0.64612208  1
  Cu  Cu10  1  0.99506196  0.99231914  0.14613075  1
  Cu  Cu11  1  0.33360725  0.67333468  0.01794974  1
  Cu  Cu12  1  0.32433147  0.66583175  0.51784449  1
  Cu  Cu13  1  0.33015206  0.66608563  0.31710749  1
  Cu  Cu14  1  0.33606801  0.67702584  0.81805128  1
  C  C15  1  0.98332456  0.99206947  0.34987392  1
  C  C16  1  0.00667861  0.00474843  0.84922491  1
  C  C17  1  0.66160049  0.33655511  0.68669426  1
  C  C18  1  0.67033310  0.33850966  0.18666978  1
  C  C19  1  0.66423165  0.32766460  0.98167260  1
  C  C20  1  0.67364170  0.33732255  0.48146883  1
  C  C21  1  0.70523362  0.70149087  0.24963988  1
  C  C22  1  0.99521949  0.29130328  0.24834087  1
  C  C23  1  0.29530722  0.29218519  0.75017874  1
  C  C24  1  0.99351577  0.70185281  0.75057327  1
  C  C25  1  0.70963793  0.00386021  0.74787065  1
  C  C26  1  0.95215068  0.33508536  0.58526735  1
  C  C27  1  0.38586368  0.05241545  0.58224375  1
  C  C28  1  0.66382173  0.61885822  0.58291496  1
  C  C29  1  0.94919912  0.61577686  0.08239544  1
  C  C30  1  0.66417441  0.04824713  0.08454159  1
  C  C31  1  0.38250608  0.33482474  0.08383935  1
  C  C32  1  0.02895742  0.36122734  0.91670160  1
  C  C33  1  0.33182664  0.97262209  0.91710172  1
  C  C34  1  0.63427905  0.96919786  0.41812044  1
  C  C35  1  0.02940919  0.66934991  0.41599447  1
  C  C36  1  0.29622660  0.00713264  0.25061807  1
  C  C37  1  0.63937489  0.66829269  0.91651872  1
  C  C38  1  0.33117997  0.35986537  0.41625154  1
  C  C39  1  0.20925235  0.02711005  0.30150685  1
  C  C40  1  0.82080498  0.79406022  0.30270425  1
  C  C41  1  0.97591209  0.17300561  0.30011054  1
  C  C42  1  0.20498864  0.17677177  0.80301778  1
  C  C43  1  0.97400887  0.79466314  0.80343283  1
  C  C44  1  0.83091796  0.03029265  0.79940161  1
  C  C45  1  0.78729855  0.98270450  0.69264496  1
  C  C46  1  0.18446827  0.21416632  0.69771550  1
  C  C47  1  0.02086729  0.80589072  0.69716528  1
  C  C48  1  0.78893831  0.80679703  0.19677825  1
  C  C49  1  0.01967819  0.21467676  0.19325871  1
  C  C50  1  0.19660365  0.98387224  0.19899312  1
  C  C51  1  0.86226707  0.34927797  0.64003356  1
  C  C52  1  0.49281797  0.14332171  0.63632142  1
  C  C53  1  0.65156181  0.51337678  0.63682285  1
  C  C54  1  0.85877347  0.50792664  0.13654833  1
  C  C55  1  0.65116114  0.14202610  0.13793737  1
  C  C56  1  0.48870922  0.34809988  0.13759330  1
  C  C57  1  0.47531884  0.32143010  0.03031727  1
  C  C58  1  0.84259434  0.52272532  0.02938292  1
  C  C59  1  0.68148449  0.15684452  0.03083257  1
  C  C60  1  0.47963588  0.15805334  0.52909426  1
  C  C61  1  0.67727344  0.52523600  0.52969738  1
  C  C62  1  0.84167732  0.31984297  0.53224476  1
  C  C63  1  0.56251460  0.69828353  0.96730243  1
  C  C64  1  0.13910812  0.43951790  0.97025751  1
  C  C65  1  0.30111335  0.86120996  0.96962986  1
  C  C66  1  0.56295558  0.86297564  0.47268686  1
  C  C67  1  0.30014623  0.43572488  0.46717439  1
  C  C68  1  0.13914456  0.70089922  0.46917441  1
  C  C69  1  0.10667855  0.63245572  0.36398012  1
  C  C70  1  0.52135369  0.88537716  0.36660945  1
  C  C71  1  0.36326709  0.46783703  0.36602214  1
  C  C72  1  0.10841685  0.47035387  0.86336112  1
  C  C73  1  0.36945985  0.89752989  0.86455358  1
  C  C74  1  0.53277173  0.63679979  0.86598855  1
  C  C75  1  0.01070931  0.83012420  0.40562619  1
  C  C76  1  0.81661144  0.99259024  0.40707133  1
  C  C77  1  0.18002272  0.18796143  0.40714904  1
  C  C78  1  0.00523186  0.17922419  0.90681390  1
  C  C79  1  0.17078314  0.99037624  0.90715272  1
  C  C80  1  0.81085876  0.82047702  0.90816551  1
  C  C81  1  0.95606156  0.16637444  0.58604582  1
  C  C82  1  0.20891318  0.03296694  0.58359564  1
  C  C83  1  0.82218785  0.79818904  0.58451900  1
  C  C84  1  0.97009165  0.79335287  0.08452017  1
  C  C85  1  0.83317272  0.04438916  0.08589049  1
  C  C86  1  0.20304476  0.17609237  0.08588372  1
  C  C87  1  0.70280751  0.17479293  0.74421795  1
  C  C88  1  0.47271497  0.30660333  0.74411849  1
  C  C89  1  0.83036505  0.52122981  0.74519577  1
  C  C90  1  0.69297681  0.52320778  0.24473921  1
  C  C91  1  0.82775789  0.30229277  0.24426183  1
  C  C92  1  0.46684503  0.16423392  0.24587501  1
  C  C93  1  0.66001198  0.51578832  0.92447098  1
  C  C94  1  0.84849669  0.34114311  0.92560556  1
  C  C95  1  0.48803623  0.15417771  0.92611006  1
  C  C96  1  0.65849614  0.15144150  0.42591689  1
  C  C97  1  0.48402472  0.33981458  0.42440424  1
  C  C98  1  0.84777161  0.51251049  0.42547484  1
  C  C99  1  0.36070245  0.49384022  0.08073267  1
  C  C100  1  0.12197910  0.61949735  0.07999334  1
  C  C101  1  0.50787005  0.87138805  0.08104316  1
  C  C102  1  0.38062623  0.87841939  0.58020460  1
  C  C103  1  0.50454108  0.63932110  0.58039819  1
  C  C104  1  0.12850405  0.49225424  0.58134522  1
  C  C105  1  0.31947841  0.85761377  0.25621696  1
  C  C106  1  0.52796993  0.67978128  0.25719879  1
  C  C107  1  0.14881808  0.46933716  0.25672162  1
  C  C108  1  0.31098372  0.46789690  0.75878467  1
  C  C109  1  0.14369321  0.66708734  0.75692553  1
  C  C110  1  0.53225002  0.85129207  0.75622291  1
