# generated using pymatgen
data_CuNiC14
_symmetry_space_group_name_H-M   'P 1'
_cell_length_a   5.63956603
_cell_length_b   6.08563584
_cell_length_c   7.52158531
_cell_angle_alpha   104.97424457
_cell_angle_beta   97.41159655
_cell_angle_gamma   112.60242594
_symmetry_Int_Tables_number   1
_chemical_formula_structural   CuNiC14
_chemical_formula_sum   'Cu1 Ni1 C14'
_cell_volume   222.55255913
_cell_formula_units_Z   1
loop_
 _symmetry_equiv_pos_site_id
 _symmetry_equiv_pos_as_xyz
  1  'x, y, z'
loop_
 _atom_site_type_symbol
 _atom_site_label
 _atom_site_symmetry_multiplicity
 _atom_site_fract_x
 _atom_site_fract_y
 _atom_site_fract_z
 _atom_site_occupancy
  C  C0  1  0.89976800  0.37290300  0.30888100  1
  Ni  Ni1  1  0.98565800  0.99697900  0.50242000  1
  Cu  Cu2  1  0.47060600  0.49275700  0.49435800  1
  C  C3  1  0.59258800  0.20692100  0.79417500  1
  C  C4  1  0.38098000  0.79225900  0.21211800  1
  C  C5  1  0.96896800  0.88252100  0.93448800  1
  C  C6  1  0.79525600  0.63322700  0.44126800  1
  C  C7  1  0.13944600  0.35228100  0.53126100  1
  C  C8  1  0.72486700  0.01470900  0.67989100  1
  C  C9  1  0.22255700  0.96308000  0.31679500  1
  C  C10  1  0.71746500  0.99050200  0.27989100  1
  C  C11  1  0.25055000  0.03440100  0.73449700  1
  C  C12  1  0.28991000  0.51631100  0.27470300  1
  C  C13  1  0.65429800  0.46798000  0.71522500  1
  C  C14  1  0.72398000  0.32111200  0.03223700  1
  C  C15  1  0.27060200  0.70015400  0.97279200  1
