# generated using pymatgen
data_Cu3NiC
_symmetry_space_group_name_H-M   'P 1'
_cell_length_a   4.18679167
_cell_length_b   5.46618774
_cell_length_c   7.29521311
_cell_angle_alpha   90.00000000
_cell_angle_beta   90.00000000
_cell_angle_gamma   90.00000000
_symmetry_Int_Tables_number   1
_chemical_formula_structural   Cu3NiC
_chemical_formula_sum   'Cu6 Ni2 C2'
_cell_volume   166.95671011
_cell_formula_units_Z   2
loop_
 _symmetry_equiv_pos_site_id
 _symmetry_equiv_pos_as_xyz
  1  'x, y, z'
loop_
 _atom_site_type_symbol
 _atom_site_label
 _atom_site_symmetry_multiplicity
 _atom_site_fract_x
 _atom_site_fract_y
 _atom_site_fract_z
 _atom_site_occupancy
  C  C0  1  0.50000000  0.04984202  0.50000000  1
  C  C1  1  0.00000000  0.54984202  -0.00000000  1
  Ni  Ni2  1  0.50000000  0.98922524  -0.00000000  1
  Ni  Ni3  1  0.00000000  0.48922524  0.50000000  1
  Cu  Cu4  1  0.50000000  0.22551487  -0.00000000  1
  Cu  Cu5  1  0.00231060  0.36332443  0.34750287  1
  Cu  Cu6  1  0.00000000  0.72551487  0.50000000  1
  Cu  Cu7  1  0.49768940  0.86332443  0.84750287  1
  Cu  Cu8  1  0.99768940  0.36332443  0.65249713  1
  Cu  Cu9  1  0.50231060  0.86332443  0.15249713  1
