# generated using pymatgen
data_CuNiC4
_symmetry_space_group_name_H-M   'P 1'
_cell_length_a   5.26547195
_cell_length_b   5.61038217
_cell_length_c   5.61038233
_cell_angle_alpha   110.46263702
_cell_angle_beta   100.39927760
_cell_angle_gamma   100.39928170
_symmetry_Int_Tables_number   1
_chemical_formula_structural   CuNiC4
_chemical_formula_sum   'Cu2 Ni2 C8'
_cell_volume   147.29583873
_cell_formula_units_Z   2
loop_
 _symmetry_equiv_pos_site_id
 _symmetry_equiv_pos_as_xyz
  1  'x, y, z'
loop_
 _atom_site_type_symbol
 _atom_site_label
 _atom_site_symmetry_multiplicity
 _atom_site_fract_x
 _atom_site_fract_y
 _atom_site_fract_z
 _atom_site_occupancy
  C  C0  1  0.00000000  0.21249800  0.78750200  1
  Ni  Ni1  1  0.87202000  0.25202900  0.24860400  1
  Ni  Ni2  1  0.12798000  0.75139600  0.74797100  1
  Cu  Cu3  1  0.50000000  0.34119800  0.65880200  1
  Cu  Cu4  1  0.50000000  0.68800700  0.31199300  1
  C  C5  1  0.22558700  0.46721000  0.44361800  1
  C  C6  1  0.77441300  0.55638200  0.53279000  1
  C  C7  1  0.25458700  0.99769300  0.63908100  1
  C  C8  1  0.74541300  0.36091900  0.00230700  1
  C  C9  1  0.00000000  0.99174100  0.00825900  1
  C  C10  1  0.28292100  0.56971100  0.93878400  1
  C  C11  1  0.71707900  0.06121600  0.43028900  1
