# generated using pymatgen
data_Cu7NiC8
_symmetry_space_group_name_H-M   'P 1'
_cell_length_a   10.85382200
_cell_length_b   11.11791300
_cell_length_c   11.37086000
_cell_angle_alpha   90.00000000
_cell_angle_beta   90.00000000
_cell_angle_gamma   90.00000000
_symmetry_Int_Tables_number   1
_chemical_formula_structural   Cu7NiC8
_chemical_formula_sum   'Cu56 Ni8 C64'
_cell_volume   1372.14269766
_cell_formula_units_Z   8
loop_
 _symmetry_equiv_pos_site_id
 _symmetry_equiv_pos_as_xyz
  1  'x, y, z'
loop_
 _atom_site_type_symbol
 _atom_site_label
 _atom_site_symmetry_multiplicity
 _atom_site_fract_x
 _atom_site_fract_y
 _atom_site_fract_z
 _atom_site_occupancy
  C  C0  1  0.08603600  0.24856500  0.19956800  1
  C  C1  1  0.58603600  0.75143500  0.30043200  1
  C  C2  1  0.91396400  0.25143500  0.69956800  1
  C  C3  1  0.41396400  0.74856500  0.80043200  1
  C  C4  1  0.91396400  0.75143500  0.80043200  1
  C  C5  1  0.41396400  0.24856500  0.69956800  1
  C  C6  1  0.08603600  0.74856500  0.30043200  1
  C  C7  1  0.58603600  0.25143500  0.19956800  1
  Ni  Ni8  1  0.65067100  0.36708900  0.50356400  1
  Ni  Ni9  1  0.15067100  0.63291100  0.99643600  1
  Ni  Ni10  1  0.34932900  0.13291100  0.00356400  1
  Ni  Ni11  1  0.84932900  0.86708900  0.49643600  1
  Ni  Ni12  1  0.34932900  0.63291100  0.49643600  1
  Ni  Ni13  1  0.84932900  0.36708900  0.00356400  1
  Ni  Ni14  1  0.65067100  0.86708900  0.99643600  1
  Ni  Ni15  1  0.15067100  0.13291100  0.50356400  1
  Cu  Cu16  1  0.84296400  0.32612600  0.33986000  1
  Cu  Cu17  1  0.34296400  0.67387400  0.16014000  1
  Cu  Cu18  1  0.15703600  0.17387400  0.83986000  1
  Cu  Cu19  1  0.65703600  0.82612600  0.66014000  1
  Cu  Cu20  1  0.15703600  0.67387400  0.66014000  1
  Cu  Cu21  1  0.65703600  0.32612600  0.83986000  1
  Cu  Cu22  1  0.84296400  0.82612600  0.16014000  1
  Cu  Cu23  1  0.34296400  0.17387400  0.33986000  1
  Cu  Cu24  1  0.95245400  0.27498800  0.41655200  1
  Cu  Cu25  1  0.45245400  0.72501200  0.08344800  1
  Cu  Cu26  1  0.04754600  0.22501200  0.91655200  1
  Cu  Cu27  1  0.54754600  0.77498800  0.58344800  1
  Cu  Cu28  1  0.04754600  0.72501200  0.58344800  1
  Cu  Cu29  1  0.54754600  0.27498800  0.91655200  1
  Cu  Cu30  1  0.95245400  0.77498800  0.08344800  1
  Cu  Cu31  1  0.45245400  0.22501200  0.41655200  1
  Cu  Cu32  1  0.87046200  0.10534400  0.13145300  1
  Cu  Cu33  1  0.37046200  0.89465600  0.36854700  1
  Cu  Cu34  1  0.12953800  0.39465600  0.63145300  1
  Cu  Cu35  1  0.62953800  0.60534400  0.86854700  1
  Cu  Cu36  1  0.12953800  0.89465600  0.86854700  1
  Cu  Cu37  1  0.62953800  0.10534400  0.63145300  1
  Cu  Cu38  1  0.87046200  0.60534400  0.36854700  1
  Cu  Cu39  1  0.37046200  0.39465600  0.13145300  1
  Cu  Cu40  1  0.96117100  0.99475000  0.14261400  1
  Cu  Cu41  1  0.46117100  0.00525000  0.35738600  1
  Cu  Cu42  1  0.03882900  0.50525000  0.64261400  1
  Cu  Cu43  1  0.53882900  0.49475000  0.85738600  1
  Cu  Cu44  1  0.03882900  0.00525000  0.85738600  1
  Cu  Cu45  1  0.53882900  0.99475000  0.64261400  1
  Cu  Cu46  1  0.96117100  0.49475000  0.35738600  1
  Cu  Cu47  1  0.46117100  0.50525000  0.14261400  1
  Cu  Cu48  1  0.18662600  0.50602100  0.21237900  1
  Cu  Cu49  1  0.68662600  0.49397900  0.28762100  1
  Cu  Cu50  1  0.81337400  0.99397900  0.71237900  1
  Cu  Cu51  1  0.31337400  0.00602100  0.78762100  1
  Cu  Cu52  1  0.81337400  0.49397900  0.78762100  1
  Cu  Cu53  1  0.31337400  0.50602100  0.71237900  1
  Cu  Cu54  1  0.18662600  0.00602100  0.28762100  1
  Cu  Cu55  1  0.68662600  0.99397900  0.21237900  1
  Cu  Cu56  1  0.23648900  0.44308600  0.32829400  1
  Cu  Cu57  1  0.73648900  0.55691400  0.17170600  1
  Cu  Cu58  1  0.76351100  0.05691400  0.82829400  1
  Cu  Cu59  1  0.26351100  0.94308600  0.67170600  1
  Cu  Cu60  1  0.76351100  0.55691400  0.67170600  1
  Cu  Cu61  1  0.26351100  0.44308600  0.82829400  1
  Cu  Cu62  1  0.23648900  0.94308600  0.17170600  1
  Cu  Cu63  1  0.73648900  0.05691400  0.32829400  1
  Cu  Cu64  1  0.60624700  0.57323900  0.51824400  1
  Cu  Cu65  1  0.10624700  0.42676100  0.98175600  1
  Cu  Cu66  1  0.39375300  0.92676100  0.01824400  1
  Cu  Cu67  1  0.89375300  0.07323900  0.48175600  1
  Cu  Cu68  1  0.39375300  0.42676100  0.48175600  1
  Cu  Cu69  1  0.89375300  0.57323900  0.01824400  1
  Cu  Cu70  1  0.60624700  0.07323900  0.98175600  1
  Cu  Cu71  1  0.10624700  0.92676100  0.51824400  1
  C  C72  1  0.93486500  0.32192100  0.34383600  1
  C  C73  1  0.43486500  0.67807900  0.15616400  1
  C  C74  1  0.06513500  0.17807900  0.84383600  1
  C  C75  1  0.56513500  0.82192100  0.65616400  1
  C  C76  1  0.06513500  0.67807900  0.65616400  1
  C  C77  1  0.56513500  0.32192100  0.84383600  1
  C  C78  1  0.93486500  0.82192100  0.15616400  1
  C  C79  1  0.43486500  0.17807900  0.34383600  1
  C  C80  1  0.95733000  0.08347700  0.14133900  1
  C  C81  1  0.45733000  0.91652300  0.35866100  1
  C  C82  1  0.04267000  0.41652300  0.64133900  1
  C  C83  1  0.54267000  0.58347700  0.85866100  1
  C  C84  1  0.04267000  0.91652300  0.85866100  1
  C  C85  1  0.54267000  0.08347700  0.64133900  1
  C  C86  1  0.95733000  0.58347700  0.35866100  1
  C  C87  1  0.45733000  0.41652300  0.14133900  1
  C  C88  1  0.18862400  0.42807800  0.25559600  1
  C  C89  1  0.68862400  0.57192200  0.24440400  1
  C  C90  1  0.81137600  0.07192200  0.75559600  1
  C  C91  1  0.31137600  0.92807800  0.74440400  1
  C  C92  1  0.81137600  0.57192200  0.74440400  1
  C  C93  1  0.31137600  0.42807800  0.75559600  1
  C  C94  1  0.18862400  0.92807800  0.24440400  1
  C  C95  1  0.68862400  0.07192200  0.25559600  1
  C  C96  1  0.67779600  0.51915200  0.54396600  1
  C  C97  1  0.17779600  0.48084800  0.95603400  1
  C  C98  1  0.32220400  0.98084800  0.04396600  1
  C  C99  1  0.82220400  0.01915200  0.45603400  1
  C  C100  1  0.32220400  0.48084800  0.45603400  1
  C  C101  1  0.82220400  0.51915200  0.04396600  1
  C  C102  1  0.67779600  0.01915200  0.95603400  1
  C  C103  1  0.17779600  0.98084800  0.54396600  1
  C  C104  1  0.74120200  0.28319700  0.59051800  1
  C  C105  1  0.24120200  0.71680300  0.90948200  1
  C  C106  1  0.25879800  0.21680300  0.09051800  1
  C  C107  1  0.75879800  0.78319700  0.40948200  1
  C  C108  1  0.25879800  0.71680300  0.40948200  1
  C  C109  1  0.75879800  0.28319700  0.09051800  1
  C  C110  1  0.74120200  0.78319700  0.90948200  1
  C  C111  1  0.24120200  0.21680300  0.59051800  1
  C  C112  1  0.68362600  0.35472100  0.35602300  1
  C  C113  1  0.18362600  0.64527900  0.14397700  1
  C  C114  1  0.31637400  0.14527900  0.85602300  1
  C  C115  1  0.81637400  0.85472100  0.64397700  1
  C  C116  1  0.31637400  0.64527900  0.64397700  1
  C  C117  1  0.81637400  0.35472100  0.85602300  1
  C  C118  1  0.68362600  0.85472100  0.14397700  1
  C  C119  1  0.18362600  0.14527900  0.35602300  1
  C  C120  1  0.49658500  0.33671900  0.52627600  1
  C  C121  1  0.99658500  0.66328100  0.97372400  1
  C  C122  1  0.50341500  0.16328100  0.02627600  1
  C  C123  1  0.00341500  0.83671900  0.47372400  1
  C  C124  1  0.50341500  0.66328100  0.47372400  1
  C  C125  1  0.00341500  0.33671900  0.02627600  1
  C  C126  1  0.49658500  0.83671900  0.97372400  1
  C  C127  1  0.99658500  0.16328100  0.52627600  1
