# generated using pymatgen
data_Cu6NiC12
_symmetry_space_group_name_H-M   'P 1'
_cell_length_a   12.07267605
_cell_length_b   6.42759253
_cell_length_c   3.00281718
_cell_angle_alpha   90.10354509
_cell_angle_beta   89.43930333
_cell_angle_gamma   71.86433117
_symmetry_Int_Tables_number   1
_chemical_formula_structural   Cu6NiC12
_chemical_formula_sum   'Cu6 Ni1 C12'
_cell_volume   221.42424030
_cell_formula_units_Z   1
loop_
 _symmetry_equiv_pos_site_id
 _symmetry_equiv_pos_as_xyz
  1  'x, y, z'
loop_
 _atom_site_type_symbol
 _atom_site_label
 _atom_site_symmetry_multiplicity
 _atom_site_fract_x
 _atom_site_fract_y
 _atom_site_fract_z
 _atom_site_occupancy
  Ni  Ni0  1  0.50092500  0.99663600  0.96133800  1
  Cu  Cu1  1  0.01609200  0.99025400  0.99713200  1
  Cu  Cu2  1  0.99152200  0.50370000  0.50015600  1
  Cu  Cu3  1  0.27190500  0.34302800  0.99260700  1
  Cu  Cu4  1  0.70817700  0.18127900  0.47854700  1
  Cu  Cu5  1  0.29001200  0.82226000  0.48354000  1
  Cu  Cu6  1  0.70553400  0.67254600  0.99960600  1
  C  C7  1  0.99104000  0.30653300  0.00049300  1
  C  C8  1  0.33115400  0.00374300  0.97989300  1
  C  C9  1  0.99657100  0.69825500  0.99899600  1
  C  C10  1  0.17384200  0.38635600  0.49566600  1
  C  C11  1  0.12042200  0.93420500  0.49308300  1
  C  C12  1  0.31407500  0.61399500  0.98342500  1
  C  C13  1  0.69309400  0.37701800  0.98083100  1
  C  C14  1  0.58107100  0.76775800  0.45552400  1
  C  C15  1  0.81295300  0.61808900  0.50978800  1
  C  C16  1  0.67376100  0.01089400  0.97810200  1
  C  C17  1  0.44572500  0.22172600  0.46720400  1
  C  C18  1  0.88212900  0.06214400  0.49406700  1
