# generated using pymatgen
data_CuNiC
_symmetry_space_group_name_H-M   'P 1'
_cell_length_a   4.58150900
_cell_length_b   7.23464500
_cell_length_c   7.35652800
_cell_angle_alpha   90.00000000
_cell_angle_beta   90.00000000
_cell_angle_gamma   90.00000000
_symmetry_Int_Tables_number   1
_chemical_formula_structural   CuNiC
_chemical_formula_sum   'Cu4 Ni4 C4'
_cell_volume   243.83646959
_cell_formula_units_Z   4
loop_
 _symmetry_equiv_pos_site_id
 _symmetry_equiv_pos_as_xyz
  1  'x, y, z'
loop_
 _atom_site_type_symbol
 _atom_site_label
 _atom_site_symmetry_multiplicity
 _atom_site_fract_x
 _atom_site_fract_y
 _atom_site_fract_z
 _atom_site_occupancy
  C  C0  1  0.75000000  0.69854700  0.52551400  1
  C  C1  1  0.25000000  0.30145300  0.47448600  1
  C  C2  1  0.75000000  0.80145300  0.02551400  1
  C  C3  1  0.25000000  0.19854700  0.97448600  1
  Ni  Ni4  1  0.25000000  0.94233200  0.64811600  1
  Ni  Ni5  1  0.75000000  0.44233200  0.85188400  1
  Ni  Ni6  1  0.25000000  0.55766800  0.14811600  1
  Ni  Ni7  1  0.75000000  0.05766800  0.35188400  1
  Cu  Cu8  1  0.75000000  0.38916100  0.20286700  1
  Cu  Cu9  1  0.25000000  0.88916100  0.29713300  1
  Cu  Cu10  1  0.75000000  0.11083900  0.70286700  1
  Cu  Cu11  1  0.25000000  0.61083900  0.79713300  1
