# generated using pymatgen
data_Cu4NiC14
_symmetry_space_group_name_H-M   'P 1'
_cell_length_a   6.07313471
_cell_length_b   5.78768802
_cell_length_c   9.82354598
_cell_angle_alpha   96.42353500
_cell_angle_beta   95.15306493
_cell_angle_gamma   99.35908261
_symmetry_Int_Tables_number   1
_chemical_formula_structural   Cu4NiC14
_chemical_formula_sum   'Cu4 Ni1 C14'
_cell_volume   336.49616254
_cell_formula_units_Z   1
loop_
 _symmetry_equiv_pos_site_id
 _symmetry_equiv_pos_as_xyz
  1  'x, y, z'
loop_
 _atom_site_type_symbol
 _atom_site_label
 _atom_site_symmetry_multiplicity
 _atom_site_fract_x
 _atom_site_fract_y
 _atom_site_fract_z
 _atom_site_occupancy
  C  C0  1  0.00000000  0.00000000  0.00000000  1
  C  C1  1  0.00000000  0.50000000  0.50000000  1
  Ni  Ni2  1  0.50000000  0.50000000  0.50000000  1
  Cu  Cu3  1  0.56110362  0.39938977  0.13727741  1
  Cu  Cu4  1  0.37521000  0.91485954  0.34099340  1
  Cu  Cu5  1  0.43889638  0.60061023  0.86272259  1
  Cu  Cu6  1  0.62479000  0.08514046  0.65900660  1
  C  C7  1  0.84376506  0.33465205  0.16350325  1
  C  C8  1  0.07352825  0.85254545  0.34428734  1
  C  C9  1  0.15623494  0.66534795  0.83649675  1
  C  C10  1  0.92647175  0.14745455  0.65571266  1
  C  C11  1  0.37435355  0.11234412  0.19153138  1
  C  C12  1  0.48445361  0.60330124  0.30500372  1
  C  C13  1  0.58490160  0.19286425  0.45400893  1
  C  C14  1  0.60997405  0.70443833  0.04833029  1
  C  C15  1  0.41509840  0.80713575  0.54599107  1
  C  C16  1  0.39002595  0.29556167  0.95166971  1
  C  C17  1  0.51554639  0.39669876  0.69499628  1
  C  C18  1  0.62564645  0.88765588  0.80846862  1
