# generated using pymatgen
data_Cu2NiC8
_symmetry_space_group_name_H-M   'P 1'
_cell_length_a   5.86191535
_cell_length_b   6.99522880
_cell_length_c   7.36760889
_cell_angle_alpha   118.33526848
_cell_angle_beta   75.42520057
_cell_angle_gamma   89.99805210
_symmetry_Int_Tables_number   1
_chemical_formula_structural   Cu2NiC8
_chemical_formula_sum   'Cu2 Ni1 C8'
_cell_volume   254.81383552
_cell_formula_units_Z   1
loop_
 _symmetry_equiv_pos_site_id
 _symmetry_equiv_pos_as_xyz
  1  'x, y, z'
loop_
 _atom_site_type_symbol
 _atom_site_label
 _atom_site_symmetry_multiplicity
 _atom_site_fract_x
 _atom_site_fract_y
 _atom_site_fract_z
 _atom_site_occupancy
  C  C0  1  0.34006166  0.72651089  0.45304143  1
  C  C1  1  0.65993834  0.27348911  0.54695857  1
  Ni  Ni2  1  0.00000000  0.50000000  0.00000000  1
  Cu  Cu3  1  0.50000000  0.00000000  0.00000000  1
  Cu  Cu4  1  0.00000000  0.00000000  0.00000000  1
  C  C5  1  0.83285015  0.83893420  0.67790529  1
  C  C6  1  0.70299097  0.83254060  0.16419264  1
  C  C7  1  0.70294243  0.33162223  0.16411372  1
  C  C8  1  0.16714985  0.16106580  0.32209471  1
  C  C9  1  0.29700903  0.16745940  0.83580736  1
  C  C10  1  0.29705757  0.66837777  0.83588628  1
