# generated using pymatgen
data_Cu3(Ni9C8)2
_symmetry_space_group_name_H-M   'P 1'
_cell_length_a   14.22982665
_cell_length_b   14.22982665
_cell_length_c   14.22982665
_cell_angle_alpha   90.00000000
_cell_angle_beta   90.00000000
_cell_angle_gamma   90.00000000
_symmetry_Int_Tables_number   1
_chemical_formula_structural   Cu3(Ni9C8)2
_chemical_formula_sum   'Cu24 Ni144 C128'
_cell_volume   2881.36866185
_cell_formula_units_Z   8
loop_
 _symmetry_equiv_pos_site_id
 _symmetry_equiv_pos_as_xyz
  1  'x, y, z'
loop_
 _atom_site_type_symbol
 _atom_site_label
 _atom_site_symmetry_multiplicity
 _atom_site_fract_x
 _atom_site_fract_y
 _atom_site_fract_z
 _atom_site_occupancy
  Ni  Ni0  1  0.89733247  0.81427607  0.53030212  1
  Ni  Ni1  1  0.53030212  0.89733247  0.81427607  1
  Ni  Ni2  1  0.81427607  0.53030212  0.89733247  1
  Ni  Ni3  1  0.68572393  0.46969788  0.39733247  1
  Ni  Ni4  1  0.03030212  0.60266753  0.18572393  1
  Ni  Ni5  1  0.18572393  0.03030212  0.60266753  1
  Ni  Ni6  1  0.96969788  0.10266753  0.31427607  1
  Ni  Ni7  1  0.46969788  0.39733247  0.68572393  1
  Ni  Ni8  1  0.31427607  0.96969788  0.10266753  1
  Ni  Ni9  1  0.39733247  0.68572393  0.46969788  1
  Ni  Ni10  1  0.10266753  0.31427607  0.96969788  1
  Ni  Ni11  1  0.60266753  0.18572393  0.03030212  1
  Ni  Ni12  1  0.10266753  0.18572393  0.46969788  1
  Ni  Ni13  1  0.46969788  0.10266753  0.18572393  1
  Ni  Ni14  1  0.18572393  0.46969788  0.10266753  1
  Ni  Ni15  1  0.31427607  0.53030212  0.60266753  1
  Ni  Ni16  1  0.96969788  0.39733247  0.81427607  1
  Ni  Ni17  1  0.81427607  0.96969788  0.39733247  1
  Ni  Ni18  1  0.03030212  0.89733247  0.68572393  1
  Ni  Ni19  1  0.53030212  0.60266753  0.31427607  1
  Ni  Ni20  1  0.68572393  0.03030212  0.89733247  1
  Ni  Ni21  1  0.60266753  0.31427607  0.53030212  1
  Ni  Ni22  1  0.89733247  0.68572393  0.03030212  1
  Ni  Ni23  1  0.39733247  0.81427607  0.96969788  1
  Ni  Ni24  1  0.89868296  0.69303115  0.51227981  1
  Ni  Ni25  1  0.51227981  0.89868296  0.69303115  1
  Ni  Ni26  1  0.69303115  0.51227981  0.89868296  1
  Ni  Ni27  1  0.80696885  0.48772019  0.39868296  1
  Ni  Ni28  1  0.01227981  0.60131704  0.30696885  1
  Ni  Ni29  1  0.30696885  0.01227981  0.60131704  1
  Ni  Ni30  1  0.98772019  0.10131704  0.19303115  1
  Ni  Ni31  1  0.48772019  0.39868296  0.80696885  1
  Ni  Ni32  1  0.19303115  0.98772019  0.10131704  1
  Ni  Ni33  1  0.39868296  0.80696885  0.48772019  1
  Ni  Ni34  1  0.10131704  0.19303115  0.98772019  1
  Ni  Ni35  1  0.60131704  0.30696885  0.01227981  1
  Ni  Ni36  1  0.10131704  0.30696885  0.48772019  1
  Ni  Ni37  1  0.48772019  0.10131704  0.30696885  1
  Ni  Ni38  1  0.30696885  0.48772019  0.10131704  1
  Ni  Ni39  1  0.19303115  0.51227981  0.60131704  1
  Ni  Ni40  1  0.98772019  0.39868296  0.69303115  1
  Ni  Ni41  1  0.69303115  0.98772019  0.39868296  1
  Ni  Ni42  1  0.01227981  0.89868296  0.80696885  1
  Ni  Ni43  1  0.51227981  0.60131704  0.19303115  1
  Ni  Ni44  1  0.80696885  0.01227981  0.89868296  1
  Ni  Ni45  1  0.60131704  0.19303115  0.51227981  1
  Ni  Ni46  1  0.89868296  0.80696885  0.01227981  1
  Ni  Ni47  1  0.39868296  0.69303115  0.98772019  1
  Ni  Ni48  1  0.64883993  0.83690212  0.53635726  1
  Ni  Ni49  1  0.53635726  0.64883993  0.83690212  1
  Ni  Ni50  1  0.83690212  0.53635726  0.64883993  1
  Ni  Ni51  1  0.66309788  0.46364274  0.14883993  1
  Ni  Ni52  1  0.03635726  0.85116007  0.16309788  1
  Ni  Ni53  1  0.16309788  0.03635726  0.85116007  1
  Ni  Ni54  1  0.96364274  0.35116007  0.33690212  1
  Ni  Ni55  1  0.46364274  0.14883993  0.66309788  1
  Ni  Ni56  1  0.33690212  0.96364274  0.35116007  1
  Ni  Ni57  1  0.14883993  0.66309788  0.46364274  1
  Ni  Ni58  1  0.35116007  0.33690212  0.96364274  1
  Ni  Ni59  1  0.85116007  0.16309788  0.03635726  1
  Ni  Ni60  1  0.35116007  0.16309788  0.46364274  1
  Ni  Ni61  1  0.46364274  0.35116007  0.16309788  1
  Ni  Ni62  1  0.16309788  0.46364274  0.35116007  1
  Ni  Ni63  1  0.33690212  0.53635726  0.85116007  1
  Ni  Ni64  1  0.96364274  0.14883993  0.83690212  1
  Ni  Ni65  1  0.83690212  0.96364274  0.14883993  1
  Ni  Ni66  1  0.03635726  0.64883993  0.66309788  1
  Ni  Ni67  1  0.53635726  0.85116007  0.33690212  1
  Ni  Ni68  1  0.66309788  0.03635726  0.64883993  1
  Ni  Ni69  1  0.85116007  0.33690212  0.53635726  1
  Ni  Ni70  1  0.64883993  0.66309788  0.03635726  1
  Ni  Ni71  1  0.14883993  0.83690212  0.96364274  1
  Ni  Ni72  1  0.75848717  0.89216543  0.54187395  1
  Ni  Ni73  1  0.54187395  0.75848717  0.89216543  1
  Ni  Ni74  1  0.89216543  0.54187395  0.75848717  1
  Ni  Ni75  1  0.60783457  0.45812605  0.25848717  1
  Ni  Ni76  1  0.04187395  0.74151283  0.10783457  1
  Ni  Ni77  1  0.10783457  0.04187395  0.74151283  1
  Ni  Ni78  1  0.95812605  0.24151283  0.39216543  1
  Ni  Ni79  1  0.45812605  0.25848717  0.60783457  1
  Ni  Ni80  1  0.39216543  0.95812605  0.24151283  1
  Ni  Ni81  1  0.25848717  0.60783457  0.45812605  1
  Ni  Ni82  1  0.24151283  0.39216543  0.95812605  1
  Ni  Ni83  1  0.74151283  0.10783457  0.04187395  1
  Ni  Ni84  1  0.24151283  0.10783457  0.45812605  1
  Ni  Ni85  1  0.45812605  0.24151283  0.10783457  1
  Ni  Ni86  1  0.10783457  0.45812605  0.24151283  1
  Ni  Ni87  1  0.39216543  0.54187395  0.74151283  1
  Ni  Ni88  1  0.95812605  0.25848717  0.89216543  1
  Ni  Ni89  1  0.89216543  0.95812605  0.25848717  1
  Ni  Ni90  1  0.04187395  0.75848717  0.60783457  1
  Ni  Ni91  1  0.54187395  0.74151283  0.39216543  1
  Ni  Ni92  1  0.60783457  0.04187395  0.75848717  1
  Ni  Ni93  1  0.74151283  0.39216543  0.54187395  1
  Ni  Ni94  1  0.75848717  0.60783457  0.04187395  1
  Ni  Ni95  1  0.25848717  0.89216543  0.95812605  1
  Ni  Ni96  1  0.65088221  0.66356058  0.50938612  1
  Ni  Ni97  1  0.50938612  0.65088221  0.66356058  1
  Ni  Ni98  1  0.66356058  0.50938612  0.65088221  1
  Ni  Ni99  1  0.83643942  0.49061388  0.15088221  1
  Ni  Ni100  1  0.00938612  0.84911779  0.33643942  1
  Ni  Ni101  1  0.33643942  0.00938612  0.84911779  1
  Ni  Ni102  1  0.99061388  0.34911779  0.16356058  1
  Ni  Ni103  1  0.49061388  0.15088221  0.83643942  1
  Ni  Ni104  1  0.16356058  0.99061388  0.34911779  1
  Ni  Ni105  1  0.15088221  0.83643942  0.49061388  1
  Ni  Ni106  1  0.34911779  0.16356058  0.99061388  1
  Ni  Ni107  1  0.84911779  0.33643942  0.00938612  1
  Ni  Ni108  1  0.34911779  0.33643942  0.49061388  1
  Ni  Ni109  1  0.49061388  0.34911779  0.33643942  1
  Ni  Ni110  1  0.33643942  0.49061388  0.34911779  1
  Ni  Ni111  1  0.16356058  0.50938612  0.84911779  1
  Ni  Ni112  1  0.99061388  0.15088221  0.66356058  1
  Ni  Ni113  1  0.66356058  0.99061388  0.15088221  1
  Ni  Ni114  1  0.00938612  0.65088221  0.83643942  1
  Ni  Ni115  1  0.50938612  0.84911779  0.16356058  1
  Ni  Ni116  1  0.83643942  0.00938612  0.65088221  1
  Ni  Ni117  1  0.84911779  0.16356058  0.50938612  1
  Ni  Ni118  1  0.65088221  0.83643942  0.00938612  1
  Ni  Ni119  1  0.15088221  0.66356058  0.99061388  1
  Ni  Ni120  1  0.76212550  0.61063532  0.50694352  1
  Ni  Ni121  1  0.50694352  0.76212550  0.61063532  1
  Ni  Ni122  1  0.61063532  0.50694352  0.76212550  1
  Ni  Ni123  1  0.88936468  0.49305648  0.26212550  1
  Ni  Ni124  1  0.00694352  0.73787450  0.38936468  1
  Ni  Ni125  1  0.38936468  0.00694352  0.73787450  1
  Ni  Ni126  1  0.99305648  0.23787450  0.11063532  1
  Ni  Ni127  1  0.49305648  0.26212550  0.88936468  1
  Ni  Ni128  1  0.11063532  0.99305648  0.23787450  1
  Ni  Ni129  1  0.26212550  0.88936468  0.49305648  1
  Ni  Ni130  1  0.23787450  0.11063532  0.99305648  1
  Ni  Ni131  1  0.73787450  0.38936468  0.00694352  1
  Ni  Ni132  1  0.23787450  0.38936468  0.49305648  1
  Ni  Ni133  1  0.49305648  0.23787450  0.38936468  1
  Ni  Ni134  1  0.38936468  0.49305648  0.23787450  1
  Ni  Ni135  1  0.11063532  0.50694352  0.73787450  1
  Ni  Ni136  1  0.99305648  0.26212550  0.61063532  1
  Ni  Ni137  1  0.61063532  0.99305648  0.26212550  1
  Ni  Ni138  1  0.00694352  0.76212550  0.88936468  1
  Ni  Ni139  1  0.50694352  0.73787450  0.11063532  1
  Ni  Ni140  1  0.88936468  0.00694352  0.76212550  1
  Ni  Ni141  1  0.73787450  0.11063532  0.50694352  1
  Ni  Ni142  1  0.76212550  0.88936468  0.00694352  1
  Ni  Ni143  1  0.26212550  0.61063532  0.99305648  1
  Cu  Cu144  1  0.76701876  0.75136026  0.52659016  1
  Cu  Cu145  1  0.52659016  0.76701876  0.75136026  1
  Cu  Cu146  1  0.75136026  0.52659016  0.76701876  1
  Cu  Cu147  1  0.74863974  0.47340984  0.26701876  1
  Cu  Cu148  1  0.02659016  0.73298124  0.24863974  1
  Cu  Cu149  1  0.24863974  0.02659016  0.73298124  1
  Cu  Cu150  1  0.97340984  0.23298124  0.25136026  1
  Cu  Cu151  1  0.47340984  0.26701876  0.74863974  1
  Cu  Cu152  1  0.25136026  0.97340984  0.23298124  1
  Cu  Cu153  1  0.26701876  0.74863974  0.47340984  1
  Cu  Cu154  1  0.23298124  0.25136026  0.97340984  1
  Cu  Cu155  1  0.73298124  0.24863974  0.02659016  1
  Cu  Cu156  1  0.23298124  0.24863974  0.47340984  1
  Cu  Cu157  1  0.47340984  0.23298124  0.24863974  1
  Cu  Cu158  1  0.24863974  0.47340984  0.23298124  1
  Cu  Cu159  1  0.25136026  0.52659016  0.73298124  1
  Cu  Cu160  1  0.97340984  0.26701876  0.75136026  1
  Cu  Cu161  1  0.75136026  0.97340984  0.26701876  1
  Cu  Cu162  1  0.02659016  0.76701876  0.74863974  1
  Cu  Cu163  1  0.52659016  0.73298124  0.25136026  1
  Cu  Cu164  1  0.74863974  0.02659016  0.76701876  1
  Cu  Cu165  1  0.73298124  0.25136026  0.52659016  1
  Cu  Cu166  1  0.76701876  0.74863974  0.02659016  1
  Cu  Cu167  1  0.26701876  0.75136026  0.97340984  1
  C  C168  1  0.86110640  0.75279437  0.52433896  1
  C  C169  1  0.52433896  0.86110640  0.75279437  1
  C  C170  1  0.75279437  0.52433896  0.86110640  1
  C  C171  1  0.74720563  0.47566104  0.36110640  1
  C  C172  1  0.02433896  0.63889360  0.24720563  1
  C  C173  1  0.24720563  0.02433896  0.63889360  1
  C  C174  1  0.97566104  0.13889360  0.25279437  1
  C  C175  1  0.47566104  0.36110640  0.74720563  1
  C  C176  1  0.25279437  0.97566104  0.13889360  1
  C  C177  1  0.36110640  0.74720563  0.47566104  1
  C  C178  1  0.13889360  0.25279437  0.97566104  1
  C  C179  1  0.63889360  0.24720563  0.02433896  1
  C  C180  1  0.13889360  0.24720563  0.47566104  1
  C  C181  1  0.47566104  0.13889360  0.24720563  1
  C  C182  1  0.24720563  0.47566104  0.13889360  1
  C  C183  1  0.25279437  0.52433896  0.63889360  1
  C  C184  1  0.97566104  0.36110640  0.75279437  1
  C  C185  1  0.75279437  0.97566104  0.36110640  1
  C  C186  1  0.02433896  0.86110640  0.74720563  1
  C  C187  1  0.52433896  0.63889360  0.25279437  1
  C  C188  1  0.74720563  0.02433896  0.86110640  1
  C  C189  1  0.63889360  0.25279437  0.52433896  1
  C  C190  1  0.86110640  0.74720563  0.02433896  1
  C  C191  1  0.36110640  0.75279437  0.97566104  1
  C  C192  1  0.72039077  0.83161207  0.54172386  1
  C  C193  1  0.54172386  0.72039077  0.83161207  1
  C  C194  1  0.83161207  0.54172386  0.72039077  1
  C  C195  1  0.66838793  0.45827614  0.22039077  1
  C  C196  1  0.04172386  0.77960923  0.16838793  1
  C  C197  1  0.16838793  0.04172386  0.77960923  1
  C  C198  1  0.95827614  0.27960923  0.33161207  1
  C  C199  1  0.45827614  0.22039077  0.66838793  1
  C  C200  1  0.33161207  0.95827614  0.27960923  1
  C  C201  1  0.22039077  0.66838793  0.45827614  1
  C  C202  1  0.27960923  0.33161207  0.95827614  1
  C  C203  1  0.77960923  0.16838793  0.04172386  1
  C  C204  1  0.27960923  0.16838793  0.45827614  1
  C  C205  1  0.45827614  0.27960923  0.16838793  1
  C  C206  1  0.16838793  0.45827614  0.27960923  1
  C  C207  1  0.33161207  0.54172386  0.77960923  1
  C  C208  1  0.95827614  0.22039077  0.83161207  1
  C  C209  1  0.83161207  0.95827614  0.22039077  1
  C  C210  1  0.04172386  0.72039077  0.66838793  1
  C  C211  1  0.54172386  0.77960923  0.33161207  1
  C  C212  1  0.66838793  0.04172386  0.72039077  1
  C  C213  1  0.77960923  0.33161207  0.54172386  1
  C  C214  1  0.72039077  0.66838793  0.04172386  1
  C  C215  1  0.22039077  0.83161207  0.95827614  1
  C  C216  1  0.72233503  0.66954772  0.51547758  1
  C  C217  1  0.51547758  0.72233503  0.66954772  1
  C  C218  1  0.66954772  0.51547758  0.72233503  1
  C  C219  1  0.83045228  0.48452242  0.22233503  1
  C  C220  1  0.01547758  0.77766497  0.33045228  1
  C  C221  1  0.33045228  0.01547758  0.77766497  1
  C  C222  1  0.98452242  0.27766497  0.16954772  1
  C  C223  1  0.48452242  0.22233503  0.83045228  1
  C  C224  1  0.16954772  0.98452242  0.27766497  1
  C  C225  1  0.22233503  0.83045228  0.48452242  1
  C  C226  1  0.27766497  0.16954772  0.98452242  1
  C  C227  1  0.77766497  0.33045228  0.01547758  1
  C  C228  1  0.27766497  0.33045228  0.48452242  1
  C  C229  1  0.48452242  0.27766497  0.33045228  1
  C  C230  1  0.33045228  0.48452242  0.27766497  1
  C  C231  1  0.16954772  0.51547758  0.77766497  1
  C  C232  1  0.98452242  0.22233503  0.66954772  1
  C  C233  1  0.66954772  0.98452242  0.22233503  1
  C  C234  1  0.01547758  0.72233503  0.83045228  1
  C  C235  1  0.51547758  0.77766497  0.16954772  1
  C  C236  1  0.83045228  0.01547758  0.72233503  1
  C  C237  1  0.77766497  0.16954772  0.51547758  1
  C  C238  1  0.72233503  0.83045228  0.01547758  1
  C  C239  1  0.22233503  0.66954772  0.98452242  1
  C  C240  1  0.03042208  0.63032390  0.02613510  1
  C  C241  1  0.02613510  0.03042208  0.63032390  1
  C  C242  1  0.63032390  0.02613510  0.03042208  1
  C  C243  1  0.86967610  0.97386490  0.53042208  1
  C  C244  1  0.52613510  0.46957792  0.36967610  1
  C  C245  1  0.36967610  0.52613510  0.46957792  1
  C  C246  1  0.47386490  0.96957792  0.13032390  1
  C  C247  1  0.97386490  0.53042208  0.86967610  1
  C  C248  1  0.13032390  0.47386490  0.96957792  1
  C  C249  1  0.53042208  0.86967610  0.97386490  1
  C  C250  1  0.96957792  0.13032390  0.47386490  1
  C  C251  1  0.46957792  0.36967610  0.52613510  1
  C  C252  1  0.96957792  0.36967610  0.97386490  1
  C  C253  1  0.97386490  0.96957792  0.36967610  1
  C  C254  1  0.36967610  0.97386490  0.96957792  1
  C  C255  1  0.13032390  0.02613510  0.46957792  1
  C  C256  1  0.47386490  0.53042208  0.63032390  1
  C  C257  1  0.63032390  0.47386490  0.53042208  1
  C  C258  1  0.52613510  0.03042208  0.86967610  1
  C  C259  1  0.02613510  0.46957792  0.13032390  1
  C  C260  1  0.86967610  0.52613510  0.03042208  1
  C  C261  1  0.46957792  0.13032390  0.02613510  1
  C  C262  1  0.03042208  0.86967610  0.52613510  1
  C  C263  1  0.53042208  0.63032390  0.47386490  1
  C  C264  1  0.02145330  0.63186288  0.47257929  1
  C  C265  1  0.47257929  0.02145330  0.63186288  1
  C  C266  1  0.63186288  0.47257929  0.02145330  1
  C  C267  1  0.86813712  0.52742071  0.52145330  1
  C  C268  1  0.97257929  0.47854670  0.36813712  1
  C  C269  1  0.36813712  0.97257929  0.47854670  1
  C  C270  1  0.02742071  0.97854670  0.13186288  1
  C  C271  1  0.52742071  0.52145330  0.86813712  1
  C  C272  1  0.13186288  0.02742071  0.97854670  1
  C  C273  1  0.52145330  0.86813712  0.52742071  1
  C  C274  1  0.97854670  0.13186288  0.02742071  1
  C  C275  1  0.47854670  0.36813712  0.97257929  1
  C  C276  1  0.97854670  0.36813712  0.52742071  1
  C  C277  1  0.52742071  0.97854670  0.36813712  1
  C  C278  1  0.36813712  0.52742071  0.97854670  1
  C  C279  1  0.13186288  0.47257929  0.47854670  1
  C  C280  1  0.02742071  0.52145330  0.63186288  1
  C  C281  1  0.63186288  0.02742071  0.52145330  1
  C  C282  1  0.97257929  0.02145330  0.86813712  1
  C  C283  1  0.47257929  0.47854670  0.13186288  1
  C  C284  1  0.86813712  0.97257929  0.02145330  1
  C  C285  1  0.47854670  0.13186288  0.47257929  1
  C  C286  1  0.02145330  0.86813712  0.97257929  1
  C  C287  1  0.52145330  0.63186288  0.02742071  1
  C  C288  1  0.00000000  0.50000000  0.00000000  1
  C  C289  1  0.00000000  0.00000000  0.50000000  1
  C  C290  1  0.50000000  0.00000000  0.00000000  1
  C  C291  1  0.50000000  0.50000000  0.50000000  1
  C  C292  1  0.00000000  0.50000000  0.50000000  1
  C  C293  1  0.50000000  0.00000000  0.50000000  1
  C  C294  1  0.50000000  0.50000000  0.00000000  1
  C  C295  1  0.00000000  0.00000000  0.00000000  1
