# generated using pymatgen
data_Cu4Ni4C5
_symmetry_space_group_name_H-M   'P 1'
_cell_length_a   7.84858112
_cell_length_b   10.48757383
_cell_length_c   3.08676100
_cell_angle_alpha   90.00000000
_cell_angle_beta   90.00000000
_cell_angle_gamma   139.95114779
_symmetry_Int_Tables_number   1
_chemical_formula_structural   Cu4Ni4C5
_chemical_formula_sum   'Cu4 Ni4 C5'
_cell_volume   163.48488277
_cell_formula_units_Z   1
loop_
 _symmetry_equiv_pos_site_id
 _symmetry_equiv_pos_as_xyz
  1  'x, y, z'
loop_
 _atom_site_type_symbol
 _atom_site_label
 _atom_site_symmetry_multiplicity
 _atom_site_fract_x
 _atom_site_fract_y
 _atom_site_fract_z
 _atom_site_occupancy
  C  C0  1  0.00163500  0.75095200  0.50000000  1
  C  C1  1  0.99128400  0.02706300  0.00000000  1
  C  C2  1  0.03864000  0.51546800  0.00000000  1
  C  C3  1  0.35798900  0.45138000  0.50000000  1
  C  C4  1  0.54979300  0.98051200  0.50000000  1
  Ni  Ni5  1  0.21299800  0.54302300  0.50000000  1
  Ni  Ni6  1  0.28485400  0.30412700  0.00000000  1
  Ni  Ni7  1  0.23041600  0.79679800  0.00000000  1
  Ni  Ni8  1  0.78721700  0.96626600  0.50000000  1
  Cu  Cu9  1  0.17380200  0.01711100  0.50000000  1
  Cu  Cu10  1  0.78962700  0.71324300  0.00000000  1
  Cu  Cu11  1  0.73659900  0.20524200  0.00000000  1
  Cu  Cu12  1  0.81181600  0.47643000  0.50000000  1
