# generated using pymatgen
data_Cu4NiC11
_symmetry_space_group_name_H-M   'P 1'
_cell_length_a   3.81023113
_cell_length_b   6.40137879
_cell_length_c   8.97720693
_cell_angle_alpha   101.35077247
_cell_angle_beta   89.59132609
_cell_angle_gamma   106.27785670
_symmetry_Int_Tables_number   1
_chemical_formula_structural   Cu4NiC11
_chemical_formula_sum   'Cu4 Ni1 C11'
_cell_volume   205.80370703
_cell_formula_units_Z   1
loop_
 _symmetry_equiv_pos_site_id
 _symmetry_equiv_pos_as_xyz
  1  'x, y, z'
loop_
 _atom_site_type_symbol
 _atom_site_label
 _atom_site_symmetry_multiplicity
 _atom_site_fract_x
 _atom_site_fract_y
 _atom_site_fract_z
 _atom_site_occupancy
  C  C0  1  0.50000000  0.00000000  0.50000000  1
  Ni  Ni1  1  0.00000000  0.50000000  0.50000000  1
  Cu  Cu2  1  0.21954500  0.42930700  0.85152300  1
  Cu  Cu3  1  0.91180000  0.82125700  0.85081400  1
  Cu  Cu4  1  0.08820000  0.17874300  0.14918600  1
  Cu  Cu5  1  0.78045500  0.57069300  0.14847700  1
  C  C6  1  0.06241700  0.12364000  0.89977800  1
  C  C7  1  0.16125500  0.35021800  0.65554000  1
  C  C8  1  0.38041300  0.75260000  0.86843900  1
  C  C9  1  0.75282400  0.50013100  0.89712000  1
  C  C10  1  0.89591300  0.74653000  0.65328900  1
  C  C11  1  0.10408700  0.25347000  0.34671100  1
  C  C12  1  0.24717600  0.49986900  0.10288000  1
  C  C13  1  0.61958700  0.24740000  0.13156100  1
  C  C14  1  0.83874500  0.64978200  0.34446000  1
  C  C15  1  0.93758300  0.87636000  0.10022200  1
