# generated using pymatgen
data_CuNi2C9
_symmetry_space_group_name_H-M   'P 1'
_cell_length_a   3.85109900
_cell_length_b   3.85109900
_cell_length_c   12.11118000
_cell_angle_alpha   90.00000000
_cell_angle_beta   90.00000000
_cell_angle_gamma   90.00000000
_symmetry_Int_Tables_number   1
_chemical_formula_structural   CuNi2C9
_chemical_formula_sum   'Cu1 Ni2 C9'
_cell_volume   179.62046862
_cell_formula_units_Z   1
loop_
 _symmetry_equiv_pos_site_id
 _symmetry_equiv_pos_as_xyz
  1  'x, y, z'
loop_
 _atom_site_type_symbol
 _atom_site_label
 _atom_site_symmetry_multiplicity
 _atom_site_fract_x
 _atom_site_fract_y
 _atom_site_fract_z
 _atom_site_occupancy
  Ni  Ni0  1  0.50000000  0.50000000  0.19627200  1
  Ni  Ni1  1  0.50000000  0.50000000  0.80372800  1
  Cu  Cu2  1  0.50000000  0.50000000  0.50000000  1
  C  C3  1  0.00000000  0.00000000  0.00000000  1
  C  C4  1  0.00000000  0.00000000  0.36941200  1
  C  C5  1  0.00000000  0.00000000  0.63058800  1
  C  C6  1  0.50000000  0.00000000  0.61506200  1
  C  C7  1  0.00000000  0.50000000  0.61506200  1
  C  C8  1  0.50000000  0.00000000  0.38493800  1
  C  C9  1  0.00000000  0.50000000  0.38493800  1
  C  C10  1  0.00000000  0.00000000  0.14985300  1
  C  C11  1  0.00000000  0.00000000  0.85014700  1
