# generated using pymatgen
data_Cu3NiC31
_symmetry_space_group_name_H-M   'P 1'
_cell_length_a   8.86845217
_cell_length_b   8.86035108
_cell_length_c   22.96284248
_cell_angle_alpha   90.14290421
_cell_angle_beta   89.77529433
_cell_angle_gamma   119.96751329
_symmetry_Int_Tables_number   1
_chemical_formula_structural   Cu3NiC31
_chemical_formula_sum   'Cu9 Ni3 C93'
_cell_volume   1563.12493307
_cell_formula_units_Z   3
loop_
 _symmetry_equiv_pos_site_id
 _symmetry_equiv_pos_as_xyz
  1  'x, y, z'
loop_
 _atom_site_type_symbol
 _atom_site_label
 _atom_site_symmetry_multiplicity
 _atom_site_fract_x
 _atom_site_fract_y
 _atom_site_fract_z
 _atom_site_occupancy
  C  C0  1  0.99688773  0.00136993  0.99181685  1
  C  C1  1  0.68309012  0.33907313  0.84139915  1
  C  C2  1  0.65684017  0.33284629  0.33863726  1
  Ni  Ni3  1  0.98678818  0.99899128  0.85488405  1
  Ni  Ni4  1  0.68181237  0.34507137  0.97763771  1
  Ni  Ni5  1  0.65182643  0.32970834  0.47840493  1
  Cu  Cu6  1  0.01019361  0.01071016  0.35532200  1
  Cu  Cu7  1  0.99585204  0.98313443  0.64715073  1
  Cu  Cu8  1  0.00022159  0.99100607  0.14806488  1
  Cu  Cu9  1  0.66204690  0.31533700  0.69011473  1
  Cu  Cu10  1  0.68019212  0.34185404  0.19020810  1
  Cu  Cu11  1  0.31777030  0.65199612  0.02011366  1
  Cu  Cu12  1  0.32897764  0.66274068  0.52307666  1
  Cu  Cu13  1  0.33547644  0.65570946  0.30625297  1
  Cu  Cu14  1  0.32066579  0.66660329  0.80954342  1
  C  C15  1  0.29069778  0.00116353  0.25073372  1
  C  C16  1  0.72001856  0.71666849  0.25215424  1
  C  C17  1  0.99776887  0.28039806  0.24917190  1
  C  C18  1  0.99016729  0.71031017  0.75449063  1
  C  C19  1  0.71683775  0.99231244  0.75368587  1
  C  C20  1  0.37869912  0.05036717  0.57971290  1
  C  C21  1  0.95118235  0.62218041  0.07961973  1
  C  C22  1  0.03106748  0.35896481  0.91402308  1
  C  C23  1  0.34297435  0.38055077  0.41702157  1
  C  C24  1  0.28670822  0.28603175  0.75078214  1
  C  C25  1  0.95097834  0.33041934  0.58167779  1
  C  C26  1  0.66645280  0.61942048  0.58188504  1
  C  C27  1  0.66748431  0.04603506  0.08170029  1
  C  C28  1  0.38117472  0.33182800  0.08141878  1
  C  C29  1  0.61856970  0.66410485  0.91678948  1
  C  C30  1  0.33420922  0.95617450  0.91736976  1
  C  C31  1  0.61976807  0.95368164  0.41648029  1
  C  C32  1  0.04493274  0.66401149  0.41699182  1
  C  C33  1  0.19720542  0.03515381  0.30746885  1
  C  C34  1  0.83811879  0.80233363  0.30904350  1
  C  C35  1  0.96486911  0.16133417  0.30732259  1
  C  C36  1  0.21981320  0.18115028  0.80213399  1
  C  C37  1  0.96507122  0.79764993  0.80985918  1
  C  C38  1  0.83753265  0.05164643  0.80822507  1
  C  C39  1  0.80848316  0.97708717  0.69226973  1
  C  C40  1  0.18145856  0.20776429  0.69705838  1
  C  C41  1  0.02548015  0.82924259  0.69349608  1
  C  C42  1  0.80478727  0.83316520  0.19330086  1
  C  C43  1  0.03074655  0.19740594  0.19139423  1
  C  C44  1  0.16632477  0.96884325  0.19391609  1
  C  C45  1  0.87477921  0.36542044  0.63504386  1
  C  C46  1  0.49921899  0.14044306  0.63906576  1
  C  C47  1  0.63583820  0.51541555  0.63490709  1
  C  C48  1  0.86142226  0.50238297  0.13985326  1
  C  C49  1  0.64053836  0.12576900  0.13599593  1
  C  C50  1  0.48453695  0.35636736  0.13519798  1
  C  C51  1  0.45492233  0.30087242  0.02974692  1
  C  C52  1  0.83073895  0.53991482  0.02587369  1
  C  C53  1  0.69464830  0.15291436  0.03077926  1
  C  C54  1  0.46580567  0.16495963  0.52500533  1
  C  C55  1  0.70077961  0.54842659  0.52989652  1
  C  C56  1  0.84987012  0.30794153  0.52995495  1
  C  C57  1  0.53088015  0.68841256  0.97056863  1
  C  C58  1  0.16539285  0.48080760  0.97178725  1
  C  C59  1  0.31529907  0.84370081  0.96997388  1
  C  C60  1  0.53210062  0.84324613  0.46937801  1
  C  C61  1  0.31027733  0.47955070  0.47341562  1
  C  C62  1  0.15692453  0.69388072  0.47037593  1
  C  C63  1  0.13046933  0.64270703  0.36503261  1
  C  C64  1  0.50998344  0.87180596  0.36451326  1
  C  C65  1  0.35122117  0.50344668  0.36139861  1
  C  C66  1  0.15177408  0.50017888  0.86078335  1
  C  C67  1  0.36143478  0.87227441  0.86378382  1
  C  C68  1  0.51219567  0.64853752  0.86454160  1
  C  C69  1  0.03047831  0.82299993  0.41088929  1
  C  C70  1  0.78988030  0.96020426  0.41050010  1
  C  C71  1  0.15982004  0.19240137  0.40769538  1
  C  C72  1  0.04147553  0.18531142  0.91543384  1
  C  C73  1  0.17398985  0.96263791  0.91248369  1
  C  C74  1  0.79101812  0.82043213  0.91425061  1
  C  C75  1  0.98010822  0.18321889  0.59254982  1
  C  C76  1  0.18629076  0.02411143  0.59710528  1
  C  C77  1  0.81934222  0.79977981  0.59099983  1
  C  C78  1  0.98569227  0.82207930  0.09179095  1
  C  C79  1  0.82627198  0.02800590  0.09048068  1
  C  C80  1  0.20004343  0.18150208  0.08993458  1
  C  C81  1  0.68384634  0.16210990  0.73862233  1
  C  C82  1  0.46891561  0.31423726  0.74002513  1
  C  C83  1  0.82758337  0.51841421  0.73517661  1
  C  C84  1  0.68823131  0.52010709  0.24096974  1
  C  C85  1  0.82529560  0.30160882  0.24237600  1
  C  C86  1  0.47864699  0.17143030  0.23840826  1
  C  C87  1  0.62316274  0.50199711  0.92196788  1
  C  C88  1  0.85268452  0.36006909  0.91783775  1
  C  C89  1  0.49015325  0.12613972  0.92417598  1
  C  C90  1  0.64631147  0.12945483  0.42307542  1
  C  C91  1  0.51278009  0.36424866  0.41752729  1
  C  C92  1  0.87495579  0.50839424  0.42543040  1
  C  C93  1  0.36571452  0.49373954  0.07552193  1
  C  C94  1  0.15171553  0.65043405  0.07295033  1
  C  C95  1  0.51419415  0.86858685  0.07546907  1
  C  C96  1  0.35145024  0.85043914  0.57039985  1
  C  C97  1  0.51090791  0.64444866  0.57389580  1
  C  C98  1  0.12977628  0.49300104  0.57500658  1
  C  C99  1  0.30727414  0.83259282  0.26541751  1
  C  C100  1  0.52850127  0.69708787  0.25985450  1
  C  C101  1  0.16195040  0.47441273  0.26047164  1
  C  C102  1  0.31088939  0.46421038  0.75650077  1
  C  C103  1  0.16491707  0.68761855  0.75932240  1
  C  C104  1  0.51978904  0.82627072  0.76145096  1
