# generated using pymatgen
data_CuNiC18
_symmetry_space_group_name_H-M   'P 1'
_cell_length_a   9.42861844
_cell_length_b   9.42861809
_cell_length_c   22.75682384
_cell_angle_alpha   89.89112072
_cell_angle_beta   90.10887928
_cell_angle_gamma   119.63655196
_symmetry_Int_Tables_number   1
_chemical_formula_structural   CuNiC18
_chemical_formula_sum   'Cu6 Ni6 C108'
_cell_volume   1758.39422788
_cell_formula_units_Z   6
loop_
 _symmetry_equiv_pos_site_id
 _symmetry_equiv_pos_as_xyz
  1  'x, y, z'
loop_
 _atom_site_type_symbol
 _atom_site_label
 _atom_site_symmetry_multiplicity
 _atom_site_fract_x
 _atom_site_fract_y
 _atom_site_fract_z
 _atom_site_occupancy
  C  C0  1  0.00253526  0.98799966  0.50129129  1
  C  C1  1  0.01200034  0.99746474  0.00129129  1
  C  C2  1  0.66576722  0.31614925  0.83498803  1
  C  C3  1  0.68385075  0.33423278  0.33498803  1
  C  C4  1  0.35059172  0.67881018  0.16784681  1
  C  C5  1  0.32118982  0.64940828  0.66784681  1
  C  C6  1  0.35899697  0.35563539  0.24588058  1
  C  C7  1  0.99849891  0.64224474  0.24386736  1
  C  C8  1  0.64436461  0.64100303  0.74588058  1
  C  C9  1  0.35775526  0.00150109  0.74386736  1
  C  C10  1  0.04254449  0.70187121  0.57606167  1
  C  C11  1  0.64978392  0.97308839  0.58439813  1
  C  C12  1  0.29812879  0.95745551  0.07606167  1
  C  C13  1  0.02691161  0.35021608  0.08439813  1
  C  C14  1  0.98428456  0.68471549  0.91766499  1
  C  C15  1  0.68541264  0.01879793  0.90868788  1
  C  C16  1  0.98120207  0.31458736  0.40868788  1
  C  C17  1  0.31528451  0.01571544  0.41766499  1
  Ni  Ni18  1  0.97771772  0.98742779  0.34785017  1
  Ni  Ni19  1  0.01257221  0.02228228  0.84785017  1
  Ni  Ni20  1  0.67117566  0.32664660  0.68229773  1
  Ni  Ni21  1  0.67335340  0.32882434  0.18229773  1
  Ni  Ni22  1  0.33834652  0.66014473  0.01403072  1
  Ni  Ni23  1  0.33985527  0.66165348  0.51403072  1
  Cu  Cu24  1  0.00603819  0.00996465  0.64901348  1
  Cu  Cu25  1  0.99003535  0.99396181  0.14901348  1
  Cu  Cu26  1  0.66209980  0.33916903  0.98245779  1
  Cu  Cu27  1  0.66083097  0.33790020  0.48245779  1
  Cu  Cu28  1  0.33181203  0.66496361  0.31595484  1
  Cu  Cu29  1  0.33503639  0.66818797  0.81595484  1
  C  C30  1  0.01901510  0.31516142  0.25275470  1
  C  C31  1  0.68483858  0.98098490  0.75275470  1
  C  C32  1  0.35609563  0.03715128  0.58398721  1
  C  C33  1  0.96284872  0.64390437  0.08398721  1
  C  C34  1  0.34784827  0.97568322  0.91957175  1
  C  C35  1  0.02431678  0.65215173  0.41957175  1
  C  C36  1  0.28520643  0.98145873  0.25131411  1
  C  C37  1  0.68510732  0.70469606  0.24681512  1
  C  C38  1  0.29530394  0.31489268  0.74681512  1
  C  C39  1  0.01854127  0.71479357  0.75131411  1
  C  C40  1  0.95752624  0.31327879  0.57891480  1
  C  C41  1  0.69142896  0.64733845  0.58714629  1
  C  C42  1  0.68672121  0.04247376  0.07891480  1
  C  C43  1  0.35266155  0.30857104  0.08714629  1
  C  C44  1  0.62924343  0.64883525  0.91177273  1
  C  C45  1  0.01724475  0.37690357  0.91955669  1
  C  C46  1  0.62309643  0.98275525  0.41955669  1
  C  C47  1  0.35116475  0.37075657  0.41177273  1
  C  C48  1  0.21426765  0.99885791  0.30924500  1
  C  C49  1  0.78759123  0.75659757  0.30248555  1
  C  C50  1  0.00954938  0.22872460  0.31484626  1
  C  C51  1  0.24340243  0.21240877  0.80248555  1
  C  C52  1  0.00114209  0.78573235  0.80924500  1
  C  C53  1  0.77127540  0.99045062  0.81484626  1
  C  C54  1  0.80051795  0.97430760  0.69711906  1
  C  C55  1  0.18018694  0.20918380  0.69497601  1
  C  C56  1  0.03944638  0.83669456  0.69953116  1
  C  C57  1  0.79081620  0.81981306  0.19497601  1
  C  C58  1  0.02569240  0.19948205  0.19711906  1
  C  C59  1  0.16330544  0.96055362  0.19953116  1
  C  C60  1  0.89105792  0.34801174  0.63472623  1
  C  C61  1  0.45529788  0.10533035  0.64496704  1
  C  C62  1  0.67219409  0.56588123  0.64647165  1
  C  C63  1  0.89466965  0.54470212  0.14496704  1
  C  C64  1  0.65198826  0.10894208  0.13472623  1
  C  C65  1  0.43411877  0.32780591  0.14647165  1
  C  C66  1  0.46544676  0.30369503  0.03649876  1
  C  C67  1  0.84073481  0.53215019  0.02817019  1
  C  C68  1  0.70237649  0.15829031  0.02609609  1
  C  C69  1  0.46784981  0.15926519  0.52817019  1
  C  C70  1  0.69630497  0.53455324  0.53649876  1
  C  C71  1  0.84170969  0.29762351  0.52609609  1
  C  C72  1  0.56224318  0.68677534  0.96643020  1
  C  C73  1  0.09662421  0.43429926  0.97975958  1
  C  C74  1  0.33064203  0.88173738  0.98096025  1
  C  C75  1  0.56570074  0.90337579  0.47975958  1
  C  C76  1  0.31322466  0.43775682  0.46643020  1
  C  C77  1  0.11826262  0.66935797  0.48096025  1
  C  C78  1  0.14035278  0.63554224  0.36502547  1
  C  C79  1  0.50797325  0.86643738  0.36985898  1
  C  C80  1  0.36751865  0.48238212  0.35746074  1
  C  C81  1  0.13356262  0.49202675  0.86985898  1
  C  C82  1  0.36445776  0.85964722  0.86502547  1
  C  C83  1  0.51761788  0.63248135  0.85746074  1
  C  C84  1  0.01138821  0.81750822  0.41461710  1
  C  C85  1  0.80378123  0.03052605  0.41291115  1
  C  C86  1  0.21230327  0.19273084  0.40543167  1
  C  C87  1  0.96947395  0.19621877  0.91291115  1
  C  C88  1  0.18249178  0.98861179  0.91461710  1
  C  C89  1  0.80726916  0.78769673  0.90543167  1
  C  C90  1  0.94875851  0.14251326  0.58465124  1
  C  C91  1  0.17506307  0.02575092  0.58750747  1
  C  C92  1  0.86034137  0.81053084  0.58595941  1
  C  C93  1  0.97424908  0.82493693  0.08750747  1
  C  C94  1  0.85748674  0.05124149  0.08465124  1
  C  C95  1  0.18946916  0.13965863  0.08595941  1
  C  C96  1  0.64036359  0.12803469  0.75121273  1
  C  C97  1  0.47486970  0.36107897  0.73771136  1
  C  C98  1  0.86773692  0.54623792  0.74354067  1
  C  C99  1  0.63892103  0.52513030  0.23771136  1
  C  C100  1  0.87196531  0.35963641  0.25121273  1
  C  C101  1  0.45376208  0.13226308  0.24354067  1
  C  C102  1  0.63035798  0.48423435  0.91887779  1
  C  C103  1  0.85592269  0.38814566  0.91728443  1
  C  C104  1  0.52241136  0.15181458  0.92101877  1
  C  C105  1  0.61185434  0.14407731  0.41728443  1
  C  C106  1  0.51576565  0.36964202  0.41887779  1
  C  C107  1  0.84818542  0.47758864  0.42101877  1
  C  C108  1  0.30827497  0.44416965  0.07955636  1
  C  C109  1  0.14942198  0.67165939  0.07998267  1
  C  C110  1  0.54864915  0.86627694  0.07282474  1
  C  C111  1  0.32834061  0.85057802  0.57998267  1
  C  C112  1  0.55583035  0.69172503  0.57955636  1
  C  C113  1  0.13372306  0.45135085  0.57282474  1
  C  C114  1  0.29415620  0.81925795  0.25320907  1
  C  C115  1  0.52534518  0.71378790  0.25267365  1
  C  C116  1  0.19784169  0.49273824  0.25227663  1
  C  C117  1  0.28621210  0.47465482  0.75267365  1
  C  C118  1  0.18074205  0.70584380  0.75320907  1
  C  C119  1  0.50726176  0.80215831  0.75227663  1
