# generated using pymatgen
data_Cu2NiC16
_symmetry_space_group_name_H-M   'P 1'
_cell_length_a   9.38390819
_cell_length_b   9.30872565
_cell_length_c   23.49711720
_cell_angle_alpha   89.23440457
_cell_angle_beta   90.00000000
_cell_angle_gamma   120.26753228
_symmetry_Int_Tables_number   1
_chemical_formula_structural   Cu2NiC16
_chemical_formula_sum   'Cu12 Ni6 C96'
_cell_volume   1772.51576976
_cell_formula_units_Z   6
loop_
 _symmetry_equiv_pos_site_id
 _symmetry_equiv_pos_as_xyz
  1  'x, y, z'
loop_
 _atom_site_type_symbol
 _atom_site_label
 _atom_site_symmetry_multiplicity
 _atom_site_fract_x
 _atom_site_fract_y
 _atom_site_fract_z
 _atom_site_occupancy
  C  C0  1  0.00444872  0.64097032  0.23954981  1
  C  C1  1  0.63652160  0.64097032  0.73954981  1
  C  C2  1  0.65721276  0.95882067  0.57777592  1
  C  C3  1  0.30160890  0.95882067  0.07777592  1
  C  C4  1  0.69100501  0.02690788  0.90727029  1
  C  C5  1  0.33590187  0.02690788  0.40727029  1
  C  C6  1  0.97495005  0.98299604  0.48701314  1
  C  C7  1  0.00804599  0.98299604  0.98701314  1
  C  C8  1  0.65451877  0.30807840  0.82018245  1
  C  C9  1  0.65356064  0.30807840  0.32018245  1
  C  C10  1  0.33724783  0.65294696  0.15362711  1
  C  C11  1  0.31569812  0.65294696  0.65362711  1
  C  C12  1  0.00834451  0.00334780  0.64873876  1
  C  C13  1  0.99500329  0.00334780  0.14873876  1
  C  C14  1  0.67459503  0.35265023  0.98219452  1
  C  C15  1  0.67805620  0.35265023  0.48219452  1
  C  C16  1  0.34837213  0.67671838  0.31482506  1
  C  C17  1  0.32834525  0.67671838  0.81482506  1
  C  C18  1  0.98992747  0.00516688  0.34802888  1
  C  C19  1  0.01523941  0.00516688  0.84802888  1
  C  C20  1  0.66880695  0.32373849  0.68095470  1
  C  C21  1  0.65493254  0.32373849  0.18095470  1
  C  C22  1  0.27403279  0.65599533  0.01231055  1
  C  C23  1  0.38196153  0.65599533  0.51231055  1
  Ni  Ni24  1  0.30526982  0.01912663  0.25143664  1
  Ni  Ni25  1  0.71385680  0.01912663  0.75143664  1
  Ni  Ni26  1  0.64959701  0.62609047  0.59004399  1
  Ni  Ni27  1  0.97649446  0.62609047  0.09004399  1
  Ni  Ni28  1  0.31846165  0.96567056  0.92070067  1
  Ni  Ni29  1  0.64720791  0.96567056  0.42070067  1
  Cu  Cu30  1  0.71066339  0.68813110  0.25302870  1
  Cu  Cu31  1  0.98192176  0.29578125  0.25277461  1
  Cu  Cu32  1  0.31385949  0.29578125  0.75277461  1
  Cu  Cu33  1  0.97746770  0.68813110  0.75302870  1
  Cu  Cu34  1  0.97395282  0.35185328  0.58555094  1
  Cu  Cu35  1  0.37928792  0.02697484  0.58305871  1
  Cu  Cu36  1  0.64768792  0.02697484  0.08305871  1
  Cu  Cu37  1  0.37790147  0.35185328  0.08555094  1
  Cu  Cu38  1  0.63942906  0.68754512  0.91522346  1
  Cu  Cu39  1  0.03870518  0.35105681  0.91901221  1
  Cu  Cu40  1  0.31235063  0.35105681  0.41901221  1
  Cu  Cu41  1  0.04811506  0.68754512  0.41522346  1
  C  C42  1  0.22016621  0.03473177  0.30645187  1
  C  C43  1  0.80892413  0.78350468  0.30258388  1
  C  C44  1  0.97371305  0.19692672  0.30369580  1
  C  C45  1  0.22321367  0.19692672  0.80369580  1
  C  C46  1  0.97458054  0.78350468  0.80258388  1
  C  C47  1  0.81456556  0.03473177  0.80645187  1
  C  C48  1  0.79690413  0.99441002  0.69823295  1
  C  C49  1  0.22206620  0.22203886  0.69990333  1
  C  C50  1  0.00085464  0.78353398  0.69942421  1
  C  C51  1  0.78267934  0.78353398  0.19942421  1
  C  C52  1  -0.00002734  0.22203886  0.19990333  1
  C  C53  1  0.19750590  0.99441002  0.19823295  1
  C  C54  1  0.88649192  0.36277634  0.63653317  1
  C  C55  1  0.48694580  0.12486977  0.63108677  1
  C  C56  1  0.64150233  0.53057552  0.64544147  1
  C  C57  1  0.88907418  0.53057552  0.14544147  1
  C  C58  1  0.63792498  0.12486977  0.13108677  1
  C  C59  1  0.47628542  0.36277634  0.13653317  1
  C  C60  1  0.45242892  0.32530703  0.03373808  1
  C  C61  1  0.87590717  0.54210910  0.03642113  1
  C  C62  1  0.66549531  0.11538498  0.02790419  1
  C  C63  1  0.44989066  0.11538498  0.52790419  1
  C  C64  1  0.66620293  0.54210910  0.53642113  1
  C  C65  1  0.87287912  0.32530703  0.53373808  1
  C  C66  1  0.54194483  0.69170689  0.96363204  1
  C  C67  1  0.13334355  0.43989579  0.97026404  1
  C  C68  1  0.29520532  0.86598687  0.97794362  1
  C  C69  1  0.57078055  0.86598687  0.47794362  1
  C  C70  1  0.30655124  0.43989579  0.47026404  1
  C  C71  1  0.14976107  0.69170689  0.46363204  1
  C  C72  1  0.11785643  0.67037983  0.36032087  1
  C  C73  1  0.52669388  0.87649755  0.37129021  1
  C  C74  1  0.33106097  0.44719716  0.36651300  1
  C  C75  1  0.11613519  0.44719716  0.86651300  1
  C  C76  1  0.34980267  0.87649755  0.87129021  1
  C  C77  1  0.55252240  0.67037983  0.86032087  1
  C  C78  1  0.04432303  0.84728275  0.41387033  1
  C  C79  1  0.81784449  0.98249748  0.41089120  1
  C  C80  1  0.16196073  0.18417469  0.41779551  1
  C  C81  1  0.02221395  0.18417469  0.91779551  1
  C  C82  1  0.16465300  0.98249748  0.91089120  1
  C  C83  1  0.80295972  0.84728275  0.91387033  1
  C  C84  1  0.98748009  0.19721924  0.58834866  1
  C  C85  1  0.21079743  0.00324525  0.58732521  1
  C  C86  1  0.79955405  0.80939273  0.58876449  1
  C  C87  1  0.00983868  0.80939273  0.08876449  1
  C  C88  1  0.79244782  0.00324525  0.08732521  1
  C  C89  1  0.20973915  0.19721924  0.08834866  1
  C  C90  1  0.68942035  0.17140966  0.74385857  1
  C  C91  1  0.48010769  0.31261971  0.75039698  1
  C  C92  1  0.81698387  0.52813981  0.75121892  1
  C  C93  1  0.71115693  0.52813981  0.25121892  1
  C  C94  1  0.83251302  0.31261971  0.25039698  1
  C  C95  1  0.48199031  0.17140966  0.24385857  1
  C  C96  1  0.67006773  0.54548579  0.91769279  1
  C  C97  1  0.86617432  0.32477221  0.92071792  1
  C  C98  1  0.48180657  0.13794764  0.92277717  1
  C  C99  1  0.65614207  0.13794764  0.42277717  1
  C  C100  1  0.45859889  0.32477221  0.42071792  1
  C  C101  1  0.87541906  0.54548579  0.41769279  1
  C  C102  1  0.36163806  0.50037129  0.08018491  1
  C  C103  1  0.15170369  0.64230972  0.08473044  1
  C  C104  1  0.49278373  0.86292875  0.08327358  1
  C  C105  1  0.37014402  0.86292875  0.58327358  1
  C  C106  1  0.49060503  0.64230972  0.58473044  1
  C  C107  1  0.13873223  0.50037129  0.58018491  1
  C  C108  1  0.31269305  0.85369190  0.25399662  1
  C  C109  1  0.53764771  0.65330321  0.25490596  1
  C  C110  1  0.12972662  0.46950787  0.25456900  1
  C  C111  1  0.33978025  0.46950787  0.75456900  1
  C  C112  1  0.11565450  0.65330321  0.75490596  1
  C  C113  1  0.54099785  0.85369190  0.75399662  1
