# generated using pymatgen
data_Cu(NiC8)2
_symmetry_space_group_name_H-M   'P 1'
_cell_length_a   9.17566490
_cell_length_b   9.19638206
_cell_length_c   23.01675190
_cell_angle_alpha   90.41753096
_cell_angle_beta   90.00000000
_cell_angle_gamma   119.92550753
_symmetry_Int_Tables_number   1
_chemical_formula_structural   Cu(NiC8)2
_chemical_formula_sum   'Cu6 Ni12 C96'
_cell_volume   1683.21414982
_cell_formula_units_Z   6
loop_
 _symmetry_equiv_pos_site_id
 _symmetry_equiv_pos_as_xyz
  1  'x, y, z'
loop_
 _atom_site_type_symbol
 _atom_site_label
 _atom_site_symmetry_multiplicity
 _atom_site_fract_x
 _atom_site_fract_y
 _atom_site_fract_z
 _atom_site_occupancy
  C  C0  1  0.00022084  0.65403016  0.24643520  1
  C  C1  1  0.65380932  0.65403016  0.74643520  1
  C  C2  1  0.30539232  0.34449422  0.58551713  1
  C  C3  1  0.66398687  0.94779067  0.58086105  1
  C  C4  1  0.28380480  0.94779067  0.08086105  1
  C  C5  1  0.03910291  0.34449422  0.08551713  1
  C  C6  1  0.99035288  0.97536562  0.48920096  1
  C  C7  1  0.98501274  0.97536562  0.98920096  1
  C  C8  1  0.64937730  0.30056016  0.82565652  1
  C  C9  1  0.65118386  0.30056016  0.32565652  1
  C  C10  1  0.34781057  0.66411887  0.16997963  1
  C  C11  1  0.31630730  0.66411887  0.66997963  1
  C  C12  1  0.00315443  0.01136268  0.35120728  1
  C  C13  1  0.00820825  0.01136268  0.85120728  1
  C  C14  1  0.99923013  0.99841487  0.65551342  1
  C  C15  1  0.99918474  0.99841487  0.15551342  1
  C  C16  1  0.66511795  0.32972338  0.68851259  1
  C  C17  1  0.66460643  0.32972338  0.18851259  1
  C  C18  1  0.33595197  0.66692575  0.01350210  1
  C  C19  1  0.33097278  0.66692575  0.51350210  1
  C  C20  1  0.67524527  0.34454445  0.97347796  1
  C  C21  1  0.66930018  0.34454445  0.47347796  1
  C  C22  1  0.32930237  0.66549256  0.32241512  1
  C  C23  1  0.33618919  0.66549256  0.82241512  1
  Ni  Ni24  1  0.30235332  0.98654620  0.25188831  1
  Ni  Ni25  1  0.01091692  0.31560961  0.25046348  1
  Ni  Ni26  1  0.30469269  0.31560961  0.75046348  1
  Ni  Ni27  1  0.68419288  0.98654620  0.75188831  1
  Ni  Ni28  1  0.67185017  0.62714812  0.58204803  1
  Ni  Ni29  1  0.95529895  0.62714812  0.08204803  1
  Ni  Ni30  1  0.63041251  0.66221140  0.91832373  1
  Ni  Ni31  1  0.03373024  0.37447997  0.92078348  1
  Ni  Ni32  1  0.34341914  0.96957309  0.92186321  1
  Ni  Ni33  1  0.62615295  0.96957309  0.42186321  1
  Ni  Ni34  1  0.34074873  0.37447997  0.42078348  1
  Ni  Ni35  1  0.03179789  0.66221140  0.41832373  1
  Cu  Cu36  1  0.68638851  0.70004146  0.25396324  1
  Cu  Cu37  1  0.01365295  0.70004146  0.75396324  1
  Cu  Cu38  1  0.95157321  0.32899796  0.57942836  1
  Cu  Cu39  1  0.38013813  0.05123307  0.57844754  1
  Cu  Cu40  1  0.67109594  0.05123307  0.07844754  1
  Cu  Cu41  1  0.37742576  0.32899796  0.07942836  1
  C  C42  1  0.19947658  0.99865321  0.30046326  1
  C  C43  1  0.79737658  0.78280210  0.30321153  1
  C  C44  1  0.98098642  0.19545736  0.29865997  1
  C  C45  1  0.21447094  0.19545736  0.79865997  1
  C  C46  1  0.98542552  0.78280210  0.80321153  1
  C  C47  1  0.79917663  0.99865321  0.80046326  1
  C  C48  1  0.73711609  0.93939378  0.69340087  1
  C  C49  1  0.21751295  0.25910298  0.69041211  1
  C  C50  1  0.04655769  0.79583741  0.69960047  1
  C  C51  1  0.74927973  0.79583741  0.19960047  1
  C  C52  1  0.04159003  0.25910298  0.19041211  1
  C  C53  1  0.20227769  0.93939378  0.19340087  1
  C  C54  1  0.87231430  0.34085698  0.63232407  1
  C  C55  1  0.47598410  0.12932201  0.63129006  1
  C  C56  1  0.66116626  0.53302718  0.63715698  1
  C  C57  1  0.87186191  0.53302718  0.13715698  1
  C  C58  1  0.65333890  0.12932201  0.13129006  1
  C  C59  1  0.46854368  0.34085698  0.13232407  1
  C  C60  1  0.47543418  0.32262621  0.02694787  1
  C  C61  1  0.83744069  0.51320178  0.02724837  1
  C  C62  1  0.67828604  0.15690759  0.02636552  1
  C  C63  1  0.47862254  0.15690759  0.52636552  1
  C  C64  1  0.67576209  0.51320178  0.52724837  1
  C  C65  1  0.84719304  0.32262621  0.52694787  1
  C  C66  1  0.55350255  0.68171604  0.97251724  1
  C  C67  1  0.11761248  0.44268954  0.97871148  1
  C  C68  1  0.32486128  0.88428541  0.97960464  1
  C  C69  1  0.55942313  0.88428541  0.47960464  1
  C  C70  1  0.32507606  0.44268954  0.47871148  1
  C  C71  1  0.12821249  0.68171604  0.47251724  1
  C  C72  1  0.12689722  0.63444566  0.36421409  1
  C  C73  1  0.49556650  0.86146151  0.37093903  1
  C  C74  1  0.36296382  0.50205415  0.37030360  1
  C  C75  1  0.13908933  0.50205415  0.87030360  1
  C  C76  1  0.36589401  0.86146151  0.87093903  1
  C  C77  1  0.50754745  0.63444566  0.86421409  1
  C  C78  1  0.99133654  0.79915742  0.40778758  1
  C  C79  1  0.80012828  0.00083558  0.41053644  1
  C  C80  1  0.20166023  0.19856824  0.41048695  1
  C  C81  1  0.99690801  0.19856824  0.91048695  1
  C  C82  1  0.20070730  0.00083558  0.91053644  1
  C  C83  1  0.80782088  0.79915742  0.90778758  1
  C  C84  1  0.95851921  0.16956254  0.57795955  1
  C  C85  1  0.21696545  0.04791228  0.57800242  1
  C  C86  1  0.82755171  0.80248934  0.57716099  1
  C  C87  1  0.97493763  0.80248934  0.07716099  1
  C  C88  1  0.83094684  0.04791228  0.07800242  1
  C  C89  1  0.21104333  0.16956254  0.07795955  1
  C  C90  1  0.65344618  0.13395180  0.74905972  1
  C  C91  1  0.49249105  0.36614832  0.74987522  1
  C  C92  1  0.86561960  0.53011415  0.74845382  1
  C  C93  1  0.66449555  0.53011415  0.24845382  1
  C  C94  1  0.87365827  0.36614832  0.24987522  1
  C  C95  1  0.48050661  0.13395180  0.24905972  1
  C  C96  1  0.63197157  0.48708527  0.92305835  1
  C  C97  1  0.85488727  0.37044808  0.92185661  1
  C  C98  1  0.51611969  0.14717023  0.92397079  1
  C  C99  1  0.63105154  0.14717023  0.42397079  1
  C  C100  1  0.51556181  0.37044808  0.42185661  1
  C  C101  1  0.85511471  0.48708527  0.42305835  1
  C  C102  1  0.34775741  0.47262276  0.07644838  1
  C  C103  1  0.12986673  0.63922419  0.07842315  1
  C  C104  1  0.52262534  0.88179917  0.07499603  1
  C  C105  1  0.35917282  0.88179917  0.57499603  1
  C  C106  1  0.50935646  0.63922419  0.57842315  1
  C  C107  1  0.12486435  0.47262276  0.57644838  1
  C  C108  1  0.31836007  0.82095722  0.26605104  1
  C  C109  1  0.51428900  0.68207945  0.26438581  1
  C  C110  1  0.18128756  0.49343476  0.26529367  1
  C  C111  1  0.31214620  0.49343476  0.76529367  1
  C  C112  1  0.16778945  0.68207945  0.76438581  1
  C  C113  1  0.50259614  0.82095722  0.76605104  1
