# generated using pymatgen
data_Cu4Ni2C45
_symmetry_space_group_name_H-M   'P 1'
_cell_length_a   8.74508554
_cell_length_b   8.74508526
_cell_length_c   22.52231150
_cell_angle_alpha   90.00000000
_cell_angle_beta   90.00000000
_cell_angle_gamma   120.00000107
_symmetry_Int_Tables_number   1
_chemical_formula_structural   Cu4Ni2C45
_chemical_formula_sum   'Cu8 Ni4 C90'
_cell_volume   1491.66636658
_cell_formula_units_Z   2
loop_
 _symmetry_equiv_pos_site_id
 _symmetry_equiv_pos_as_xyz
  1  'x, y, z'
loop_
 _atom_site_type_symbol
 _atom_site_label
 _atom_site_symmetry_multiplicity
 _atom_site_fract_x
 _atom_site_fract_y
 _atom_site_fract_z
 _atom_site_occupancy
  Ni  Ni0  1  0.00000000  0.00000000  0.35850551  1
  Ni  Ni1  1  0.00000000  0.00000000  0.85850551  1
  Ni  Ni2  1  0.66666700  0.33333300  0.68656108  1
  Ni  Ni3  1  0.66666700  0.33333300  0.18656108  1
  Cu  Cu4  1  0.00000000  0.00000000  0.64144046  1
  Cu  Cu5  1  0.00000000  0.00000000  0.14144046  1
  Cu  Cu6  1  0.66666700  0.33333300  0.97592635  1
  Cu  Cu7  1  0.66666700  0.33333300  0.47592635  1
  Cu  Cu8  1  0.33333300  0.66666700  0.02282838  1
  Cu  Cu9  1  0.33333300  0.66666700  0.52282838  1
  Cu  Cu10  1  0.33333300  0.66666700  0.31160950  1
  Cu  Cu11  1  0.33333300  0.66666700  0.81160950  1
  C  C12  1  0.95006458  0.33548204  0.58487929  1
  C  C13  1  0.38541846  0.04993542  0.58487929  1
  C  C14  1  0.66451796  0.61458154  0.58487929  1
  C  C15  1  0.95006458  0.61458154  0.08487929  1
  C  C16  1  0.66451796  0.04993542  0.08487929  1
  C  C17  1  0.38541846  0.33548204  0.08487929  1
  C  C18  1  0.62231146  0.66970192  0.91642267  1
  C  C19  1  0.04738946  0.37768854  0.91642267  1
  C  C20  1  0.33029808  0.95261054  0.91642267  1
  C  C21  1  0.62231146  0.95261054  0.41642267  1
  C  C22  1  0.33029808  0.37768854  0.41642267  1
  C  C23  1  0.04738946  0.66970192  0.41642267  1
  C  C24  1  0.28920980  0.00414318  0.25110899  1
  C  C25  1  0.71493338  0.71079020  0.25110899  1
  C  C26  1  0.99585683  0.28506662  0.25110899  1
  C  C27  1  0.28920980  0.28506662  0.75110899  1
  C  C28  1  0.99585683  0.71079020  0.75110899  1
  C  C29  1  0.71493338  0.00414318  0.75110899  1
  C  C30  1  0.20444538  0.02549981  0.30299264  1
  C  C31  1  0.82105444  0.79555462  0.30299264  1
  C  C32  1  0.97450019  0.17894556  0.30299264  1
  C  C33  1  0.20444538  0.17894556  0.80299264  1
  C  C34  1  0.97450019  0.79555462  0.80299264  1
  C  C35  1  0.82105444  0.02549981  0.80299264  1
  C  C36  1  0.79683364  0.96907350  0.69656699  1
  C  C37  1  0.17223986  0.20316636  0.69656699  1
  C  C38  1  0.03092650  0.82776014  0.69656699  1
  C  C39  1  0.79683364  0.82776014  0.19656699  1
  C  C40  1  0.03092650  0.20316636  0.19656699  1
  C  C41  1  0.17223986  0.96907350  0.19656699  1
  C  C42  1  0.87722463  0.36934321  0.63964994  1
  C  C43  1  0.49211958  0.12277537  0.63964994  1
  C  C44  1  0.63065679  0.50788042  0.63964994  1
  C  C45  1  0.87722463  0.50788042  0.13964994  1
  C  C46  1  0.63065679  0.12277537  0.13964994  1
  C  C47  1  0.49211958  0.36934321  0.13964994  1
  C  C48  1  0.46572379  0.30031449  0.02850965  1
  C  C49  1  0.83459170  0.53427621  0.02850965  1
  C  C50  1  0.69968551  0.16540830  0.02850965  1
  C  C51  1  0.46572379  0.16540830  0.52850965  1
  C  C52  1  0.69968551  0.53427621  0.52850965  1
  C  C53  1  0.83459170  0.30031449  0.52850965  1
  C  C54  1  0.52590483  0.68906883  0.97109965  1
  C  C55  1  0.16316300  0.47409517  0.97109965  1
  C  C56  1  0.31093117  0.83683700  0.97109965  1
  C  C57  1  0.52590483  0.83683700  0.47109965  1
  C  C58  1  0.31093117  0.47409517  0.47109965  1
  C  C59  1  0.16316300  0.68906883  0.47109965  1
  C  C60  1  0.13576804  0.63230768  0.36122681  1
  C  C61  1  0.49653864  0.86423196  0.36122681  1
  C  C62  1  0.36769232  0.50346136  0.36122681  1
  C  C63  1  0.13576804  0.50346136  0.86122681  1
  C  C64  1  0.36769232  0.86423196  0.86122681  1
  C  C65  1  0.49653864  0.63230768  0.86122681  1
  C  C66  1  0.02737951  0.82624617  0.40761985  1
  C  C67  1  0.79886667  0.97262049  0.40761985  1
  C  C68  1  0.17375383  0.20113333  0.40761985  1
  C  C69  1  0.02737951  0.20113333  0.90761985  1
  C  C70  1  0.17375383  0.97262049  0.90761985  1
  C  C71  1  0.79886667  0.82624617  0.90761985  1
  C  C72  1  0.97470132  0.16947010  0.59402847  1
  C  C73  1  0.19476878  0.02529868  0.59402847  1
  C  C74  1  0.83052990  0.80523122  0.59402847  1
  C  C75  1  0.97470132  0.80523122  0.09402847  1
  C  C76  1  0.83052990  0.02529868  0.09402847  1
  C  C77  1  0.19476878  0.16947010  0.09402847  1
  C  C78  1  0.68790996  0.15142334  0.74116682  1
  C  C79  1  0.46351438  0.31209004  0.74116682  1
  C  C80  1  0.84857666  0.53648562  0.74116682  1
  C  C81  1  0.68790996  0.53648562  0.24116682  1
  C  C82  1  0.84857666  0.31209004  0.24116682  1
  C  C83  1  0.46351438  0.15142334  0.24116682  1
  C  C84  1  0.63026609  0.49712461  0.92672794  1
  C  C85  1  0.86685952  0.36973391  0.92672794  1
  C  C86  1  0.50287539  0.13314048  0.92672794  1
  C  C87  1  0.63026609  0.13314048  0.42672794  1
  C  C88  1  0.50287539  0.36973391  0.42672794  1
  C  C89  1  0.86685952  0.49712461  0.42672794  1
  C  C90  1  0.35223607  0.49071202  0.07117077  1
  C  C91  1  0.13847495  0.64776393  0.07117077  1
  C  C92  1  0.50928798  0.86152505  0.07117077  1
  C  C93  1  0.35223607  0.86152505  0.57117077  1
  C  C94  1  0.50928798  0.64776393  0.57117077  1
  C  C95  1  0.13847495  0.49071202  0.57117077  1
  C  C96  1  0.30136493  0.83585873  0.25787242  1
  C  C97  1  0.53449280  0.69863507  0.25787242  1
  C  C98  1  0.16414127  0.46550720  0.25787242  1
  C  C99  1  0.30136493  0.46550720  0.75787242  1
  C  C100  1  0.16414127  0.69863507  0.75787242  1
  C  C101  1  0.53449280  0.83585873  0.75787242  1
