# generated using pymatgen
data_Cu4Ni2C11
_symmetry_space_group_name_H-M   'P 1'
_cell_length_a   10.63831657
_cell_length_b   10.63831657
_cell_length_c   13.85126753
_cell_angle_alpha   66.10400944
_cell_angle_beta   66.10400944
_cell_angle_gamma   23.37242944
_symmetry_Int_Tables_number   1
_chemical_formula_structural   Cu4Ni2C11
_chemical_formula_sum   'Cu8 Ni4 C22'
_cell_volume   566.17845536
_cell_formula_units_Z   2
loop_
 _symmetry_equiv_pos_site_id
 _symmetry_equiv_pos_as_xyz
  1  'x, y, z'
loop_
 _atom_site_type_symbol
 _atom_site_label
 _atom_site_symmetry_multiplicity
 _atom_site_fract_x
 _atom_site_fract_y
 _atom_site_fract_z
 _atom_site_occupancy
  Ni  Ni0  1  0.50000000  0.00000000  0.50000000  1
  Ni  Ni1  1  0.00000000  0.50000000  0.00000000  1
  Ni  Ni2  1  0.00000000  0.00000000  0.50000000  1
  Ni  Ni3  1  0.00000000  0.00000000  0.00000000  1
  Cu  Cu4  1  0.31605200  0.83481600  0.25540000  1
  Cu  Cu5  1  0.16518400  0.68394800  0.24460000  1
  Cu  Cu6  1  0.68394800  0.16518400  0.74460000  1
  Cu  Cu7  1  0.83481600  0.31605200  0.75540000  1
  Cu  Cu8  1  0.92812700  0.40435300  0.41552600  1
  Cu  Cu9  1  0.59564700  0.07187300  0.08447400  1
  Cu  Cu10  1  0.07187300  0.59564700  0.58447400  1
  Cu  Cu11  1  0.40435300  0.92812700  0.91552600  1
  C  C12  1  0.01744100  0.98255900  0.25000000  1
  C  C13  1  0.98255900  0.01744100  0.75000000  1
  C  C14  1  0.07045300  0.18346500  0.25038800  1
  C  C15  1  0.81653500  0.92954700  0.24961200  1
  C  C16  1  0.92954700  0.81653500  0.74961200  1
  C  C17  1  0.18346500  0.07045300  0.75038800  1
  C  C18  1  0.38352800  0.68690000  0.39101700  1
  C  C19  1  0.31310000  0.61647200  0.10898300  1
  C  C20  1  0.61647200  0.31310000  0.60898300  1
  C  C21  1  0.68690000  0.38352800  0.89101700  1
  C  C22  1  0.27795900  0.18604500  0.37996800  1
  C  C23  1  0.81395500  0.72204100  0.12003200  1
  C  C24  1  0.11365200  0.07817500  0.00351400  1
  C  C25  1  0.92182500  0.88634800  0.49648600  1
  C  C26  1  0.88634800  0.92182500  0.99648600  1
  C  C27  1  0.07817500  0.11365200  0.50351400  1
  C  C28  1  0.59504100  0.75714700  0.02280200  1
  C  C29  1  0.24285300  0.40495900  0.47719800  1
  C  C30  1  0.40495900  0.24285300  0.97719800  1
  C  C31  1  0.75714700  0.59504100  0.52280200  1
  C  C32  1  0.18604500  0.27795900  0.87996800  1
  C  C33  1  0.72204100  0.81395500  0.62003200  1
