# generated using pymatgen
data_Cu2NiC12
_symmetry_space_group_name_H-M   'P 1'
_cell_length_a   5.27868600
_cell_length_b   6.34887300
_cell_length_c   6.34887300
_cell_angle_alpha   90.00000000
_cell_angle_beta   90.00000000
_cell_angle_gamma   90.00000000
_symmetry_Int_Tables_number   1
_chemical_formula_structural   Cu2NiC12
_chemical_formula_sum   'Cu2 Ni1 C12'
_cell_volume   212.77426963
_cell_formula_units_Z   1
loop_
 _symmetry_equiv_pos_site_id
 _symmetry_equiv_pos_as_xyz
  1  'x, y, z'
loop_
 _atom_site_type_symbol
 _atom_site_label
 _atom_site_symmetry_multiplicity
 _atom_site_fract_x
 _atom_site_fract_y
 _atom_site_fract_z
 _atom_site_occupancy
  Ni  Ni0  1  0.00000000  0.75000000  0.25000000  1
  Cu  Cu1  1  0.42268900  0.75000000  0.75000000  1
  Cu  Cu2  1  0.57731100  0.25000000  0.25000000  1
  C  C3  1  0.50000000  0.25000000  0.75000000  1
  C  C4  1  0.50000000  0.75000000  0.25000000  1
  C  C5  1  0.26910600  0.25000000  0.25000000  1
  C  C6  1  0.67132500  0.26321300  0.94941500  1
  C  C7  1  0.73089400  0.75000000  0.75000000  1
  C  C8  1  0.68844100  0.56305100  0.26150700  1
  C  C9  1  0.31155900  0.73849300  0.06305100  1
  C  C10  1  0.32867500  0.05058500  0.76321300  1
  C  C11  1  0.32867500  0.44941500  0.73678700  1
  C  C12  1  0.68844100  0.93694900  0.23849300  1
  C  C13  1  0.67132500  0.23678700  0.55058500  1
  C  C14  1  0.31155900  0.76150700  0.43694900  1
