# generated using pymatgen
data_Cu(NiC4)2
_symmetry_space_group_name_H-M   'P 1'
_cell_length_a   6.72790787
_cell_length_b   6.50956251
_cell_length_c   7.11562701
_cell_angle_alpha   57.01016807
_cell_angle_beta   53.73582981
_cell_angle_gamma   59.09972383
_symmetry_Int_Tables_number   1
_chemical_formula_structural   Cu(NiC4)2
_chemical_formula_sum   'Cu1 Ni2 C8'
_cell_volume   202.13374080
_cell_formula_units_Z   1
loop_
 _symmetry_equiv_pos_site_id
 _symmetry_equiv_pos_as_xyz
  1  'x, y, z'
loop_
 _atom_site_type_symbol
 _atom_site_label
 _atom_site_symmetry_multiplicity
 _atom_site_fract_x
 _atom_site_fract_y
 _atom_site_fract_z
 _atom_site_occupancy
  Ni  Ni0  1  0.69891431  0.72990584  0.69418180  1
  Ni  Ni1  1  0.30108569  0.27009416  0.30581820  1
  Cu  Cu2  1  -0.00000000  -0.00000000  -0.00000000  1
  C  C3  1  -0.00000000  0.50000000  -0.00000000  1
  C  C4  1  0.50000000  0.50000000  0.50000000  1
  C  C5  1  0.65536546  0.27541074  0.85297203  1
  C  C6  1  0.22288698  0.77271992  0.72458538  1
  C  C7  1  0.85501240  0.63123718  0.26473987  1
  C  C8  1  0.34463454  0.72458926  0.14702797  1
  C  C9  1  0.14498760  0.36876282  0.73526013  1
  C  C10  1  0.77711302  0.22728008  0.27541462  1
