# generated using pymatgen
data_Cu2NiC4
_symmetry_space_group_name_H-M   'P 1'
_cell_length_a   3.39332415
_cell_length_b   6.64150937
_cell_length_c   6.32677343
_cell_angle_alpha   97.29638412
_cell_angle_beta   105.53511193
_cell_angle_gamma   89.98345530
_symmetry_Int_Tables_number   1
_chemical_formula_structural   Cu2NiC4
_chemical_formula_sum   'Cu2 Ni1 C4'
_cell_volume   136.17876649
_cell_formula_units_Z   1
loop_
 _symmetry_equiv_pos_site_id
 _symmetry_equiv_pos_as_xyz
  1  'x, y, z'
loop_
 _atom_site_type_symbol
 _atom_site_label
 _atom_site_symmetry_multiplicity
 _atom_site_fract_x
 _atom_site_fract_y
 _atom_site_fract_z
 _atom_site_occupancy
  Ni  Ni0  1  0.35734850  0.96391870  0.71501494  1
  Cu  Cu1  1  0.88163694  0.42681060  0.76173777  1
  Cu  Cu2  1  0.11764157  0.53586768  0.23586224  1
  C  C3  1  0.49495422  0.68103354  0.98881112  1
  C  C4  1  0.50417611  0.27935676  0.00805485  1
  C  C5  1  0.24292493  0.25671361  0.48335610  1
  C  C6  1  0.75846073  0.71741011  0.51716297  1
