# generated using pymatgen
data_Cu18NiC98
_symmetry_space_group_name_H-M   'P 1'
_cell_length_a   9.02940753
_cell_length_b   9.03020807
_cell_length_c   22.58888211
_cell_angle_alpha   90.16258060
_cell_angle_beta   89.85028078
_cell_angle_gamma   120.19466397
_symmetry_Int_Tables_number   1
_chemical_formula_structural   Cu18NiC98
_chemical_formula_sum   'Cu18 Ni1 C98'
_cell_volume   1591.93372309
_cell_formula_units_Z   1
loop_
 _symmetry_equiv_pos_site_id
 _symmetry_equiv_pos_as_xyz
  1  'x, y, z'
loop_
 _atom_site_type_symbol
 _atom_site_label
 _atom_site_symmetry_multiplicity
 _atom_site_fract_x
 _atom_site_fract_y
 _atom_site_fract_z
 _atom_site_occupancy
  C  C0  1  0.36490795  0.36443078  0.25106679  1
  C  C1  1  0.63355811  0.61429508  0.74382901  1
  C  C2  1  0.98027698  0.36710612  0.74392244  1
  C  C3  1  0.38727180  0.01958144  0.74367553  1
  C  C4  1  0.31142703  0.33658690  0.58360493  1
  C  C5  1  0.02461170  0.68788744  0.58365063  1
  C  C6  1  0.66318234  0.97494799  0.58363760  1
  C  C7  1  0.30178883  0.96893564  0.08476064  1
  C  C8  1  0.69935028  0.03357975  0.91776411  1
  C  C9  1  0.00041473  0.00021426  0.49371244  1
  C  C10  1  0.00034857  0.00050096  0.00200757  1
  C  C11  1  0.66583248  0.33961751  0.82844746  1
  C  C12  1  0.67442050  0.33235075  0.33451838  1
  C  C13  1  0.33379367  0.66699899  0.16850283  1
  C  C14  1  0.33348409  0.66690871  0.66509534  1
  C  C15  1  0.99915947  0.99980977  0.35506236  1
  C  C16  1  0.00416846  0.99964265  0.85644187  1
  C  C17  1  -0.00000394  0.99987356  0.64626869  1
  C  C18  1  0.99513713  0.99942397  0.14562562  1
  C  C19  1  0.67074378  0.33393801  0.18875321  1
  C  C20  1  0.66728441  0.33766775  0.97860996  1
  C  C21  1  0.66601212  0.33340502  0.47716810  1
  C  C22  1  0.33279259  0.66226115  0.02252730  1
  C  C23  1  0.33299490  0.66658713  0.51627463  1
  C  C24  1  0.33300097  0.67114459  0.31188945  1
  C  C25  1  0.33311695  0.66573238  0.81391701  1
  Ni  Ni26  1  0.66696731  0.33371534  0.68223738  1
  Cu  Cu27  1  0.28600339  0.99679239  0.24914752  1
  Cu  Cu28  1  0.71209848  0.71197540  0.25060770  1
  Cu  Cu29  1  0.99738253  0.28688995  0.25075251  1
  Cu  Cu30  1  0.28932269  0.29104840  0.75089772  1
  Cu  Cu31  1  0.00165320  0.71090151  0.75099120  1
  Cu  Cu32  1  0.71019966  0.99863476  0.75210637  1
  Cu  Cu33  1  0.95684380  0.33519988  0.58471285  1
  Cu  Cu34  1  0.37831696  0.04259786  0.58491062  1
  Cu  Cu35  1  0.66377044  0.62166607  0.58480792  1
  Cu  Cu36  1  0.95444560  0.62196092  0.08348115  1
  Cu  Cu37  1  0.67036595  0.04731277  0.08233931  1
  Cu  Cu38  1  0.37957048  0.33528127  0.08447990  1
  Cu  Cu39  1  0.62092254  0.66310240  0.91690371  1
  Cu  Cu40  1  0.04382360  0.37831174  0.91702394  1
  Cu  Cu41  1  0.33116642  0.95477655  0.91833468  1
  Cu  Cu42  1  0.62536926  0.95841934  0.41589739  1
  Cu  Cu43  1  0.33380875  0.37618111  0.41478381  1
  Cu  Cu44  1  0.04223317  0.66712919  0.41569433  1
  C  C45  1  0.19461744  0.03347245  0.30555036  1
  C  C46  1  0.83374020  0.80542961  0.30765287  1
  C  C47  1  0.97166296  0.16632727  0.30792141  1
  C  C48  1  0.18422516  0.16628587  0.80664695  1
  C  C49  1  0.97971151  0.81476235  0.80669023  1
  C  C50  1  0.82971158  0.01872676  0.80937389  1
  C  C51  1  0.80111675  0.96522700  0.69269827  1
  C  C52  1  0.16593391  0.20108490  0.69147514  1
  C  C53  1  0.03542621  0.83482863  0.69167879  1
  C  C54  1  0.80679491  0.83328835  0.19264705  1
  C  C55  1  0.03277346  0.19516096  0.19328064  1
  C  C56  1  0.17149346  0.97226512  0.18947197  1
  C  C57  1  0.89551190  0.38447226  0.64476541  1
  C  C58  1  0.48916426  0.10481906  0.64476596  1
  C  C59  1  0.61498432  0.51084933  0.64463072  1
  C  C60  1  0.85982765  0.49980882  0.14064482  1
  C  C61  1  0.63339529  0.13960536  0.13872906  1
  C  C62  1  0.49503844  0.36127540  0.14342999  1
  C  C63  1  0.47340069  0.30119287  0.02748121  1
  C  C64  1  0.83368770  0.52662543  0.02571012  1
  C  C65  1  0.69463966  0.16151082  0.02279458  1
  C  C66  1  0.47008841  0.17227062  0.52865631  1
  C  C67  1  0.70219260  0.52988631  0.52860160  1
  C  C68  1  0.82708223  0.29785749  0.52861022  1
  C  C69  1  0.52707619  0.69974187  0.97254227  1
  C  C70  1  0.16829795  0.47549413  0.97326455  1
  C  C71  1  0.30632680  0.83702255  0.97625905  1
  C  C72  1  0.53302774  0.84177052  0.47542137  1
  C  C73  1  0.30904649  0.46935372  0.47418048  1
  C  C74  1  0.15924956  0.69177193  0.47515226  1
  C  C75  1  0.14054926  0.63928109  0.35953886  1
  C  C76  1  0.50000084  0.85889785  0.35969931  1
  C  C77  1  0.36017664  0.49565372  0.35696067  1
  C  C78  1  0.13514063  0.49601181  0.85767525  1
  C  C79  1  0.36434101  0.86359061  0.85958170  1
  C  C80  1  0.50324986  0.63824091  0.85748911  1
  C  C81  1  0.02658966  0.83832022  0.40964197  1
  C  C82  1  0.81289463  0.97509091  0.41034963  1
  C  C83  1  0.16269300  0.18723018  0.41016112  1
  C  C84  1  0.01736971  0.18539487  0.91077890  1
  C  C85  1  0.16289586  0.97510766  0.91081465  1
  C  C86  1  0.80677460  0.83966156  0.91036666  1
  C  C87  1  0.97625563  0.16108105  0.58933667  1
  C  C88  1  0.18483936  0.02338892  0.58931907  1
  C  C89  1  0.83869390  0.81537652  0.58929578  1
  C  C90  1  0.98247278  0.81560139  0.08917195  1
  C  C91  1  0.83855538  0.02622310  0.08977708  1
  C  C92  1  0.19211312  0.15916977  0.08949410  1
  C  C93  1  0.69106420  0.16509925  0.75047071  1
  C  C94  1  0.47444051  0.30921436  0.74987875  1
  C  C95  1  0.83423424  0.52529248  0.74969496  1
  C  C96  1  0.68487268  0.51813773  0.24340641  1
  C  C97  1  0.82831886  0.30663741  0.24284881  1
  C  C98  1  0.47425814  0.17314628  0.24274873  1
  C  C99  1  0.63953327  0.49416754  0.92341748  1
  C  C100  1  0.85136758  0.35187106  0.92294290  1
  C  C101  1  0.50780824  0.14084078  0.92322737  1
  C  C102  1  0.64014325  0.14552526  0.42402057  1
  C  C103  1  0.50541946  0.36013536  0.42424378  1
  C  C104  1  0.85459665  0.49469480  0.42415495  1
  C  C105  1  0.35984727  0.50456827  0.07607956  1
  C  C106  1  0.14813609  0.64832814  0.07678028  1
  C  C107  1  0.49343927  0.85933948  0.07622625  1
  C  C108  1  0.34606707  0.84701531  0.57401869  1
  C  C109  1  0.50054576  0.65364994  0.57385229  1
  C  C110  1  0.15297799  0.49899260  0.57386645  1
  C  C111  1  0.30778453  0.82851369  0.25621866  1
  C  C112  1  0.51814770  0.68440579  0.25623111  1
  C  C113  1  0.17394799  0.47394785  0.25655552  1
  C  C114  1  0.29745145  0.47776005  0.75574281  1
  C  C115  1  0.18064580  0.70369343  0.75641587  1
  C  C116  1  0.52206159  0.81948709  0.75593214  1
