# generated using pymatgen
data_Cu11NiC58
_symmetry_space_group_name_H-M   'P 1'
_cell_length_a   18.19836196
_cell_length_b   9.10537974
_cell_length_c   23.71753611
_cell_angle_alpha   89.99432459
_cell_angle_beta   89.98919357
_cell_angle_gamma   119.99044122
_symmetry_Int_Tables_number   1
_chemical_formula_structural   Cu11NiC58
_chemical_formula_sum   'Cu33 Ni3 C174'
_cell_volume   3403.86532235
_cell_formula_units_Z   3
loop_
 _symmetry_equiv_pos_site_id
 _symmetry_equiv_pos_as_xyz
  1  'x, y, z'
loop_
 _atom_site_type_symbol
 _atom_site_label
 _atom_site_symmetry_multiplicity
 _atom_site_fract_x
 _atom_site_fract_y
 _atom_site_fract_z
 _atom_site_occupancy
  C  C0  1  0.00141257  0.98503227  0.49121155  1
  C  C1  1  0.49222471  0.01023170  0.99911059  1
  C  C2  1  0.33634421  0.33610289  0.84144631  1
  C  C3  1  0.84628265  0.35550522  0.82636619  1
  C  C4  1  0.33430124  0.33948925  0.33283409  1
  C  C5  1  0.83808994  0.34079545  0.33975539  1
  C  C6  1  0.00020561  0.99511891  0.35385022  1
  C  C7  1  0.49870449  0.99661757  0.35334904  1
  C  C8  1  0.99647080  0.99341200  0.85714504  1
  C  C9  1  0.50185839  0.00856326  0.85853468  1
  C  C10  1  0.49642198  0.99916843  0.15385885  1
  C  C11  1  0.33209614  0.33173472  0.68569557  1
  C  C12  1  0.83718772  0.33714156  0.68426038  1
  C  C13  1  0.33980696  0.33933916  0.18232907  1
  C  C14  1  0.82782140  0.32536037  0.18314275  1
  C  C15  1  0.33237053  0.32638661  0.97725361  1
  C  C16  1  0.84021880  0.33964988  0.98098690  1
  C  C17  1  0.33255724  0.33028354  0.48057730  1
  C  C18  1  0.84247758  0.34541211  0.47808392  1
  C  C19  1  0.16853800  0.67017309  0.02312868  1
  C  C20  1  0.16204250  0.66715425  0.52157210  1
  C  C21  1  0.66646334  0.66587650  0.52283854  1
  C  C22  1  0.00111702  0.99103882  0.65161015  1
  C  C23  1  0.49863342  0.99969914  0.64740208  1
  C  C24  1  0.00087905  0.00002994  0.14963248  1
  C  C25  1  0.66188934  0.65417405  0.01923051  1
  C  C26  1  0.16204591  0.66379706  0.31661722  1
  C  C27  1  0.66759931  0.66762122  0.31477850  1
  C  C28  1  0.16289958  0.66676902  0.81086216  1
  C  C29  1  0.66239488  0.65801564  0.81082199  1
  Ni  Ni30  1  0.99775972  0.70312438  0.75464205  1
  Ni  Ni31  1  0.52135262  0.37705359  0.91570034  1
  Ni  Ni32  1  0.01604110  0.66635359  0.41849420  1
  Cu  Cu33  1  0.14446765  0.99217673  0.24961353  1
  Cu  Cu34  1  0.64999696  0.99311194  0.25406646  1
  Cu  Cu35  1  0.34582147  0.69708899  0.25386036  1
  Cu  Cu36  1  0.85102247  0.71071704  0.25047517  1
  Cu  Cu37  1  0.00406570  0.29605412  0.24985122  1
  Cu  Cu38  1  0.50438357  0.30839436  0.25445697  1
  Cu  Cu39  1  0.14319413  0.29478935  0.75197880  1
  Cu  Cu40  1  0.64249818  0.29313160  0.75048705  1
  Cu  Cu41  1  0.50460544  0.71546133  0.75103040  1
  Cu  Cu42  1  0.35332844  0.99115177  0.75101015  1
  Cu  Cu43  1  0.85154513  0.98996467  0.75173000  1
  Cu  Cu44  1  0.48041144  0.32382033  0.58654675  1
  Cu  Cu45  1  0.98162753  0.31676355  0.58612616  1
  Cu  Cu46  1  0.18062754  0.03981056  0.58639202  1
  Cu  Cu47  1  0.68064011  0.03814051  0.58661923  1
  Cu  Cu48  1  0.33794024  0.63718452  0.58642708  1
  Cu  Cu49  1  0.83865911  0.64147294  0.58646350  1
  Cu  Cu50  1  0.48645406  0.63739871  0.07943257  1
  Cu  Cu51  1  0.98039696  0.63798445  0.08709843  1
  Cu  Cu52  1  0.33674375  0.03869350  0.08269106  1
  Cu  Cu53  1  0.83465723  0.02681254  0.08365686  1
  Cu  Cu54  1  0.18056906  0.32467198  0.08656740  1
  Cu  Cu55  1  0.68392406  0.33562124  0.07963610  1
  Cu  Cu56  1  0.30762659  0.66206443  0.91328316  1
  Cu  Cu57  1  0.80247285  0.66369393  0.91566911  1
  Cu  Cu58  1  0.02390186  0.38690203  0.91342283  1
  Cu  Cu59  1  0.16768680  0.95135616  0.91329376  1
  Cu  Cu60  1  0.66910903  0.94273546  0.91632353  1
  Cu  Cu61  1  0.30805748  0.95407862  0.41381358  1
  Cu  Cu62  1  0.80767122  0.95329880  0.41472457  1
  Cu  Cu63  1  0.16937089  0.38326986  0.41440590  1
  Cu  Cu64  1  0.66741460  0.38209504  0.41382996  1
  Cu  Cu65  1  0.52332596  0.66198108  0.41413641  1
  C  C66  1  0.10571622  0.01920644  0.29867180  1
  C  C67  1  0.60905618  0.01818271  0.30286012  1
  C  C68  1  0.40087065  0.77964820  0.30235019  1
  C  C69  1  0.90241663  0.78687011  0.29987136  1
  C  C70  1  0.49227207  0.20167215  0.30324249  1
  C  C71  1  0.98969346  0.19262508  0.29944294  1
  C  C72  1  0.10487906  0.19358621  0.80141684  1
  C  C73  1  0.60431268  0.19344131  0.80057925  1
  C  C74  1  0.49339334  0.79248084  0.80095957  1
  C  C75  1  0.99049309  0.79902193  0.80673122  1
  C  C76  1  0.40652664  0.02064509  0.80002013  1
  C  C77  1  0.90265975  0.02138460  0.80152739  1
  C  C78  1  0.39763836  0.96863464  0.69943856  1
  C  C79  1  0.89369237  0.96447685  0.70063332  1
  C  C80  1  0.08875062  0.21128554  0.69998089  1
  C  C81  1  0.58664261  0.20980942  0.69992249  1
  C  C82  1  0.01152293  0.83494561  0.69704106  1
  C  C83  1  0.51701481  0.82399807  0.69982566  1
  C  C84  1  0.38001339  0.79581718  0.20190143  1
  C  C85  1  0.89438444  0.82312019  0.19939328  1
  C  C86  1  0.01384155  0.20123425  0.19864533  1
  C  C87  1  0.52368940  0.24855189  0.20284087  1
  C  C88  1  0.08606796  0.97052810  0.19849435  1
  C  C89  1  0.60082391  0.95635813  0.20225296  1
  C  C90  1  0.44102628  0.34803790  0.63617262  1
  C  C91  1  0.94097843  0.34140278  0.63522397  1
  C  C92  1  0.23098165  0.12419186  0.63628641  1
  C  C93  1  0.73133118  0.11530521  0.63639357  1
  C  C94  1  0.32812045  0.53516874  0.63629672  1
  C  C95  1  0.82718618  0.53939710  0.63606886  1
  C  C96  1  0.45733767  0.53877506  0.13110301  1
  C  C97  1  0.93928937  0.53118164  0.13586518  1
  C  C98  1  0.33005439  0.12240788  0.13428528  1
  C  C99  1  0.81400730  0.09387269  0.13311826  1
  C  C100  1  0.23312399  0.34948478  0.13579701  1
  C  C101  1  0.73361209  0.37189639  0.13111078  1
  C  C102  1  0.20884454  0.27895059  0.03576663  1
  C  C103  1  0.72653932  0.31544848  0.03014092  1
  C  C104  1  0.43386781  0.55303204  0.03030159  1
  C  C105  1  0.92820079  0.57965550  0.03608658  1
  C  C106  1  0.34661447  0.14360698  0.03214999  1
  C  C107  1  0.85757951  0.13718502  0.03427842  1
  C  C108  1  0.21393563  0.14341655  0.53514568  1
  C  C109  1  0.70958807  0.14229307  0.53613259  1
  C  C110  1  0.36104272  0.57637799  0.53610506  1
  C  C111  1  0.85954425  0.57968500  0.53539458  1
  C  C112  1  0.42803585  0.27987993  0.53598903  1
  C  C113  1  0.92876689  0.27435817  0.53503588  1
  C  C114  1  0.26928107  0.67771399  0.96513098  1
  C  C115  1  0.75633349  0.67215258  0.96713621  1
  C  C116  1  0.06965316  0.46699058  0.96474768  1
  C  C117  1  0.58296405  0.49855434  0.97077171  1
  C  C118  1  0.16107095  0.85797596  0.96422472  1
  C  C119  1  0.66604489  0.84391000  0.96783707  1
  C  C120  1  0.27075976  0.86157425  0.46506821  1
  C  C121  1  0.76812267  0.85719767  0.46547063  1
  C  C122  1  0.16456538  0.46346307  0.46563170  1
  C  C123  1  0.65956385  0.46205562  0.46453425  1
  C  C124  1  0.07189424  0.67803238  0.47076462  1
  C  C125  1  0.56989486  0.67570878  0.46523117  1
  C  C126  1  0.07795483  0.65745127  0.35948953  1
  C  C127  1  0.57541241  0.65184343  0.36304307  1
  C  C128  1  0.25148769  0.85090489  0.36176139  1
  C  C129  1  0.75435483  0.84883023  0.36297894  1
  C  C130  1  0.17470001  0.49235716  0.36186705  1
  C  C131  1  0.67468021  0.49883289  0.36234087  1
  C  C132  1  0.07479494  0.49853411  0.86182977  1
  C  C133  1  0.58178877  0.50321456  0.85931880  1
  C  C134  1  0.17391786  0.84865593  0.86181048  1
  C  C135  1  0.67539317  0.85398896  0.86355097  1
  C  C136  1  0.25550106  0.65749299  0.86198954  1
  C  C137  1  0.75077673  0.65179564  0.86340050  1
  C  C138  1  0.00855571  0.83378926  0.41332775  1
  C  C139  1  0.51605950  0.81086945  0.40507473  1
  C  C140  1  0.39098844  0.97266881  0.40419372  1
  C  C141  1  0.89159592  0.97398642  0.40741235  1
  C  C142  1  0.09323763  0.21844697  0.40713243  1
  C  C143  1  0.59206415  0.22060422  0.40391306  1
  C  C144  1  0.01600268  0.22331709  0.90501240  1
  C  C145  1  0.52594537  0.20805335  0.91997069  1
  C  C146  1  0.09425893  0.96940746  0.90621758  1
  C  C147  1  0.59050980  0.94788437  0.91464425  1
  C  C148  1  0.39320908  0.81086898  0.90826904  1
  C  C149  1  0.88240077  0.81853320  0.91410387  1
  C  C150  1  0.48901609  0.16284767  0.60093823  1
  C  C151  1  0.98965769  0.15795669  0.59937413  1
  C  C152  1  0.09168189  0.02578478  0.59661873  1
  C  C153  1  0.59061710  0.02050730  0.60265046  1
  C  C154  1  0.41966175  0.81600149  0.60147951  1
  C  C155  1  0.91858275  0.82191348  0.59789568  1
  C  C156  1  0.50382932  0.81204216  0.08481463  1
  C  C157  1  0.98916831  0.81539938  0.10242135  1
  C  C158  1  0.41420219  0.02030109  0.08559233  1
  C  C159  1  0.91047191  0.00424770  0.09897916  1
  C  C160  1  0.09000849  0.16121641  0.10256986  1
  C  C161  1  0.59716440  0.19463696  0.08499432  1
  C  C162  1  0.33923767  0.13370894  0.74156304  1
  C  C163  1  0.83253408  0.12595378  0.74234680  1
  C  C164  1  0.22947115  0.32532433  0.74286097  1
  C  C165  1  0.72785798  0.32253304  0.74173108  1
  C  C166  1  0.43485825  0.54267072  0.74219327  1
  C  C167  1  0.92499367  0.51325806  0.74576103  1
  C  C168  1  0.33223915  0.52307553  0.24858209  1
  C  C169  1  0.83636224  0.53964994  0.24078460  1
  C  C170  1  0.43306304  0.34148935  0.25005316  1
  C  C171  1  0.93350517  0.32476180  0.23844435  1
  C  C172  1  0.22870935  0.13648105  0.23932824  1
  C  C173  1  0.73786460  0.13523817  0.24907036  1
  C  C174  1  0.31016373  0.50244697  0.91142692  1
  C  C175  1  0.80592242  0.50579079  0.91757505  1
  C  C176  1  0.43564747  0.38134827  0.91152192  1
  C  C177  1  0.94075782  0.38107087  0.91090191  1
  C  C178  1  0.24787607  0.11522807  0.90932914  1
  C  C179  1  0.74631534  0.10914277  0.91875688  1
  C  C180  1  0.31003316  0.11870727  0.41116858  1
  C  C181  1  0.80644801  0.11351303  0.41170574  1
  C  C182  1  0.24818866  0.37288172  0.41162810  1
  C  C183  1  0.74669325  0.37670894  0.41126143  1
  C  C184  1  0.44083600  0.50206513  0.41166510  1
  C  C185  1  0.92921392  0.48902485  0.40922336  1
  C  C186  1  0.16014276  0.45844318  0.07989998  1
  C  C187  1  0.67646678  0.49710884  0.06829632  1
  C  C188  1  0.06639632  0.67235269  0.07943485  1
  C  C189  1  0.57656299  0.65721207  0.06774813  1
  C  C190  1  0.26106185  0.87080618  0.07843303  1
  C  C191  1  0.76291200  0.85366270  0.06988520  1
  C  C192  1  0.16540643  0.86906042  0.58128982  1
  C  C193  1  0.66043464  0.86318580  0.57906496  1
  C  C194  1  0.27078265  0.67479268  0.57952836  1
  C  C195  1  0.76903535  0.67543420  0.57930504  1
  C  C196  1  0.06769155  0.45609228  0.57913924  1
  C  C197  1  0.56721779  0.45998174  0.57921872  1
  C  C198  1  0.14855518  0.83186524  0.25457136  1
  C  C199  1  0.65874507  0.83547891  0.26637805  1
  C  C200  1  0.25987110  0.68227188  0.26495679  1
  C  C201  1  0.76582218  0.70074686  0.25782038  1
  C  C202  1  0.08542347  0.46279226  0.25538566  1
  C  C203  1  0.58382207  0.48469391  0.26618654  1
  C  C204  1  0.14971324  0.46730995  0.75881582  1
  C  C205  1  0.64898921  0.46789660  0.75748857  1
  C  C206  1  0.09084800  0.69716677  0.76398266  1
  C  C207  1  0.58654590  0.70499814  0.75795764  1
  C  C208  1  0.26931467  0.83078366  0.75707831  1
  C  C209  1  0.76627066  0.82595246  0.76051861  1
