# generated using pymatgen
data_Cu2NiC8
_symmetry_space_group_name_H-M   'P 1'
_cell_length_a   4.12221714
_cell_length_b   5.83523306
_cell_length_c   5.83523306
_cell_angle_alpha   90.33870685
_cell_angle_beta   90.00000000
_cell_angle_gamma   90.00000000
_symmetry_Int_Tables_number   1
_chemical_formula_structural   Cu2NiC8
_chemical_formula_sum   'Cu2 Ni1 C8'
_cell_volume   140.35881378
_cell_formula_units_Z   1
loop_
 _symmetry_equiv_pos_site_id
 _symmetry_equiv_pos_as_xyz
  1  'x, y, z'
loop_
 _atom_site_type_symbol
 _atom_site_label
 _atom_site_symmetry_multiplicity
 _atom_site_fract_x
 _atom_site_fract_y
 _atom_site_fract_z
 _atom_site_occupancy
  C  C0  1  0.50000000  0.40429821  0.90429821  1
  C  C1  1  0.50000000  0.07074993  0.57074993  1
  Ni  Ni2  1  0.50000000  0.73899193  0.23899193  1
  Cu  Cu3  1  0.00000000  0.49152677  0.50495232  1
  Cu  Cu4  1  0.00000000  0.00495232  0.99152677  1
  C  C5  1  0.00000000  0.72215585  0.77430306  1
  C  C6  1  0.00000000  0.22589412  0.72589412  1
  C  C7  1  0.00000000  0.77424566  0.27424566  1
  C  C8  1  0.00000000  0.27430306  0.22215585  1
  C  C9  1  0.50000000  0.99005691  0.00520625  1
  C  C10  1  0.50000000  0.50520625  0.49005691  1
