# generated using pymatgen
data_Cu4NiC15
_symmetry_space_group_name_H-M   'P 1'
_cell_length_a   3.83194300
_cell_length_b   8.15761700
_cell_length_c   8.20073500
_cell_angle_alpha   90.00000000
_cell_angle_beta   90.00000000
_cell_angle_gamma   90.00000000
_symmetry_Int_Tables_number   1
_chemical_formula_structural   Cu4NiC15
_chemical_formula_sum   'Cu4 Ni1 C15'
_cell_volume   256.35106730
_cell_formula_units_Z   1
loop_
 _symmetry_equiv_pos_site_id
 _symmetry_equiv_pos_as_xyz
  1  'x, y, z'
loop_
 _atom_site_type_symbol
 _atom_site_label
 _atom_site_symmetry_multiplicity
 _atom_site_fract_x
 _atom_site_fract_y
 _atom_site_fract_z
 _atom_site_occupancy
  C  C0  1  0.50000100  0.00000000  0.72949400  1
  C  C1  1  0.50000100  0.00000000  0.27050600  1
  C  C2  1  0.50000100  0.50000000  0.29122300  1
  C  C3  1  0.50000100  0.50000000  0.70877800  1
  Ni  Ni4  1  0.00000000  0.50000000  0.00000000  1
  Cu  Cu5  1  0.00000000  0.21971400  0.00000000  1
  Cu  Cu6  1  0.00000000  0.78028600  0.00000000  1
  Cu  Cu7  1  0.00000000  0.74157000  0.49999900  1
  Cu  Cu8  1  0.00000000  0.25843000  0.49999900  1
  C  C9  1  0.00000000  0.32113600  0.78175200  1
  C  C10  1  0.00000000  0.67886400  0.21824800  1
  C  C11  1  0.00000000  0.32113600  0.21824800  1
  C  C12  1  0.00000000  0.67886400  0.78175200  1
  C  C13  1  0.50000100  0.27399300  0.49999900  1
  C  C14  1  0.50000100  0.72600800  0.49999900  1
  C  C15  1  0.50000100  0.34028400  0.00000000  1
  C  C16  1  0.50000100  0.65971600  0.00000000  1
  C  C17  1  0.00000000  0.00000000  0.00000000  1
  C  C18  1  0.00000000  0.50000000  0.49999900  1
  C  C19  1  0.00000000  0.00000000  0.49999900  1
