# generated using pymatgen
data_Cu3NiC10
_symmetry_space_group_name_H-M   'P 1'
_cell_length_a   3.95813100
_cell_length_b   3.70983200
_cell_length_c   14.59250200
_cell_angle_alpha   90.00000000
_cell_angle_beta   90.00000000
_cell_angle_gamma   90.00000000
_symmetry_Int_Tables_number   1
_chemical_formula_structural   Cu3NiC10
_chemical_formula_sum   'Cu3 Ni1 C10'
_cell_volume   214.27631460
_cell_formula_units_Z   1
loop_
 _symmetry_equiv_pos_site_id
 _symmetry_equiv_pos_as_xyz
  1  'x, y, z'
loop_
 _atom_site_type_symbol
 _atom_site_label
 _atom_site_symmetry_multiplicity
 _atom_site_fract_x
 _atom_site_fract_y
 _atom_site_fract_z
 _atom_site_occupancy
  C  C0  1  0.50000000  0.50000000  0.08978100  1
  C  C1  1  0.50000000  0.50000000  0.77453200  1
  C  C2  1  0.50000000  0.50000000  0.51997200  1
  Ni  Ni3  1  0.00000000  0.50000000  0.27804000  1
  Cu  Cu4  1  0.00000000  0.00000000  0.63243500  1
  Cu  Cu5  1  0.00000000  0.00000000  0.42226500  1
  Cu  Cu6  1  0.00000000  0.00000000  0.93798100  1
  C  C7  1  0.50000000  0.00000000  0.43052400  1
  C  C8  1  0.00000000  0.00000000  0.80421200  1
  C  C9  1  0.50000000  0.00000000  0.62469600  1
  C  C10  1  0.00000000  0.50000000  0.41045600  1
  C  C11  1  0.00000000  0.50000000  0.60215500  1
  C  C12  1  0.00000000  0.00000000  0.21048800  1
  C  C13  1  0.00000000  0.50000000  0.98468700  1
