# generated using pymatgen
data_CuNi2C17
_symmetry_space_group_name_H-M   'P 1'
_cell_length_a   8.89215734
_cell_length_b   8.88562691
_cell_length_c   22.22365261
_cell_angle_alpha   90.07864791
_cell_angle_beta   89.86350346
_cell_angle_gamma   120.01117638
_symmetry_Int_Tables_number   1
_chemical_formula_structural   CuNi2C17
_chemical_formula_sum   'Cu6 Ni12 C102'
_cell_volume   1520.51644138
_cell_formula_units_Z   6
loop_
 _symmetry_equiv_pos_site_id
 _symmetry_equiv_pos_as_xyz
  1  'x, y, z'
loop_
 _atom_site_type_symbol
 _atom_site_label
 _atom_site_symmetry_multiplicity
 _atom_site_fract_x
 _atom_site_fract_y
 _atom_site_fract_z
 _atom_site_occupancy
  C  C0  1  0.99928530  0.99732905  0.50043300  1
  C  C1  1  0.00652624  0.00175116  0.00186388  1
  C  C2  1  0.66562190  0.32768484  0.83148828  1
  C  C3  1  0.67286488  0.33503534  0.33653381  1
  C  C4  1  0.33146845  0.65965899  0.16711840  1
  C  C5  1  0.33710624  0.66710494  0.66396821  1
  C  C6  1  0.63688237  0.00188080  0.25134389  1
  C  C7  1  0.99981033  0.62944074  0.25169787  1
  C  C8  1  0.99715262  0.36211297  0.74871075  1
  C  C9  1  0.36886184  0.00219551  0.74976301  1
  C  C10  1  0.29991207  0.33528711  0.58317722  1
  C  C11  1  0.66833606  0.96495241  0.58445195  1
  C  C12  1  0.66619633  0.69339850  0.08546900  1
  C  C13  1  0.03217987  0.33260145  0.08618098  1
  C  C14  1  0.97500764  0.66860851  0.91751507  1
  C  C15  1  0.33123227  0.29945411  0.91809782  1
  C  C16  1  0.33223932  0.03094740  0.41751151  1
  C  C17  1  0.70001089  0.66571123  0.41871919  1
  C  C18  1  0.99886795  0.00692975  0.84982910  1
  C  C19  1  0.66590978  0.33932827  0.18922106  1
  C  C20  1  0.66340866  0.32813313  0.98290898  1
  C  C21  1  0.32676220  0.66773313  0.02012389  1
  C  C22  1  0.33100689  0.66046168  0.31453555  1
  C  C23  1  0.34108220  0.66904827  0.81051133  1
  Ni  Ni24  1  0.72036737  0.72197420  0.25020524  1
  Ni  Ni25  1  0.00394408  0.27813385  0.25039500  1
  Ni  Ni26  1  0.29479042  0.28821438  0.74370767  1
  Ni  Ni27  1  0.71267386  0.00651260  0.74229241  1
  Ni  Ni28  1  0.37481494  0.04275812  0.58257702  1
  Ni  Ni29  1  0.67034468  0.62060312  0.58286332  1
  Ni  Ni30  1  0.96358066  0.63913587  0.08596290  1
  Ni  Ni31  1  0.36282835  0.32262267  0.08508721  1
  Ni  Ni32  1  0.03633562  0.37143673  0.91564208  1
  Ni  Ni33  1  0.33564927  0.96392394  0.91439124  1
  Ni  Ni34  1  0.63078334  0.96731517  0.41890690  1
  Ni  Ni35  1  0.03847862  0.66224555  0.41929903  1
  C  C36  1  0.98860624  0.99497455  0.35455204  1
  C  C37  1  0.99875744  0.99027155  0.64620337  1
  C  C38  1  0.00750732  0.00237924  0.14868791  1
  C  C39  1  0.65588722  0.32837681  0.68306952  1
  C  C40  1  0.67373810  0.33597083  0.48365609  1
  C  C41  1  0.33922137  0.68054348  0.51893994  1
  Cu  Cu42  1  0.28007142  0.00235589  0.25234379  1
  Cu  Cu43  1  0.98939000  0.70327315  0.74623730  1
  Cu  Cu44  1  0.95654668  0.33919965  0.58333520  1
  Cu  Cu45  1  0.67059250  0.03826404  0.08669591  1
  Cu  Cu46  1  0.62779624  0.66834580  0.91786014  1
  Cu  Cu47  1  0.32884563  0.37143979  0.42050504  1
  C  C48  1  0.20053836  0.02996407  0.31001786  1
  C  C49  1  0.84077954  0.80051104  0.31084344  1
  C  C50  1  0.96654952  0.15313694  0.30899029  1
  C  C51  1  0.21683447  0.17076385  0.80526613  1
  C  C52  1  0.96235918  0.78082804  0.80511854  1
  C  C53  1  0.83192329  0.04552575  0.80239366  1
  C  C54  1  0.80570682  0.97163435  0.68470618  1
  C  C55  1  0.15987940  0.19224820  0.68724522  1
  C  C56  1  0.03366722  0.83231058  0.69292069  1
  C  C57  1  0.80711624  0.84215889  0.19000222  1
  C  C58  1  0.03063777  0.19465657  0.18823874  1
  C  C59  1  0.16418683  0.96434997  0.19545839  1
  C  C60  1  0.87547186  0.36874240  0.64101499  1
  C  C61  1  0.50170860  0.12437011  0.64187214  1
  C  C62  1  0.62690219  0.48910804  0.64019313  1
  C  C63  1  0.87585882  0.50828190  0.14323399  1
  C  C64  1  0.63912360  0.11927253  0.14282761  1
  C  C65  1  0.49590237  0.36426059  0.14055962  1
  C  C66  1  0.44636905  0.29488585  0.02353006  1
  C  C67  1  0.84152888  0.55371412  0.02614031  1
  C  C68  1  0.70306938  0.15734549  0.03134606  1
  C  C69  1  0.46422433  0.17217485  0.52406756  1
  C  C70  1  0.70013201  0.53386301  0.52205352  1
  C  C71  1  0.83202302  0.29699167  0.52850779  1
  C  C72  1  0.54834360  0.69642942  0.97512585  1
  C  C73  1  0.15952634  0.45575830  0.97506922  1
  C  C74  1  0.29966875  0.83809610  0.97220390  1
  C  C75  1  0.54227813  0.83251561  0.47677728  1
  C  C76  1  0.29934806  0.45675081  0.47672937  1
  C  C77  1  0.17714332  0.70694087  0.47495185  1
  C  C78  1  0.11864245  0.63063727  0.35739277  1
  C  C79  1  0.50740858  0.88374826  0.35922236  1
  C  C80  1  0.36776695  0.49245761  0.36456782  1
  C  C81  1  0.12707505  0.49310392  0.85651814  1
  C  C82  1  0.36335026  0.87621222  0.85408677  1
  C  C83  1  0.50857731  0.63470507  0.86286889  1
  C  C84  1  0.02562844  0.84383925  0.41152053  1
  C  C85  1  0.81850670  0.97331094  0.41164078  1
  C  C86  1  0.17112700  0.18770129  0.41174207  1
  C  C87  1  0.02572095  0.18376110  0.91225133  1
  C  C88  1  0.15659871  0.97328272  0.91125932  1
  C  C89  1  0.81062768  0.82503875  0.91061349  1
  C  C90  1  0.97338835  0.17163011  0.58740984  1
  C  C91  1  0.18367584  0.03075713  0.59105005  1
  C  C92  1  0.83906902  0.81995968  0.59031410  1
  C  C93  1  0.97060214  0.82507141  0.09366373  1
  C  C94  1  0.83690087  0.02450022  0.08965375  1
  C  C95  1  0.16831528  0.15397597  0.09173695  1
  C  C96  1  0.69861833  0.18611816  0.73753680  1
  C  C97  1  0.48570315  0.30219270  0.73924331  1
  C  C98  1  0.83228357  0.52041122  0.73909144  1
  C  C99  1  0.70386573  0.53067984  0.24756821  1
  C  C100  1  0.82725178  0.29504881  0.24717622  1
  C  C101  1  0.46439642  0.15656976  0.24652995  1
  C  C102  1  0.64264761  0.50348591  0.92162652  1
  C  C103  1  0.85250223  0.36519056  0.92149029  1
  C  C104  1  0.50064364  0.15846706  0.91920827  1
  C  C105  1  0.63876895  0.15531844  0.42853315  1
  C  C106  1  0.49703171  0.35654877  0.42447991  1
  C  C107  1  0.84080256  0.49432994  0.42703788  1
  C  C108  1  0.35142736  0.50073156  0.08055220  1
  C  C109  1  0.14941879  0.64698953  0.08131526  1
  C  C110  1  0.51378393  0.85564870  0.07949658  1
  C  C111  1  0.36404173  0.85188838  0.57558719  1
  C  C112  1  0.49083652  0.63827781  0.57543594  1
  C  C113  1  0.14219499  0.49809776  0.57583375  1
  C  C114  1  0.29863953  0.83598074  0.25543408  1
  C  C115  1  0.53028384  0.70831622  0.25428175  1
  C  C116  1  0.16790344  0.47799061  0.25331072  1
  C  C117  1  0.30192214  0.47417404  0.74996775  1
  C  C118  1  0.15660576  0.68889519  0.75131091  1
  C  C119  1  0.51736009  0.84030517  0.74844360  1
