# generated using pymatgen
data_Cu2Ni2C5
_symmetry_space_group_name_H-M   'P 1'
_cell_length_a   5.71436707
_cell_length_b   5.71436707
_cell_length_c   3.72111720
_cell_angle_alpha   82.48696308
_cell_angle_beta   82.48696308
_cell_angle_gamma   97.14894850
_symmetry_Int_Tables_number   1
_chemical_formula_structural   Cu2Ni2C5
_chemical_formula_sum   'Cu2 Ni2 C5'
_cell_volume   118.18711824
_cell_formula_units_Z   1
loop_
 _symmetry_equiv_pos_site_id
 _symmetry_equiv_pos_as_xyz
  1  'x, y, z'
loop_
 _atom_site_type_symbol
 _atom_site_label
 _atom_site_symmetry_multiplicity
 _atom_site_fract_x
 _atom_site_fract_y
 _atom_site_fract_z
 _atom_site_occupancy
  C  C0  1  0.00000000  0.00000000  0.00000000  1
  C  C1  1  0.22322800  0.60125000  0.15856600  1
  C  C2  1  0.39875000  0.77677200  0.84143400  1
  C  C3  1  0.60125000  0.22322800  0.15856600  1
  C  C4  1  0.77677200  0.39875000  0.84143400  1
  Ni  Ni5  1  0.23624200  0.23624200  0.42053900  1
  Ni  Ni6  1  0.76375800  0.76375800  0.57946100  1
  Cu  Cu7  1  0.75703900  0.24296100  0.00000000  1
  Cu  Cu8  1  0.24296100  0.75703900  0.00000000  1
