# generated using pymatgen
data_CuNi2C
_symmetry_space_group_name_H-M   'P 1'
_cell_length_a   7.01646200
_cell_length_b   14.31017200
_cell_length_c   15.24623100
_cell_angle_alpha   90.00000000
_cell_angle_beta   90.00000000
_cell_angle_gamma   90.00000000
_symmetry_Int_Tables_number   1
_chemical_formula_structural   CuNi2C
_chemical_formula_sum   'Cu12 Ni24 C12'
_cell_volume   1530.82493214
_cell_formula_units_Z   12
loop_
 _symmetry_equiv_pos_site_id
 _symmetry_equiv_pos_as_xyz
  1  'x, y, z'
loop_
 _atom_site_type_symbol
 _atom_site_label
 _atom_site_symmetry_multiplicity
 _atom_site_fract_x
 _atom_site_fract_y
 _atom_site_fract_z
 _atom_site_occupancy
  C  C0  1  0.57981600  0.75000000  0.94424700  1
  C  C1  1  0.07981600  0.25000000  0.55575300  1
  C  C2  1  0.42018400  0.25000000  0.05575300  1
  C  C3  1  0.92018400  0.75000000  0.44424700  1
  C  C4  1  0.44313100  0.84724300  0.08932400  1
  C  C5  1  0.94313100  0.15275700  0.41067600  1
  C  C6  1  0.55686900  0.34724300  0.91067600  1
  C  C7  1  0.05686900  0.65275700  0.58932400  1
  C  C8  1  0.55686900  0.15275700  0.91067600  1
  C  C9  1  0.05686900  0.84724300  0.58932400  1
  C  C10  1  0.44313100  0.65275700  0.08932400  1
  C  C11  1  0.94313100  0.34724300  0.41067600  1
  Ni  Ni12  1  0.41672900  0.75000000  0.82011300  1
  Ni  Ni13  1  0.91672900  0.25000000  0.67988700  1
  Ni  Ni14  1  0.58327100  0.25000000  0.17988700  1
  Ni  Ni15  1  0.08327100  0.75000000  0.32011300  1
  Ni  Ni16  1  0.87630300  0.75000000  0.89806300  1
  Ni  Ni17  1  0.37630300  0.25000000  0.60193700  1
  Ni  Ni18  1  0.12369700  0.25000000  0.10193700  1
  Ni  Ni19  1  0.62369700  0.75000000  0.39806300  1
  Ni  Ni20  1  0.16814500  0.92226600  0.08135200  1
  Ni  Ni21  1  0.66814500  0.07773400  0.41864800  1
  Ni  Ni22  1  0.83185500  0.42226600  0.91864800  1
  Ni  Ni23  1  0.33185500  0.57773400  0.58135200  1
  Ni  Ni24  1  0.83185500  0.07773400  0.91864800  1
  Ni  Ni25  1  0.33185500  0.92226600  0.58135200  1
  Ni  Ni26  1  0.16814500  0.57773400  0.08135200  1
  Ni  Ni27  1  0.66814500  0.42226600  0.41864800  1
  Ni  Ni28  1  0.61114900  0.93839200  0.17596800  1
  Ni  Ni29  1  0.11114900  0.06160800  0.32403200  1
  Ni  Ni30  1  0.38885100  0.43839200  0.82403200  1
  Ni  Ni31  1  0.88885100  0.56160800  0.67596800  1
  Ni  Ni32  1  0.38885100  0.06160800  0.82403200  1
  Ni  Ni33  1  0.88885100  0.93839200  0.67596800  1
  Ni  Ni34  1  0.61114900  0.56160800  0.17596800  1
  Ni  Ni35  1  0.11114900  0.43839200  0.32403200  1
  Cu  Cu36  1  0.40806200  0.75000000  0.13880100  1
  Cu  Cu37  1  0.90806200  0.25000000  0.36119900  1
  Cu  Cu38  1  0.59193800  0.25000000  0.86119900  1
  Cu  Cu39  1  0.09193800  0.75000000  0.63880100  1
  Cu  Cu40  1  0.54023700  0.84623200  0.99456300  1
  Cu  Cu41  1  0.04023700  0.15376800  0.50543700  1
  Cu  Cu42  1  0.45976300  0.34623200  0.00543700  1
  Cu  Cu43  1  0.95976300  0.65376800  0.49456300  1
  Cu  Cu44  1  0.45976300  0.15376800  0.00543700  1
  Cu  Cu45  1  0.95976300  0.84623200  0.49456300  1
  Cu  Cu46  1  0.54023700  0.65376800  0.99456300  1
  Cu  Cu47  1  0.04023700  0.34623200  0.50543700  1
