# generated using pymatgen
data_Cu2Ni
_symmetry_space_group_name_H-M   'P 1'
_cell_length_a   7.11104551
_cell_length_b   7.11104551
_cell_length_c   7.93789520
_cell_angle_alpha   77.08783429
_cell_angle_beta   77.08783429
_cell_angle_gamma   89.99884913
_symmetry_Int_Tables_number   1
_chemical_formula_structural   Cu2Ni
_chemical_formula_sum   'Cu16 Ni8'
_cell_volume   380.82575393
_cell_formula_units_Z   8
loop_
 _symmetry_equiv_pos_site_id
 _symmetry_equiv_pos_as_xyz
  1  'x, y, z'
loop_
 _atom_site_type_symbol
 _atom_site_label
 _atom_site_symmetry_multiplicity
 _atom_site_fract_x
 _atom_site_fract_y
 _atom_site_fract_z
 _atom_site_occupancy
  Ni  Ni0  1  0.89027700  0.76905900  0.92679600  1
  Ni  Ni1  1  0.39697900  0.76978800  0.92351700  1
  Ni  Ni2  1  0.60302100  0.23021200  0.07648300  1
  Ni  Ni3  1  0.10972300  0.23094100  0.07320400  1
  Ni  Ni4  1  0.76978800  0.39697900  0.42351700  1
  Ni  Ni5  1  0.76905900  0.89027700  0.42679600  1
  Ni  Ni6  1  0.23021200  0.60302100  0.57648300  1
  Ni  Ni7  1  0.23094100  0.10972300  0.57320400  1
  Cu  Cu8  1  0.05716600  0.94283400  0.25000000  1
  Cu  Cu9  1  0.05783200  0.43315200  0.24719300  1
  Cu  Cu10  1  0.56684800  0.94216800  0.25280700  1
  Cu  Cu11  1  0.56772900  0.43227100  0.25000000  1
  Cu  Cu12  1  0.10726900  0.73119900  0.07898400  1
  Cu  Cu13  1  0.60222500  0.72994400  0.08337000  1
  Cu  Cu14  1  0.39777500  0.27005600  0.91663000  1
  Cu  Cu15  1  0.89273100  0.26880100  0.92101600  1
  Cu  Cu16  1  0.27005600  0.39777500  0.41663000  1
  Cu  Cu17  1  0.26880100  0.89273100  0.42101600  1
  Cu  Cu18  1  0.72994400  0.60222500  0.58337000  1
  Cu  Cu19  1  0.43227100  0.56772900  0.75000000  1
  Cu  Cu20  1  0.43315200  0.05783200  0.74719300  1
  Cu  Cu21  1  0.94216800  0.56684800  0.75280700  1
  Cu  Cu22  1  0.73119900  0.10726900  0.57898400  1
  Cu  Cu23  1  0.94283400  0.05716600  0.75000000  1
