# generated using pymatgen
data_Cu4Ni8C7
_symmetry_space_group_name_H-M   'P 1'
_cell_length_a   8.30949061
_cell_length_b   5.95630233
_cell_length_c   5.70592759
_cell_angle_alpha   65.69825264
_cell_angle_beta   66.24342796
_cell_angle_gamma   63.51752833
_symmetry_Int_Tables_number   1
_chemical_formula_structural   Cu4Ni8C7
_chemical_formula_sum   'Cu4 Ni8 C7'
_cell_volume   221.89369444
_cell_formula_units_Z   1
loop_
 _symmetry_equiv_pos_site_id
 _symmetry_equiv_pos_as_xyz
  1  'x, y, z'
loop_
 _atom_site_type_symbol
 _atom_site_label
 _atom_site_symmetry_multiplicity
 _atom_site_fract_x
 _atom_site_fract_y
 _atom_site_fract_z
 _atom_site_occupancy
  C  C0  1  0.50398370  0.50443137  0.96511213  1
  C  C1  1  0.85614213  0.67531842  0.68097738  1
  C  C2  1  0.67348372  0.33398502  0.36424910  1
  C  C3  1  0.25606301  0.64391956  0.59897209  1
  C  C4  1  0.16025500  0.32493014  0.32999741  1
  C  C5  1  0.49047637  0.99332449  0.99773041  1
  C  C6  1  0.00969395  0.99453336  0.99527921  1
  Ni  Ni7  1  0.67001926  0.02397234  0.64931718  1
  Ni  Ni8  1  0.32849442  0.36587026  0.94882566  1
  Ni  Ni9  1  0.02072859  0.80147817  0.79381405  1
  Ni  Ni10  1  0.41746886  0.42441638  0.38183752  1
  Ni  Ni11  1  0.31785590  0.95874216  0.35735471  1
  Ni  Ni12  1  0.66945122  0.63115698  0.03486517  1
  Ni  Ni13  1  0.02899262  0.31027338  0.70270429  1
  Ni  Ni14  1  0.02818143  0.69702415  0.31868246  1
  Cu  Cu15  1  0.32050074  0.86254023  0.90289728  1
  Cu  Cu16  1  0.65431895  0.54948160  0.59249452  1
  Cu  Cu17  1  0.95360870  0.21536490  0.23767346  1
  Cu  Cu18  1  0.69861143  0.14161709  0.07578497  1
