# generated using pymatgen
data_Cu3Ni2C3
_symmetry_space_group_name_H-M   'P 1'
_cell_length_a   10.45406570
_cell_length_b   10.45406570
_cell_length_c   17.30637100
_cell_angle_alpha   90.00000000
_cell_angle_beta   90.00000000
_cell_angle_gamma   112.09265157
_symmetry_Int_Tables_number   1
_chemical_formula_structural   Cu3Ni2C3
_chemical_formula_sum   'Cu24 Ni16 C24'
_cell_volume   1752.49955944
_cell_formula_units_Z   8
loop_
 _symmetry_equiv_pos_site_id
 _symmetry_equiv_pos_as_xyz
  1  'x, y, z'
loop_
 _atom_site_type_symbol
 _atom_site_label
 _atom_site_symmetry_multiplicity
 _atom_site_fract_x
 _atom_site_fract_y
 _atom_site_fract_z
 _atom_site_occupancy
  C  C0  1  0.16514600  0.83485400  0.25000000  1
  C  C1  1  0.83485400  0.16514600  0.75000000  1
  C  C2  1  0.98397000  0.44944800  0.60368300  1
  C  C3  1  0.01603000  0.55055200  0.10368300  1
  C  C4  1  0.44944800  0.98397000  0.39631700  1
  C  C5  1  0.55055200  0.01603000  0.89631700  1
  C  C6  1  0.22500800  0.25243400  0.39522700  1
  C  C7  1  0.77499200  0.74756600  0.89522700  1
  C  C8  1  0.25243400  0.22500800  0.60477300  1
  C  C9  1  0.74756600  0.77499200  0.10477300  1
  C  C10  1  0.60875700  0.32231600  0.51710900  1
  C  C11  1  0.39124300  0.67768400  0.01710900  1
  C  C12  1  0.32231600  0.60875700  0.48289100  1
  C  C13  1  0.67768400  0.39124300  0.98289100  1
  C  C14  1  0.88443500  0.14111900  0.49740200  1
  C  C15  1  0.11556500  0.85888100  0.99740200  1
  C  C16  1  0.14111900  0.88443500  0.50259800  1
  C  C17  1  0.85888100  0.11556500  0.00259800  1
  C  C18  1  0.37525700  0.62474300  0.25000000  1
  C  C19  1  0.62474300  0.37525700  0.75000000  1
  C  C20  1  0.98764700  0.47993600  0.87564900  1
  C  C21  1  0.01235300  0.52006400  0.37564900  1
  C  C22  1  0.47993600  0.98764700  0.12435100  1
  C  C23  1  0.52006400  0.01235300  0.62435100  1
  Ni  Ni24  1  0.85958300  0.66314900  0.02383600  1
  Ni  Ni25  1  0.14041700  0.33685100  0.52383600  1
  Ni  Ni26  1  0.66314900  0.85958300  0.97616400  1
  Ni  Ni27  1  0.33685100  0.14041700  0.47616400  1
  Ni  Ni28  1  0.91340000  0.59971500  0.96825000  1
  Ni  Ni29  1  0.08660000  0.40028500  0.46825000  1
  Ni  Ni30  1  0.59971500  0.91340000  0.03175000  1
  Ni  Ni31  1  0.40028500  0.08660000  0.53175000  1
  Ni  Ni32  1  0.71301900  0.27308800  0.65025500  1
  Ni  Ni33  1  0.28698100  0.72691200  0.15025500  1
  Ni  Ni34  1  0.27308800  0.71301900  0.34974500  1
  Ni  Ni35  1  0.72691200  0.28698100  0.84974500  1
  Ni  Ni36  1  0.78391300  0.22633900  0.90513600  1
  Ni  Ni37  1  0.21608700  0.77366000  0.40513600  1
  Ni  Ni38  1  0.22634000  0.78391300  0.09486400  1
  Ni  Ni39  1  0.77366000  0.21608700  0.59486400  1
  Cu  Cu40  1  0.24452500  0.73168900  0.62928900  1
  Cu  Cu41  1  0.75547500  0.26831100  0.12928900  1
  Cu  Cu42  1  0.73168900  0.24452500  0.37071100  1
  Cu  Cu43  1  0.26831100  0.75547500  0.87071100  1
  Cu  Cu44  1  0.85738700  0.61666500  0.50289200  1
  Cu  Cu45  1  0.14261300  0.38333500  0.00289200  1
  Cu  Cu46  1  0.61666500  0.85738700  0.49710800  1
  Cu  Cu47  1  0.38333500  0.14261300  0.99710800  1
  Cu  Cu48  1  0.13456300  0.36928700  0.74075400  1
  Cu  Cu49  1  0.86543700  0.63071300  0.24075400  1
  Cu  Cu50  1  0.36928700  0.13456300  0.25924600  1
  Cu  Cu51  1  0.63071300  0.86543700  0.75924600  1
  Cu  Cu52  1  0.50574400  0.49427600  0.38392800  1
  Cu  Cu53  1  0.49425600  0.50572400  0.88392800  1
  Cu  Cu54  1  0.49427600  0.50574400  0.61607200  1
  Cu  Cu55  1  0.50572400  0.49425600  0.11607200  1
  Cu  Cu56  1  0.89763800  0.63231100  0.74235800  1
  Cu  Cu57  1  0.10236200  0.36768900  0.24235800  1
  Cu  Cu58  1  0.63231100  0.89763800  0.25764200  1
  Cu  Cu59  1  0.36768900  0.10236200  0.75764200  1
  Cu  Cu60  1  0.02468600  0.01353000  0.13103000  1
  Cu  Cu61  1  0.97531400  0.98647000  0.63103000  1
  Cu  Cu62  1  0.01353000  0.02468600  0.86897000  1
  Cu  Cu63  1  0.98647000  0.97531400  0.36897000  1
