# generated using pymatgen
data_Cu(NiC7)2
_symmetry_space_group_name_H-M   'P 1'
_cell_length_a   8.96391645
_cell_length_b   8.96391614
_cell_length_c   22.81395840
_cell_angle_alpha   90.00000000
_cell_angle_beta   90.00000000
_cell_angle_gamma   120.00000110
_symmetry_Int_Tables_number   1
_chemical_formula_structural   Cu(NiC7)2
_chemical_formula_sum   'Cu6 Ni12 C84'
_cell_volume   1587.54797060
_cell_formula_units_Z   6
loop_
 _symmetry_equiv_pos_site_id
 _symmetry_equiv_pos_as_xyz
  1  'x, y, z'
loop_
 _atom_site_type_symbol
 _atom_site_label
 _atom_site_symmetry_multiplicity
 _atom_site_fract_x
 _atom_site_fract_y
 _atom_site_fract_z
 _atom_site_occupancy
  C  C0  1  0.00000000  -0.00000000  0.36755904  1
  C  C1  1  0.00000000  -0.00000000  0.86755904  1
  C  C2  1  0.66666700  0.33333300  0.68727171  1
  C  C3  1  0.66666700  0.33333300  0.18727171  1
  C  C4  1  0.00000000  -0.00000000  0.64133193  1
  C  C5  1  0.00000000  -0.00000000  0.14133193  1
  C  C6  1  0.66666700  0.33333300  0.97840885  1
  C  C7  1  0.66666700  0.33333300  0.47840885  1
  C  C8  1  0.33333300  0.66666700  0.02352878  1
  C  C9  1  0.33333300  0.66666700  0.52352878  1
  C  C10  1  0.33333300  0.66666700  0.31208382  1
  C  C11  1  0.33333300  0.66666700  0.81208382  1
  Ni  Ni12  1  0.95583221  0.33011413  0.58273643  1
  Ni  Ni13  1  0.37428292  0.04416779  0.58273643  1
  Ni  Ni14  1  0.66988587  0.62571708  0.58273643  1
  Ni  Ni15  1  0.95583221  0.62571708  0.08273643  1
  Ni  Ni16  1  0.66988587  0.04416779  0.08273643  1
  Ni  Ni17  1  0.37428292  0.33011413  0.08273643  1
  Ni  Ni18  1  0.60039690  0.64331737  0.91775888  1
  Ni  Ni19  1  0.04291947  0.39960310  0.91775888  1
  Ni  Ni20  1  0.35668263  0.95708053  0.91775888  1
  Ni  Ni21  1  0.60039690  0.95708053  0.41775888  1
  Ni  Ni22  1  0.35668263  0.39960310  0.41775888  1
  Ni  Ni23  1  0.04291947  0.64331737  0.41775888  1
  Cu  Cu24  1  0.27500764  0.98188844  0.25028545  1
  Cu  Cu25  1  0.70688080  0.72499236  0.25028545  1
  Cu  Cu26  1  0.01811156  0.29311920  0.25028545  1
  Cu  Cu27  1  0.27500764  0.29311920  0.75028545  1
  Cu  Cu28  1  0.01811156  0.72499236  0.75028545  1
  Cu  Cu29  1  0.70688080  0.98188844  0.75028545  1
  C  C30  1  0.19718422  0.00630320  0.30198121  1
  C  C31  1  0.80911899  0.80281578  0.30198121  1
  C  C32  1  0.99369680  0.19088101  0.30198121  1
  C  C33  1  0.19718422  0.19088101  0.80198121  1
  C  C34  1  0.99369680  0.80281578  0.80198121  1
  C  C35  1  0.80911899  0.00630320  0.80198121  1
  C  C36  1  0.79380646  0.95695645  0.69653191  1
  C  C37  1  0.16314999  0.20619354  0.69653191  1
  C  C38  1  0.04304355  0.83685001  0.69653191  1
  C  C39  1  0.79380646  0.83685001  0.19653191  1
  C  C40  1  0.04304355  0.20619354  0.19653191  1
  C  C41  1  0.16314999  0.95695645  0.19653191  1
  C  C42  1  0.90059140  0.38035879  0.63701251  1
  C  C43  1  0.47976839  0.09940860  0.63701251  1
  C  C44  1  0.61964121  0.52023161  0.63701251  1
  C  C45  1  0.90059140  0.52023161  0.13701251  1
  C  C46  1  0.61964121  0.09940860  0.13701251  1
  C  C47  1  0.47976839  0.38035879  0.13701251  1
  C  C48  1  0.46164868  0.29195857  0.02995764  1
  C  C49  1  0.83031090  0.53835132  0.02995764  1
  C  C50  1  0.70804143  0.16968910  0.02995764  1
  C  C51  1  0.46164868  0.16968910  0.52995764  1
  C  C52  1  0.70804143  0.53835132  0.52995764  1
  C  C53  1  0.83031090  0.29195857  0.52995764  1
  C  C54  1  0.50187704  0.65532815  0.97115617  1
  C  C55  1  0.15345011  0.49812296  0.97115617  1
  C  C56  1  0.34467185  0.84654989  0.97115617  1
  C  C57  1  0.50187704  0.84654989  0.47115617  1
  C  C58  1  0.34467185  0.49812296  0.47115617  1
  C  C59  1  0.15345011  0.65532815  0.47115617  1
  C  C60  1  0.13162656  0.61670483  0.36159610  1
  C  C61  1  0.48507727  0.86837344  0.36159610  1
  C  C62  1  0.38329517  0.51492273  0.36159610  1
  C  C63  1  0.13162656  0.51492273  0.86159610  1
  C  C64  1  0.38329517  0.86837344  0.86159610  1
  C  C65  1  0.48507727  0.61670483  0.86159610  1
  C  C66  1  0.02449614  0.79840407  0.41380719  1
  C  C67  1  0.77390793  0.97550386  0.41380719  1
  C  C68  1  0.20159593  0.22609207  0.41380719  1
  C  C69  1  0.02449614  0.22609207  0.91380719  1
  C  C70  1  0.20159593  0.97550386  0.91380719  1
  C  C71  1  0.77390793  0.79840407  0.91380719  1
  C  C72  1  0.96666614  0.16048247  0.59361933  1
  C  C73  1  0.19381633  0.03333386  0.59361933  1
  C  C74  1  0.83951753  0.80618367  0.59361933  1
  C  C75  1  0.96666614  0.80618367  0.09361933  1
  C  C76  1  0.83951753  0.03333386  0.09361933  1
  C  C77  1  0.19381633  0.16048247  0.09361933  1
  C  C78  1  0.67006670  0.11877292  0.74063842  1
  C  C79  1  0.44870721  0.32993330  0.74063842  1
  C  C80  1  0.88122708  0.55129279  0.74063842  1
  C  C81  1  0.67006670  0.55129279  0.24063842  1
  C  C82  1  0.88122708  0.32993330  0.24063842  1
  C  C83  1  0.44870721  0.11877292  0.24063842  1
  C  C84  1  0.60871129  0.47492237  0.92691944  1
  C  C85  1  0.86621208  0.39128871  0.92691944  1
  C  C86  1  0.52507763  0.13378792  0.92691944  1
  C  C87  1  0.60871129  0.13378792  0.42691944  1
  C  C88  1  0.52507763  0.39128871  0.42691944  1
  C  C89  1  0.86621208  0.47492237  0.42691944  1
  C  C90  1  0.32727259  0.47060244  0.06609484  1
  C  C91  1  0.14332886  0.67272741  0.06609484  1
  C  C92  1  0.52939756  0.85667114  0.06609484  1
  C  C93  1  0.32727259  0.85667114  0.56609484  1
  C  C94  1  0.52939756  0.67272741  0.56609484  1
  C  C95  1  0.14332886  0.47060244  0.56609484  1
  C  C96  1  0.27669621  0.81203732  0.25650979  1
  C  C97  1  0.53534011  0.72330379  0.25650979  1
  C  C98  1  0.18796268  0.46465989  0.25650979  1
  C  C99  1  0.27669621  0.46465989  0.75650979  1
  C  C100  1  0.18796268  0.72330379  0.75650979  1
  C  C101  1  0.53534011  0.81203732  0.75650979  1
