# generated using pymatgen
data_Cu6Ni2C
_symmetry_space_group_name_H-M   'P 1'
_cell_length_a   7.75399300
_cell_length_b   7.76198300
_cell_length_c   15.90128900
_cell_angle_alpha   90.00000000
_cell_angle_beta   90.00000000
_cell_angle_gamma   90.00000000
_symmetry_Int_Tables_number   1
_chemical_formula_structural   Cu6Ni2C
_chemical_formula_sum   'Cu48 Ni16 C8'
_cell_volume   957.04073361
_cell_formula_units_Z   8
loop_
 _symmetry_equiv_pos_site_id
 _symmetry_equiv_pos_as_xyz
  1  'x, y, z'
loop_
 _atom_site_type_symbol
 _atom_site_label
 _atom_site_symmetry_multiplicity
 _atom_site_fract_x
 _atom_site_fract_y
 _atom_site_fract_z
 _atom_site_occupancy
  C  C0  1  0.28334200  0.98186800  0.62164900  1
  C  C1  1  0.78334200  0.01813200  0.37835100  1
  C  C2  1  0.78334200  0.51813200  0.62164900  1
  C  C3  1  0.28334200  0.48186800  0.37835100  1
  C  C4  1  0.26320600  0.47688300  0.87485300  1
  C  C5  1  0.76320600  0.52311700  0.12514700  1
  C  C6  1  0.76320600  0.02311700  0.87485300  1
  C  C7  1  0.26320600  0.97688300  0.12514700  1
  Ni  Ni8  1  0.62923000  0.34102500  0.29401300  1
  Ni  Ni9  1  0.92040800  0.67323900  0.95289400  1
  Ni  Ni10  1  0.42040800  0.32676100  0.04710600  1
  Ni  Ni11  1  0.42040800  0.82676100  0.95289400  1
  Ni  Ni12  1  0.92040800  0.17323900  0.04710600  1
  Ni  Ni13  1  0.59459800  0.36244900  0.78712900  1
  Ni  Ni14  1  0.09459800  0.63755100  0.21287100  1
  Ni  Ni15  1  0.09459800  0.13755100  0.78712900  1
  Ni  Ni16  1  0.59459800  0.86244900  0.21287100  1
  Ni  Ni17  1  0.12923000  0.65897500  0.70598700  1
  Ni  Ni18  1  0.12923000  0.15897500  0.29401300  1
  Ni  Ni19  1  0.62923000  0.84102500  0.70598700  1
  Ni  Ni20  1  0.93558100  0.66877200  0.44802800  1
  Ni  Ni21  1  0.43558100  0.33122800  0.55197200  1
  Ni  Ni22  1  0.43558100  0.83122800  0.44802800  1
  Ni  Ni23  1  0.93558100  0.16877200  0.55197200  1
  Cu  Cu24  1  0.22762800  0.65489500  0.25791700  1
  Cu  Cu25  1  0.05371700  0.67468500  0.63564700  1
  Cu  Cu26  1  0.05371700  0.17468500  0.36435300  1
  Cu  Cu27  1  0.55371700  0.82531500  0.63564700  1
  Cu  Cu28  1  0.58932900  0.46355200  0.24528400  1
  Cu  Cu29  1  0.08932900  0.53644800  0.75471600  1
  Cu  Cu30  1  0.08932900  0.03644800  0.24528400  1
  Cu  Cu31  1  0.58932900  0.96355200  0.75471600  1
  Cu  Cu32  1  0.74408000  0.73319400  0.72684700  1
  Cu  Cu33  1  0.24408000  0.26680600  0.27315300  1
  Cu  Cu34  1  0.24408000  0.76680600  0.72684700  1
  Cu  Cu35  1  0.74408000  0.23319400  0.27315300  1
  Cu  Cu36  1  0.81078300  0.19176800  0.50169600  1
  Cu  Cu37  1  0.31078300  0.80823200  0.49830400  1
  Cu  Cu38  1  0.31078300  0.30823200  0.50169600  1
  Cu  Cu39  1  0.81078300  0.69176800  0.49830400  1
  Cu  Cu40  1  0.96758000  0.27995800  0.60808200  1
  Cu  Cu41  1  0.46758000  0.72004200  0.39191800  1
  Cu  Cu42  1  0.46758000  0.22004200  0.60808200  1
  Cu  Cu43  1  0.96758000  0.77995800  0.39191800  1
  Cu  Cu44  1  0.02740000  0.03424400  0.54606000  1
  Cu  Cu45  1  0.52740000  0.96575600  0.45394000  1
  Cu  Cu46  1  0.52740000  0.46575600  0.54606000  1
  Cu  Cu47  1  0.02740000  0.53424400  0.45394000  1
  Cu  Cu48  1  0.94342700  0.78134400  0.89418500  1
  Cu  Cu49  1  0.01703400  0.04289800  0.04069800  1
  Cu  Cu50  1  0.51703400  0.95710200  0.95930200  1
  Cu  Cu51  1  0.51703400  0.45710200  0.04069800  1
  Cu  Cu52  1  0.72762800  0.84510500  0.25791700  1
  Cu  Cu53  1  0.22762800  0.15489500  0.74208300  1
  Cu  Cu54  1  0.55371700  0.32531500  0.36435300  1
  Cu  Cu55  1  0.72762800  0.34510500  0.74208300  1
  Cu  Cu56  1  0.57891000  0.77502200  0.14569300  1
  Cu  Cu57  1  0.07891000  0.22497800  0.85430700  1
  Cu  Cu58  1  0.07891000  0.72497800  0.14569300  1
  Cu  Cu59  1  0.57891000  0.27502200  0.85430700  1
  Cu  Cu60  1  0.47590300  0.96644300  0.23344800  1
  Cu  Cu61  1  0.97590300  0.03355700  0.76655200  1
  Cu  Cu62  1  0.79924200  0.69647500  0.00534300  1
  Cu  Cu63  1  0.47590300  0.46644300  0.76655200  1
  Cu  Cu64  1  0.01703400  0.54289800  0.95930200  1
  Cu  Cu65  1  0.94342700  0.28134400  0.10581500  1
  Cu  Cu66  1  0.44342700  0.71865600  0.89418500  1
  Cu  Cu67  1  0.44342700  0.21865600  0.10581500  1
  Cu  Cu68  1  0.79924200  0.19647500  0.99465700  1
  Cu  Cu69  1  0.29924200  0.80352500  0.00534300  1
  Cu  Cu70  1  0.29924200  0.30352500  0.99465700  1
  Cu  Cu71  1  0.97590300  0.53355700  0.23344800  1
