# generated using pymatgen
data_CuNi2C11
_symmetry_space_group_name_H-M   'P 1'
_cell_length_a   3.78137600
_cell_length_b   4.16404900
_cell_length_c   13.17894900
_cell_angle_alpha   90.00000000
_cell_angle_beta   90.00000000
_cell_angle_gamma   90.00000000
_symmetry_Int_Tables_number   1
_chemical_formula_structural   CuNi2C11
_chemical_formula_sum   'Cu1 Ni2 C11'
_cell_volume   207.51355579
_cell_formula_units_Z   1
loop_
 _symmetry_equiv_pos_site_id
 _symmetry_equiv_pos_as_xyz
  1  'x, y, z'
loop_
 _atom_site_type_symbol
 _atom_site_label
 _atom_site_symmetry_multiplicity
 _atom_site_fract_x
 _atom_site_fract_y
 _atom_site_fract_z
 _atom_site_occupancy
  Ni  Ni0  1  0.50000000  0.43661600  0.77239800  1
  Ni  Ni1  1  0.50000000  0.43661600  0.22760200  1
  Cu  Cu2  1  0.50000000  0.48560100  0.50000000  1
  C  C3  1  0.50000000  0.71249600  0.00000000  1
  C  C4  1  0.00000000  0.97943600  0.61435100  1
  C  C5  1  0.00000000  0.97943600  0.38564900  1
  C  C6  1  0.00000000  0.10362400  0.00000000  1
  C  C7  1  0.00000000  0.05089500  0.85589000  1
  C  C8  1  0.00000000  0.05089500  0.14411000  1
  C  C9  1  0.00000000  0.48215700  0.61600200  1
  C  C10  1  0.00000000  0.48215700  0.38399800  1
  C  C11  1  0.50000000  0.98734900  0.61340200  1
  C  C12  1  0.50000000  0.98734900  0.38659800  1
  C  C13  1  0.00000000  0.57537100  0.00000000  1
