# generated using pymatgen
data_CuNi3C16
_symmetry_space_group_name_H-M   'P 1'
_cell_length_a   9.13970525
_cell_length_b   8.99303121
_cell_length_c   22.62037813
_cell_angle_alpha   91.30940924
_cell_angle_beta   89.87454449
_cell_angle_gamma   119.66734654
_symmetry_Int_Tables_number   1
_chemical_formula_structural   CuNi3C16
_chemical_formula_sum   'Cu6 Ni18 C96'
_cell_volume   1615.01832181
_cell_formula_units_Z   6
loop_
 _symmetry_equiv_pos_site_id
 _symmetry_equiv_pos_as_xyz
  1  'x, y, z'
loop_
 _atom_site_type_symbol
 _atom_site_label
 _atom_site_symmetry_multiplicity
 _atom_site_fract_x
 _atom_site_fract_y
 _atom_site_fract_z
 _atom_site_occupancy
  Ni  Ni0  1  0.63773813  0.99978170  0.26636829  1
  Ni  Ni1  1  0.34992087  0.35894700  0.25662050  1
  Ni  Ni2  1  0.64422814  0.64541516  0.73046867  1
  Ni  Ni3  1  0.98102658  0.35858710  0.73889121  1
  Ni  Ni4  1  0.02675200  0.68664965  0.59397244  1
  Ni  Ni5  1  0.67526443  0.96293600  0.58263793  1
  Ni  Ni6  1  0.31422032  0.97322578  0.10047402  1
  Ni  Ni7  1  0.02029756  0.32548313  0.08510557  1
  Ni  Ni8  1  0.97179328  0.64927693  0.89474796  1
  Ni  Ni9  1  0.70517395  0.04120806  0.90774093  1
  Ni  Ni10  1  0.95751105  0.29497585  0.42311785  1
  Ni  Ni11  1  0.34535699  0.02957194  0.41465058  1
  Ni  Ni12  1  0.97208147  0.98714658  0.50501570  1
  Ni  Ni13  1  0.98539803  0.01321927  0.00087586  1
  Ni  Ni14  1  0.66818387  0.32264977  0.81798718  1
  Ni  Ni15  1  0.67871730  0.34785856  0.34026131  1
  Ni  Ni16  1  0.32301040  0.67323899  0.17834066  1
  Ni  Ni17  1  0.33306228  0.66175798  0.66268379  1
  Cu  Cu18  1  0.00038845  0.01725829  0.83929223  1
  Cu  Cu19  1  0.99762146  0.00879550  0.16161016  1
  Cu  Cu20  1  0.67451035  0.33239241  0.98465989  1
  Cu  Cu21  1  0.34085437  0.66303114  0.02125751  1
  Cu  Cu22  1  0.34976342  0.65793635  0.51979443  1
  Cu  Cu23  1  0.31966810  0.66914383  0.80530245  1
  C  C24  1  0.99616350  0.01952288  0.34432092  1
  C  C25  1  0.96142570  0.97456004  0.64576578  1
  C  C26  1  0.69020263  0.34708758  0.68128149  1
  C  C27  1  0.66253878  0.29959859  0.20052772  1
  C  C28  1  0.67613464  0.30366551  0.49591390  1
  C  C29  1  0.31968557  0.69340387  0.31687723  1
  C  C30  1  0.29426162  0.00055526  0.25291141  1
  C  C31  1  0.01187556  0.32281733  0.25327319  1
  C  C32  1  0.98954636  0.70262858  0.74197829  1
  C  C33  1  0.69589217  0.01119447  0.74233249  1
  C  C34  1  0.96014068  0.31853508  0.58625471  1
  C  C35  1  0.67443064  0.60616260  0.58347174  1
  C  C36  1  0.66517256  0.03617440  0.08977399  1
  C  C37  1  0.03278652  0.36241640  0.91924676  1
  C  C38  1  0.63820308  0.96517098  0.41535633  1
  C  C39  1  0.69892886  0.69515473  0.25400011  1
  C  C40  1  0.30322235  0.28705448  0.74165050  1
  C  C41  1  0.38244327  0.05695180  0.58233063  1
  C  C42  1  0.96051438  0.63303306  0.08828515  1
  C  C43  1  0.37547567  0.33380276  0.09137837  1
  C  C44  1  0.63673929  0.66978995  0.91270115  1
  C  C45  1  0.32579840  0.96636067  0.92021731  1
  C  C46  1  0.32387522  0.35737611  0.40862840  1
  C  C47  1  0.04219142  0.67811733  0.41416433  1
  C  C48  1  0.17969035  0.02768270  0.30372199  1
  C  C49  1  0.81466430  0.78705716  0.30405756  1
  C  C50  1  0.96793799  0.17018954  0.30094873  1
  C  C51  1  0.23918504  0.20569389  0.80016708  1
  C  C52  1  0.97698158  0.77883637  0.80768040  1
  C  C53  1  0.80154908  0.05475852  0.80613625  1
  C  C54  1  0.80589426  0.98193024  0.69089859  1
  C  C55  1  0.18415184  0.19130220  0.69347334  1
  C  C56  1  0.00828840  0.83241980  0.68914697  1
  C  C57  1  0.76298848  0.79595247  0.19911535  1
  C  C58  1  0.06309785  0.26441862  0.19056919  1
  C  C59  1  0.20359857  0.97009138  0.18872379  1
  C  C60  1  0.86383458  0.35303252  0.64110605  1
  C  C61  1  0.49369130  0.14879980  0.63261987  1
  C  C62  1  0.65337282  0.50148136  0.64343648  1
  C  C63  1  0.85780308  0.52667772  0.13656064  1
  C  C64  1  0.65227932  0.15339187  0.14492162  1
  C  C65  1  0.47298852  0.34250080  0.14444467  1
  C  C66  1  0.46195754  0.33374924  0.03590810  1
  C  C67  1  0.87923424  0.56225614  0.02928555  1
  C  C68  1  0.67756309  0.12842488  0.02638784  1
  C  C69  1  0.46301382  0.14247140  0.52469845  1
  C  C70  1  0.69146457  0.49687735  0.52609503  1
  C  C71  1  0.84261393  0.27877425  0.52501640  1
  C  C72  1  0.55172724  0.68787525  0.96675423  1
  C  C73  1  0.12308625  0.44934313  0.98335769  1
  C  C74  1  0.31899243  0.87578186  0.97542758  1
  C  C75  1  0.56838347  0.86222330  0.47620011  1
  C  C76  1  0.28963142  0.43178295  0.46267582  1
  C  C77  1  0.14165286  0.70829279  0.46990878  1
  C  C78  1  0.13764829  0.65199435  0.36439408  1
  C  C79  1  0.49665617  0.86305436  0.36112807  1
  C  C80  1  0.34777457  0.46654009  0.35748396  1
  C  C81  1  0.13368101  0.48364928  0.86408247  1
  C  C82  1  0.35384575  0.87928578  0.86882936  1
  C  C83  1  0.54356608  0.66329087  0.85912494  1
  C  C84  1  0.02773329  0.83355579  0.40470957  1
  C  C85  1  0.82969240  0.99792014  0.39906675  1
  C  C86  1  0.16490786  0.18355161  0.40267508  1
  C  C87  1  0.00345062  0.16819075  0.91783509  1
  C  C88  1  0.16489593  0.96690441  0.91537713  1
  C  C89  1  0.80855592  0.82317797  0.91383503  1
  C  C90  1  0.97617454  0.14438277  0.59413890  1
  C  C91  1  0.21315868  0.03748418  0.58429094  1
  C  C92  1  0.84754696  0.80274400  0.58658614  1
  C  C93  1  0.99433483  0.81228178  0.09007647  1
  C  C94  1  0.83844215  0.02525218  0.09172633  1
  C  C95  1  0.20727752  0.17338670  0.08835710  1
  C  C96  1  0.67270849  0.17724804  0.73192425  1
  C  C97  1  0.47454408  0.31114795  0.73620673  1
  C  C98  1  0.81611100  0.51250093  0.74010908  1
  C  C99  1  0.67993384  0.52028213  0.24570253  1
  C  C100  1  0.83240496  0.32583065  0.24735366  1
  C  C101  1  0.48614302  0.17920005  0.25021794  1
  C  C102  1  0.65311339  0.51414735  0.91553341  1
  C  C103  1  0.84353584  0.34823526  0.91503209  1
  C  C104  1  0.47170320  0.14240152  0.92128987  1
  C  C105  1  0.65064006  0.16174938  0.42613515  1
  C  C106  1  0.46980567  0.33103853  0.41561726  1
  C  C107  1  0.87819616  0.51912062  0.41606625  1
  C  C108  1  0.34522374  0.48322364  0.09243166  1
  C  C109  1  0.12882019  0.63871274  0.08959492  1
  C  C110  1  0.48804455  0.85293313  0.09146866  1
  C  C111  1  0.36403258  0.88002539  0.58017288  1
  C  C112  1  0.51964426  0.65024178  0.58215485  1
  C  C113  1  0.13793121  0.49772244  0.57876751  1
  C  C114  1  0.33321338  0.84338120  0.26295488  1
  C  C115  1  0.52762722  0.67405405  0.26289303  1
  C  C116  1  0.18205848  0.50537739  0.26993019  1
  C  C117  1  0.31873776  0.46212821  0.74497987  1
  C  C118  1  0.14735442  0.66391661  0.73973900  1
  C  C119  1  0.52232009  0.82834307  0.74604380  1
