# generated using pymatgen
data_Cu(NiC8)2
_symmetry_space_group_name_H-M   'P 1'
_cell_length_a   8.96454011
_cell_length_b   8.96453980
_cell_length_c   22.60794424
_cell_angle_alpha   89.71888491
_cell_angle_beta   90.28111509
_cell_angle_gamma   119.91189491
_symmetry_Int_Tables_number   1
_chemical_formula_structural   Cu(NiC8)2
_chemical_formula_sum   'Cu6 Ni12 C96'
_cell_volume   1574.80080504
_cell_formula_units_Z   6
loop_
 _symmetry_equiv_pos_site_id
 _symmetry_equiv_pos_as_xyz
  1  'x, y, z'
loop_
 _atom_site_type_symbol
 _atom_site_label
 _atom_site_symmetry_multiplicity
 _atom_site_fract_x
 _atom_site_fract_y
 _atom_site_fract_z
 _atom_site_occupancy
  C  C0  1  0.38138334  0.36952683  0.24079781  1
  C  C1  1  0.98010599  0.61402201  0.24173302  1
  C  C2  1  0.63047317  0.61861666  0.74079781  1
  C  C3  1  0.38597799  0.01989401  0.74173302  1
  C  C4  1  0.65881869  0.97506045  0.58609382  1
  C  C5  1  0.02493955  0.34118131  0.08609382  1
  C  C6  1  0.01229017  0.99742426  0.49849600  1
  C  C7  1  0.00257574  0.98770983  0.99849600  1
  C  C8  1  0.68087605  0.32958172  0.82960902  1
  C  C9  1  0.67041828  0.31912395  0.32960902  1
  C  C10  1  0.35178981  0.68619143  0.16310605  1
  C  C11  1  0.31380857  0.64821019  0.66310605  1
  C  C12  1  0.99737938  0.00459557  0.35802808  1
  C  C13  1  0.99540443  0.00262062  0.85802808  1
  C  C14  1  0.99931525  0.99848145  0.64359306  1
  C  C15  1  0.00151855  0.00068475  0.14359306  1
  C  C16  1  0.66362719  0.33676794  0.97830618  1
  C  C17  1  0.66323206  0.33637281  0.47830618  1
  C  C18  1  0.33354624  0.66670709  0.01937478  1
  C  C19  1  0.33329291  0.66645376  0.51937478  1
  C  C20  1  0.33237167  0.66672910  0.31387004  1
  C  C21  1  0.33327090  0.66762833  0.81387004  1
  C  C22  1  0.67137407  0.32766680  0.68013417  1
  C  C23  1  0.67233320  0.32862593  0.18013417  1
  Ni  Ni24  1  0.99454460  0.28908346  0.24979623  1
  Ni  Ni25  1  0.71091654  0.00545540  0.74979623  1
  Ni  Ni26  1  0.37634166  0.04336626  0.58533332  1
  Ni  Ni27  1  0.66283161  0.61628384  0.58727903  1
  Ni  Ni28  1  0.95663374  0.62365834  0.08533332  1
  Ni  Ni29  1  0.38371616  0.33716839  0.08727903  1
  Ni  Ni30  1  0.62088419  0.66455800  0.91629942  1
  Ni  Ni31  1  0.04203918  0.37914221  0.91730634  1
  Ni  Ni32  1  0.33590266  0.95758160  0.91592355  1
  Ni  Ni33  1  0.62085779  0.95796082  0.41730634  1
  Ni  Ni34  1  0.33544200  0.37911581  0.41629942  1
  Ni  Ni35  1  0.04241840  0.66409734  0.41592355  1
  Cu  Cu36  1  0.28441098  0.99750789  0.25155011  1
  Cu  Cu37  1  0.71167012  0.72052240  0.25152213  1
  Cu  Cu38  1  0.27947760  0.28832988  0.75152213  1
  Cu  Cu39  1  0.00249211  0.71558902  0.75155011  1
  Cu  Cu40  1  0.95797479  0.33823151  0.58437452  1
  Cu  Cu41  1  0.66176849  0.04202521  0.08437452  1
  C  C42  1  0.18451390  0.00890209  0.30546644  1
  C  C43  1  0.82514956  0.81466283  0.30577593  1
  C  C44  1  0.98894034  0.17038655  0.30637062  1
  C  C45  1  0.18533717  0.17485044  0.80577593  1
  C  C46  1  0.99109791  0.81548610  0.80546644  1
  C  C47  1  0.82961345  0.01105966  0.80637062  1
  C  C48  1  0.80340962  0.97337895  0.69115801  1
  C  C49  1  0.17069837  0.19608110  0.69541855  1
  C  C50  1  0.03115399  0.83374981  0.69559541  1
  C  C51  1  0.80391890  0.82930163  0.19541855  1
  C  C52  1  0.02662105  0.19659038  0.19115801  1
  C  C53  1  0.16625019  0.96884601  0.19559541  1
  C  C54  1  0.89025088  0.37082363  0.64067551  1
  C  C55  1  0.48886253  0.10174139  0.64492100  1
  C  C56  1  0.63340742  0.51665975  0.64846189  1
  C  C57  1  0.89825861  0.51113747  0.14492100  1
  C  C58  1  0.62917637  0.10974912  0.14067551  1
  C  C59  1  0.48334025  0.36659258  0.14846189  1
  C  C60  1  0.47600019  0.30553805  0.02936439  1
  C  C61  1  0.83239703  0.52196807  0.02832842  1
  C  C62  1  0.70030464  0.16131587  0.02972196  1
  C  C63  1  0.47803193  0.16760297  0.52832842  1
  C  C64  1  0.69446195  0.52399981  0.52936439  1
  C  C65  1  0.83868413  0.29969536  0.52972196  1
  C  C66  1  0.52623535  0.69217295  0.97247431  1
  C  C67  1  0.16099716  0.46678520  0.97578810  1
  C  C68  1  0.30632324  0.83165244  0.97189395  1
  C  C69  1  0.53321480  0.83900284  0.47578810  1
  C  C70  1  0.30782705  0.47376465  0.47247431  1
  C  C71  1  0.16834756  0.69367676  0.47189395  1
  C  C72  1  0.13547657  0.63843274  0.35646488  1
  C  C73  1  0.49826625  0.85888855  0.35972811  1
  C  C74  1  0.36035127  0.49596428  0.35648620  1
  C  C75  1  0.14111145  0.50173375  0.85972811  1
  C  C76  1  0.36156726  0.86452343  0.85646488  1
  C  C77  1  0.50403572  0.63964873  0.85648620  1
  C  C78  1  0.02393013  0.83466022  0.40726038  1
  C  C79  1  0.80969165  0.97287220  0.40907710  1
  C  C80  1  0.16651016  0.18751885  0.40925285  1
  C  C81  1  0.02712780  0.19030835  0.90907710  1
  C  C82  1  0.16533978  0.97606987  0.90726038  1
  C  C83  1  0.81248115  0.83348984  0.90925285  1
  C  C84  1  0.97159497  0.16813745  0.59031372  1
  C  C85  1  0.18529455  0.02778255  0.59082062  1
  C  C86  1  0.83503302  0.81837687  0.59081451  1
  C  C87  1  0.97221745  0.81470545  0.09082062  1
  C  C88  1  0.83186255  0.02840503  0.09031372  1
  C  C89  1  0.18162313  0.16496698  0.09081451  1
  C  C90  1  0.68155424  0.16727730  0.74982229  1
  C  C91  1  0.45934562  0.31018514  0.75080140  1
  C  C92  1  0.84163667  0.54224403  0.74881877  1
  C  C93  1  0.68981486  0.54065438  0.25080140  1
  C  C94  1  0.83272270  0.31844576  0.24982229  1
  C  C95  1  0.45775597  0.15836333  0.24881877  1
  C  C96  1  0.63809907  0.49288199  0.92358200  1
  C  C97  1  0.85221300  0.35660669  0.92482685  1
  C  C98  1  0.50709307  0.14397677  0.92488828  1
  C  C99  1  0.64339331  0.14778700  0.42482685  1
  C  C100  1  0.50711801  0.36190093  0.42358200  1
  C  C101  1  0.85602323  0.49290693  0.42488828  1
  C  C102  1  0.34550762  0.49810769  0.07559506  1
  C  C103  1  0.15145085  0.65199117  0.07296913  1
  C  C104  1  0.51106729  0.85742326  0.07339917  1
  C  C105  1  0.34800883  0.84854915  0.57296913  1
  C  C106  1  0.50189231  0.65449238  0.57559506  1
  C  C107  1  0.14257674  0.48893271  0.57339917  1
  C  C108  1  0.29135507  0.82655833  0.25493411  1
  C  C109  1  0.53070338  0.70586344  0.25500034  1
  C  C110  1  0.17990773  0.47967003  0.25453605  1
  C  C111  1  0.29413656  0.46929662  0.75500034  1
  C  C112  1  0.17344167  0.70864493  0.75493411  1
  C  C113  1  0.52032997  0.82009227  0.75453605  1
