# generated using pymatgen
data_Cu9Ni3C58
_symmetry_space_group_name_H-M   'P 1'
_cell_length_a   17.50790073
_cell_length_b   8.74341820
_cell_length_c   22.75884020
_cell_angle_alpha   89.74651470
_cell_angle_beta   90.69617787
_cell_angle_gamma   119.98717483
_symmetry_Int_Tables_number   1
_chemical_formula_structural   Cu9Ni3C58
_chemical_formula_sum   'Cu27 Ni9 C174'
_cell_volume   3017.30595579
_cell_formula_units_Z   3
loop_
 _symmetry_equiv_pos_site_id
 _symmetry_equiv_pos_as_xyz
  1  'x, y, z'
loop_
 _atom_site_type_symbol
 _atom_site_label
 _atom_site_symmetry_multiplicity
 _atom_site_fract_x
 _atom_site_fract_y
 _atom_site_fract_z
 _atom_site_occupancy
  C  C0  1  0.99616701  0.00546344  0.49988243  1
  C  C1  1  0.49675787  0.98910333  0.00378022  1
  C  C2  1  0.33027624  0.32648081  0.84144474  1
  C  C3  1  0.82668419  0.33003455  0.83452957  1
  C  C4  1  0.32923236  0.32485769  0.33304403  1
  C  C5  1  0.82314014  0.32296155  0.33746199  1
  C  C6  1  0.50994446  0.01351698  0.35669116  1
  C  C7  1  0.00345783  0.99821108  0.85905480  1
  C  C8  1  0.50528476  0.01941165  0.64475168  1
  C  C9  1  0.00474562  0.98973427  0.14529260  1
  C  C10  1  0.33744215  0.33498568  0.68645358  1
  C  C11  1  0.83312924  0.33572497  0.68714970  1
  C  C12  1  0.33451749  0.33193227  0.18846085  1
  C  C13  1  0.83371134  0.33307493  0.18984472  1
  C  C14  1  0.16389485  0.67521535  0.02388402  1
  C  C15  1  0.66059343  0.66371680  0.02440035  1
  C  C16  1  0.16124076  0.65964284  0.52282398  1
  C  C17  1  0.66414118  0.65554898  0.52127137  1
  C  C18  1  0.00313179  0.00009393  0.34823132  1
  C  C19  1  0.50450463  0.00747503  0.84978278  1
  C  C20  1  0.99605616  0.01186728  0.64665464  1
  C  C21  1  0.50112923  0.96664818  0.15050891  1
  C  C22  1  0.33158960  0.33169220  0.98322618  1
  C  C23  1  0.83336776  0.33987306  0.98588690  1
  C  C24  1  0.33628267  0.32964682  0.48028467  1
  C  C25  1  0.83249531  0.32683989  0.47888227  1
  C  C26  1  0.16747362  0.67636280  0.31005399  1
  C  C27  1  0.66827698  0.66248014  0.31279861  1
  C  C28  1  0.17106794  0.68549782  0.81889198  1
  C  C29  1  0.66473231  0.65424553  0.81131484  1
  Ni  Ni30  1  0.14579091  0.99677082  0.25594188  1
  Ni  Ni31  1  0.64506760  0.98466159  0.25160081  1
  Ni  Ni32  1  0.64612713  0.29577529  0.75554859  1
  Ni  Ni33  1  0.47576891  0.33448085  0.57975789  1
  Ni  Ni34  1  0.97143492  0.32112730  0.58173253  1
  Ni  Ni35  1  0.46993783  0.62273445  0.08070759  1
  Ni  Ni36  1  0.97380458  0.61552581  0.08119768  1
  Ni  Ni37  1  0.17785748  0.97047158  0.91648700  1
  Ni  Ni38  1  0.67639955  0.38876714  0.41487162  1
  Cu  Cu39  1  0.35215555  0.71232590  0.25136883  1
  Cu  Cu40  1  0.85477952  0.71547925  0.25199284  1
  Cu  Cu41  1  0.00333061  0.29150726  0.25372455  1
  Cu  Cu42  1  0.50284202  0.28691322  0.24830436  1
  Cu  Cu43  1  0.14330539  0.29767476  0.75100389  1
  Cu  Cu44  1  0.00493845  0.71835108  0.74889209  1
  Cu  Cu45  1  0.50149886  0.71280592  0.75393705  1
  Cu  Cu46  1  0.35173550  0.98923375  0.75242227  1
  Cu  Cu47  1  0.85302110  0.99255604  0.75085468  1
  Cu  Cu48  1  0.18611253  0.04764491  0.58217824  1
  Cu  Cu49  1  0.68972552  0.04652477  0.58127005  1
  Cu  Cu50  1  0.33417068  0.61939746  0.58135292  1
  Cu  Cu51  1  0.83843815  0.63089944  0.58307329  1
  Cu  Cu52  1  0.33929335  0.04774202  0.08344834  1
  Cu  Cu53  1  0.83456467  0.04949788  0.08135776  1
  Cu  Cu54  1  0.18958873  0.33169414  0.08128071  1
  Cu  Cu55  1  0.68620177  0.32481331  0.08133600  1
  Cu  Cu56  1  0.31566503  0.67217109  0.91306849  1
  Cu  Cu57  1  0.80803799  0.65750857  0.91591089  1
  Cu  Cu58  1  0.01940581  0.38199633  0.91478455  1
  Cu  Cu59  1  0.52126087  0.37358776  0.91437415  1
  Cu  Cu60  1  0.66785363  0.95955731  0.91467447  1
  Cu  Cu61  1  0.30870085  0.95814309  0.41610477  1
  Cu  Cu62  1  0.81748396  0.96155379  0.41454730  1
  Cu  Cu63  1  0.16792775  0.37567323  0.41544282  1
  Cu  Cu64  1  0.02100164  0.66854747  0.41417847  1
  Cu  Cu65  1  0.51650165  0.65631809  0.41622686  1
  C  C66  1  0.10201513  0.03907462  0.31180758  1
  C  C67  1  0.60057041  0.02714361  0.30767509  1
  C  C68  1  0.40823834  0.79242084  0.30382934  1
  C  C69  1  0.90977456  0.79133434  0.30552714  1
  C  C70  1  0.48383658  0.17435267  0.30167664  1
  C  C71  1  0.98235621  0.17585059  0.30627550  1
  C  C72  1  0.10224837  0.18087657  0.80288201  1
  C  C73  1  0.60173188  0.16469469  0.81143546  1
  C  C74  1  0.48118842  0.78723062  0.80607838  1
  C  C75  1  0.98860301  0.79965482  0.80149847  1
  C  C76  1  0.40776045  0.02634754  0.80561213  1
  C  C77  1  0.91104830  0.02626526  0.80307978  1
  C  C78  1  0.39363395  0.96771759  0.69937323  1
  C  C79  1  0.89266171  0.96268961  0.69775310  1
  C  C80  1  0.08971434  0.21392431  0.69710741  1
  C  C81  1  0.58655352  0.20133947  0.69620412  1
  C  C82  1  0.01573759  0.82635200  0.69590027  1
  C  C83  1  0.51064649  0.81300903  0.69976181  1
  C  C84  1  0.38936285  0.81972353  0.19755504  1
  C  C85  1  0.89669889  0.82401432  0.19912338  1
  C  C86  1  0.01256793  0.20891509  0.19985283  1
  C  C87  1  0.51060325  0.20049371  0.19523636  1
  C  C88  1  0.08673697  0.97185562  0.19623860  1
  C  C89  1  0.58741855  0.96256682  0.19231662  1
  C  C90  1  0.43047022  0.36139224  0.63933876  1
  C  C91  1  0.93123888  0.35684741  0.64074794  1
  C  C92  1  0.24145642  0.12848453  0.63589742  1
  C  C93  1  0.74328789  0.12883164  0.63558479  1
  C  C94  1  0.31548172  0.50576520  0.63485446  1
  C  C95  1  0.82039863  0.51850746  0.63643630  1
  C  C96  1  0.42972558  0.50516538  0.13920368  1
  C  C97  1  0.92867926  0.49593612  0.13871753  1
  C  C98  1  0.31970755  0.12391079  0.13553265  1
  C  C99  1  0.81545058  0.12438285  0.13354443  1
  C  C100  1  0.24332501  0.35768088  0.13499964  1
  C  C101  1  0.74187456  0.35553449  0.13410069  1
  C  C102  1  0.22526650  0.29226791  0.02925743  1
  C  C103  1  0.72434249  0.29052725  0.02788904  1
  C  C104  1  0.41180490  0.52852980  0.02184498  1
  C  C105  1  0.91554451  0.53365186  0.02177827  1
  C  C106  1  0.35091294  0.15253578  0.02997281  1
  C  C107  1  0.84650421  0.15394346  0.02716907  1
  C  C108  1  0.22391852  0.15908223  0.52969853  1
  C  C109  1  0.72610254  0.15918525  0.52962470  1
  C  C110  1  0.34613048  0.53737104  0.52869553  1
  C  C111  1  0.85154474  0.55028309  0.53069705  1
  C  C112  1  0.41221295  0.29701498  0.52385490  1
  C  C113  1  0.91102016  0.29523786  0.52404399  1
  C  C114  1  0.27566401  0.69844280  0.96598083  1
  C  C115  1  0.76999041  0.68758466  0.96900069  1
  C  C116  1  0.07493769  0.45683920  0.96771668  1
  C  C117  1  0.57825676  0.45678479  0.96775936  1
  C  C118  1  0.15731754  0.84251322  0.97250581  1
  C  C119  1  0.65740292  0.85046085  0.96790054  1
  C  C120  1  0.26846276  0.85263708  0.46981361  1
  C  C121  1  0.77778780  0.85742796  0.46860370  1
  C  C122  1  0.15763559  0.46391742  0.46879112  1
  C  C123  1  0.65975037  0.47550456  0.47315155  1
  C  C124  1  0.07757568  0.69865078  0.46835124  1
  C  C125  1  0.57213053  0.68971594  0.46967046  1
  C  C126  1  0.06308299  0.63982450  0.36307325  1
  C  C127  1  0.55611894  0.62603856  0.36425125  1
  C  C128  1  0.25251952  0.87291429  0.36372275  1
  C  C129  1  0.76218915  0.88043881  0.36186738  1
  C  C130  1  0.18187995  0.48516755  0.36280529  1
  C  C131  1  0.68784636  0.50862421  0.35716239  1
  C  C132  1  0.06061829  0.49049764  0.86172032  1
  C  C133  1  0.56276572  0.48629640  0.86257690  1
  C  C134  1  0.19105003  0.88415824  0.85695756  1
  C  C135  1  0.68152160  0.87815472  0.86202938  1
  C  C136  1  0.25876027  0.63976916  0.85945182  1
  C  C137  1  0.75408906  0.63503517  0.86300698  1
  C  C138  1  0.01233371  0.82938742  0.41021880  1
  C  C139  1  0.50492090  0.81185515  0.41001554  1
  C  C140  1  0.39615429  0.97724819  0.40915285  1
  C  C141  1  0.90746129  0.97799039  0.40875527  1
  C  C142  1  0.08664687  0.20048699  0.41216871  1
  C  C143  1  0.58675178  0.19725964  0.40912160  1
  C  C144  1  0.00948345  0.20325553  0.90672092  1
  C  C145  1  0.51272575  0.19506317  0.91009673  1
  C  C146  1  0.08908226  0.98672537  0.90646675  1
  C  C147  1  0.58571410  0.97058459  0.91127024  1
  C  C148  1  0.40488553  0.83656885  0.90603789  1
  C  C149  1  0.89726397  0.81581577  0.90797748  1
  C  C150  1  0.48301138  0.15861972  0.59026740  1
  C  C151  1  0.98623151  0.15020820  0.58963817  1
  C  C152  1  0.09689302  0.01998834  0.59115690  1
  C  C153  1  0.59982188  0.01755301  0.59096429  1
  C  C154  1  0.41251147  0.79006166  0.59228813  1
  C  C155  1  0.91985806  0.80448310  0.59265469  1
  C  C156  1  0.48164369  0.81958308  0.08635786  1
  C  C157  1  0.98336162  0.80854830  0.08969862  1
  C  C158  1  0.41939169  0.03555412  0.09273878  1
  C  C159  1  0.91282820  0.03534515  0.09101303  1
  C  C160  1  0.09968781  0.18203630  0.09039361  1
  C  C161  1  0.59697080  0.17635592  0.08791374  1
  C  C162  1  0.34093057  0.14967283  0.74488983  1
  C  C163  1  0.84660158  0.15606058  0.74426393  1
  C  C164  1  0.23211545  0.31325555  0.74475782  1
  C  C165  1  0.74371579  0.31411844  0.74666285  1
  C  C166  1  0.42065546  0.53008092  0.74717800  1
  C  C167  1  0.92346842  0.54120780  0.74413339  1
  C  C168  1  0.34506719  0.53490064  0.24441122  1
  C  C169  1  0.84699095  0.53746753  0.24492712  1
  C  C170  1  0.42204902  0.30716802  0.24406957  1
  C  C171  1  0.92433127  0.31482092  0.24685004  1
  C  C172  1  0.24296698  0.17331308  0.24641137  1
  C  C173  1  0.74282746  0.16397761  0.24401805  1
  C  C174  1  0.32574706  0.51494981  0.91813548  1
  C  C175  1  0.81681542  0.49712411  0.92087072  1
  C  C176  1  0.43450222  0.35763453  0.92104764  1
  C  C177  1  0.92977035  0.35786379  0.92070596  1
  C  C178  1  0.26214205  0.16740293  0.92641869  1
  C  C179  1  0.74756060  0.13921919  0.92280676  1
  C  C180  1  0.31549147  0.13590624  0.42092343  1
  C  C181  1  0.82749862  0.14038055  0.42007118  1
  C  C182  1  0.24805859  0.35655655  0.42382109  1
  C  C183  1  0.76209230  0.36140043  0.42486413  1
  C  C184  1  0.42618598  0.49788928  0.42267834  1
  C  C185  1  0.93422447  0.51011209  0.42160230  1
  C  C186  1  0.18462405  0.49306651  0.07316788  1
  C  C187  1  0.68338119  0.49144915  0.07263930  1
  C  C188  1  0.07068662  0.63451155  0.07510432  1
  C  C189  1  0.56851873  0.64549740  0.07071324  1
  C  C190  1  0.26159425  0.86750547  0.07637359  1
  C  C191  1  0.75652023  0.86992896  0.07280561  1
  C  C192  1  0.18179078  0.87470879  0.57482087  1
  C  C193  1  0.68462169  0.87587683  0.57452504  1
  C  C194  1  0.25625390  0.64243336  0.57399733  1
  C  C195  1  0.76230089  0.65838058  0.57676097  1
  C  C196  1  0.06969966  0.49427720  0.57134785  1
  C  C197  1  0.57173548  0.50854032  0.57520438  1
  C  C198  1  0.15350046  0.82163093  0.26134228  1
  C  C199  1  0.65483300  0.81402291  0.26483571  1
  C  C200  1  0.26316955  0.68490980  0.25955421  1
  C  C201  1  0.76712813  0.69497262  0.25625302  1
  C  C202  1  0.08288435  0.46301817  0.26224688  1
  C  C203  1  0.58021120  0.46147452  0.25646165  1
  C  C204  1  0.15265983  0.47175672  0.76054001  1
  C  C205  1  0.65436641  0.48673570  0.76133243  1
  C  C206  1  0.08168692  0.69562043  0.75760768  1
  C  C207  1  0.58010201  0.69745384  0.76217744  1
  C  C208  1  0.26455825  0.83090151  0.75748652  1
  C  C209  1  0.76539789  0.84150948  0.75957606  1
