# generated using pymatgen
data_Cu13NiC10
_symmetry_space_group_name_H-M   'P 1'
_cell_length_a   8.65923854
_cell_length_b   8.65923854
_cell_length_c   8.65923867
_cell_angle_alpha   59.80068696
_cell_angle_beta   59.80068696
_cell_angle_gamma   59.80068319
_symmetry_Int_Tables_number   1
_chemical_formula_structural   Cu13NiC10
_chemical_formula_sum   'Cu26 Ni2 C20'
_cell_volume   457.04046940
_cell_formula_units_Z   2
loop_
 _symmetry_equiv_pos_site_id
 _symmetry_equiv_pos_as_xyz
  1  'x, y, z'
loop_
 _atom_site_type_symbol
 _atom_site_label
 _atom_site_symmetry_multiplicity
 _atom_site_fract_x
 _atom_site_fract_y
 _atom_site_fract_z
 _atom_site_occupancy
  C  C0  1  0.02760700  0.02872700  0.46440200  1
  C  C1  1  0.02872700  0.46440200  0.02760700  1
  C  C2  1  0.46440200  0.02760700  0.02872700  1
  C  C3  1  0.52872700  0.52760700  0.96440200  1
  C  C4  1  0.52760700  0.96440200  0.52872700  1
  C  C5  1  0.96440200  0.52872700  0.52760700  1
  C  C6  1  0.73310900  0.42711900  0.42664600  1
  C  C7  1  0.39687300  0.39687300  0.39687300  1
  C  C8  1  0.89687300  0.89687300  0.89687300  1
  C  C9  1  0.42711900  0.42664600  0.73310900  1
  C  C10  1  0.42664600  0.73310900  0.42711900  1
  C  C11  1  0.92711900  0.23310900  0.92664600  1
  C  C12  1  0.23310900  0.92664600  0.92711900  1
  C  C13  1  0.92664600  0.92711900  0.23310900  1
  C  C14  1  0.75214600  0.75336300  0.24583400  1
  C  C15  1  0.24583400  0.75214600  0.75336300  1
  C  C16  1  0.75336300  0.24583400  0.75214600  1
  C  C17  1  0.25214600  0.74583400  0.25336300  1
  C  C18  1  0.25336300  0.25214600  0.74583400  1
  C  C19  1  0.74583400  0.25336300  0.25214600  1
  Ni  Ni20  1  0.23033700  0.23033700  0.23033700  1
  Ni  Ni21  1  0.73033700  0.73033700  0.73033700  1
  Cu  Cu22  1  0.38736600  0.56509200  0.81056900  1
  Cu  Cu23  1  0.81056900  0.38736600  0.56509200  1
  Cu  Cu24  1  0.75167000  0.28522900  0.89946900  1
  Cu  Cu25  1  0.89946900  0.75167000  0.28522900  1
  Cu  Cu26  1  0.28522900  0.89946900  0.75167000  1
  Cu  Cu27  1  0.39946900  0.78522900  0.25167000  1
  Cu  Cu28  1  0.25167000  0.39946900  0.78522900  1
  Cu  Cu29  1  0.78522900  0.25167000  0.39946900  1
  Cu  Cu30  1  0.01206300  0.01206300  0.01206300  1
  Cu  Cu31  1  0.51206300  0.51206300  0.51206300  1
  Cu  Cu32  1  0.89336500  0.05433400  0.73516100  1
  Cu  Cu33  1  0.73516100  0.89336500  0.05433400  1
  Cu  Cu34  1  0.05433400  0.73516100  0.89336500  1
  Cu  Cu35  1  0.39336500  0.23516100  0.55433400  1
  Cu  Cu36  1  0.55433400  0.39336500  0.23516100  1
  Cu  Cu37  1  0.23516100  0.55433400  0.39336500  1
  Cu  Cu38  1  0.29975000  0.74701500  0.06475700  1
  Cu  Cu39  1  0.06475700  0.29975000  0.74701500  1
  Cu  Cu40  1  0.74701500  0.06475700  0.29975000  1
  Cu  Cu41  1  0.79975000  0.56475700  0.24701500  1
  Cu  Cu42  1  0.24701500  0.79975000  0.56475700  1
  Cu  Cu43  1  0.56475700  0.24701500  0.79975000  1
  Cu  Cu44  1  0.06509200  0.88736600  0.31056900  1
  Cu  Cu45  1  0.31056900  0.06509200  0.88736600  1
  Cu  Cu46  1  0.88736600  0.31056900  0.06509200  1
  Cu  Cu47  1  0.56509200  0.81056900  0.38736600  1
