# generated using pymatgen
data_CuNi3C16
_symmetry_space_group_name_H-M   'P 1'
_cell_length_a   15.53360522
_cell_length_b   8.88085244
_cell_length_c   8.92041858
_cell_angle_alpha   90.00000000
_cell_angle_beta   125.01204654
_cell_angle_gamma   90.00000000
_symmetry_Int_Tables_number   1
_chemical_formula_structural   CuNi3C16
_chemical_formula_sum   'Cu4 Ni12 C64'
_cell_volume   1007.88903363
_cell_formula_units_Z   4
loop_
 _symmetry_equiv_pos_site_id
 _symmetry_equiv_pos_as_xyz
  1  'x, y, z'
loop_
 _atom_site_type_symbol
 _atom_site_label
 _atom_site_symmetry_multiplicity
 _atom_site_fract_x
 _atom_site_fract_y
 _atom_site_fract_z
 _atom_site_occupancy
  C  C0  1  0.24919078  0.72776274  0.99219396  1
  C  C1  1  0.74919078  0.77223726  0.49219396  1
  C  C2  1  0.74919078  0.22776274  0.99219396  1
  C  C3  1  0.24919078  0.27223726  0.49219396  1
  C  C4  1  0.49600643  0.11218108  0.74357903  1
  C  C5  1  0.49600643  0.88781892  0.24357903  1
  C  C6  1  0.99600643  0.61218108  0.74357903  1
  C  C7  1  0.99600643  0.38781892  0.24357903  1
  C  C8  1  0.19167760  0.94215072  0.28060863  1
  C  C9  1  0.19167760  0.05784928  0.78060863  1
  C  C10  1  0.69167760  0.44215072  0.28060863  1
  C  C11  1  0.69167760  0.55784928  0.78060863  1
  C  C12  1  0.89215875  0.75450393  0.92916339  1
  C  C13  1  0.89215875  0.24549607  0.42916339  1
  C  C14  1  0.39215875  0.25450393  0.92916339  1
  C  C15  1  0.39215875  0.74549607  0.42916339  1
  Ni  Ni16  1  0.00556863  0.96066340  0.75866885  1
  Ni  Ni17  1  0.00556863  0.03933660  0.25866885  1
  Ni  Ni18  1  0.50556863  0.46066340  0.75866885  1
  Ni  Ni19  1  0.50556863  0.53933660  0.25866885  1
  Ni  Ni20  1  0.35380875  0.87862668  0.75924918  1
  Ni  Ni21  1  0.64074635  0.89945252  0.74931358  1
  Ni  Ni22  1  0.64074635  0.10054748  0.24931358  1
  Ni  Ni23  1  0.35380875  0.12137332  0.25924918  1
  Ni  Ni24  1  0.85380875  0.37862668  0.75924918  1
  Ni  Ni25  1  0.14074635  0.39945252  0.74931358  1
  Ni  Ni26  1  0.14074635  0.60054748  0.24931358  1
  Ni  Ni27  1  0.85380875  0.62137332  0.25924918  1
  Cu  Cu28  1  0.10495702  0.74814046  0.56660558  1
  Cu  Cu29  1  0.10495702  0.25185954  0.06660558  1
  Cu  Cu30  1  0.60495702  0.24814046  0.56660558  1
  Cu  Cu31  1  0.60495702  0.75185954  0.06660558  1
  C  C32  1  0.14346706  0.58197075  0.73590575  1
  C  C33  1  0.84626310  0.56576937  0.76479265  1
  C  C34  1  0.84626310  0.43423063  0.26479265  1
  C  C35  1  0.14346706  0.41802925  0.23590575  1
  C  C36  1  0.64346706  0.08197075  0.73590575  1
  C  C37  1  0.34626310  0.06576937  0.76479265  1
  C  C38  1  0.34626310  0.93423063  0.26479265  1
  C  C39  1  0.64346706  0.91802925  0.23590575  1
  C  C40  1  0.43727044  0.56985599  0.57876032  1
  C  C41  1  0.57939562  0.56431589  0.94132613  1
  C  C42  1  0.57939562  0.43568411  0.44132613  1
  C  C43  1  0.43727044  0.43014401  0.07876032  1
  C  C44  1  0.93727044  0.06985599  0.57876032  1
  C  C45  1  0.07939562  0.06431589  0.94132613  1
  C  C46  1  0.07939562  0.93568411  0.44132613  1
  C  C47  1  0.93727044  0.93014401  0.07876032  1
  C  C48  1  0.25038874  0.81213701  0.74025268  1
  C  C49  1  0.73852048  0.81531382  0.76040781  1
  C  C50  1  0.73852048  0.18468618  0.26040781  1
  C  C51  1  0.25038874  0.18786299  0.24025268  1
  C  C52  1  0.75038874  0.31213701  0.74025268  1
  C  C53  1  0.23852048  0.31531382  0.76040781  1
  C  C54  1  0.23852048  0.68468618  0.26040781  1
  C  C55  1  0.75038874  0.68786299  0.24025268  1
  C  C56  1  0.35374033  0.85447018  0.57618500  1
  C  C57  1  0.63421732  0.86154129  0.92156362  1
  C  C58  1  0.63421732  0.13845871  0.42156362  1
  C  C59  1  0.35374033  0.14552982  0.07618500  1
  C  C60  1  0.85374033  0.35447018  0.57618500  1
  C  C61  1  0.13421732  0.36154129  0.92156362  1
  C  C62  1  0.13421732  0.63845871  0.42156362  1
  C  C63  1  0.85374033  0.64552982  0.07618500  1
  C  C64  1  0.46178588  0.81572594  0.94245137  1
  C  C65  1  0.53506759  0.83184652  0.56088628  1
  C  C66  1  0.53506759  0.16815348  0.06088628  1
  C  C67  1  0.46178588  0.18427406  0.44245137  1
  C  C68  1  0.96178588  0.31572594  0.94245137  1
  C  C69  1  0.03506759  0.33184652  0.56088628  1
  C  C70  1  0.03506759  0.66815348  0.06088628  1
  C  C71  1  0.96178588  0.68427406  0.44245137  1
  C  C72  1  0.08667570  0.85412488  0.74409187  1
  C  C73  1  0.91909341  0.85036559  0.75399430  1
  C  C74  1  0.91909341  0.14963441  0.25399430  1
  C  C75  1  0.08667570  0.14587512  0.24409187  1
  C  C76  1  0.58667570  0.35412488  0.74409187  1
  C  C77  1  0.41909341  0.35036559  0.75399430  1
  C  C78  1  0.41909341  0.64963441  0.25399430  1
  C  C79  1  0.58667570  0.64587512  0.24409187  1
