# generated using pymatgen
data_CuNiC7
_symmetry_space_group_name_H-M   'P 1'
_cell_length_a   6.40837988
_cell_length_b   6.40362689
_cell_length_c   5.74983663
_cell_angle_alpha   126.03534722
_cell_angle_beta   126.06298493
_cell_angle_gamma   86.76664973
_symmetry_Int_Tables_number   1
_chemical_formula_structural   CuNiC7
_chemical_formula_sum   'Cu1 Ni1 C7'
_cell_volume   138.24412211
_cell_formula_units_Z   1
loop_
 _symmetry_equiv_pos_site_id
 _symmetry_equiv_pos_as_xyz
  1  'x, y, z'
loop_
 _atom_site_type_symbol
 _atom_site_label
 _atom_site_symmetry_multiplicity
 _atom_site_fract_x
 _atom_site_fract_y
 _atom_site_fract_z
 _atom_site_occupancy
  C  C0  1  0.42490545  0.43280286  0.00000000  1
  C  C1  1  0.73857387  0.23730582  0.49824375  1
  C  C2  1  0.24033012  0.73906207  0.50175625  1
  Ni  Ni3  1  0.73780699  0.73448381  -0.00000000  1
  Cu  Cu4  1  0.02460549  0.02224731  -0.00000000  1
  C  C5  1  0.71855676  0.04249098  -0.00000000  1
  C  C6  1  0.38050534  0.37897697  0.49394656  1
  C  C7  1  0.88655878  0.88503041  0.50605344  1
  C  C8  1  0.04607422  0.71509978  0.00000000  1
