# generated using pymatgen
data_Cu4Ni4C3
_symmetry_space_group_name_H-M   'P 1'
_cell_length_a   3.87389087
_cell_length_b   7.73992025
_cell_length_c   8.79094746
_cell_angle_alpha   102.64556896
_cell_angle_beta   102.34447169
_cell_angle_gamma   89.89822238
_symmetry_Int_Tables_number   1
_chemical_formula_structural   Cu4Ni4C3
_chemical_formula_sum   'Cu4 Ni4 C3'
_cell_volume   250.96380077
_cell_formula_units_Z   1
loop_
 _symmetry_equiv_pos_site_id
 _symmetry_equiv_pos_as_xyz
  1  'x, y, z'
loop_
 _atom_site_type_symbol
 _atom_site_label
 _atom_site_symmetry_multiplicity
 _atom_site_fract_x
 _atom_site_fract_y
 _atom_site_fract_z
 _atom_site_occupancy
  C  C0  1  0.73992200  0.10877200  0.52562900  1
  C  C1  1  0.01137500  0.47411700  0.01533700  1
  C  C2  1  0.98892800  0.96716200  0.98509800  1
  Ni  Ni3  1  0.83569500  0.86585600  0.67424000  1
  Ni  Ni4  1  0.85976500  0.41244700  0.67994600  1
  Ni  Ni5  1  0.14597800  0.04389100  0.32478300  1
  Ni  Ni6  1  0.15315900  0.54345400  0.31260700  1
  Cu  Cu7  1  0.49319200  0.96882800  0.99373500  1
  Cu  Cu8  1  0.50430200  0.47191600  0.00912500  1
  Cu  Cu9  1  0.99598400  0.71299400  0.99792900  1
  Cu  Cu10  1  0.99286500  0.22483600  0.99057300  1
