# generated using pymatgen
data_Cu4NiC12
_symmetry_space_group_name_H-M   'P 1'
_cell_length_a   5.46537450
_cell_length_b   5.46537652
_cell_length_c   10.13355093
_cell_angle_alpha   87.73758029
_cell_angle_beta   87.73756087
_cell_angle_gamma   43.12197680
_symmetry_Int_Tables_number   1
_chemical_formula_structural   Cu4NiC12
_chemical_formula_sum   'Cu4 Ni1 C12'
_cell_volume   206.72013074
_cell_formula_units_Z   1
loop_
 _symmetry_equiv_pos_site_id
 _symmetry_equiv_pos_as_xyz
  1  'x, y, z'
loop_
 _atom_site_type_symbol
 _atom_site_label
 _atom_site_symmetry_multiplicity
 _atom_site_fract_x
 _atom_site_fract_y
 _atom_site_fract_z
 _atom_site_occupancy
  Ni  Ni0  1  0.50000200  0.50000300  0.49999700  1
  C  C1  1  0.19214900  0.19214600  0.24071400  1
  C  C2  1  0.80785300  0.80785200  0.75928700  1
  Cu  Cu3  1  0.15500400  0.15500500  0.58346400  1
  Cu  Cu4  1  0.13897100  0.13896900  0.94750100  1
  Cu  Cu5  1  0.86102900  0.86102900  0.05249900  1
  Cu  Cu6  1  0.84499500  0.84499500  0.41653700  1
  C  C7  1  0.04073900  0.04073900  0.11523500  1
  C  C8  1  0.06165700  0.06167200  0.39574000  1
  C  C9  1  0.32880000  0.32880000  0.41816300  1
  C  C10  1  0.30585400  0.30585400  0.05058600  1
  C  C11  1  0.76423600  0.76423500  0.23547400  1
  C  C12  1  0.93833800  0.93832900  0.60425800  1
  C  C13  1  0.67120000  0.67120200  0.58183500  1
  C  C14  1  0.23576500  0.23576400  0.76452700  1
  C  C15  1  0.95925800  0.95926100  0.88476800  1
  C  C16  1  0.69414800  0.69414800  0.94941700  1
