# generated using pymatgen
data_Cu2Ni7C32
_symmetry_space_group_name_H-M   'P 1'
_cell_length_a   9.05480553
_cell_length_b   9.06562105
_cell_length_c   22.18488851
_cell_angle_alpha   90.02252974
_cell_angle_beta   89.92382978
_cell_angle_gamma   120.07396902
_symmetry_Int_Tables_number   1
_chemical_formula_structural   Cu2Ni7C32
_chemical_formula_sum   'Cu6 Ni21 C96'
_cell_volume   1575.94107997
_cell_formula_units_Z   3
loop_
 _symmetry_equiv_pos_site_id
 _symmetry_equiv_pos_as_xyz
  1  'x, y, z'
loop_
 _atom_site_type_symbol
 _atom_site_label
 _atom_site_symmetry_multiplicity
 _atom_site_fract_x
 _atom_site_fract_y
 _atom_site_fract_z
 _atom_site_occupancy
  Ni  Ni0  1  0.63852295  0.99415959  0.25220041  1
  Ni  Ni1  1  0.00161036  0.63034437  0.25499688  1
  Ni  Ni2  1  0.63146199  0.63939437  0.74904767  1
  Ni  Ni3  1  0.00922177  0.36996916  0.75244118  1
  Ni  Ni4  1  0.36214864  0.99204950  0.75259210  1
  Ni  Ni5  1  0.29552383  0.33292942  0.58626313  1
  Ni  Ni6  1  0.03812997  0.70517219  0.58290149  1
  Ni  Ni7  1  0.66915770  0.96079975  0.58395525  1
  Ni  Ni8  1  0.29528264  0.96178789  0.08068156  1
  Ni  Ni9  1  0.66646357  0.70302996  0.08663245  1
  Ni  Ni10  1  0.03942929  0.33379659  0.08451152  1
  Ni  Ni11  1  0.98289808  0.66882519  0.91671894  1
  Ni  Ni12  1  0.32899805  0.30075310  0.92001494  1
  Ni  Ni13  1  0.96734637  0.30826706  0.41427843  1
  Ni  Ni14  1  0.69872254  0.67154150  0.41945342  1
  Ni  Ni15  1  0.00775440  0.99366227  0.50424309  1
  Ni  Ni16  1  0.99598428  0.00674275  0.00354629  1
  Ni  Ni17  1  0.66850532  0.31241246  0.83441556  1
  Ni  Ni18  1  0.65462352  0.32649879  0.33326648  1
  Ni  Ni19  1  0.33435764  0.64493479  0.16852847  1
  Ni  Ni20  1  0.33371508  0.66733886  0.66630378  1
  Cu  Cu21  1  0.99486441  0.99536937  0.34991876  1
  Cu  Cu22  1  0.00040067  0.00569880  0.84936250  1
  Cu  Cu23  1  0.66735466  0.33370463  0.68347936  1
  Cu  Cu24  1  0.66689345  0.33777936  0.18377037  1
  Cu  Cu25  1  0.66765061  0.32296231  0.98343444  1
  Cu  Cu26  1  0.66663074  0.32689968  0.48344276  1
  C  C27  1  0.99949467  0.00070280  0.65312237  1
  C  C28  1  0.99326539  0.00557377  0.15187912  1
  C  C29  1  0.32449140  0.66810389  0.01548184  1
  C  C30  1  0.33490431  0.68311091  0.51481250  1
  C  C31  1  0.33290529  0.66193330  0.31924903  1
  C  C32  1  0.32736092  0.67248844  0.81892074  1
  C  C33  1  0.69833606  0.70111558  0.24887191  1
  C  C34  1  0.00365122  0.30153253  0.24927215  1
  C  C35  1  0.29906036  0.30063717  0.74920280  1
  C  C36  1  -0.00014638  0.70353769  0.74897085  1
  C  C37  1  0.70169716  0.99755253  0.74735092  1
  C  C38  1  0.96779271  0.33398902  0.58294320  1
  C  C39  1  0.36889866  0.03670965  0.58495619  1
  C  C40  1  0.66486877  0.63000441  0.58209904  1
  C  C41  1  0.96373853  0.63189701  0.08301066  1
  C  C42  1  0.66441255  0.03278309  0.08575314  1
  C  C43  1  0.37033424  0.33357087  0.08139909  1
  C  C44  1  0.03825552  0.37079814  0.91653957  1
  C  C45  1  0.33299257  0.96584194  0.91607310  1
  C  C46  1  0.62896990  0.96291286  0.41510468  1
  C  C47  1  0.03605935  0.66755448  0.41654518  1
  C  C48  1  0.29576903  0.00090676  0.24786511  1
  C  C49  1  0.63167036  0.66731735  0.91702924  1
  C  C50  1  0.33320357  0.36971685  0.41785112  1
  C  C51  1  0.20719192  0.01793592  0.30119979  1
  C  C52  1  0.81506660  0.79138391  0.30470695  1
  C  C53  1  0.98297557  0.18836333  0.30514962  1
  C  C54  1  0.21123109  0.18677307  0.80531467  1
  C  C55  1  0.97589863  0.79044979  0.80562501  1
  C  C56  1  0.82200572  0.02412345  0.80088296  1
  C  C57  1  0.77686642  0.97055821  0.68886341  1
  C  C58  1  0.19009047  0.22039282  0.69248914  1
  C  C59  1  0.02435832  0.81052293  0.69217740  1
  C  C60  1  0.78319542  0.80838484  0.19186085  1
  C  C61  1  0.02305891  0.22050993  0.19109712  1
  C  C62  1  0.19886886  0.98355318  0.19228670  1
  C  C63  1  0.87702404  0.35460126  0.63924427  1
  C  C64  1  0.47453394  0.12165197  0.64269815  1
  C  C65  1  0.64498270  0.52015532  0.63885464  1
  C  C66  1  0.87385151  0.51999504  0.13933883  1
  C  C67  1  0.64194865  0.11717341  0.14328901  1
  C  C68  1  0.48775257  0.35379524  0.13526139  1
  C  C69  1  0.45537351  0.31303646  0.02351764  1
  C  C70  1  0.85275257  0.54323378  0.02665423  1
  C  C71  1  0.68712415  0.15088406  0.03179409  1
  C  C72  1  0.46537710  0.15297132  0.53096298  1
  C  C73  1  0.68370097  0.53835061  0.52586495  1
  C  C74  1  0.85669971  0.31391654  0.52669271  1
  C  C75  1  0.55224274  0.68572127  0.97216297  1
  C  C76  1  0.14930334  0.45007494  0.97319231  1
  C  C77  1  0.30644095  0.85761312  0.97288779  1
  C  C78  1  0.55241415  0.85201879  0.47188628  1
  C  C79  1  0.30595176  0.44326804  0.47342848  1
  C  C80  1  0.13453863  0.68550479  0.47497581  1
  C  C81  1  0.11799633  0.63791487  0.36031601  1
  C  C82  1  0.52720027  0.88053754  0.35756213  1
  C  C83  1  0.36137446  0.47868754  0.36501923  1
  C  C84  1  0.11895407  0.47873205  0.85934003  1
  C  C85  1  0.35580654  0.88654608  0.85815848  1
  C  C86  1  0.52941598  0.64622163  0.86256596  1
  C  C87  1  0.01074231  0.82537535  0.41114903  1
  C  C88  1  0.81460103  0.98653989  0.41068700  1
  C  C89  1  0.17765395  0.19801161  0.41067233  1
  C  C90  1  0.01952367  0.19083086  0.91106992  1
  C  C91  1  0.16713246  0.98121607  0.91213462  1
  C  C92  1  0.80825769  0.81744487  0.91281090  1
  C  C93  1  0.98162818  0.17084465  0.58528960  1
  C  C94  1  0.19053957  0.02017679  0.58638819  1
  C  C95  1  0.82857388  0.80700563  0.58453691  1
  C  C96  1  0.98136777  0.81048936  0.08679835  1
  C  C97  1  0.82818096  0.01870526  0.08638302  1
  C  C98  1  0.19244708  0.17038373  0.08594230  1
  C  C99  1  0.68686658  0.16240201  0.74600772  1
  C  C100  1  0.47781013  0.31387679  0.74633043  1
  C  C101  1  0.83532086  0.52341920  0.74637138  1
  C  C102  1  0.68914758  0.52481341  0.24647795  1
  C  C103  1  0.83266139  0.30890314  0.24795501  1
  C  C104  1  0.47089588  0.15416603  0.24715912  1
  C  C105  1  0.64911326  0.51006380  0.91994226  1
  C  C106  1  0.86076811  0.35915927  0.92193316  1
  C  C107  1  0.48763375  0.15117060  0.92044021  1
  C  C108  1  0.65611983  0.14632418  0.42032651  1
  C  C109  1  0.48896563  0.35283822  0.42186199  1
  C  C110  1  0.85100929  0.50558717  0.41994376  1
  C  C111  1  0.35531653  0.49643953  0.07974219  1
  C  C112  1  0.14110090  0.64524809  0.08054291  1
  C  C113  1  0.50300993  0.85484126  0.07981533  1
  C  C114  1  0.35558767  0.85961838  0.58105357  1
  C  C115  1  0.50176529  0.64463205  0.57953247  1
  C  C116  1  0.14566336  0.49651226  0.57967234  1
  C  C117  1  0.31249486  0.84587778  0.25247330  1
  C  C118  1  0.52294926  0.68873798  0.25513976  1
  C  C119  1  0.15512560  0.48534613  0.25445755  1
  C  C120  1  0.32277828  0.48133419  0.75562093  1
  C  C121  1  0.15858373  0.68127612  0.75307212  1
  C  C122  1  0.52219051  0.83848257  0.75490508  1
