# generated using pymatgen
data_Cu5(Ni3C10)2
_symmetry_space_group_name_H-M   'P 1'
_cell_length_a   16.30488292
_cell_length_b   16.30488295
_cell_length_c   16.30488279
_cell_angle_alpha   60.00000034
_cell_angle_beta   60.00000028
_cell_angle_gamma   60.00000149
_symmetry_Int_Tables_number   1
_chemical_formula_structural   Cu5(Ni3C10)2
_chemical_formula_sum   'Cu40 Ni48 C160'
_cell_volume   3065.05350452
_cell_formula_units_Z   8
loop_
 _symmetry_equiv_pos_site_id
 _symmetry_equiv_pos_as_xyz
  1  'x, y, z'
loop_
 _atom_site_type_symbol
 _atom_site_label
 _atom_site_symmetry_multiplicity
 _atom_site_fract_x
 _atom_site_fract_y
 _atom_site_fract_z
 _atom_site_occupancy
  C  C0  1  0.99743314  0.92735933  0.18708982  1
  C  C1  1  0.57264067  0.31291018  0.11188229  1
  C  C2  1  0.11188229  0.50256686  0.57264067  1
  C  C3  1  0.57264067  0.11188229  0.50256686  1
  C  C4  1  0.31291018  0.50256686  0.11188229  1
  C  C5  1  0.31291018  0.11188229  0.57264067  1
  C  C6  1  0.11188229  0.31291018  0.50256686  1
  C  C7  1  0.18708982  0.99743314  0.92735933  1
  C  C8  1  0.92735933  0.18708982  0.99743314  1
  C  C9  1  0.38811771  0.99743314  0.18708982  1
  C  C10  1  0.92735933  0.38811771  0.18708982  1
  C  C11  1  0.38811771  0.92735933  0.99743314  1
  C  C12  1  0.18708982  0.92735933  0.38811771  1
  C  C13  1  0.99743314  0.18708982  0.38811771  1
  C  C14  1  0.99743314  0.38811771  0.92735933  1
  C  C15  1  0.11188229  0.57264067  0.31291018  1
  C  C16  1  0.50256686  0.11188229  0.31291018  1
  C  C17  1  0.50256686  0.57264067  0.11188229  1
  C  C18  1  0.57264067  0.50256686  0.31291018  1
  C  C19  1  0.31291018  0.57264067  0.50256686  1
  C  C20  1  0.50256686  0.31291018  0.57264067  1
  C  C21  1  0.18708982  0.38811771  0.99743314  1
  C  C22  1  0.38811771  0.18708982  0.92735933  1
  C  C23  1  0.92735933  0.99743314  0.38811771  1
  C  C24  1  0.00256686  0.07264067  0.81291018  1
  C  C25  1  0.42735933  0.68708982  0.88811771  1
  C  C26  1  0.88811771  0.49743314  0.42735933  1
  C  C27  1  0.42735933  0.88811771  0.49743314  1
  C  C28  1  0.68708982  0.49743314  0.88811771  1
  C  C29  1  0.68708982  0.88811771  0.42735933  1
  C  C30  1  0.88811771  0.68708982  0.49743314  1
  C  C31  1  0.81291018  0.00256686  0.07264067  1
  C  C32  1  0.07264067  0.81291018  0.00256686  1
  C  C33  1  0.61188229  0.00256686  0.81291018  1
  C  C34  1  0.07264067  0.61188229  0.81291018  1
  C  C35  1  0.61188229  0.07264067  0.00256686  1
  C  C36  1  0.81291018  0.07264067  0.61188229  1
  C  C37  1  0.00256686  0.81291018  0.61188229  1
  C  C38  1  0.00256686  0.61188229  0.07264067  1
  C  C39  1  0.88811771  0.42735933  0.68708982  1
  C  C40  1  0.49743314  0.88811771  0.68708982  1
  C  C41  1  0.49743314  0.42735933  0.88811771  1
  C  C42  1  0.42735933  0.49743314  0.68708982  1
  C  C43  1  0.68708982  0.42735933  0.49743314  1
  C  C44  1  0.49743314  0.68708982  0.42735933  1
  C  C45  1  0.81291018  0.61188229  0.00256686  1
  C  C46  1  0.61188229  0.81291018  0.07264067  1
  C  C47  1  0.07264067  0.00256686  0.61188229  1
  C  C48  1  0.88071785  0.97921437  0.18889727  1
  C  C49  1  0.52078563  0.31110273  0.04882949  1
  C  C50  1  0.04882949  0.61928215  0.52078563  1
  C  C51  1  0.52078563  0.04882949  0.61928215  1
  C  C52  1  0.31110273  0.61928215  0.04882949  1
  C  C53  1  0.31110273  0.04882949  0.52078563  1
  C  C54  1  0.04882949  0.31110273  0.61928215  1
  C  C55  1  0.18889727  0.88071785  0.97921437  1
  C  C56  1  0.97921437  0.18889727  0.88071785  1
  C  C57  1  0.45117051  0.88071785  0.18889727  1
  C  C58  1  0.97921437  0.45117051  0.18889727  1
  C  C59  1  0.45117051  0.97921437  0.88071785  1
  C  C60  1  0.18889727  0.97921437  0.45117051  1
  C  C61  1  0.88071785  0.18889727  0.45117051  1
  C  C62  1  0.88071785  0.45117051  0.97921437  1
  C  C63  1  0.04882949  0.52078563  0.31110273  1
  C  C64  1  0.61928215  0.04882949  0.31110273  1
  C  C65  1  0.61928215  0.52078563  0.04882949  1
  C  C66  1  0.52078563  0.61928215  0.31110273  1
  C  C67  1  0.31110273  0.52078563  0.61928215  1
  C  C68  1  0.61928215  0.31110273  0.52078563  1
  C  C69  1  0.18889727  0.45117051  0.88071785  1
  C  C70  1  0.45117051  0.18889727  0.97921437  1
  C  C71  1  0.97921437  0.88071785  0.45117051  1
  C  C72  1  0.11928215  0.02078563  0.81110273  1
  C  C73  1  0.47921437  0.68889727  0.95117051  1
  C  C74  1  0.95117051  0.38071785  0.47921437  1
  C  C75  1  0.47921437  0.95117051  0.38071785  1
  C  C76  1  0.68889727  0.38071785  0.95117051  1
  C  C77  1  0.68889727  0.95117051  0.47921437  1
  C  C78  1  0.95117051  0.68889727  0.38071785  1
  C  C79  1  0.81110273  0.11928215  0.02078563  1
  C  C80  1  0.02078563  0.81110273  0.11928215  1
  C  C81  1  0.54882949  0.11928215  0.81110273  1
  C  C82  1  0.02078563  0.54882949  0.81110273  1
  C  C83  1  0.54882949  0.02078563  0.11928215  1
  C  C84  1  0.81110273  0.02078563  0.54882949  1
  C  C85  1  0.11928215  0.81110273  0.54882949  1
  C  C86  1  0.11928215  0.54882949  0.02078563  1
  C  C87  1  0.95117051  0.47921437  0.68889727  1
  C  C88  1  0.38071785  0.95117051  0.68889727  1
  C  C89  1  0.38071785  0.47921437  0.95117051  1
  C  C90  1  0.47921437  0.38071785  0.68889727  1
  C  C91  1  0.68889727  0.47921437  0.38071785  1
  C  C92  1  0.38071785  0.68889727  0.47921437  1
  C  C93  1  0.81110273  0.54882949  0.11928215  1
  C  C94  1  0.54882949  0.81110273  0.02078563  1
  C  C95  1  0.02078563  0.11928215  0.54882949  1
  C  C96  1  0.94311571  0.05116442  0.15946544  1
  C  C97  1  0.44883558  0.34053456  0.15374557  1
  C  C98  1  0.15374557  0.55688429  0.44883558  1
  C  C99  1  0.44883558  0.15374557  0.55688429  1
  C  C100  1  0.34053456  0.55688429  0.15374557  1
  C  C101  1  0.34053456  0.15374557  0.44883558  1
  C  C102  1  0.15374557  0.34053456  0.55688429  1
  C  C103  1  0.15946544  0.94311571  0.05116442  1
  C  C104  1  0.05116442  0.15946544  0.94311571  1
  C  C105  1  0.34625443  0.94311571  0.15946544  1
  C  C106  1  0.05116442  0.34625443  0.15946544  1
  C  C107  1  0.34625443  0.05116442  0.94311571  1
  C  C108  1  0.15946544  0.05116442  0.34625443  1
  C  C109  1  0.94311571  0.15946544  0.34625443  1
  C  C110  1  0.94311571  0.34625443  0.05116442  1
  C  C111  1  0.15374557  0.44883558  0.34053456  1
  C  C112  1  0.55688429  0.15374557  0.34053456  1
  C  C113  1  0.55688429  0.44883558  0.15374557  1
  C  C114  1  0.44883558  0.55688429  0.34053456  1
  C  C115  1  0.34053456  0.44883558  0.55688429  1
  C  C116  1  0.55688429  0.34053456  0.44883558  1
  C  C117  1  0.15946544  0.34625443  0.94311571  1
  C  C118  1  0.34625443  0.15946544  0.05116442  1
  C  C119  1  0.05116442  0.94311571  0.34625443  1
  C  C120  1  0.05688429  0.94883558  0.84053456  1
  C  C121  1  0.55116442  0.65946544  0.84625443  1
  C  C122  1  0.84625443  0.44311571  0.55116442  1
  C  C123  1  0.55116442  0.84625443  0.44311571  1
  C  C124  1  0.65946544  0.44311571  0.84625443  1
  C  C125  1  0.65946544  0.84625443  0.55116442  1
  C  C126  1  0.84625443  0.65946544  0.44311571  1
  C  C127  1  0.84053456  0.05688429  0.94883558  1
  C  C128  1  0.94883558  0.84053456  0.05688429  1
  C  C129  1  0.65374557  0.05688429  0.84053456  1
  C  C130  1  0.94883558  0.65374557  0.84053456  1
  C  C131  1  0.65374557  0.94883558  0.05688429  1
  C  C132  1  0.84053456  0.94883558  0.65374557  1
  C  C133  1  0.05688429  0.84053456  0.65374557  1
  C  C134  1  0.05688429  0.65374557  0.94883558  1
  C  C135  1  0.84625443  0.55116442  0.65946544  1
  C  C136  1  0.44311571  0.84625443  0.65946544  1
  C  C137  1  0.44311571  0.55116442  0.84625443  1
  C  C138  1  0.55116442  0.44311571  0.65946544  1
  C  C139  1  0.65946544  0.55116442  0.44311571  1
  C  C140  1  0.44311571  0.65946544  0.55116442  1
  C  C141  1  0.84053456  0.65374557  0.05688429  1
  C  C142  1  0.65374557  0.84053456  0.94883558  1
  C  C143  1  0.94883558  0.05688429  0.65374557  1
  Ni  Ni144  1  0.94971345  0.98975667  0.15025902  1
  Ni  Ni145  1  0.51024333  0.34974098  0.08972914  1
  Ni  Ni146  1  0.08972914  0.55028655  0.51024333  1
  Ni  Ni147  1  0.51024333  0.08972914  0.55028655  1
  Ni  Ni148  1  0.34974098  0.55028655  0.08972914  1
  Ni  Ni149  1  0.34974098  0.08972914  0.51024333  1
  Ni  Ni150  1  0.08972914  0.34974098  0.55028655  1
  Ni  Ni151  1  0.15025902  0.94971345  0.98975667  1
  Ni  Ni152  1  0.98975667  0.15025902  0.94971345  1
  Ni  Ni153  1  0.41027086  0.94971345  0.15025902  1
  Ni  Ni154  1  0.98975667  0.41027086  0.15025902  1
  Ni  Ni155  1  0.41027086  0.98975667  0.94971345  1
  Ni  Ni156  1  0.15025902  0.98975667  0.41027086  1
  Ni  Ni157  1  0.94971345  0.15025902  0.41027086  1
  Ni  Ni158  1  0.94971345  0.41027086  0.98975667  1
  Ni  Ni159  1  0.08972914  0.51024333  0.34974098  1
  Ni  Ni160  1  0.55028655  0.08972914  0.34974098  1
  Ni  Ni161  1  0.55028655  0.51024333  0.08972914  1
  Ni  Ni162  1  0.51024333  0.55028655  0.34974098  1
  Ni  Ni163  1  0.34974098  0.51024333  0.55028655  1
  Ni  Ni164  1  0.55028655  0.34974098  0.51024333  1
  Ni  Ni165  1  0.15025902  0.41027086  0.94971345  1
  Ni  Ni166  1  0.41027086  0.15025902  0.98975667  1
  Ni  Ni167  1  0.98975667  0.94971345  0.41027086  1
  Ni  Ni168  1  0.05028655  0.01024333  0.84974098  1
  Ni  Ni169  1  0.48975667  0.65025902  0.91027086  1
  Ni  Ni170  1  0.91027086  0.44971345  0.48975667  1
  Ni  Ni171  1  0.48975667  0.91027086  0.44971345  1
  Ni  Ni172  1  0.65025902  0.44971345  0.91027086  1
  Ni  Ni173  1  0.65025902  0.91027086  0.48975667  1
  Ni  Ni174  1  0.91027086  0.65025902  0.44971345  1
  Ni  Ni175  1  0.84974098  0.05028655  0.01024333  1
  Ni  Ni176  1  0.01024333  0.84974098  0.05028655  1
  Ni  Ni177  1  0.58972914  0.05028655  0.84974098  1
  Ni  Ni178  1  0.01024333  0.58972914  0.84974098  1
  Ni  Ni179  1  0.58972914  0.01024333  0.05028655  1
  Ni  Ni180  1  0.84974098  0.01024333  0.58972914  1
  Ni  Ni181  1  0.05028655  0.84974098  0.58972914  1
  Ni  Ni182  1  0.05028655  0.58972914  0.01024333  1
  Ni  Ni183  1  0.91027086  0.48975667  0.65025902  1
  Ni  Ni184  1  0.44971345  0.91027086  0.65025902  1
  Ni  Ni185  1  0.44971345  0.48975667  0.91027086  1
  Ni  Ni186  1  0.48975667  0.44971345  0.65025902  1
  Ni  Ni187  1  0.65025902  0.48975667  0.44971345  1
  Ni  Ni188  1  0.44971345  0.65025902  0.48975667  1
  Ni  Ni189  1  0.84974098  0.58972914  0.05028655  1
  Ni  Ni190  1  0.58972914  0.84974098  0.01024333  1
  Ni  Ni191  1  0.01024333  0.05028655  0.58972914  1
  Cu  Cu192  1  0.18698184  0.18698184  0.18698184  1
  Cu  Cu193  1  0.31301816  0.31301816  0.56094551  1
  Cu  Cu194  1  0.56094551  0.31301816  0.31301816  1
  Cu  Cu195  1  0.31301816  0.56094551  0.31301816  1
  Cu  Cu196  1  0.93905449  0.18698184  0.18698184  1
  Cu  Cu197  1  0.18698184  0.93905449  0.18698184  1
  Cu  Cu198  1  0.18698184  0.18698184  0.93905449  1
  Cu  Cu199  1  0.31301816  0.31301816  0.31301816  1
  Cu  Cu200  1  0.81301816  0.81301816  0.81301816  1
  Cu  Cu201  1  0.68698184  0.68698184  0.43905449  1
  Cu  Cu202  1  0.43905449  0.68698184  0.68698184  1
  Cu  Cu203  1  0.68698184  0.43905449  0.68698184  1
  Cu  Cu204  1  0.06094551  0.81301816  0.81301816  1
  Cu  Cu205  1  0.81301816  0.06094551  0.81301816  1
  Cu  Cu206  1  0.81301816  0.81301816  0.06094551  1
  Cu  Cu207  1  0.68698184  0.68698184  0.68698184  1
  Cu  Cu208  1  0.25000000  0.41938322  0.08061678  1
  Cu  Cu209  1  0.08061678  0.41938322  0.75000000  1
  Cu  Cu210  1  0.75000000  0.25000000  0.08061678  1
  Cu  Cu211  1  0.08061678  0.75000000  0.25000000  1
  Cu  Cu212  1  0.41938322  0.25000000  0.75000000  1
  Cu  Cu213  1  0.41938322  0.75000000  0.08061678  1
  Cu  Cu214  1  0.75000000  0.41938322  0.25000000  1
  Cu  Cu215  1  0.08061678  0.25000000  0.41938322  1
  Cu  Cu216  1  0.41938322  0.08061678  0.25000000  1
  Cu  Cu217  1  0.25000000  0.08061678  0.75000000  1
  Cu  Cu218  1  0.25000000  0.75000000  0.41938322  1
  Cu  Cu219  1  0.75000000  0.08061678  0.41938322  1
  Cu  Cu220  1  0.75000000  0.58061678  0.91938322  1
  Cu  Cu221  1  0.91938322  0.58061678  0.25000000  1
  Cu  Cu222  1  0.25000000  0.75000000  0.91938322  1
  Cu  Cu223  1  0.91938322  0.25000000  0.75000000  1
  Cu  Cu224  1  0.58061678  0.75000000  0.25000000  1
  Cu  Cu225  1  0.58061678  0.25000000  0.91938322  1
  Cu  Cu226  1  0.25000000  0.58061678  0.75000000  1
  Cu  Cu227  1  0.91938322  0.75000000  0.58061678  1
  Cu  Cu228  1  0.58061678  0.91938322  0.75000000  1
  Cu  Cu229  1  0.75000000  0.91938322  0.25000000  1
  Cu  Cu230  1  0.75000000  0.25000000  0.58061678  1
  Cu  Cu231  1  0.25000000  0.91938322  0.58061678  1
  C  C232  1  0.00000000  0.00000000  0.00000000  1
  C  C233  1  0.50000000  0.50000000  0.00000000  1
  C  C234  1  0.00000000  0.50000000  0.50000000  1
  C  C235  1  0.50000000  0.00000000  0.50000000  1
  C  C236  1  0.50000000  0.00000000  0.00000000  1
  C  C237  1  0.00000000  0.50000000  0.00000000  1
  C  C238  1  0.00000000  0.00000000  0.50000000  1
  C  C239  1  0.50000000  0.50000000  0.50000000  1
  C  C240  1  0.25000000  0.25000000  0.25000000  1
  C  C241  1  0.25000000  0.25000000  0.75000000  1
  C  C242  1  0.75000000  0.25000000  0.25000000  1
  C  C243  1  0.25000000  0.75000000  0.25000000  1
  C  C244  1  0.75000000  0.75000000  0.75000000  1
  C  C245  1  0.75000000  0.75000000  0.25000000  1
  C  C246  1  0.25000000  0.75000000  0.75000000  1
  C  C247  1  0.75000000  0.25000000  0.75000000  1
