# generated using pymatgen
data_Cu12Ni3C2
_symmetry_space_group_name_H-M   'P 1'
_cell_length_a   8.66901931
_cell_length_b   8.66901905
_cell_length_c   22.65301893
_cell_angle_alpha   90.00000000
_cell_angle_beta   90.00000000
_cell_angle_gamma   120.00000105
_symmetry_Int_Tables_number   1
_chemical_formula_structural   Cu12Ni3C2
_chemical_formula_sum   'Cu72 Ni18 C12'
_cell_volume   1474.33658478
_cell_formula_units_Z   6
loop_
 _symmetry_equiv_pos_site_id
 _symmetry_equiv_pos_as_xyz
  1  'x, y, z'
loop_
 _atom_site_type_symbol
 _atom_site_label
 _atom_site_symmetry_multiplicity
 _atom_site_fract_x
 _atom_site_fract_y
 _atom_site_fract_z
 _atom_site_occupancy
  C  C0  1  -0.00000000  -0.00000000  0.85019236  1
  C  C1  1  0.66666700  0.33333300  0.98314064  1
  C  C2  1  0.33333300  0.66666700  0.02314218  1
  C  C3  1  0.33333300  0.66666700  0.52014302  1
  C  C4  1  0.33333300  0.66666700  0.31319098  1
  C  C5  1  0.33333300  0.66666700  0.81019182  1
  C  C6  1  -0.00000000  -0.00000000  0.35113595  1
  C  C7  1  -0.00000000  -0.00000000  0.64596099  1
  C  C8  1  -0.00000000  -0.00000000  0.14864996  1
  C  C9  1  0.66666700  0.33333300  0.68468304  1
  C  C10  1  0.66666700  0.33333300  0.18737201  1
  C  C11  1  0.66666700  0.33333300  0.48219705  1
  Ni  Ni12  1  0.28963157  0.00761016  0.24849791  1
  Ni  Ni13  1  0.71797858  0.71036843  0.24849791  1
  Ni  Ni14  1  0.99238984  0.28202142  0.24849791  1
  Ni  Ni15  1  0.29639359  0.28826939  0.74539110  1
  Ni  Ni16  1  0.99187580  0.70360641  0.74539110  1
  Ni  Ni17  1  0.71173061  0.00812420  0.74539110  1
  Ni  Ni18  1  0.94868842  0.32572284  0.58483509  1
  Ni  Ni19  1  0.37703543  0.05131158  0.58483509  1
  Ni  Ni20  1  0.67427716  0.62296457  0.58483509  1
  Ni  Ni21  1  0.95493639  0.62972659  0.08794190  1
  Ni  Ni22  1  0.67479120  0.04506361  0.08794190  1
  Ni  Ni23  1  0.37027341  0.32520880  0.08794190  1
  Ni  Ni24  1  0.62745524  0.66666700  0.91666700  1
  Ni  Ni25  1  0.03921076  0.37254476  0.91666700  1
  Ni  Ni26  1  0.33333300  0.96078924  0.91666700  1
  Ni  Ni27  1  0.63675457  0.97008857  0.41666700  1
  Ni  Ni28  1  0.33333300  0.36324543  0.41666700  1
  Ni  Ni29  1  0.02991143  0.66666700  0.41666700  1
  Cu  Cu30  1  0.21040508  0.03848646  0.30252226  1
  Cu  Cu31  1  0.82808138  0.78959492  0.30252226  1
  Cu  Cu32  1  0.96151354  0.17191862  0.30252226  1
  Cu  Cu33  1  0.22669105  0.18333872  0.80045823  1
  Cu  Cu34  1  0.95664767  0.77330895  0.80045823  1
  Cu  Cu35  1  0.81666128  0.04335233  0.80045823  1
  Cu  Cu36  1  0.79853599  0.97494142  0.69431935  1
  Cu  Cu37  1  0.17640542  0.20146401  0.69431935  1
  Cu  Cu38  1  0.02505858  0.82359458  0.69431935  1
  Cu  Cu39  1  0.79851309  0.82431811  0.19586271  1
  Cu  Cu40  1  0.02580503  0.20148691  0.19586271  1
  Cu  Cu41  1  0.17568189  0.97419497  0.19586271  1
  Cu  Cu42  1  0.86815391  0.35913803  0.63747029  1
  Cu  Cu43  1  0.49098511  0.13184609  0.63747029  1
  Cu  Cu44  1  0.64086197  0.50901489  0.63747029  1
  Cu  Cu45  1  0.86813101  0.50973842  0.13901365  1
  Cu  Cu46  1  0.64160842  0.13186899  0.13901365  1
  Cu  Cu47  1  0.49026158  0.35839158  0.13901365  1
  Cu  Cu48  1  0.43997595  0.28998067  0.03287477  1
  Cu  Cu49  1  0.85000572  0.56002405  0.03287477  1
  Cu  Cu50  1  0.71001933  0.14999428  0.03287477  1
  Cu  Cu51  1  0.45626192  0.16141438  0.53081074  1
  Cu  Cu52  1  0.70515346  0.54373808  0.53081074  1
  Cu  Cu53  1  0.83858562  0.29484654  0.53081074  1
  Cu  Cu54  1  0.54875669  0.69745586  0.97018691  1
  Cu  Cu55  1  0.14869817  0.45124331  0.97018691  1
  Cu  Cu56  1  0.30254414  0.85130183  0.97018691  1
  Cu  Cu57  1  0.56080466  0.85402183  0.46936870  1
  Cu  Cu58  1  0.29321617  0.43919534  0.46936870  1
  Cu  Cu59  1  0.14597817  0.70678383  0.46936870  1
  Cu  Cu60  1  0.10586134  0.62655017  0.36396530  1
  Cu  Cu61  1  0.52068783  0.89413866  0.36396530  1
  Cu  Cu62  1  0.37344982  0.47931217  0.36396530  1
  Cu  Cu63  1  0.11790931  0.48203217  0.86314709  1
  Cu  Cu64  1  0.36412186  0.88209069  0.86314709  1
  Cu  Cu65  1  0.51796783  0.63587814  0.86314709  1
  Cu  Cu66  1  0.01273255  0.82623858  0.40614458  1
  Cu  Cu67  1  0.81350603  0.98726745  0.40614458  1
  Cu  Cu68  1  0.17376142  0.18649397  0.40614458  1
  Cu  Cu69  1  0.02332952  0.19638076  0.91068125  1
  Cu  Cu70  1  0.17305124  0.97667048  0.91068125  1
  Cu  Cu71  1  0.80361924  0.82694876  0.91068125  1
  Cu  Cu72  1  0.96572774  0.16520610  0.59291240  1
  Cu  Cu73  1  0.19947836  0.03427226  0.59291240  1
  Cu  Cu74  1  0.83479390  0.80052164  0.59291240  1
  Cu  Cu75  1  0.97341791  0.80722963  0.09646920  1
  Cu  Cu76  1  0.83381172  0.02658209  0.09646920  1
  Cu  Cu77  1  0.19277037  0.16618828  0.09646920  1
  Cu  Cu78  1  0.69324909  0.16714472  0.73686380  1
  Cu  Cu79  1  0.47389663  0.30675091  0.73686380  1
  Cu  Cu80  1  0.83285528  0.52610337  0.73686380  1
  Cu  Cu81  1  0.70093926  0.53281136  0.24042060  1
  Cu  Cu82  1  0.83187310  0.29906074  0.24042060  1
  Cu  Cu83  1  0.46718864  0.16812690  0.24042060  1
  Cu  Cu84  1  0.64333748  0.50638424  0.92265175  1
  Cu  Cu85  1  0.86304776  0.35666252  0.92265175  1
  Cu  Cu86  1  0.49361576  0.13695224  0.92265175  1
  Cu  Cu87  1  0.65393445  0.14683903  0.42718842  1
  Cu  Cu88  1  0.49290558  0.34606555  0.42718842  1
  Cu  Cu89  1  0.85316097  0.50709442  0.42718842  1
  Cu  Cu90  1  0.35474270  0.48600684  0.08202626  1
  Cu  Cu91  1  0.13126315  0.64525730  0.08202626  1
  Cu  Cu92  1  0.51399316  0.86873685  0.08202626  1
  Cu  Cu93  1  0.35932564  0.87363093  0.57848370  1
  Cu  Cu94  1  0.51430429  0.64067436  0.57848370  1
  Cu  Cu95  1  0.12636907  0.48569571  0.57848370  1
  Cu  Cu96  1  0.30734036  0.84763829  0.25485030  1
  Cu  Cu97  1  0.54029693  0.69265964  0.25485030  1
  Cu  Cu98  1  0.15236171  0.45970307  0.25485030  1
  Cu  Cu99  1  0.31192330  0.46459715  0.75130774  1
  Cu  Cu100  1  0.15267284  0.68807670  0.75130774  1
  Cu  Cu101  1  0.53540285  0.84732716  0.75130774  1
