# generated using pymatgen
data_Cu25(NiC12)2
_symmetry_space_group_name_H-M   'P 1'
_cell_length_a   8.65194079
_cell_length_b   8.65194079
_cell_length_c   8.65194079
_cell_angle_alpha   60.00000000
_cell_angle_beta   60.00000000
_cell_angle_gamma   60.00000000
_symmetry_Int_Tables_number   1
_chemical_formula_structural   Cu25(NiC12)2
_chemical_formula_sum   'Cu25 Ni2 C24'
_cell_volume   457.95796568
_cell_formula_units_Z   1
loop_
 _symmetry_equiv_pos_site_id
 _symmetry_equiv_pos_as_xyz
  1  'x, y, z'
loop_
 _atom_site_type_symbol
 _atom_site_label
 _atom_site_symmetry_multiplicity
 _atom_site_fract_x
 _atom_site_fract_y
 _atom_site_fract_z
 _atom_site_occupancy
  C  C0  1  0.40517500  0.86494200  0.86494200  1
  C  C1  1  0.86494200  0.86494200  0.40517500  1
  C  C2  1  0.86494200  0.40517500  0.86494200  1
  C  C3  1  0.86494200  0.86494200  0.86494200  1
  C  C4  1  0.04333000  0.45667000  0.45667000  1
  C  C5  1  0.45667000  0.04333000  0.45667000  1
  C  C6  1  0.45667000  0.45667000  0.04333000  1
  C  C7  1  0.04333000  0.04333000  0.45667000  1
  C  C8  1  0.04333000  0.45667000  0.04333000  1
  C  C9  1  0.45667000  0.04333000  0.04333000  1
  C  C10  1  0.60085100  0.60085100  0.60085100  1
  C  C11  1  0.60085100  0.19744600  0.60085100  1
  C  C12  1  0.60085100  0.60085100  0.19744600  1
  C  C13  1  0.19744600  0.60085100  0.60085100  1
  C  C14  1  0.75714100  0.08095300  0.08095300  1
  C  C15  1  0.08095300  0.08095300  0.75714100  1
  C  C16  1  0.08095300  0.75714100  0.08095300  1
  C  C17  1  0.08095300  0.08095300  0.08095300  1
  C  C18  1  0.25051100  0.74948900  0.74948900  1
  C  C19  1  0.74948900  0.25051100  0.74948900  1
  C  C20  1  0.74948900  0.74948900  0.25051100  1
  C  C21  1  0.25051100  0.25051100  0.74948900  1
  C  C22  1  0.25051100  0.74948900  0.25051100  1
  C  C23  1  0.74948900  0.25051100  0.25051100  1
  Ni  Ni24  1  0.25000000  0.25000000  0.25000000  1
  Ni  Ni25  1  0.75000000  0.75000000  0.75000000  1
  Cu  Cu26  1  0.93638600  0.25770000  0.10226400  1
  Cu  Cu27  1  0.10226400  0.93638600  0.25770000  1
  Cu  Cu28  1  0.25770000  0.10226400  0.93638600  1
  Cu  Cu29  1  0.93638600  0.70364900  0.25770000  1
  Cu  Cu30  1  0.93638600  0.10226400  0.70364900  1
  Cu  Cu31  1  0.25770000  0.70364900  0.10226400  1
  Cu  Cu32  1  0.70364900  0.93638600  0.10226400  1
  Cu  Cu33  1  0.70364900  0.25770000  0.93638600  1
  Cu  Cu34  1  0.10226400  0.25770000  0.70364900  1
  Cu  Cu35  1  0.25770000  0.93638600  0.70364900  1
  Cu  Cu36  1  0.10226400  0.70364900  0.93638600  1
  Cu  Cu37  1  0.70364900  0.10226400  0.25770000  1
  Cu  Cu38  1  0.60707400  0.75829000  0.43889100  1
  Cu  Cu39  1  0.43889100  0.60707400  0.75829000  1
  Cu  Cu40  1  0.75829000  0.43889100  0.60707400  1
  Cu  Cu41  1  0.60707400  0.19574500  0.75829000  1
  Cu  Cu42  1  0.60707400  0.43889100  0.19574500  1
  Cu  Cu43  1  0.75829000  0.19574500  0.43889100  1
  Cu  Cu44  1  0.19574500  0.60707400  0.43889100  1
  Cu  Cu45  1  0.19574500  0.75829000  0.60707400  1
  Cu  Cu46  1  0.43889100  0.75829000  0.19574500  1
  Cu  Cu47  1  0.75829000  0.60707400  0.19574500  1
  Cu  Cu48  1  0.43889100  0.19574500  0.60707400  1
  Cu  Cu49  1  0.19574500  0.43889100  0.75829000  1
  Cu  Cu50  1  0.00000000  0.00000000  0.00000000  1
