# generated using pymatgen
data_Cu3NiC17
_symmetry_space_group_name_H-M   'P 1'
_cell_length_a   8.88871929
_cell_length_b   8.88871899
_cell_length_c   21.52837380
_cell_angle_alpha   90.00000000
_cell_angle_beta   90.00000000
_cell_angle_gamma   120.00000108
_symmetry_Int_Tables_number   1
_chemical_formula_structural   Cu3NiC17
_chemical_formula_sum   'Cu18 Ni6 C102'
_cell_volume   1473.05926605
_cell_formula_units_Z   6
loop_
 _symmetry_equiv_pos_site_id
 _symmetry_equiv_pos_as_xyz
  1  'x, y, z'
loop_
 _atom_site_type_symbol
 _atom_site_label
 _atom_site_symmetry_multiplicity
 _atom_site_fract_x
 _atom_site_fract_y
 _atom_site_fract_z
 _atom_site_occupancy
  C  C0  1  0.63854894  0.00836293  0.24833235  1
  C  C1  1  0.36981399  0.36145106  0.24833235  1
  C  C2  1  0.99163707  0.63018601  0.24833235  1
  C  C3  1  0.63854894  0.63018601  0.74833235  1
  C  C4  1  0.99163707  0.36145106  0.74833235  1
  C  C5  1  0.36981399  0.00836293  0.74833235  1
  C  C6  1  0.30521594  0.34169593  0.58166535  1
  C  C7  1  0.03648099  0.69478406  0.58166535  1
  C  C8  1  0.65830407  0.96351901  0.58166535  1
  C  C9  1  0.30521594  0.96351901  0.08166535  1
  C  C10  1  0.65830407  0.69478406  0.08166535  1
  C  C11  1  0.03648099  0.34169593  0.08166535  1
  C  C12  1  0.97188194  0.67502993  0.91499935  1
  C  C13  1  0.70314699  0.02811806  0.91499935  1
  C  C14  1  0.32497007  0.29685301  0.91499935  1
  C  C15  1  0.97188194  0.29685301  0.41499935  1
  C  C16  1  0.32497007  0.02811806  0.41499935  1
  C  C17  1  0.70314699  0.67502993  0.41499935  1
  C  C18  1  -0.00000000  0.00000000  0.49737574  1
  C  C19  1  -0.00000000  0.00000000  0.99737574  1
  C  C20  1  0.66666700  0.33333300  0.83070874  1
  C  C21  1  0.66666700  0.33333300  0.33070874  1
  C  C22  1  0.33333300  0.66666700  0.16404274  1
  C  C23  1  0.33333300  0.66666700  0.66404274  1
  Ni  Ni24  1  -0.00000000  0.00000000  0.64904260  1
  Ni  Ni25  1  -0.00000000  -0.00000000  0.14904260  1
  Ni  Ni26  1  0.66666700  0.33333300  0.98237560  1
  Ni  Ni27  1  0.66666700  0.33333300  0.48237560  1
  Ni  Ni28  1  0.33333300  0.66666700  0.31570960  1
  Ni  Ni29  1  0.33333300  0.66666700  0.81570960  1
  C  C30  1  -0.00000000  0.00000000  0.34733478  1
  C  C31  1  -0.00000000  0.00000000  0.84733478  1
  C  C32  1  0.66666700  0.33333300  0.68066778  1
  C  C33  1  0.66666700  0.33333300  0.18066778  1
  C  C34  1  0.33333300  0.66666700  0.01400178  1
  C  C35  1  0.33333300  0.66666700  0.51400178  1
  Cu  Cu36  1  0.29067973  0.99364400  0.25057521  1
  Cu  Cu37  1  0.70296427  0.70932027  0.25057521  1
  Cu  Cu38  1  0.00635600  0.29703573  0.25057521  1
  Cu  Cu39  1  0.29067973  0.29703573  0.75057521  1
  Cu  Cu40  1  0.00635600  0.70932027  0.75057521  1
  Cu  Cu41  1  0.70296427  0.99364400  0.75057521  1
  Cu  Cu42  1  0.95734673  0.32697700  0.58390821  1
  Cu  Cu43  1  0.36963127  0.04265327  0.58390821  1
  Cu  Cu44  1  0.67302300  0.63036873  0.58390821  1
  Cu  Cu45  1  0.95734673  0.63036873  0.08390821  1
  Cu  Cu46  1  0.67302300  0.04265327  0.08390821  1
  Cu  Cu47  1  0.36963127  0.32697700  0.08390821  1
  Cu  Cu48  1  0.62401273  0.66031100  0.91724221  1
  Cu  Cu49  1  0.03629727  0.37598727  0.91724221  1
  Cu  Cu50  1  0.33968900  0.96370273  0.91724221  1
  Cu  Cu51  1  0.62401273  0.96370273  0.41724221  1
  Cu  Cu52  1  0.33968900  0.37598727  0.41724221  1
  Cu  Cu53  1  0.03629727  0.66031100  0.41724221  1
  C  C54  1  0.21661118  0.02763705  0.30965121  1
  C  C55  1  0.81102587  0.78338882  0.30965121  1
  C  C56  1  0.97236295  0.18897413  0.30965121  1
  C  C57  1  0.21661118  0.18897413  0.80965121  1
  C  C58  1  0.97236295  0.78338882  0.80965121  1
  C  C59  1  0.81102587  0.02763705  0.80965121  1
  C  C60  1  0.79490754  0.96510661  0.69322625  1
  C  C61  1  0.17019907  0.20509246  0.69322625  1
  C  C62  1  0.03489339  0.82980093  0.69322625  1
  C  C63  1  0.79490754  0.82980093  0.19322625  1
  C  C64  1  0.03489339  0.20509246  0.19322625  1
  C  C65  1  0.17019907  0.96510661  0.19322625  1
  C  C66  1  0.88327818  0.36097005  0.64298421  1
  C  C67  1  0.47769287  0.11672182  0.64298421  1
  C  C68  1  0.63902995  0.52230713  0.64298421  1
  C  C69  1  0.88327818  0.52230713  0.14298421  1
  C  C70  1  0.63902995  0.11672182  0.14298421  1
  C  C71  1  0.47769287  0.36097005  0.14298421  1
  C  C72  1  0.46157454  0.29843961  0.02655925  1
  C  C73  1  0.83686607  0.53842546  0.02655925  1
  C  C74  1  0.70156039  0.16313393  0.02655925  1
  C  C75  1  0.46157454  0.16313393  0.52655925  1
  C  C76  1  0.70156039  0.53842546  0.52655925  1
  C  C77  1  0.83686607  0.29843961  0.52655925  1
  C  C78  1  0.54994418  0.69430405  0.97631821  1
  C  C79  1  0.14435887  0.45005582  0.97631821  1
  C  C80  1  0.30569595  0.85564113  0.97631821  1
  C  C81  1  0.54994418  0.85564113  0.47631821  1
  C  C82  1  0.30569595  0.45005582  0.47631821  1
  C  C83  1  0.14435887  0.69430405  0.47631821  1
  C  C84  1  0.12824054  0.63177361  0.35989325  1
  C  C85  1  0.50353207  0.87175946  0.35989325  1
  C  C86  1  0.36822639  0.49646793  0.35989325  1
  C  C87  1  0.12824054  0.49646793  0.85989325  1
  C  C88  1  0.36822639  0.87175946  0.85989325  1
  C  C89  1  0.50353207  0.63177361  0.85989325  1
  C  C90  1  0.01002735  0.81864938  0.41147447  1
  C  C91  1  0.80862203  0.98997265  0.41147447  1
  C  C92  1  0.18135062  0.19137797  0.41147447  1
  C  C93  1  0.01002735  0.19137797  0.91147447  1
  C  C94  1  0.18135062  0.98997265  0.91147447  1
  C  C95  1  0.80862203  0.81864938  0.91147447  1
  C  C96  1  0.96923663  0.15597579  0.58882279  1
  C  C97  1  0.18673916  0.03076337  0.58882279  1
  C  C98  1  0.84402421  0.81326084  0.58882279  1
  C  C99  1  0.96923663  0.81326084  0.08882279  1
  C  C100  1  0.84402421  0.03076337  0.08882279  1
  C  C101  1  0.18673916  0.15597579  0.08882279  1
  C  C102  1  0.67669435  0.15198238  0.74480747  1
  C  C103  1  0.47528903  0.32330565  0.74480747  1
  C  C104  1  0.84801762  0.52471097  0.74480747  1
  C  C105  1  0.67669435  0.52471097  0.24480747  1
  C  C106  1  0.84801762  0.32330565  0.24480747  1
  C  C107  1  0.47528903  0.15198238  0.24480747  1
  C  C108  1  0.63590363  0.48930879  0.92215579  1
  C  C109  1  0.85340616  0.36409637  0.92215579  1
  C  C110  1  0.51069121  0.14659384  0.92215579  1
  C  C111  1  0.63590363  0.14659384  0.42215579  1
  C  C112  1  0.51069121  0.36409637  0.42215579  1
  C  C113  1  0.85340616  0.48930879  0.42215579  1
  C  C114  1  0.34336035  0.48531638  0.07814147  1
  C  C115  1  0.14195503  0.65663965  0.07814147  1
  C  C116  1  0.51468362  0.85804497  0.07814147  1
  C  C117  1  0.34336035  0.85804497  0.57814147  1
  C  C118  1  0.51468362  0.65663965  0.57814147  1
  C  C119  1  0.14195503  0.48531638  0.57814147  1
  C  C120  1  0.30256963  0.82264279  0.25548979  1
  C  C121  1  0.52007216  0.69743037  0.25548979  1
  C  C122  1  0.17735721  0.47992784  0.25548979  1
  C  C123  1  0.30256963  0.47992784  0.75548979  1
  C  C124  1  0.17735721  0.69743037  0.75548979  1
  C  C125  1  0.52007216  0.82264279  0.75548979  1
