# generated using pymatgen
data_Cu6NiC12
_symmetry_space_group_name_H-M   'P 1'
_cell_length_a   4.80649520
_cell_length_b   13.91036533
_cell_length_c   2.90560500
_cell_angle_alpha   90.00000000
_cell_angle_beta   90.00000000
_cell_angle_gamma   96.50687172
_symmetry_Int_Tables_number   1
_chemical_formula_structural   Cu6NiC12
_chemical_formula_sum   'Cu6 Ni1 C12'
_cell_volume   193.01762458
_cell_formula_units_Z   1
loop_
 _symmetry_equiv_pos_site_id
 _symmetry_equiv_pos_as_xyz
  1  'x, y, z'
loop_
 _atom_site_type_symbol
 _atom_site_label
 _atom_site_symmetry_multiplicity
 _atom_site_fract_x
 _atom_site_fract_y
 _atom_site_fract_z
 _atom_site_occupancy
  Ni  Ni0  1  0.50000000  0.00000000  0.47509700  1
  Cu  Cu1  1  0.00000000  0.00000000  0.97707700  1
  Cu  Cu2  1  0.95104600  0.35564500  0.99443100  1
  Cu  Cu3  1  0.04895400  0.64435500  0.99443100  1
  Cu  Cu4  1  0.45599600  0.19085600  0.48732800  1
  Cu  Cu5  1  0.50000000  0.50000000  0.49646100  1
  Cu  Cu6  1  0.54400500  0.80914400  0.48732800  1
  C  C7  1  0.13006900  0.92985000  0.47783300  1
  C  C8  1  0.21562700  0.58244700  0.49527100  1
  C  C9  1  0.36424700  0.74411800  0.98948900  1
  C  C10  1  0.34791100  0.08999000  0.97878700  1
  C  C11  1  0.30893500  0.43344600  0.99594200  1
  C  C12  1  0.69106600  0.56655400  0.99594200  1
  C  C13  1  0.63575300  0.25588200  0.98948900  1
  C  C14  1  0.65208900  0.91001000  0.97878700  1
  C  C15  1  0.86993100  0.07015000  0.47783300  1
  C  C16  1  0.78437300  0.41755300  0.49527100  1
  C  C17  1  0.12327600  0.27266000  0.49201800  1
  C  C18  1  0.87672400  0.72734000  0.49201800  1
