# generated using pymatgen
data_Cu2NiC11
_symmetry_space_group_name_H-M   'P 1'
_cell_length_a   5.08871766
_cell_length_b   5.78647650
_cell_length_c   6.00739166
_cell_angle_alpha   118.79079731
_cell_angle_beta   90.25761834
_cell_angle_gamma   90.00000084
_symmetry_Int_Tables_number   1
_chemical_formula_structural   Cu2NiC11
_chemical_formula_sum   'Cu2 Ni1 C11'
_cell_volume   155.02339522
_cell_formula_units_Z   1
loop_
 _symmetry_equiv_pos_site_id
 _symmetry_equiv_pos_as_xyz
  1  'x, y, z'
loop_
 _atom_site_type_symbol
 _atom_site_label
 _atom_site_symmetry_multiplicity
 _atom_site_fract_x
 _atom_site_fract_y
 _atom_site_fract_z
 _atom_site_occupancy
  Ni  Ni0  1  0.50000000  0.50000000  0.00000000  1
  Cu  Cu1  1  0.73396924  0.76292348  0.52584696  1
  Cu  Cu2  1  0.26602976  0.23707752  0.47415304  1
  C  C3  1  0.50000000  0.99999900  0.00000000  1
  C  C4  1  0.99999900  0.75289574  0.00000000  1
  C  C5  1  0.99999900  0.24710426  1.00000000  1
  C  C6  1  0.15171460  0.40569006  0.81138112  1
  C  C7  1  0.84828540  0.59430894  0.18861888  1
  C  C8  1  0.16993586  0.91092661  0.82185421  1
  C  C9  1  0.83006414  0.08907239  0.17814479  1
  C  C10  1  0.35345882  0.33495377  0.21306813  1
  C  C11  1  0.35345882  0.87811336  0.21306813  1
  C  C12  1  0.64654218  0.12188564  0.78693187  1
  C  C13  1  0.64654218  0.66504623  0.78693187  1
