# generated using pymatgen
data_CuNiC
_symmetry_space_group_name_H-M   'P 1'
_cell_length_a   4.61553290
_cell_length_b   4.61553290
_cell_length_c   7.58645900
_cell_angle_alpha   90.00000000
_cell_angle_beta   90.00000000
_cell_angle_gamma   120.00001286
_symmetry_Int_Tables_number   1
_chemical_formula_structural   CuNiC
_chemical_formula_sum   'Cu2 Ni2 C2'
_cell_volume   139.96304812
_cell_formula_units_Z   2
loop_
 _symmetry_equiv_pos_site_id
 _symmetry_equiv_pos_as_xyz
  1  'x, y, z'
loop_
 _atom_site_type_symbol
 _atom_site_label
 _atom_site_symmetry_multiplicity
 _atom_site_fract_x
 _atom_site_fract_y
 _atom_site_fract_z
 _atom_site_occupancy
  C  C0  1  0.00000000  0.00000000  0.51150500  1
  C  C1  1  0.00000000  0.00000000  0.01150500  1
  Ni  Ni2  1  0.66666700  0.33333300  0.20612700  1
  Ni  Ni3  1  0.33333300  0.66666700  0.70612700  1
  Cu  Cu4  1  0.33333300  0.66666700  0.27476700  1
  Cu  Cu5  1  0.66666700  0.33333300  0.77476700  1
