# generated using pymatgen
data_Cu2NiC8
_symmetry_space_group_name_H-M   'P 1'
_cell_length_a   5.89164700
_cell_length_b   5.89164700
_cell_length_c   10.53472100
_cell_angle_alpha   90.00000000
_cell_angle_beta   90.00000000
_cell_angle_gamma   90.00000000
_symmetry_Int_Tables_number   1
_chemical_formula_structural   Cu2NiC8
_chemical_formula_sum   'Cu4 Ni2 C16'
_cell_volume   365.67601406
_cell_formula_units_Z   2
loop_
 _symmetry_equiv_pos_site_id
 _symmetry_equiv_pos_as_xyz
  1  'x, y, z'
loop_
 _atom_site_type_symbol
 _atom_site_label
 _atom_site_symmetry_multiplicity
 _atom_site_fract_x
 _atom_site_fract_y
 _atom_site_fract_z
 _atom_site_occupancy
  Ni  Ni0  1  0.00000000  0.00000000  0.25000000  1
  Ni  Ni1  1  0.00000000  0.00000000  0.75000000  1
  Cu  Cu2  1  0.50000000  0.00000000  0.00000000  1
  Cu  Cu3  1  0.00000000  0.50000000  0.00000000  1
  Cu  Cu4  1  0.00000000  0.50000000  0.50000000  1
  Cu  Cu5  1  0.50000000  0.00000000  0.50000000  1
  C  C6  1  0.69286400  0.85471900  0.62966700  1
  C  C7  1  0.30713600  0.14528100  0.62966700  1
  C  C8  1  0.85471900  0.69286400  0.87033300  1
  C  C9  1  0.85471900  0.30713600  0.62966700  1
  C  C10  1  0.14528100  0.69286400  0.62966700  1
  C  C11  1  0.30713600  0.85471900  0.87033300  1
  C  C12  1  0.85471900  0.69286400  0.12966700  1
  C  C13  1  0.30713600  0.85471900  0.12966700  1
  C  C14  1  0.69286400  0.14528100  0.12966700  1
  C  C15  1  0.85471900  0.30713600  0.37033300  1
  C  C16  1  0.14528100  0.69286400  0.37033300  1
  C  C17  1  0.14528100  0.30713600  0.12966700  1
  C  C18  1  0.69286400  0.85471900  0.37033300  1
  C  C19  1  0.30713600  0.14528100  0.37033300  1
  C  C20  1  0.14528100  0.30713600  0.87033300  1
  C  C21  1  0.69286400  0.14528100  0.87033300  1
