# generated using pymatgen
data_Cu2NiC7
_symmetry_space_group_name_H-M   'P 1'
_cell_length_a   3.27070100
_cell_length_b   3.27074853
_cell_length_c   38.13872006
_cell_angle_alpha   90.00257539
_cell_angle_beta   89.99409682
_cell_angle_gamma   120.00069415
_symmetry_Int_Tables_number   1
_chemical_formula_structural   Cu2NiC7
_chemical_formula_sum   'Cu2 Ni1 C7'
_cell_volume   353.33096872
_cell_formula_units_Z   1
loop_
 _symmetry_equiv_pos_site_id
 _symmetry_equiv_pos_as_xyz
  1  'x, y, z'
loop_
 _atom_site_type_symbol
 _atom_site_label
 _atom_site_symmetry_multiplicity
 _atom_site_fract_x
 _atom_site_fract_y
 _atom_site_fract_z
 _atom_site_occupancy
  C  C0  1  0.00016700  0.00006400  0.45897000  1
  Ni  Ni1  1  0.66650600  0.33320500  0.33872000  1
  Cu  Cu2  1  0.33334000  0.66664500  0.11559700  1
  Cu  Cu3  1  0.33336100  0.66672700  0.58773400  1
  C  C4  1  0.33345200  0.66671800  0.38358400  1
  C  C5  1  0.66682800  0.33345200  0.54280300  1
  C  C6  1  0.66656400  0.33333600  0.63235000  1
  C  C7  1  0.33297700  0.66640500  0.29440900  1
  C  C8  1  0.66693700  0.33341200  0.07505500  1
  C  C9  1  0.66646900  0.33323400  0.15611900  1
