# generated using pymatgen
data_Cu6NiC12
_symmetry_space_group_name_H-M   'P 1'
_cell_length_a   11.77770957
_cell_length_b   6.56755907
_cell_length_c   2.93366301
_cell_angle_alpha   90.00138216
_cell_angle_beta   90.00317299
_cell_angle_gamma   74.62838350
_symmetry_Int_Tables_number   1
_chemical_formula_structural   Cu6NiC12
_chemical_formula_sum   'Cu6 Ni1 C12'
_cell_volume   218.80350152
_cell_formula_units_Z   1
loop_
 _symmetry_equiv_pos_site_id
 _symmetry_equiv_pos_as_xyz
  1  'x, y, z'
loop_
 _atom_site_type_symbol
 _atom_site_label
 _atom_site_symmetry_multiplicity
 _atom_site_fract_x
 _atom_site_fract_y
 _atom_site_fract_z
 _atom_site_occupancy
  Ni  Ni0  1  0.16676900  0.16672500  0.99077300  1
  Cu  Cu1  1  0.98604000  0.00191800  0.99168500  1
  Cu  Cu2  1  0.94612800  0.53729900  0.49151200  1
  Cu  Cu3  1  0.34755000  0.33140600  0.99192500  1
  Cu  Cu4  1  0.66680200  0.16663900  0.49065000  1
  Cu  Cu5  1  0.38736900  0.79607600  0.49159900  1
  Cu  Cu6  1  0.66674800  0.66667000  0.99030200  1
  C  C7  1  0.98720000  0.32741500  0.99151700  1
  C  C8  1  0.34635400  0.00597900  0.99161200  1
  C  C9  1  0.97392700  0.71522400  0.99158800  1
  C  C10  1  0.23254300  0.33945100  0.49155500  1
  C  C11  1  0.10104600  0.99385100  0.49150900  1
  C  C12  1  0.35959200  0.61811800  0.99164300  1
  C  C13  1  0.66522000  0.35603300  0.99060100  1
  C  C14  1  0.55626100  0.72310700  0.49040300  1
  C  C15  1  0.77724800  0.61022900  0.49043700  1
  C  C16  1  0.66836300  0.97724200  0.99070000  1
  C  C17  1  0.47566800  0.25211000  0.49187500  1
  C  C18  1  0.85792400  0.08117500  0.49145000  1
