# generated using pymatgen
data_CuNi5C36
_symmetry_space_group_name_H-M   'P 1'
_cell_length_a   9.03031055
_cell_length_b   9.02807378
_cell_length_c   22.05644590
_cell_angle_alpha   89.68960131
_cell_angle_beta   90.00738759
_cell_angle_gamma   120.07323955
_symmetry_Int_Tables_number   1
_chemical_formula_structural   CuNi5C36
_chemical_formula_sum   'Cu3 Ni15 C108'
_cell_volume   1556.08978196
_cell_formula_units_Z   3
loop_
 _symmetry_equiv_pos_site_id
 _symmetry_equiv_pos_as_xyz
  1  'x, y, z'
loop_
 _atom_site_type_symbol
 _atom_site_label
 _atom_site_symmetry_multiplicity
 _atom_site_fract_x
 _atom_site_fract_y
 _atom_site_fract_z
 _atom_site_occupancy
  C  C0  1  0.62220935  0.99873982  0.25113529  1
  C  C1  1  0.36747153  0.36235622  0.25301265  1
  C  C2  1  0.00733603  0.63825832  0.24954504  1
  C  C3  1  0.63665645  0.62232634  0.74669800  1
  C  C4  1  0.99555798  0.36511780  0.74189407  1
  C  C5  1  0.36152542  0.00662353  0.74465524  1
  C  C6  1  0.29757837  0.33817113  0.58245183  1
  C  C7  1  0.03951103  0.70300892  0.58276090  1
  C  C8  1  0.66426665  0.96151309  0.58032537  1
  C  C9  1  0.29816958  0.95862015  0.08352707  1
  C  C10  1  0.66177581  0.70139195  0.08163704  1
  C  C11  1  0.03903637  0.33695008  0.08194388  1
  C  C12  1  0.96913217  0.67447731  0.91529902  1
  C  C13  1  0.70284930  0.02781717  0.91763440  1
  C  C14  1  0.32530971  0.29520771  0.91466469  1
  C  C15  1  0.97291160  0.30108092  0.41865306  1
  C  C16  1  0.33012673  0.02923314  0.41686357  1
  C  C17  1  0.69986749  0.67302134  0.41858354  1
  C  C18  1  0.00018936  0.00080924  0.50166721  1
  C  C19  1  0.99951249  0.99886048  0.99966831  1
  C  C20  1  0.66502525  0.33927647  0.82971367  1
  C  C21  1  0.66009252  0.32773916  0.33420923  1
  C  C22  1  0.33231247  0.67228070  0.16346858  1
  C  C23  1  0.32876223  0.66263629  0.65816425  1
  C  C24  1  0.66633773  0.33282250  0.98173320  1
  C  C25  1  0.66751732  0.33461125  0.48136903  1
  C  C26  1  0.32295559  0.65769766  0.81447564  1
  C  C27  1  0.01833894  0.00577355  0.35850078  1
  C  C28  1  0.01326662  0.99483348  0.85359205  1
  C  C29  1  0.01878799  0.00568842  0.64285394  1
  C  C30  1  0.01150860  0.99397444  0.14216361  1
  C  C31  1  0.66454603  0.34502076  0.67898966  1
  C  C32  1  0.64871446  0.31828959  0.17624096  1
  C  C33  1  0.33420926  0.66661923  0.01933115  1
  C  C34  1  0.33452381  0.66718074  0.51789693  1
  C  C35  1  0.33072188  0.68199220  0.32598070  1
  Ni  Ni36  1  0.29255291  0.99957875  0.24975475  1
  Ni  Ni37  1  0.28992247  0.28418430  0.74906434  1
  Ni  Ni38  1  0.99433060  0.71003264  0.74910950  1
  Ni  Ni39  1  0.96025310  0.33245808  0.58713989  1
  Ni  Ni40  1  0.37682177  0.03883647  0.58653761  1
  Ni  Ni41  1  0.66604888  0.63256660  0.58520963  1
  Ni  Ni42  1  0.95811185  0.62245253  0.08777226  1
  Ni  Ni43  1  0.66826029  0.03514822  0.08640080  1
  Ni  Ni44  1  0.37141931  0.33726187  0.08547121  1
  Ni  Ni45  1  0.62804285  0.67306451  0.91797488  1
  Ni  Ni46  1  0.04025868  0.36786301  0.91986879  1
  Ni  Ni47  1  0.33187413  0.95458352  0.91868181  1
  Ni  Ni48  1  0.62914859  0.95646450  0.41551713  1
  Ni  Ni49  1  0.33213093  0.38359730  0.41498304  1
  Ni  Ni50  1  0.04510399  0.66767035  0.41665730  1
  Cu  Cu51  1  0.70938125  0.70915744  0.24950240  1
  Cu  Cu52  1  0.99977078  0.29053798  0.24941846  1
  Cu  Cu53  1  0.71081727  -0.00071697  0.75045122  1
  C  C54  1  0.20508097  0.03801937  0.30852379  1
  C  C55  1  0.81520779  0.79054372  0.30426909  1
  C  C56  1  0.96963223  0.18176872  0.30433057  1
  C  C57  1  0.20509780  0.17318196  0.81092353  1
  C  C58  1  0.96029212  0.78998089  0.81038014  1
  C  C59  1  0.81363659  0.02497643  0.80612177  1
  C  C60  1  0.78471131  0.96870433  0.69651425  1
  C  C61  1  0.16329381  0.20913015  0.69101204  1
  C  C62  1  0.03969199  0.83527622  0.69066103  1
  C  C63  1  0.78887883  0.81853694  0.19437891  1
  C  C64  1  0.02373304  0.20853277  0.19445254  1
  C  C65  1  0.16788852  0.96168583  0.19026572  1
  C  C66  1  0.87084402  0.36757497  0.64554593  1
  C  C67  1  0.49997065  0.12653989  0.64526767  1
  C  C68  1  0.62434046  0.50948576  0.64444290  1
  C  C69  1  0.86572143  0.49661337  0.14599062  1
  C  C70  1  0.62826278  0.11946406  0.14441206  1
  C  C71  1  0.49538312  0.37802112  0.14387188  1
  C  C72  1  0.46567087  0.29903113  0.02638682  1
  C  C73  1  0.83193159  0.52994633  0.02689801  1
  C  C74  1  0.70395037  0.16578784  0.02628416  1
  C  C75  1  0.47003849  0.16672518  0.52625117  1
  C  C76  1  0.70120038  0.53660366  0.52611830  1
  C  C77  1  0.83382030  0.30127344  0.52660998  1
  C  C78  1  0.54163239  0.70553143  0.97650340  1
  C  C79  1  0.16411120  0.45643643  0.97671095  1
  C  C80  1  0.29622151  0.83309614  0.97696756  1
  C  C81  1  0.54673090  0.83664099  0.47484240  1
  C  C82  1  0.29570207  0.46311366  0.47487814  1
  C  C83  1  0.16691388  0.70734666  0.47512085  1
  C  C84  1  0.11418055  0.61927505  0.35528534  1
  C  C85  1  0.51001342  0.88534734  0.35471135  1
  C  C86  1  0.37213226  0.50341784  0.35352455  1
  C  C87  1  0.12881640  0.49724725  0.85927261  1
  C  C88  1  0.36930936  0.86773670  0.85815924  1
  C  C89  1  0.50040277  0.63426104  0.85810093  1
  C  C90  1  0.01676841  0.83304910  0.41025680  1
  C  C91  1  0.82122457  0.98153410  0.40588214  1
  C  C92  1  0.16364000  0.19011680  0.41090945  1
  C  C93  1  0.01494308  0.17984002  0.90881278  1
  C  C94  1  0.16543730  0.97810443  0.91304259  1
  C  C95  1  0.81641174  0.84079100  0.90960357  1
  C  C96  1  0.96855244  0.15570697  0.58934826  1
  C  C97  1  0.19193032  0.03063418  0.58587089  1
  C  C98  1  0.84063028  0.81822499  0.58978563  1
  C  C99  1  0.96697027  0.80818455  0.08784255  1
  C  C100  1  0.84358919  0.02474115  0.09205234  1
  C  C101  1  0.18529374  0.16210800  0.08814000  1
  C  C102  1  0.68795751  0.15155277  0.74701000  1
  C  C103  1  0.48226817  0.30687317  0.74537265  1
  C  C104  1  0.83143464  0.51322639  0.74573400  1
  C  C105  1  0.69603323  0.53766834  0.24568107  1
  C  C106  1  0.84620450  0.31158774  0.24585908  1
  C  C107  1  0.48687176  0.17608809  0.24443276  1
  C  C108  1  0.64156470  0.49616433  0.92173433  1
  C  C109  1  0.85330364  0.35949952  0.92144869  1
  C  C110  1  0.50682453  0.14579259  0.92162158  1
  C  C111  1  0.64677434  0.14905570  0.42212849  1
  C  C112  1  0.50398221  0.35981099  0.42078408  1
  C  C113  1  0.85147623  0.49518771  0.42193411  1
  C  C114  1  0.35582256  0.50720452  0.07796759  1
  C  C115  1  0.14482321  0.64037141  0.07970307  1
  C  C116  1  0.49654587  0.85083808  0.07820073  1
  C  C117  1  0.35907937  0.85213429  0.57884349  1
  C  C118  1  0.49394401  0.64503986  0.57751810  1
  C  C119  1  0.14613920  0.50377464  0.57890591  1
  C  C120  1  0.31133781  0.82470754  0.25526935  1
  C  C121  1  0.53535545  0.68770451  0.25281640  1
  C  C122  1  0.15725516  0.46172774  0.25297354  1
  C  C123  1  0.31443196  0.48327762  0.75611314  1
  C  C124  1  0.17386360  0.69430455  0.75611919  1
  C  C125  1  0.53400505  0.84175580  0.75547284  1
