# generated using pymatgen
data_Cu24(NiC)5
_symmetry_space_group_name_H-M   'P 1'
_cell_length_a   9.48497277
_cell_length_b   9.49142488
_cell_length_c   24.18552587
_cell_angle_alpha   90.06806020
_cell_angle_beta   90.18161872
_cell_angle_gamma   119.93958761
_symmetry_Int_Tables_number   1
_chemical_formula_structural   Cu24(NiC)5
_chemical_formula_sum   'Cu72 Ni15 C15'
_cell_volume   1886.74551596
_cell_formula_units_Z   3
loop_
 _symmetry_equiv_pos_site_id
 _symmetry_equiv_pos_as_xyz
  1  'x, y, z'
loop_
 _atom_site_type_symbol
 _atom_site_label
 _atom_site_symmetry_multiplicity
 _atom_site_fract_x
 _atom_site_fract_y
 _atom_site_fract_z
 _atom_site_occupancy
  C  C0  1  0.01110031  0.00355327  0.35404279  1
  C  C1  1  0.99211533  0.99700321  0.86290557  1
  C  C2  1  0.99883389  0.99850986  0.65271558  1
  C  C3  1  0.01098424  0.99489243  0.14177090  1
  C  C4  1  0.66815621  0.33439255  0.69510413  1
  C  C5  1  0.65848511  0.32463799  0.19523205  1
  C  C6  1  0.66504055  0.33099191  0.47262549  1
  C  C7  1  0.33656669  0.66157655  0.02399501  1
  C  C8  1  0.33387921  0.66641617  0.52748868  1
  C  C9  1  0.67315738  0.33702459  0.97314775  1
  C  C10  1  0.33250823  0.67338750  0.31049751  1
  C  C11  1  0.33211077  0.65661164  0.82389286  1
  C  C12  1  0.28551185  0.98519562  0.25075314  1
  C  C13  1  0.61291855  0.64457756  0.91901189  1
  C  C14  1  0.03598711  0.38889654  0.91788918  1
  Ni  Ni15  1  0.68572999  0.71069582  0.25359921  1
  Ni  Ni16  1  0.02427557  0.31509959  0.25359229  1
  Ni  Ni17  1  0.29196075  0.31780911  0.75484324  1
  Ni  Ni18  1  0.02897841  0.71091178  0.75420642  1
  Ni  Ni19  1  0.68123598  0.97312803  0.75403086  1
  Ni  Ni20  1  0.95046362  0.32471387  0.58371343  1
  Ni  Ni21  1  0.37442259  0.05053372  0.58365674  1
  Ni  Ni22  1  0.67538670  0.62385804  0.58366374  1
  Ni  Ni23  1  0.92974503  0.60858107  0.07827377  1
  Ni  Ni24  1  0.68046072  0.06803438  0.07821843  1
  Ni  Ni25  1  0.38841501  0.32071283  0.07862215  1
  Ni  Ni26  1  0.36096400  0.96667483  0.91611974  1
  Ni  Ni27  1  0.60527203  0.94269437  0.41200296  1
  Ni  Ni28  1  0.34001349  0.39646096  0.41287338  1
  Ni  Ni29  1  0.05423180  0.65667556  0.41212902  1
  Cu  Cu30  1  0.20226239  0.00951502  0.30533585  1
  Cu  Cu31  1  0.78743959  0.78532250  0.30287514  1
  Cu  Cu32  1  0.99044008  0.21054365  0.30239386  1
  Cu  Cu33  1  0.21985344  0.20886909  0.80177257  1
  Cu  Cu34  1  0.99286727  0.78562904  0.80073500  1
  Cu  Cu35  1  0.79428119  0.01123656  0.80021778  1
  Cu  Cu36  1  0.75039918  0.94145049  0.70284287  1
  Cu  Cu37  1  0.19111988  0.24937467  0.70380496  1
  Cu  Cu38  1  0.05615236  0.81034473  0.70285882  1
  Cu  Cu39  1  0.74877316  0.81247797  0.20417982  1
  Cu  Cu40  1  0.05968240  0.24869863  0.20418656  1
  Cu  Cu41  1  0.16761310  0.94621614  0.19708658  1
  Cu  Cu42  1  0.87061433  0.34634735  0.63292585  1
  Cu  Cu43  1  0.47608654  0.13100400  0.63302208  1
  Cu  Cu44  1  0.65524590  0.52335016  0.63294817  1
  Cu  Cu45  1  0.85493455  0.51544218  0.12892472  1
  Cu  Cu46  1  0.66513647  0.14570240  0.12930898  1
  Cu  Cu47  1  0.48024748  0.33925043  0.13040298  1
  Cu  Cu48  1  0.47785898  0.30655248  0.02990303  1
  Cu  Cu49  1  0.82440008  0.51508360  0.02818985  1
  Cu  Cu50  1  0.69162743  0.17183892  0.02860116  1
  Cu  Cu51  1  0.45330135  0.14687014  0.53295961  1
  Cu  Cu52  1  0.69172922  0.54387700  0.53292054  1
  Cu  Cu53  1  0.85342460  0.30673789  0.53285792  1
  Cu  Cu54  1  0.53858948  0.68377443  0.97139327  1
  Cu  Cu55  1  0.14283661  0.47149407  0.97110293  1
  Cu  Cu56  1  0.32428687  0.86986342  0.96631639  1
  Cu  Cu57  1  0.53340659  0.85034445  0.46323284  1
  Cu  Cu58  1  0.32452222  0.47143893  0.46468591  1
  Cu  Cu59  1  0.14845712  0.67855498  0.46334341  1
  Cu  Cu60  1  0.14807214  0.64397269  0.36370242  1
  Cu  Cu61  1  0.49660563  0.84829739  0.36339426  1
  Cu  Cu62  1  0.35324343  0.50035997  0.36465151  1
  Cu  Cu63  1  0.14313173  0.52406563  0.86428970  1
  Cu  Cu64  1  0.38789465  0.87848503  0.86782804  1
  Cu  Cu65  1  0.47882088  0.62192695  0.86507138  1
  Cu  Cu66  1  0.03008701  0.79632427  0.40523677  1
  Cu  Cu67  1  0.76689043  0.96260337  0.40388870  1
  Cu  Cu68  1  0.19549766  0.23428151  0.40762600  1
  Cu  Cu69  1  0.00047063  0.21369519  0.89983334  1
  Cu  Cu70  1  0.23011034  0.99939871  0.90220667  1
  Cu  Cu71  1  0.79001831  0.77713920  0.89962533  1
  Cu  Cu72  1  0.96760961  0.17844654  0.59031604  1
  Cu  Cu73  1  0.21118632  0.03389402  0.59004545  1
  Cu  Cu74  1  0.82195448  0.78721402  0.58981379  1
  Cu  Cu75  1  0.93381879  0.76673463  0.07976737  1
  Cu  Cu76  1  0.83037471  0.05707079  0.08129421  1
  Cu  Cu77  1  0.22642714  0.17003748  0.08141686  1
  Cu  Cu78  1  0.65502178  0.11322579  0.74367860  1
  Cu  Cu79  1  0.45989926  0.35107679  0.74490943  1
  Cu  Cu80  1  0.88975903  0.54378792  0.74411123  1
  Cu  Cu81  1  0.65668628  0.54483125  0.24602731  1
  Cu  Cu82  1  0.89369684  0.35347992  0.24594759  1
  Cu  Cu83  1  0.47191501  0.12464120  0.24328367  1
  Cu  Cu84  1  0.61636271  0.46904160  0.93119514  1
  Cu  Cu85  1  0.85047987  0.37265642  0.92932930  1
  Cu  Cu86  1  0.51658439  0.12804362  0.92409901  1
  Cu  Cu87  1  0.61128691  0.10149304  0.41359463  1
  Cu  Cu88  1  0.48989105  0.38353995  0.41531285  1
  Cu  Cu89  1  0.89595965  0.50311152  0.41381116  1
  Cu  Cu90  1  0.36695227  0.46313290  0.07407580  1
  Cu  Cu91  1  0.09341466  0.63188406  0.07186373  1
  Cu  Cu92  1  0.53443839  0.90743274  0.07255149  1
  Cu  Cu93  1  0.35699839  0.88676591  0.57810874  1
  Cu  Cu94  1  0.52912642  0.64173457  0.57857352  1
  Cu  Cu95  1  0.11422432  0.47079074  0.57821292  1
  Cu  Cu96  1  0.30241869  0.81513292  0.26782651  1
  Cu  Cu97  1  0.51732466  0.69210940  0.26613650  1
  Cu  Cu98  1  0.17839647  0.47877386  0.26689275  1
  Cu  Cu99  1  0.30180381  0.48107102  0.76631453  1
  Cu  Cu100  1  0.17918754  0.70040980  0.76564193  1
  Cu  Cu101  1  0.51945673  0.82642901  0.76654644  1
