# generated using pymatgen
data_Cu(NiC)2
_symmetry_space_group_name_H-M   'P 1'
_cell_length_a   5.49281360
_cell_length_b   5.49281360
_cell_length_c   13.47862200
_cell_angle_alpha   90.00000000
_cell_angle_beta   90.00000000
_cell_angle_gamma   119.99999518
_symmetry_Int_Tables_number   1
_chemical_formula_structural   Cu(NiC)2
_chemical_formula_sum   'Cu8 Ni16 C16'
_cell_volume   352.18095716
_cell_formula_units_Z   8
loop_
 _symmetry_equiv_pos_site_id
 _symmetry_equiv_pos_as_xyz
  1  'x, y, z'
loop_
 _atom_site_type_symbol
 _atom_site_label
 _atom_site_symmetry_multiplicity
 _atom_site_fract_x
 _atom_site_fract_y
 _atom_site_fract_z
 _atom_site_occupancy
  C  C0  1  0.83157700  0.16842300  0.83477600  1
  C  C1  1  0.66315500  0.83157700  0.16522400  1
  C  C2  1  0.16842300  0.83157700  0.16522400  1
  C  C3  1  0.33684500  0.16842300  0.83477600  1
  C  C4  1  0.16842300  0.33684500  0.16522400  1
  C  C5  1  0.83157700  0.66315500  0.83477600  1
  C  C6  1  0.50000000  0.50000000  0.50000000  1
  C  C7  1  0.00000000  0.50000000  0.50000000  1
  C  C8  1  0.50000000  0.00000000  0.50000000  1
  C  C9  1  0.00000000  0.00000000  0.00000000  1
  C  C10  1  0.33333300  0.66666700  0.33013200  1
  C  C11  1  0.66666700  0.33333300  0.66986800  1
  C  C12  1  0.00000000  0.00000000  0.37102000  1
  C  C13  1  0.00000000  0.00000000  0.62898000  1
  C  C14  1  0.66666700  0.33333300  0.04482500  1
  C  C15  1  0.33333300  0.66666700  0.95517500  1
  Ni  Ni16  1  0.68588600  0.84294300  0.91271900  1
  Ni  Ni17  1  0.31411400  0.15705700  0.08728100  1
  Ni  Ni18  1  0.84294300  0.15705700  0.08728100  1
  Ni  Ni19  1  0.15705700  0.84294300  0.91271900  1
  Ni  Ni20  1  0.84294300  0.68588600  0.08728100  1
  Ni  Ni21  1  0.15705700  0.31411400  0.91271900  1
  Ni  Ni22  1  0.33333300  0.66666700  0.08655700  1
  Ni  Ni23  1  0.66666700  0.33333300  0.91344300  1
  Ni  Ni24  1  0.17613700  0.35227500  0.41590500  1
  Ni  Ni25  1  0.82386300  0.64772500  0.58409500  1
  Ni  Ni26  1  0.82386300  0.17613700  0.58409500  1
  Ni  Ni27  1  0.64772500  0.82386300  0.41590500  1
  Ni  Ni28  1  0.17613700  0.82386300  0.41590500  1
  Ni  Ni29  1  0.35227500  0.17613700  0.58409500  1
  Ni  Ni30  1  0.00000000  0.00000000  0.24065000  1
  Ni  Ni31  1  0.00000000  0.00000000  0.75935000  1
  Cu  Cu32  1  0.33333300  0.66666700  0.56318800  1
  Cu  Cu33  1  0.66666700  0.33333300  0.43681200  1
  Cu  Cu34  1  0.52139300  0.47860700  0.75774100  1
  Cu  Cu35  1  0.04278600  0.52139300  0.24225900  1
  Cu  Cu36  1  0.47860700  0.95721400  0.24225900  1
  Cu  Cu37  1  0.95721400  0.47860700  0.75774100  1
  Cu  Cu38  1  0.52139300  0.04278600  0.75774100  1
  Cu  Cu39  1  0.47860700  0.52139300  0.24225900  1
