# generated using pymatgen
data_CuNiC11
_symmetry_space_group_name_H-M   'P 1'
_cell_length_a   5.42274103
_cell_length_b   5.42274127
_cell_length_c   6.84439965
_cell_angle_alpha   92.40159880
_cell_angle_beta   92.40158545
_cell_angle_gamma   65.00174613
_symmetry_Int_Tables_number   1
_chemical_formula_structural   CuNiC11
_chemical_formula_sum   'Cu1 Ni1 C11'
_cell_volume   182.18737640
_cell_formula_units_Z   1
loop_
 _symmetry_equiv_pos_site_id
 _symmetry_equiv_pos_as_xyz
  1  'x, y, z'
loop_
 _atom_site_type_symbol
 _atom_site_label
 _atom_site_symmetry_multiplicity
 _atom_site_fract_x
 _atom_site_fract_y
 _atom_site_fract_z
 _atom_site_occupancy
  C  C0  1  0.00715300  0.00715300  0.48809500  1
  Ni  Ni1  1  0.35953600  0.35953600  0.20140100  1
  Cu  Cu2  1  0.01497800  0.01497800  0.95973400  1
  C  C3  1  0.35442900  0.35442900  0.71868300  1
  C  C4  1  0.66337400  0.66337400  0.24671300  1
  C  C5  1  0.76040600  0.31811800  0.20955000  1
  C  C6  1  0.29735900  0.29735900  0.46938400  1
  C  C7  1  0.22940300  0.70191700  0.75036600  1
  C  C8  1  0.31811800  0.76040600  0.20954900  1
  C  C9  1  0.79130200  0.79130200  0.08317900  1
  C  C10  1  0.70191700  0.22940300  0.75036700  1
  C  C11  1  0.23048100  0.23048100  0.97030500  1
  C  C12  1  0.73404200  0.73404200  0.47045100  1
