# generated using pymatgen
data_CuNiC6
_symmetry_space_group_name_H-M   'P 1'
_cell_length_a   3.94099743
_cell_length_b   7.47070993
_cell_length_c   8.18258051
_cell_angle_alpha   103.42764903
_cell_angle_beta   90.00910949
_cell_angle_gamma   105.29524622
_symmetry_Int_Tables_number   1
_chemical_formula_structural   CuNiC6
_chemical_formula_sum   'Cu1 Ni1 C6'
_cell_volume   225.54154907
_cell_formula_units_Z   1
loop_
 _symmetry_equiv_pos_site_id
 _symmetry_equiv_pos_as_xyz
  1  'x, y, z'
loop_
 _atom_site_type_symbol
 _atom_site_label
 _atom_site_symmetry_multiplicity
 _atom_site_fract_x
 _atom_site_fract_y
 _atom_site_fract_z
 _atom_site_occupancy
  Ni  Ni0  1  0.16825300  0.33523500  0.57982900  1
  C  C1  1  0.48501800  0.96904200  0.48592500  1
  Cu  Cu2  1  0.98459800  0.97412600  0.00488100  1
  C  C3  1  0.64724500  0.29401200  0.79635500  1
  C  C4  1  0.35626800  0.71479400  0.67685200  1
  C  C5  1  0.36699700  0.73335800  0.18958000  1
  C  C6  1  0.64850500  0.29541900  0.34199000  1
  C  C7  1  0.02575100  0.05068100  0.51625600  1
