# generated using pymatgen
data_Cu2Ni2C9
_symmetry_space_group_name_H-M   'P 1'
_cell_length_a   5.12388912
_cell_length_b   5.10525175
_cell_length_c   6.14731600
_cell_angle_alpha   90.00000000
_cell_angle_beta   90.00000000
_cell_angle_gamma   65.45066465
_symmetry_Int_Tables_number   1
_chemical_formula_structural   Cu2Ni2C9
_chemical_formula_sum   'Cu2 Ni2 C9'
_cell_volume   146.26981687
_cell_formula_units_Z   1
loop_
 _symmetry_equiv_pos_site_id
 _symmetry_equiv_pos_as_xyz
  1  'x, y, z'
loop_
 _atom_site_type_symbol
 _atom_site_label
 _atom_site_symmetry_multiplicity
 _atom_site_fract_x
 _atom_site_fract_y
 _atom_site_fract_z
 _atom_site_occupancy
  C  C0  1  0.66064300  0.66856100  0.25000000  1
  Ni  Ni1  1  0.33509200  0.33981200  0.25000000  1
  Ni  Ni2  1  0.64717200  0.64308200  0.75000000  1
  Cu  Cu3  1  0.00265300  0.00232700  0.99618200  1
  Cu  Cu4  1  0.00265300  0.00232700  0.50381800  1
  C  C5  1  0.23074800  0.74665900  0.25000000  1
  C  C6  1  0.26237100  0.78428000  0.75000000  1
  C  C7  1  0.21980600  0.21947300  0.02389500  1
  C  C8  1  0.21980600  0.21947300  0.47610500  1
  C  C9  1  0.78074400  0.77877200  0.52283400  1
  C  C10  1  0.78074400  0.77877200  0.97716600  1
  C  C11  1  0.73669600  0.23984000  0.25000000  1
  C  C12  1  0.79587000  0.25162300  0.75000000  1
