# generated using pymatgen
data_Cu6NiC12
_symmetry_space_group_name_H-M   'P 1'
_cell_length_a   5.04969017
_cell_length_b   7.89251529
_cell_length_c   5.69804290
_cell_angle_alpha   95.96901665
_cell_angle_beta   91.45340257
_cell_angle_gamma   87.69360537
_symmetry_Int_Tables_number   1
_chemical_formula_structural   Cu6NiC12
_chemical_formula_sum   'Cu6 Ni1 C12'
_cell_volume   225.62864648
_cell_formula_units_Z   1
loop_
 _symmetry_equiv_pos_site_id
 _symmetry_equiv_pos_as_xyz
  1  'x, y, z'
loop_
 _atom_site_type_symbol
 _atom_site_label
 _atom_site_symmetry_multiplicity
 _atom_site_fract_x
 _atom_site_fract_y
 _atom_site_fract_z
 _atom_site_occupancy
  Ni  Ni0  1  0.99603100  0.83425300  0.33537600  1
  Cu  Cu1  1  0.48279500  0.00258600  0.49460600  1
  Cu  Cu2  1  0.53370100  0.64396400  0.16527000  1
  Cu  Cu3  1  0.48607100  0.34141700  0.82656400  1
  Cu  Cu4  1  0.00848000  0.65608800  0.71868300  1
  Cu  Cu5  1  0.98461000  0.30916600  0.33368000  1
  Cu  Cu6  1  0.99252000  0.00182500  0.95184800  1
  C  C7  1  0.84977600  0.77869900  0.99120000  1
  C  C8  1  0.84626700  0.06913700  0.26896200  1
  C  C9  1  0.67230900  0.76055100  0.46593100  1
  C  C10  1  0.69222600  0.41887000  0.12737100  1
  C  C11  1  0.32167700  0.56188400  0.88657400  1
  C  C12  1  0.30901300  0.23657000  0.52664500  1
  C  C13  1  0.16504600  0.90229200  0.66060800  1
  C  C14  1  0.81825900  0.42829800  0.63849100  1
  C  C15  1  0.68453300  0.11897100  0.78692100  1
  C  C16  1  0.32685900  0.87637200  0.16812500  1
  C  C17  1  0.15290500  0.58666900  0.37910300  1
  C  C18  1  0.19080800  0.21405500  0.01213700  1
