# generated using pymatgen
data_Cu4NiC7
_symmetry_space_group_name_H-M   'P 1'
_cell_length_a   6.13382950
_cell_length_b   6.13382950
_cell_length_c   6.13382940
_cell_angle_alpha   77.90147298
_cell_angle_beta   77.90147298
_cell_angle_gamma   77.90147450
_symmetry_Int_Tables_number   1
_chemical_formula_structural   Cu4NiC7
_chemical_formula_sum   'Cu8 Ni2 C14'
_cell_volume   217.30285275
_cell_formula_units_Z   2
loop_
 _symmetry_equiv_pos_site_id
 _symmetry_equiv_pos_as_xyz
  1  'x, y, z'
loop_
 _atom_site_type_symbol
 _atom_site_label
 _atom_site_symmetry_multiplicity
 _atom_site_fract_x
 _atom_site_fract_y
 _atom_site_fract_z
 _atom_site_occupancy
  C  C0  1  0.58183000  0.58183000  0.58183000  1
  C  C1  1  0.08183000  0.08183000  0.08183000  1
  C  C2  1  0.48949000  0.59248200  0.33950400  1
  C  C3  1  0.33950400  0.48949000  0.59248200  1
  C  C4  1  0.59248200  0.33950400  0.48949000  1
  C  C5  1  0.98949000  0.83950400  0.09248200  1
  C  C6  1  0.09248200  0.98949000  0.83950400  1
  C  C7  1  0.83950400  0.09248200  0.98949000  1
  C  C8  1  0.74813300  0.93361100  0.56920600  1
  C  C9  1  0.56920600  0.74813300  0.93361100  1
  C  C10  1  0.06920600  0.43361100  0.24813300  1
  C  C11  1  0.43361100  0.24813300  0.06920600  1
  C  C12  1  0.24813300  0.06920600  0.43361100  1
  C  C13  1  0.93361100  0.56920600  0.74813300  1
  Ni  Ni14  1  0.50033700  0.50033700  0.50033700  1
  Ni  Ni15  1  0.00033700  0.00033700  0.00033700  1
  Cu  Cu16  1  0.76006200  0.07114500  0.44978800  1
  Cu  Cu17  1  0.44978800  0.76006200  0.07114500  1
  Cu  Cu18  1  0.07114500  0.44978800  0.76006200  1
  Cu  Cu19  1  0.26006200  0.94978800  0.57114500  1
  Cu  Cu20  1  0.57114500  0.26006200  0.94978800  1
  Cu  Cu21  1  0.94978800  0.57114500  0.26006200  1
  Cu  Cu22  1  0.73491200  0.73491200  0.73491200  1
  Cu  Cu23  1  0.23491200  0.23491200  0.23491200  1
