# generated using pymatgen
data_CuNiC16
_symmetry_space_group_name_H-M   'P 1'
_cell_length_a   8.65989696
_cell_length_b   8.64147616
_cell_length_c   22.57643539
_cell_angle_alpha   89.97140847
_cell_angle_beta   89.96388665
_cell_angle_gamma   119.98173527
_symmetry_Int_Tables_number   1
_chemical_formula_structural   CuNiC16
_chemical_formula_sum   'Cu6 Ni6 C96'
_cell_volume   1463.41090694
_cell_formula_units_Z   6
loop_
 _symmetry_equiv_pos_site_id
 _symmetry_equiv_pos_as_xyz
  1  'x, y, z'
loop_
 _atom_site_type_symbol
 _atom_site_label
 _atom_site_symmetry_multiplicity
 _atom_site_fract_x
 _atom_site_fract_y
 _atom_site_fract_z
 _atom_site_occupancy
  C  C0  1  0.00402930  0.00212272  0.49950104  1
  C  C1  1  0.99973566  0.99921320  0.99796042  1
  C  C2  1  0.66733108  0.32412904  0.82704751  1
  C  C3  1  0.65963896  0.32930668  0.33636792  1
  C  C4  1  0.32659537  0.66706567  0.16447530  1
  C  C5  1  0.33353183  0.66831103  0.66312773  1
  Ni  Ni6  1  0.00780994  0.00494150  0.35291844  1
  Ni  Ni7  1  0.00030181  0.00161370  0.85090726  1
  Ni  Ni8  1  0.66425535  0.32778342  0.68454308  1
  Ni  Ni9  1  0.66315676  0.33183621  0.48306616  1
  Ni  Ni10  1  0.32842010  0.66708086  0.01957733  1
  Ni  Ni11  1  0.33335543  0.66633962  0.51990624  1
  Cu  Cu12  1  0.98281520  0.99534912  0.64728982  1
  Cu  Cu13  1  0.01103357  0.98584486  0.14711883  1
  Cu  Cu14  1  0.67292497  0.33305202  0.18764147  1
  Cu  Cu15  1  0.68062391  0.34964749  0.97934304  1
  Cu  Cu16  1  0.33080907  0.67743517  0.31658804  1
  Cu  Cu17  1  0.34176815  0.67674910  0.80779442  1
  C  C18  1  0.29376932  0.00204886  0.25304716  1
  C  C19  1  0.71691453  0.01422880  0.75323612  1
  C  C20  1  0.96281494  0.62299549  0.08470413  1
  C  C21  1  0.70980896  0.71041664  0.25053487  1
  C  C22  1  0.00179918  0.28791321  0.25002512  1
  C  C23  1  0.28946769  0.28792517  0.75083990  1
  C  C24  1  0.99699411  0.71010663  0.75080415  1
  C  C25  1  0.95909367  0.33563160  0.58330762  1
  C  C26  1  0.37296651  0.04075309  0.58349916  1
  C  C27  1  0.66535240  0.62236000  0.58368501  1
  C  C28  1  0.66872471  0.04660900  0.08317816  1
  C  C29  1  0.38059827  0.33445193  0.08341110  1
  C  C30  1  0.62222694  0.66871901  0.91766334  1
  C  C31  1  0.04648963  0.37557481  0.91749249  1
  C  C32  1  0.33270302  0.95715674  0.91706626  1
  C  C33  1  0.62627216  0.95829963  0.41752256  1
  C  C34  1  0.33287192  0.37780021  0.41695510  1
  C  C35  1  0.04038581  0.66652747  0.41819450  1
  C  C36  1  0.20935127  0.03911106  0.30807926  1
  C  C37  1  0.81678272  0.78657018  0.30324178  1
  C  C38  1  0.96458531  0.18089752  0.30327357  1
  C  C39  1  0.21426370  0.18324218  0.80443157  1
  C  C40  1  0.97648970  0.79005461  0.80462742  1
  C  C41  1  0.82541603  0.02652953  0.80993159  1
  C  C42  1  0.80471960  0.96679563  0.69287247  1
  C  C43  1  0.17662515  0.20846685  0.69705444  1
  C  C44  1  0.03600515  0.82469367  0.69674345  1
  C  C45  1  0.79055752  0.82191071  0.19604101  1
  C  C46  1  0.02633421  0.20656531  0.19567644  1
  C  C47  1  0.16720550  0.96607764  0.19184926  1
  C  C48  1  0.87926763  0.36170783  0.63682792  1
  C  C49  1  0.48084970  0.12184065  0.63655110  1
  C  C50  1  0.64152195  0.51842056  0.63759446  1
  C  C51  1  0.85068578  0.49700350  0.14056927  1
  C  C52  1  0.63822637  0.12775971  0.13710389  1
  C  C53  1  0.48727881  0.35631972  0.13695940  1
  C  C54  1  0.45823551  0.29903500  0.02943358  1
  C  C55  1  0.82715176  0.52525660  0.02632895  1
  C  C56  1  0.69414226  0.15906432  0.02954114  1
  C  C57  1  0.44912970  0.14898723  0.52977195  1
  C  C58  1  0.70023745  0.54959013  0.53017198  1
  C  C59  1  0.85075747  0.29890475  0.52990280  1
  C  C60  1  0.54040973  0.69102406  0.97096924  1
  C  C61  1  0.14981940  0.45792965  0.97084773  1
  C  C62  1  0.30697995  0.84990051  0.96995137  1
  C  C63  1  0.54226015  0.84721033  0.46948542  1
  C  C64  1  0.30878751  0.46203286  0.46966296  1
  C  C65  1  0.15287128  0.69362913  0.46961877  1
  C  C66  1  0.13225632  0.64254651  0.36289036  1
  C  C67  1  0.50937163  0.86794851  0.36239372  1
  C  C68  1  0.35715021  0.49176707  0.36223647  1
  C  C69  1  0.12099907  0.48687970  0.86386474  1
  C  C70  1  0.36225636  0.87266249  0.86291528  1
  C  C71  1  0.51000976  0.63550537  0.86387320  1
  C  C72  1  0.02231738  0.82449008  0.40988451  1
  C  C73  1  0.80008927  0.97253442  0.40775212  1
  C  C74  1  0.17135012  0.20185102  0.41062770  1
  C  C75  1  0.02139643  0.19589735  0.91201457  1
  C  C76  1  0.17614348  0.97856600  0.90922706  1
  C  C77  1  0.80357156  0.81881036  0.91167824  1
  C  C78  1  0.98036239  0.17027436  0.59127928  1
  C  C79  1  0.19090681  0.02197477  0.59157422  1
  C  C80  1  0.83453775  0.80664996  0.59045538  1
  C  C81  1  0.96378800  0.81530610  0.09078298  1
  C  C82  1  0.83292574  0.03641804  0.09026128  1
  C  C83  1  0.19804706  0.17328959  0.08999280  1
  C  C84  1  0.67710031  0.17098513  0.74278433  1
  C  C85  1  0.46938769  0.31954593  0.74224189  1
  C  C86  1  0.84282723  0.53365918  0.74230306  1
  C  C87  1  0.68936813  0.52913765  0.24179775  1
  C  C88  1  0.84132380  0.31132412  0.24206317  1
  C  C89  1  0.49052570  0.17090334  0.23662969  1
  C  C90  1  0.63375497  0.49728267  0.92330322  1
  C  C91  1  0.86012659  0.35662182  0.92460661  1
  C  C92  1  0.49722403  0.13730215  0.92324787  1
  C  C93  1  0.63830193  0.13383850  0.42029568  1
  C  C94  1  0.49557801  0.36293644  0.42028583  1
  C  C95  1  0.86616830  0.50135453  0.42052095  1
  C  C96  1  0.36506439  0.49426920  0.07683583  1
  C  C97  1  0.15352338  0.64455867  0.07940657  1
  C  C98  1  0.51185035  0.86904968  0.07683537  1
  C  C99  1  0.35120174  0.86025358  0.57692911  1
  C  C100  1  0.51194857  0.65037702  0.57761822  1
  C  C101  1  0.13993836  0.49023652  0.57693850  1
  C  C102  1  0.31469704  0.82100819  0.25907731  1
  C  C103  1  0.52843992  0.68771106  0.25567262  1
  C  C104  1  0.16197990  0.46932335  0.25599548  1
  C  C105  1  0.30075122  0.46925711  0.75808347  1
  C  C106  1  0.16266808  0.69153789  0.75744206  1
  C  C107  1  0.51443249  0.82028341  0.75992644  1
