# generated using pymatgen
data_Cu6NiC12
_symmetry_space_group_name_H-M   'P 1'
_cell_length_a   7.10136660
_cell_length_b   5.90519849
_cell_length_c   5.74577725
_cell_angle_alpha   81.63754811
_cell_angle_beta   74.22698384
_cell_angle_gamma   68.98134454
_symmetry_Int_Tables_number   1
_chemical_formula_structural   Cu6NiC12
_chemical_formula_sum   'Cu6 Ni1 C12'
_cell_volume   216.13977041
_cell_formula_units_Z   1
loop_
 _symmetry_equiv_pos_site_id
 _symmetry_equiv_pos_as_xyz
  1  'x, y, z'
loop_
 _atom_site_type_symbol
 _atom_site_label
 _atom_site_symmetry_multiplicity
 _atom_site_fract_x
 _atom_site_fract_y
 _atom_site_fract_z
 _atom_site_occupancy
  Ni  Ni0  1  0.49024100  0.50839932  0.00102468  1
  Cu  Cu1  1  0.83992171  0.66562143  0.68251329  1
  Cu  Cu2  1  0.66549995  0.25757393  0.41690554  1
  Cu  Cu3  1  0.32776205  0.73920994  0.57749835  1
  Cu  Cu4  1  0.14759569  0.32454825  0.36616325  1
  Cu  Cu5  1  0.50691308  0.99529765  0.00204012  1
  Cu  Cu6  1  0.99998264  0.05753041  0.96137011  1
  C  C7  1  0.65066992  -0.00691545  0.64989527  1
  C  C8  1  0.29792886  0.87460004  0.91318758  1
  C  C9  1  0.96040929  0.20378441  0.26149749  1
  C  C10  1  0.60210742  0.52313945  0.62667474  1
  C  C11  1  0.03491653  0.81591386  0.74755128  1
  C  C12  1  0.37463088  0.46512577  0.37576342  1
  C  C13  1  0.69376517  0.15414111  0.08093260  1
  C  C14  1  0.34908555  0.00502556  0.34767884  1
  C  C15  1  0.69289476  0.66700851  0.00631689  1
  C  C16  1  0.00914227  0.32989239  0.71265155  1
  C  C17  1  0.97222597  0.64884012  0.36028287  1
  C  C18  1  0.30097226  0.34268930  0.98148113  1
