# generated using pymatgen
data_Cu5NiC5
_symmetry_space_group_name_H-M   'P 1'
_cell_length_a   6.19660452
_cell_length_b   7.82610070
_cell_length_c   6.19967880
_cell_angle_alpha   51.21809537
_cell_angle_beta   55.94269831
_cell_angle_gamma   51.21030028
_symmetry_Int_Tables_number   1
_chemical_formula_structural   Cu5NiC5
_chemical_formula_sum   'Cu5 Ni1 C5'
_cell_volume   175.59105653
_cell_formula_units_Z   1
loop_
 _symmetry_equiv_pos_site_id
 _symmetry_equiv_pos_as_xyz
  1  'x, y, z'
loop_
 _atom_site_type_symbol
 _atom_site_label
 _atom_site_symmetry_multiplicity
 _atom_site_fract_x
 _atom_site_fract_y
 _atom_site_fract_z
 _atom_site_occupancy
  C  C0  1  0.25707907  0.37199048  0.25717871  1
  C  C1  1  0.73179191  0.69773446  0.73151590  1
  C  C2  1  0.56200821  0.32630397  0.56150226  1
  C  C3  1  0.29454013  0.90254688  0.29326765  1
  C  C4  1  0.00264020  -0.00635812  0.00264236  1
  Ni  Ni5  1  0.27930057  0.67350369  0.27555945  1
  Cu  Cu6  1  0.30381923  0.12073801  0.85845575  1
  Cu  Cu7  1  0.85450789  0.11485874  0.31046419  1
  Cu  Cu8  1  0.19139657  0.89999561  0.65702654  1
  Cu  Cu9  1  0.66362288  0.89339535  0.18877321  1
  Cu  Cu10  1  0.74471033  0.34904094  0.74902997  1
