# generated using pymatgen
data_Cu4NiC12
_symmetry_space_group_name_H-M   'P 1'
_cell_length_a   5.27239719
_cell_length_b   9.56270813
_cell_length_c   5.20755246
_cell_angle_alpha   105.34299771
_cell_angle_beta   119.86800616
_cell_angle_gamma   75.88288213
_symmetry_Int_Tables_number   1
_chemical_formula_structural   Cu4NiC12
_chemical_formula_sum   'Cu4 Ni1 C12'
_cell_volume   217.58471393
_cell_formula_units_Z   1
loop_
 _symmetry_equiv_pos_site_id
 _symmetry_equiv_pos_as_xyz
  1  'x, y, z'
loop_
 _atom_site_type_symbol
 _atom_site_label
 _atom_site_symmetry_multiplicity
 _atom_site_fract_x
 _atom_site_fract_y
 _atom_site_fract_z
 _atom_site_occupancy
  Ni  Ni0  1  0.10634500  0.69622800  0.88728500  1
  Cu  Cu1  1  0.97932500  0.00791700  0.00024800  1
  Cu  Cu2  1  0.74511700  0.74517300  0.20852600  1
  Cu  Cu3  1  0.48494000  0.48116000  0.52583300  1
  Cu  Cu4  1  0.24384300  0.24026400  0.77619400  1
  C  C5  1  0.82396400  0.85674100  0.02014500  1
  C  C6  1  0.30375900  0.36429300  0.54020800  1
  C  C7  1  0.19695900  0.13285700  0.95860100  1
  C  C8  1  0.48265500  0.62342000  0.85937000  1
  C  C9  1  0.14869600  0.61340900  0.23737300  1
  C  C10  1  0.99450500  0.13814600  0.37668100  1
  C  C11  1  0.36902400  0.86977600  0.20079000  1
  C  C12  1  0.49054300  0.37341400  0.13670200  1
  C  C13  1  0.76080000  0.62078200  0.50308900  1
  C  C14  1  0.59793600  0.11883000  0.76131400  1
  C  C15  1  0.98870200  0.85531100  0.62631700  1
  C  C16  1  0.89538400  0.39084800  0.75008000  1
