# generated using pymatgen
data_Cu4(NiC13)5
_symmetry_space_group_name_H-M   'P 1'
_cell_length_a   17.53496726
_cell_length_b   8.76414066
_cell_length_c   22.46315919
_cell_angle_alpha   90.04423221
_cell_angle_beta   89.97342543
_cell_angle_gamma   120.05320158
_symmetry_Int_Tables_number   1
_chemical_formula_structural   Cu4(NiC13)5
_chemical_formula_sum   'Cu12 Ni15 C195'
_cell_volume   2988.01354221
_cell_formula_units_Z   3
loop_
 _symmetry_equiv_pos_site_id
 _symmetry_equiv_pos_as_xyz
  1  'x, y, z'
loop_
 _atom_site_type_symbol
 _atom_site_label
 _atom_site_symmetry_multiplicity
 _atom_site_fract_x
 _atom_site_fract_y
 _atom_site_fract_z
 _atom_site_occupancy
  C  C0  1  0.99850425  0.62837102  0.25419600  1
  C  C1  1  0.50079743  0.63013536  0.25075335  1
  C  C2  1  0.00131798  0.37553396  0.74991920  1
  C  C3  1  0.49825932  0.36160955  0.75306239  1
  C  C4  1  0.66444653  0.30694028  0.91799358  1
  C  C5  1  0.16643096  0.01957877  0.42706299  1
  C  C6  1  0.99714768  0.99784132  0.50631044  1
  C  C7  1  0.50180550  0.99265491  0.50120846  1
  C  C8  1  0.00080848  0.00855337  0.99707025  1
  C  C9  1  0.49867020  0.00063655  0.00252529  1
  C  C10  1  0.32893404  0.32320268  0.83848745  1
  C  C11  1  0.83209653  0.33203711  0.82497889  1
  C  C12  1  0.34213827  0.34588344  0.33017418  1
  C  C13  1  0.82449736  0.32839152  0.34094489  1
  C  C14  1  0.18391619  0.66404564  0.16269928  1
  C  C15  1  0.66921987  0.65513344  0.16278328  1
  C  C16  1  0.17169455  0.68721788  0.66521496  1
  C  C17  1  0.68152683  0.69081331  0.66788316  1
  C  C18  1  0.99501250  0.98488079  0.36023240  1
  C  C19  1  0.50039287  0.01246480  0.85669808  1
  C  C20  1  0.32431298  0.33536688  0.67889733  1
  C  C21  1  0.82614446  0.30893850  0.69033259  1
  C  C22  1  0.33221523  0.35174941  0.18675386  1
  C  C23  1  0.82156416  0.31208460  0.17798504  1
  C  C24  1  0.82939226  0.31804538  0.98734682  1
  C  C25  1  0.33182065  0.34818785  0.49037321  1
  C  C26  1  0.17028182  0.66642637  0.31349838  1
  C  C27  1  0.66752010  0.64847598  0.31371398  1
  C  C28  1  0.16926498  0.68816010  0.81338051  1
  C  C29  1  0.66713648  0.65817015  0.80860257  1
  Ni  Ni30  1  0.36333935  0.73509652  0.25062456  1
  Ni  Ni31  1  0.49844009  0.28904259  0.24938830  1
  Ni  Ni32  1  0.64072836  0.27914104  0.74761782  1
  Ni  Ni33  1  0.00079347  0.70850551  0.74922097  1
  Ni  Ni34  1  0.86456749  0.99301651  0.75087914  1
  Ni  Ni35  1  0.17690631  0.03560336  0.58317609  1
  Ni  Ni36  1  0.69089735  0.03384523  0.57929446  1
  Ni  Ni37  1  0.33346849  0.64601738  0.58386541  1
  Ni  Ni38  1  0.82959331  0.02281201  0.08212225  1
  Ni  Ni39  1  0.19078261  0.34715848  0.08005724  1
  Ni  Ni40  1  0.67662985  0.32214397  0.08252487  1
  Ni  Ni41  1  0.51718741  0.38513148  0.92031549  1
  Ni  Ni42  1  0.16210163  0.95733727  0.91912505  1
  Ni  Ni43  1  0.66302718  0.36739992  0.41901862  1
  Ni  Ni44  1  0.01829707  0.64666486  0.41975170  1
  Cu  Cu45  1  0.50108026  0.02147001  0.35073852  1
  Cu  Cu46  1  0.00133996  0.97921180  0.84985741  1
  Cu  Cu47  1  0.00224403  0.97980750  0.65175336  1
  Cu  Cu48  1  0.51226192  0.99827504  0.64042821  1
  Cu  Cu49  1  0.00446165  0.02080048  0.13683230  1
  Cu  Cu50  1  0.50006345  0.02213209  0.14956817  1
  Cu  Cu51  1  0.32441430  0.31397084  0.97912524  1
  Cu  Cu52  1  0.82513846  0.33893633  0.48100039  1
  Cu  Cu53  1  0.16405578  0.66366838  0.01412555  1
  Cu  Cu54  1  0.66545344  0.65097561  0.02396062  1
  Cu  Cu55  1  0.16277785  0.67873394  0.52786596  1
  Cu  Cu56  1  0.66186230  0.65701031  0.51743229  1
  C  C57  1  0.14113882  0.00239013  0.24816564  1
  C  C58  1  0.64456616  0.00656029  0.25222646  1
  C  C59  1  0.85813609  0.71557979  0.24580052  1
  C  C60  1  0.99927173  0.28449165  0.24783416  1
  C  C61  1  0.14492604  0.28268334  0.75228805  1
  C  C62  1  0.49780665  0.71153358  0.74851093  1
  C  C63  1  0.35581465  0.99965331  0.74635125  1
  C  C64  1  0.48530848  0.33574948  0.58382990  1
  C  C65  1  0.97807230  0.33085733  0.58076541  1
  C  C66  1  0.83163551  0.62598981  0.58110191  1
  C  C67  1  0.47924323  0.62899527  0.08128385  1
  C  C68  1  0.98591842  0.63615444  0.08604372  1
  C  C69  1  0.33109691  0.03716472  0.08156190  1
  C  C70  1  0.30989874  0.66016236  0.91925358  1
  C  C71  1  0.81568225  0.67356805  0.91867430  1
  C  C72  1  0.02075480  0.37207157  0.91617340  1
  C  C73  1  0.66687377  0.95114045  0.91823491  1
  C  C74  1  0.31641769  0.95995854  0.41848255  1
  C  C75  1  0.80887986  0.95856302  0.41893935  1
  C  C76  1  0.16833192  0.37806508  0.41809331  1
  C  C77  1  0.52016156  0.66983331  0.41602671  1
  C  C78  1  0.10167786  0.02133886  0.30434755  1
  C  C79  1  0.60526744  0.03292512  0.30762857  1
  C  C80  1  0.42886395  0.82020198  0.31041195  1
  C  C81  1  0.91077111  0.79729914  0.30103293  1
  C  C82  1  0.48508030  0.17491189  0.31027751  1
  C  C83  1  0.99015993  0.18120193  0.30140282  1
  C  C84  1  0.10587422  0.17732804  0.80761851  1
  C  C85  1  0.59926193  0.17756454  0.81084806  1
  C  C86  1  0.48431430  0.79032548  0.80211452  1
  C  C87  1  0.98663792  0.79473779  0.81028196  1
  C  C88  1  0.40674220  0.02111390  0.80180277  1
  C  C89  1  0.93073173  0.03839678  0.81080018  1
  C  C90  1  0.39702188  0.97930680  0.69262502  1
  C  C91  1  0.91191682  0.97540203  0.68812300  1
  C  C92  1  0.09012603  0.20526762  0.69770348  1
  C  C93  1  0.57180795  0.17571998  0.69060523  1
  C  C94  1  0.02412512  0.83431553  0.69030210  1
  C  C95  1  0.50623415  0.81159415  0.69275892  1
  C  C96  1  0.41096389  0.84511776  0.18836083  1
  C  C97  1  0.90289078  0.82115388  0.19256679  1
  C  C98  1  0.01070505  0.20149336  0.19247818  1
  C  C99  1  0.52078094  0.20929582  0.19029741  1
  C  C100  1  0.08234862  0.97174614  0.19539821  1
  C  C101  1  0.58996510  0.97480043  0.19788749  1
  C  C102  1  0.44680547  0.36211789  0.63874222  1
  C  C103  1  0.94560504  0.36827887  0.63595156  1
  C  C104  1  0.24062026  0.12264932  0.63967327  1
  C  C105  1  0.74771212  0.10377703  0.63852332  1
  C  C106  1  0.31231780  0.52036874  0.64138708  1
  C  C107  1  0.81940125  0.52108513  0.63382562  1
  C  C108  1  0.44557677  0.52591311  0.13729175  1
  C  C109  1  0.94676023  0.53329105  0.14134097  1
  C  C110  1  0.31838885  0.11598629  0.13516419  1
  C  C111  1  0.81244361  0.10415485  0.14203952  1
  C  C112  1  0.24516307  0.38553464  0.14083180  1
  C  C113  1  0.73935474  0.36136369  0.14026978  1
  C  C114  1  0.23777478  0.30619090  0.02413325  1
  C  C115  1  0.71862595  0.29271799  0.02183367  1
  C  C116  1  0.42131777  0.53880285  0.02973357  1
  C  C117  1  0.93064592  0.55561820  0.03349632  1
  C  C118  1  0.34737726  0.14757024  0.02713678  1
  C  C119  1  0.85542684  0.15379567  0.02576645  1
  C  C120  1  0.21767688  0.14514974  0.52124092  1
  C  C121  1  0.73701708  0.16765594  0.52210589  1
  C  C122  1  0.35735813  0.56640529  0.52583020  1
  C  C123  1  0.84871895  0.55010044  0.52549465  1
  C  C124  1  0.43088663  0.31412418  0.53089025  1
  C  C125  1  0.92205642  0.30837147  0.52787201  1
  C  C126  1  0.26823783  0.69259031  0.97316973  1
  C  C127  1  0.77638957  0.70007985  0.97388848  1
  C  C128  1  0.07716000  0.45782065  0.97131221  1
  C  C129  1  0.59186186  0.48623025  0.97376203  1
  C  C130  1  0.14590939  0.82574129  0.97795452  1
  C  C131  1  0.65975335  0.85116335  0.97308495  1
  C  C132  1  0.27588389  0.85399920  0.47257893  1
  C  C133  1  0.76800246  0.84337537  0.47166332  1
  C  C134  1  0.15728931  0.46023931  0.47147015  1
  C  C135  1  0.64621402  0.46651842  0.47687804  1
  C  C136  1  0.09421071  0.69778866  0.47206590  1
  C  C137  1  0.57599789  0.69417963  0.47006569  1
  C  C138  1  0.05547072  0.62332322  0.35539293  1
  C  C139  1  0.56210909  0.65233922  0.36099805  1
  C  C140  1  0.25946781  0.87814635  0.36509272  1
  C  C141  1  0.75921455  0.88295819  0.36380617  1
  C  C142  1  0.17880457  0.47858482  0.36286092  1
  C  C143  1  0.68320014  0.48569830  0.35992394  1
  C  C144  1  0.06382080  0.47431445  0.86200674  1
  C  C145  1  0.55353421  0.48583771  0.85719326  1
  C  C146  1  0.18262614  0.87888463  0.86085768  1
  C  C147  1  0.67726470  0.87156189  0.86402476  1
  C  C148  1  0.25798681  0.63288516  0.86519968  1
  C  C149  1  0.75923901  0.64070760  0.86618769  1
  C  C150  1  0.01315196  0.83188884  0.41621511  1
  C  C151  1  0.51174793  0.82953585  0.41382873  1
  C  C152  1  0.40350876  0.96998591  0.41227450  1
  C  C153  1  0.89880199  0.97876907  0.41501044  1
  C  C154  1  0.08834377  0.19721372  0.41303281  1
  C  C155  1  0.57419643  0.16701945  0.41047853  1
  C  C156  1  0.01213808  0.19596588  0.91458918  1
  C  C157  1  0.50968441  0.18941569  0.91954882  1
  C  C158  1  0.07380555  0.98125313  0.91080357  1
  C  C159  1  0.58619430  0.96896030  0.91672011  1
  C  C160  1  0.39828407  0.81657927  0.91616189  1
  C  C161  1  0.90341296  0.83724958  0.91319496  1
  C  C162  1  0.49499713  0.17805337  0.58647987  1
  C  C163  1  0.98713792  0.17319074  0.58468787  1
  C  C164  1  0.07921476  0.02484953  0.59140685  1
  C  C165  1  0.59178988  0.01488533  0.58531854  1
  C  C166  1  0.42039786  0.84515540  0.59471231  1
  C  C167  1  0.91016303  0.80659852  0.58480605  1
  C  C168  1  0.48704001  0.80443460  0.08673225  1
  C  C169  1  0.99725320  0.81746245  0.09153202  1
  C  C170  1  0.41025207  0.01484469  0.08578473  1
  C  C171  1  0.91726995  0.99674402  0.09099148  1
  C  C172  1  0.09166790  0.16378748  0.08765191  1
  C  C173  1  0.57941336  0.13594202  0.09126151  1
  C  C174  1  0.34850583  0.16266555  0.74417345  1
  C  C175  1  0.85961206  0.17230296  0.74772857  1
  C  C176  1  0.23307660  0.30015053  0.74817175  1
  C  C177  1  0.73686043  0.30220207  0.74406673  1
  C  C178  1  0.42157427  0.52784618  0.74384100  1
  C  C179  1  0.91574154  0.51634956  0.74377439  1
  C  C180  1  0.35479863  0.54080571  0.24761739  1
  C  C181  1  0.85065351  0.53830638  0.24374097  1
  C  C182  1  0.41155429  0.30824409  0.24462342  1
  C  C183  1  0.92164145  0.30940692  0.24375420  1
  C  C184  1  0.22863824  0.15628981  0.24312819  1
  C  C185  1  0.73307138  0.16673347  0.24855840  1
  C  C186  1  0.31762828  0.49990131  0.92648078  1
  C  C187  1  0.82609689  0.51578183  0.92397076  1
  C  C188  1  0.41941771  0.36643015  0.93308159  1
  C  C189  1  0.93514304  0.36430746  0.92216162  1
  C  C190  1  0.25025031  0.15249262  0.92696754  1
  C  C191  1  0.74468827  0.13590651  0.92058463  1
  C  C192  1  0.32631928  0.13805879  0.42252487  1
  C  C193  1  0.82004240  0.13655058  0.42528811  1
  C  C194  1  0.24603224  0.35181463  0.41985012  1
  C  C195  1  0.75182918  0.35071135  0.42658178  1
  C  C196  1  0.43328298  0.50687777  0.42093206  1
  C  C197  1  0.92010309  0.47527258  0.43188885  1
  C  C198  1  0.17369643  0.51673393  0.06751393  1
  C  C199  1  0.66600759  0.49786267  0.07764855  1
  C  C200  1  0.07474331  0.65268113  0.07999445  1
  C  C201  1  0.56919211  0.65136976  0.07410628  1
  C  C202  1  0.25075135  0.85801058  0.07406848  1
  C  C203  1  0.73962732  0.83128874  0.07150475  1
  C  C204  1  0.16475247  0.83669716  0.57859270  1
  C  C205  1  0.67494738  0.83036356  0.56642715  1
  C  C206  1  0.24146628  0.65237577  0.57098459  1
  C  C207  1  0.75065391  0.64154922  0.57303855  1
  C  C208  1  0.06991266  0.48952053  0.57319226  1
  C  C209  1  0.57485474  0.49972093  0.57835790  1
  C  C210  1  0.14674220  0.83781349  0.25111780  1
  C  C211  1  0.65344851  0.84806512  0.25740566  1
  C  C212  1  0.26584518  0.71451111  0.25484462  1
  C  C213  1  0.77117518  0.70154448  0.24990625  1
  C  C214  1  0.07958092  0.46382613  0.24959698  1
  C  C215  1  0.58386924  0.49023504  0.25285687  1
  C  C216  1  0.15294388  0.45810378  0.75749377  1
  C  C217  1  0.64263656  0.46794528  0.74801717  1
  C  C218  1  0.08698363  0.68179785  0.75270788  1
  C  C219  1  0.57930675  0.70002208  0.75094608  1
  C  C220  1  0.26767153  0.83977697  0.75079944  1
  C  C221  1  0.76802642  0.82116981  0.75541463  1
