# generated using pymatgen
data_Cu3Ni6C31
_symmetry_space_group_name_H-M   'P 1'
_cell_length_a   9.59108537
_cell_length_b   9.60029052
_cell_length_c   23.68461892
_cell_angle_alpha   89.86821139
_cell_angle_beta   90.75027862
_cell_angle_gamma   120.09600720
_symmetry_Int_Tables_number   1
_chemical_formula_structural   Cu3Ni6C31
_chemical_formula_sum   'Cu9 Ni18 C93'
_cell_volume   1886.62543397
_cell_formula_units_Z   3
loop_
 _symmetry_equiv_pos_site_id
 _symmetry_equiv_pos_as_xyz
  1  'x, y, z'
loop_
 _atom_site_type_symbol
 _atom_site_label
 _atom_site_symmetry_multiplicity
 _atom_site_fract_x
 _atom_site_fract_y
 _atom_site_fract_z
 _atom_site_occupancy
  Ni  Ni0  1  0.62254821  0.99917700  0.25363326  1
  Ni  Ni1  1  0.64195608  0.63860735  0.75634581  1
  Ni  Ni2  1  0.01483850  0.37064898  0.74336574  1
  Ni  Ni3  1  0.29885307  0.35279929  0.58117874  1
  Ni  Ni4  1  0.01530379  0.67720081  0.58904376  1
  Ni  Ni5  1  0.68034915  0.95700279  0.56983132  1
  Ni  Ni6  1  0.30368580  0.94846460  0.08467798  1
  Ni  Ni7  1  0.67105831  0.71497972  0.06981815  1
  Ni  Ni8  1  0.02374238  0.34333815  0.07710976  1
  Ni  Ni9  1  0.97802087  0.68264217  0.91396021  1
  Ni  Ni10  1  0.32765448  0.29228632  0.91103597  1
  Ni  Ni11  1  0.67745270  0.67743896  0.41679372  1
  Ni  Ni12  1  0.99544766  0.03288384  0.49495280  1
  Ni  Ni13  1  0.96798075  0.98880313  0.99341934  1
  Ni  Ni14  1  0.64651418  0.32703573  0.83109157  1
  Ni  Ni15  1  0.61794794  0.29784213  0.33443698  1
  Ni  Ni16  1  0.30987009  0.68570538  0.16938766  1
  Ni  Ni17  1  0.32283901  0.65097428  0.67001096  1
  Cu  Cu18  1  0.02988350  0.01871513  0.35191415  1
  Cu  Cu19  1  0.00185799  0.99801750  0.84814831  1
  Cu  Cu20  1  0.01021804  0.00153028  0.65367311  1
  Cu  Cu21  1  0.00822051  0.98885528  0.14823789  1
  Cu  Cu22  1  0.66652610  0.34253529  0.68499139  1
  Cu  Cu23  1  0.66127424  0.33285934  0.18404734  1
  Cu  Cu24  1  0.33942514  0.67776394  0.00955427  1
  Cu  Cu25  1  0.33405747  0.65814362  0.50909760  1
  Cu  Cu26  1  0.33591168  0.67592537  0.32378028  1
  C  C27  1  0.68594280  0.33039773  0.97293902  1
  C  C28  1  0.67386200  0.33344099  0.48239634  1
  C  C29  1  0.32148992  0.65920820  0.82569502  1
  C  C30  1  0.31244835  0.99348520  0.24660506  1
  C  C31  1  0.31022224  0.32647842  0.75535649  1
  C  C32  1  0.01351964  0.69123807  0.75260838  1
  C  C33  1  0.96133266  0.33209710  0.58447011  1
  C  C34  1  0.67243812  0.63263879  0.58036293  1
  C  C35  1  0.95496207  0.62376291  0.07744695  1
  C  C36  1  0.67452524  0.04708194  0.08012130  1
  C  C37  1  0.62868096  0.65029350  0.92010798  1
  C  C38  1  0.03221259  0.36717023  0.92060553  1
  C  C39  1  0.34849148  0.97450473  0.91831060  1
  C  C40  1  0.64861118  0.98411171  0.42082625  1
  C  C41  1  0.35215186  0.36199493  0.42440190  1
  C  C42  1  0.69289334  0.70068476  0.25211559  1
  C  C43  1  0.00309456  0.30498455  0.24729121  1
  C  C44  1  0.67814251  0.98237840  0.75043963  1
  C  C45  1  0.37552583  0.04579618  0.57774736  1
  C  C46  1  0.37123693  0.33006080  0.07627102  1
  C  C47  1  0.00441066  0.64927452  0.42140592  1
  C  C48  1  0.20175901  0.99525609  0.29771259  1
  C  C49  1  0.78758519  0.78826267  0.30308018  1
  C  C50  1  0.99109359  0.20291316  0.29619979  1
  C  C51  1  0.21799988  0.21787994  0.80933776  1
  C  C52  1  0.96804042  0.77140029  0.80404754  1
  C  C53  1  0.78703134  0.01148379  0.79876475  1
  C  C54  1  0.75214518  0.96054514  0.69798913  1
  C  C55  1  0.19928265  0.25070966  0.69675808  1
  C  C56  1  0.03781884  0.79067231  0.69295117  1
  C  C57  1  0.77601703  0.79309225  0.20002309  1
  C  C58  1  0.01046544  0.22640056  0.19398140  1
  C  C59  1  0.22570624  0.99008915  0.18459839  1
  C  C60  1  0.88157522  0.34089065  0.64342968  1
  C  C61  1  0.46486300  0.11129662  0.63117875  1
  C  C62  1  0.64633483  0.53350074  0.63872242  1
  C  C63  1  0.86140293  0.51868975  0.13175268  1
  C  C64  1  0.65099211  0.12466414  0.13725197  1
  C  C65  1  0.46141995  0.34656510  0.12906495  1
  C  C66  1  0.45869972  0.31999702  0.02650789  1
  C  C67  1  0.83832199  0.51277507  0.02010835  1
  C  C68  1  0.67682450  0.17074650  0.02537355  1
  C  C69  1  0.47202182  0.14873767  0.52944028  1
  C  C70  1  0.67737742  0.51261018  0.52844508  1
  C  C71  1  0.83481371  0.32876925  0.53265453  1
  C  C72  1  0.56353688  0.67298459  0.97973953  1
  C  C73  1  0.12298050  0.43836532  0.97968007  1
  C  C74  1  0.30748932  0.87929609  0.97758950  1
  C  C75  1  0.55970669  0.87557170  0.47643187  1
  C  C76  1  0.32857258  0.43389051  0.48346664  1
  C  C77  1  0.09703312  0.67567969  0.47467400  1
  C  C78  1  0.08645483  0.63015319  0.37300515  1
  C  C79  1  0.53736752  0.91046161  0.36344940  1
  C  C80  1  0.39249676  0.49378607  0.37364183  1
  C  C81  1  0.14023444  0.50213176  0.86852868  1
  C  C82  1  0.35895412  0.85132185  0.86858391  1
  C  C83  1  0.49548350  0.63542759  0.86797828  1
  C  C84  1  0.96805195  0.78176292  0.41434423  1
  C  C85  1  0.81976951  0.98743492  0.41583991  1
  C  C86  1  0.20194625  0.18037677  0.41827209  1
  C  C87  1  0.01045774  0.19296204  0.90982331  1
  C  C88  1  0.19975227  0.00596971  0.90668973  1
  C  C89  1  0.81280103  0.79196148  0.91065036  1
  C  C90  1  0.97149566  0.16624133  0.57938467  1
  C  C91  1  0.21967543  0.04548663  0.57827279  1
  C  C92  1  0.84555307  0.80410491  0.58001720  1
  C  C93  1  0.95910048  0.79813022  0.07498138  1
  C  C94  1  0.84708769  0.04998517  0.07672261  1
  C  C95  1  0.20927058  0.17904509  0.07782963  1
  C  C96  1  0.65350949  0.12207817  0.74581548  1
  C  C97  1  0.49585329  0.36233181  0.75336866  1
  C  C98  1  0.86732534  0.50167610  0.75032493  1
  C  C99  1  0.67188269  0.53824024  0.25139517  1
  C  C100  1  0.85374355  0.31568694  0.24850381  1
  C  C101  1  0.49527145  0.15173775  0.25355105  1
  C  C102  1  0.62501745  0.47138630  0.92236871  1
  C  C103  1  0.85652124  0.36789414  0.92025866  1
  C  C104  1  0.51750619  0.15231599  0.92179757  1
  C  C105  1  0.66810018  0.16655231  0.43435268  1
  C  C106  1  0.52147722  0.34982049  0.43048123  1
  C  C107  1  0.84268216  0.49663534  0.42531071  1
  C  C108  1  0.34628428  0.47094650  0.07489428  1
  C  C109  1  0.13593127  0.64586563  0.07831639  1
  C  C110  1  0.52072102  0.86333308  0.07730254  1
  C  C111  1  0.34381659  0.87870150  0.57198724  1
  C  C112  1  0.51937709  0.66492864  0.57661041  1
  C  C113  1  0.13715853  0.49864009  0.57966235  1
  C  C114  1  0.33577161  0.83360419  0.24907871  1
  C  C115  1  0.53344952  0.69319452  0.25224702  1
  C  C116  1  0.14797707  0.46692959  0.25162641  1
  C  C117  1  0.32201692  0.50810951  0.76506550  1
  C  C118  1  0.18156858  0.68167318  0.76746753  1
  C  C119  1  0.52194171  0.82867805  0.75817855  1
