# generated using pymatgen
data_Cu2NiC8
_symmetry_space_group_name_H-M   'P 1'
_cell_length_a   5.32497224
_cell_length_b   6.60159330
_cell_length_c   5.32497227
_cell_angle_alpha   113.78523989
_cell_angle_beta   60.00001076
_cell_angle_gamma   113.78523501
_symmetry_Int_Tables_number   1
_chemical_formula_structural   Cu2NiC8
_chemical_formula_sum   'Cu2 Ni1 C8'
_cell_volume   143.45933626
_cell_formula_units_Z   1
loop_
 _symmetry_equiv_pos_site_id
 _symmetry_equiv_pos_as_xyz
  1  'x, y, z'
loop_
 _atom_site_type_symbol
 _atom_site_label
 _atom_site_symmetry_multiplicity
 _atom_site_fract_x
 _atom_site_fract_y
 _atom_site_fract_z
 _atom_site_occupancy
  Ni  Ni0  1  -0.00000000  -0.00000000  0.00000000  1
  C  C1  1  0.17973888  0.53921664  0.17973888  1
  C  C2  1  0.82026112  0.46078336  0.82026112  1
  Cu  Cu3  1  0.35019921  0.05059864  0.35019921  1
  Cu  Cu4  1  0.64980079  0.94940136  0.64980079  1
  C  C5  1  0.05877481  0.18536843  0.40404537  1
  C  C6  1  0.40404537  0.18536843  0.72254825  1
  C  C7  1  0.72254825  0.18536843  0.05877481  1
  C  C8  1  0.27745175  0.81463157  0.94122519  1
  C  C9  1  0.59595463  0.81463157  0.27745175  1
  C  C10  1  0.94122519  0.81463157  0.59595463  1
