# generated using pymatgen
data_Cu3Ni
_symmetry_space_group_name_H-M   'P 1'
_cell_length_a   5.50829200
_cell_length_b   11.36220100
_cell_length_c   12.92134000
_cell_angle_alpha   90.00000000
_cell_angle_beta   90.00000000
_cell_angle_gamma   90.00000000
_symmetry_Int_Tables_number   1
_chemical_formula_structural   Cu3Ni
_chemical_formula_sum   'Cu36 Ni12'
_cell_volume   808.69913132
_cell_formula_units_Z   12
loop_
 _symmetry_equiv_pos_site_id
 _symmetry_equiv_pos_as_xyz
  1  'x, y, z'
loop_
 _atom_site_type_symbol
 _atom_site_label
 _atom_site_symmetry_multiplicity
 _atom_site_fract_x
 _atom_site_fract_y
 _atom_site_fract_z
 _atom_site_occupancy
  Ni  Ni0  1  0.20054700  0.13355600  0.08149700  1
  Ni  Ni1  1  0.70054700  0.86644400  0.91850300  1
  Ni  Ni2  1  0.70054700  0.36644400  0.58149700  1
  Ni  Ni3  1  0.20054700  0.63355600  0.41850300  1
  Ni  Ni4  1  0.04059000  0.30369600  0.92846600  1
  Ni  Ni5  1  0.54059000  0.69630400  0.07153400  1
  Ni  Ni6  1  0.54059000  0.19630400  0.42846600  1
  Ni  Ni7  1  0.04059000  0.80369600  0.57153400  1
  Ni  Ni8  1  0.99823300  0.35694600  0.14672200  1
  Ni  Ni9  1  0.49823300  0.64305300  0.85327800  1
  Ni  Ni10  1  0.49823300  0.14305400  0.64672200  1
  Ni  Ni11  1  0.99823300  0.85694700  0.35327800  1
  Cu  Cu12  1  0.13092900  0.01550800  0.10035500  1
  Cu  Cu13  1  0.63092900  0.98449200  0.89964500  1
  Cu  Cu14  1  0.63092900  0.48449200  0.60035500  1
  Cu  Cu15  1  0.13092900  0.51550800  0.39964500  1
  Cu  Cu16  1  0.44276200  0.17596500  0.08265800  1
  Cu  Cu17  1  0.94276200  0.82403500  0.91734200  1
  Cu  Cu18  1  0.94276200  0.32403500  0.58265800  1
  Cu  Cu19  1  0.44276200  0.67596500  0.41734200  1
  Cu  Cu20  1  0.06739900  0.16684600  0.97029400  1
  Cu  Cu21  1  0.56739900  0.83315400  0.02970600  1
  Cu  Cu22  1  0.56739900  0.33315400  0.47029400  1
  Cu  Cu23  1  0.06739900  0.66684600  0.52970600  1
  Cu  Cu24  1  0.86853800  0.29691300  0.84739200  1
  Cu  Cu25  1  0.36853800  0.70308700  0.15260800  1
  Cu  Cu26  1  0.36853800  0.20308700  0.34739200  1
  Cu  Cu27  1  0.86853800  0.79691300  0.65260800  1
  Cu  Cu28  1  0.27275000  0.35726000  0.92076500  1
  Cu  Cu29  1  0.77275000  0.64274000  0.07923500  1
  Cu  Cu30  1  0.77275000  0.14274000  0.42076500  1
  Cu  Cu31  1  0.27275000  0.85726000  0.57923500  1
  Cu  Cu32  1  0.88782700  0.35890800  0.02736200  1
  Cu  Cu33  1  0.38782700  0.64109200  0.97263800  1
  Cu  Cu34  1  0.38782700  0.14109200  0.52736200  1
  Cu  Cu35  1  0.88782700  0.85890800  0.47263800  1
  Cu  Cu36  1  0.22885400  0.41239900  0.14922200  1
  Cu  Cu37  1  0.72885400  0.58760100  0.85077800  1
  Cu  Cu38  1  0.72885400  0.08760100  0.64922200  1
  Cu  Cu39  1  0.22885400  0.91239900  0.35077800  1
  Cu  Cu40  1  0.79871300  0.38539200  0.21094900  1
  Cu  Cu41  1  0.29871300  0.61460800  0.78905100  1
  Cu  Cu42  1  0.29871300  0.11460800  0.71094900  1
  Cu  Cu43  1  0.79871300  0.88539200  0.28905100  1
  Cu  Cu44  1  0.02715800  0.21231600  0.15902800  1
  Cu  Cu45  1  0.52715800  0.78768400  0.84097200  1
  Cu  Cu46  1  0.52715800  0.28768400  0.65902800  1
  Cu  Cu47  1  0.02715800  0.71231600  0.34097200  1
