# generated using pymatgen
data_CuNi4C65
_symmetry_space_group_name_H-M   'P 1'
_cell_length_a   17.66889226
_cell_length_b   8.85177177
_cell_length_c   23.14796110
_cell_angle_alpha   89.99735065
_cell_angle_beta   90.07442403
_cell_angle_gamma   119.93860832
_symmetry_Int_Tables_number   1
_chemical_formula_structural   CuNi4C65
_chemical_formula_sum   'Cu3 Ni12 C195'
_cell_volume   3137.26184239
_cell_formula_units_Z   3
loop_
 _symmetry_equiv_pos_site_id
 _symmetry_equiv_pos_as_xyz
  1  'x, y, z'
loop_
 _atom_site_type_symbol
 _atom_site_label
 _atom_site_symmetry_multiplicity
 _atom_site_fract_x
 _atom_site_fract_y
 _atom_site_fract_z
 _atom_site_occupancy
  C  C0  1  0.00176627  0.97410481  0.48775965  1
  C  C1  1  0.50212990  0.03191548  0.00679919  1
  C  C2  1  0.34602760  0.33427790  0.83473150  1
  C  C3  1  0.84252234  0.35597812  0.83350054  1
  C  C4  1  0.33296200  0.33191455  0.33042328  1
  C  C5  1  0.84562196  0.35384507  0.32446124  1
  C  C6  1  0.99777769  0.98922595  0.85944748  1
  C  C7  1  0.50048820  0.00709371  0.86261236  1
  C  C8  1  0.99933581  0.99183260  0.64574369  1
  C  C9  1  0.50029615  0.99961895  0.63836077  1
  C  C10  1  0.33946170  0.33869007  0.68285457  1
  C  C11  1  0.83675727  0.34744461  0.68200537  1
  C  C12  1  0.34030308  0.33541860  0.98747569  1
  C  C13  1  0.83767792  0.34310834  0.46870699  1
  C  C14  1  0.65989838  0.65368455  0.03223664  1
  C  C15  1  0.16095271  0.67186004  0.50991082  1
  C  C16  1  0.15731345  0.66131764  0.81098495  1
  C  C17  1  0.66770965  0.66275858  0.81767870  1
  Ni  Ni18  1  0.00450127  0.99670423  0.34199899  1
  Ni  Ni19  1  0.49964949  0.00086891  0.34963136  1
  Ni  Ni20  1  0.99897623  0.99925861  0.15034781  1
  Ni  Ni21  1  0.49850088  0.99905875  0.16116365  1
  Ni  Ni22  1  0.32051405  0.32179776  0.17945711  1
  Ni  Ni23  1  0.84815732  0.35115105  0.18352768  1
  Ni  Ni24  1  0.83684583  0.33659337  0.99134874  1
  Ni  Ni25  1  0.33633832  0.33598955  0.47549408  1
  Ni  Ni26  1  0.16277828  0.65994362  0.02447875  1
  Ni  Ni27  1  0.66427166  0.66849776  0.50914919  1
  Ni  Ni28  1  0.17320940  0.66852245  0.31797742  1
  Ni  Ni29  1  0.65774517  0.65857158  0.31231599  1
  Cu  Cu30  1  0.99199954  0.69294670  0.74871390  1
  Cu  Cu31  1  0.51334517  0.37148430  0.92165100  1
  Cu  Cu32  1  0.02176016  0.67799774  0.40079621  1
  C  C33  1  0.14880444  0.00990918  0.24416632  1
  C  C34  1  0.64391417  0.99790613  0.25567698  1
  C  C35  1  0.35185452  0.70956639  0.25608872  1
  C  C36  1  0.85384335  0.70536797  0.24522036  1
  C  C37  1  0.00031463  0.28333340  0.25181865  1
  C  C38  1  0.49913450  0.29040635  0.24977800  1
  C  C39  1  0.15462315  0.29155178  0.75285448  1
  C  C40  1  0.64496142  0.29125205  0.74889486  1
  C  C41  1  0.50155258  0.70846559  0.75230906  1
  C  C42  1  0.35370083  0.00094723  0.74953522  1
  C  C43  1  0.85285369  0.00841464  0.75182581  1
  C  C44  1  0.48351140  0.34748692  0.56846047  1
  C  C45  1  0.98425062  0.32985228  0.57665929  1
  C  C46  1  0.19112561  0.05527360  0.57129354  1
  C  C47  1  0.68905890  0.02143765  0.57472386  1
  C  C48  1  0.33433227  0.61849137  0.57138775  1
  C  C49  1  0.82121534  0.63119323  0.57279175  1
  C  C50  1  0.47236842  0.63551639  0.09966613  1
  C  C51  1  0.98095073  0.63552605  0.08762089  1
  C  C52  1  0.33389422  0.02846488  0.09275926  1
  C  C53  1  0.84582826  0.06571679  0.09208448  1
  C  C54  1  0.17900471  0.33196199  0.08920225  1
  C  C55  1  0.68966475  0.30825029  0.09315194  1
  C  C56  1  0.30607317  0.66413257  0.92806629  1
  C  C57  1  0.81245650  0.64419964  0.92727461  1
  C  C58  1  0.01645921  0.37872597  0.93023793  1
  C  C59  1  0.16437145  0.94677800  0.92914204  1
  C  C60  1  0.68100880  0.97953809  0.92651366  1
  C  C61  1  0.32208561  0.97561465  0.40841354  1
  C  C62  1  0.80547829  0.93576137  0.40732927  1
  C  C63  1  0.17289788  0.37068921  0.40845289  1
  C  C64  1  0.65497677  0.37410901  0.40685306  1
  C  C65  1  0.51942964  0.67072318  0.41062267  1
  C  C66  1  0.11176990  0.05447074  0.29504463  1
  C  C67  1  0.60442390  0.03629318  0.30709269  1
  C  C68  1  0.41048069  0.78588885  0.30755580  1
  C  C69  1  0.91330211  0.78448571  0.29547288  1
  C  C70  1  0.48183385  0.17240038  0.29996820  1
  C  C71  1  0.97747082  0.16430887  0.30380834  1
  C  C72  1  0.10909678  0.19920809  0.80611468  1
  C  C73  1  0.59892008  0.19037311  0.80089603  1
  C  C74  1  0.49245495  0.78835411  0.80586261  1
  C  C75  1  0.99094522  0.80193881  0.80515373  1
  C  C76  1  0.40665099  0.01393215  0.80061248  1
  C  C77  1  0.90484996  0.03618903  0.80544711  1
  C  C78  1  0.39758025  0.00450310  0.69451830  1
  C  C79  1  0.90259434  0.01383914  0.69972872  1
  C  C80  1  0.10590857  0.20244457  0.69990186  1
  C  C81  1  0.59479861  0.20596169  0.69559515  1
  C  C82  1  0.98843091  0.77840450  0.68694549  1
  C  C83  1  0.49570367  0.79838530  0.69985648  1
  C  C84  1  0.39070870  0.82495913  0.20486513  1
  C  C85  1  0.89177876  0.81349038  0.19215001  1
  C  C86  1  0.00888743  0.19572944  0.19974020  1
  C  C87  1  0.51941487  0.21673718  0.19708534  1
  C  C88  1  0.09271457  0.97859870  0.19221153  1
  C  C89  1  0.58659800  0.96480537  0.20387003  1
  C  C90  1  0.44519314  0.37793515  0.62093842  1
  C  C91  1  0.94042468  0.33162710  0.63063476  1
  C  C92  1  0.23767200  0.14813946  0.62422540  1
  C  C93  1  0.74070537  0.09714867  0.62761977  1
  C  C94  1  0.32461174  0.51920854  0.62498808  1
  C  C95  1  0.81182466  0.53300552  0.62629254  1
  C  C96  1  0.42684637  0.51290888  0.14925314  1
  C  C97  1  0.94755493  0.52148218  0.14074551  1
  C  C98  1  0.31457396  0.11460826  0.14235442  1
  C  C99  1  0.82957422  0.14059157  0.14623390  1
  C  C100  1  0.23920554  0.37641882  0.14125665  1
  C  C101  1  0.74425777  0.33513089  0.14569660  1
  C  C102  1  0.21774142  0.29372858  0.03941714  1
  C  C103  1  0.72871602  0.27575038  0.04055327  1
  C  C104  1  0.42193441  0.56699379  0.04602354  1
  C  C105  1  0.91877035  0.55417390  0.03863163  1
  C  C106  1  0.35543493  0.13840162  0.04059968  1
  C  C107  1  0.86412514  0.18537917  0.04198778  1
  C  C108  1  0.23496523  0.15784131  0.51753768  1
  C  C109  1  0.73019088  0.13463904  0.52420924  1
  C  C110  1  0.34849802  0.53275982  0.51956089  1
  C  C111  1  0.83819105  0.54785811  0.52273712  1
  C  C112  1  0.42473204  0.30904514  0.51718199  1
  C  C113  1  0.93206980  0.32577861  0.52555964  1
  C  C114  1  0.26364992  0.68404151  0.98165604  1
  C  C115  1  0.76447210  0.65589711  0.97735384  1
  C  C116  1  0.07116890  0.46214938  0.98270790  1
  C  C117  1  0.55879960  0.47404561  0.98189297  1
  C  C118  1  0.16019444  0.84813163  0.98315397  1
  C  C119  1  0.67255344  0.87426651  0.97773147  1
  C  C120  1  0.28309450  0.87249897  0.46057347  1
  C  C121  1  0.76544813  0.82696435  0.45997961  1
  C  C122  1  0.16114541  0.44739558  0.46135447  1
  C  C123  1  0.64164481  0.45780102  0.45825680  1
  C  C124  1  0.06851892  0.70111779  0.46307093  1
  C  C125  1  0.57566095  0.70311467  0.46187840  1
  C  C126  1  0.07711323  0.65068360  0.34879246  1
  C  C127  1  0.55489162  0.62655242  0.35830419  1
  C  C128  1  0.26579497  0.89784732  0.35639306  1
  C  C129  1  0.75103178  0.85157303  0.35462009  1
  C  C130  1  0.19578094  0.49184952  0.35795253  1
  C  C131  1  0.67304780  0.48396368  0.35356356  1
  C  C132  1  0.05489203  0.48285319  0.87764715  1
  C  C133  1  0.56453383  0.47056550  0.86340764  1
  C  C134  1  0.17668084  0.86655636  0.87705267  1
  C  C135  1  0.69172624  0.90340078  0.87251415  1
  C  C136  1  0.26196919  0.66518356  0.87480655  1
  C  C137  1  0.76530533  0.62172071  0.87221990  1
  C  C138  1  0.01433449  0.85677249  0.39448363  1
  C  C139  1  0.51314790  0.82973128  0.40108075  1
  C  C140  1  0.40828107  0.98708894  0.40022796  1
  C  C141  1  0.89415530  0.96018453  0.40171471  1
  C  C142  1  0.09149217  0.20342683  0.39790985  1
  C  C143  1  0.57431529  0.20205341  0.39996073  1
  C  C144  1  0.00496584  0.20426416  0.92437496  1
  C  C145  1  0.50429403  0.17865980  0.92667947  1
  C  C146  1  0.08411014  0.95671663  0.92643828  1
  C  C147  1  0.60229390  0.99848044  0.92306937  1
  C  C148  1  0.39783498  0.81105218  0.92895405  1
  C  C149  1  0.89903258  0.80078227  0.92504887  1
  C  C150  1  0.49457925  0.19516263  0.57714062  1
  C  C151  1  0.99374846  0.17340122  0.57315395  1
  C  C152  1  0.10150523  0.02899738  0.57116087  1
  C  C153  1  0.60065180  0.99881547  0.58195511  1
  C  C154  1  0.41209788  0.79338771  0.57587938  1
  C  C155  1  0.89573658  0.81215679  0.57634185  1
  C  C156  1  0.47891391  0.80894692  0.10882406  1
  C  C157  1  0.98768364  0.80699785  0.09857824  1
  C  C158  1  0.41461740  0.01720075  0.10512047  1
  C  C159  1  0.92475717  0.04812620  0.09874985  1
  C  C160  1  0.09336160  0.17642997  0.10139869  1
  C  C161  1  0.60023152  0.15070583  0.09994489  1
  C  C162  1  0.34241588  0.15731204  0.75058817  1
  C  C163  1  0.83206313  0.15069837  0.74872848  1
  C  C164  1  0.24128332  0.29916793  0.75176898  1
  C  C165  1  0.72973620  0.29696005  0.74694303  1
  C  C166  1  0.42660737  0.52468242  0.75118969  1
  C  C167  1  0.90528192  0.50025985  0.75258244  1
  C  C168  1  0.33909074  0.53197819  0.24741036  1
  C  C169  1  0.84643939  0.52640166  0.23765281  1
  C  C170  1  0.42044369  0.30747604  0.24121448  1
  C  C171  1  0.92240395  0.31230024  0.24548001  1
  C  C172  1  0.23792592  0.17731029  0.23724868  1
  C  C173  1  0.73249375  0.14859360  0.24817718  1
  C  C174  1  0.30582413  0.49713319  0.93076091  1
  C  C175  1  0.82076294  0.48294185  0.93344580  1
  C  C176  1  0.41655845  0.35233451  0.91683072  1
  C  C177  1  0.92929467  0.36785739  0.93756278  1
  C  C178  1  0.24036181  0.12444583  0.93316087  1
  C  C179  1  0.76139768  0.15582049  0.93259862  1
  C  C180  1  0.33470908  0.15684973  0.41447565  1
  C  C181  1  0.80979903  0.10636035  0.41267626  1
  C  C182  1  0.24980823  0.34066464  0.41456121  1
  C  C183  1  0.73036349  0.34761405  0.41338632  1
  C  C184  1  0.42957762  0.51657369  0.41851364  1
  C  C185  1  0.92427335  0.50445619  0.40126734  1
  C  C186  1  0.16810865  0.48644361  0.08015221  1
  C  C187  1  0.68114542  0.46368780  0.08637401  1
  C  C188  1  0.06855288  0.65972143  0.07645067  1
  C  C189  1  0.55988480  0.65749523  0.09609764  1
  C  C190  1  0.25762790  0.85376271  0.08416878  1
  C  C191  1  0.76902528  0.89500501  0.08301892  1
  C  C192  1  0.18958436  0.88830065  0.57074037  1
  C  C193  1  0.68080874  0.84693529  0.56486503  1
  C  C194  1  0.25627710  0.63198752  0.56424867  1
  C  C195  1  0.73756500  0.62993334  0.56375670  1
  C  C196  1  0.07099012  0.48800581  0.57542222  1
  C  C197  1  0.56845569  0.50630552  0.55858189  1
  C  C198  1  0.16323832  0.86352961  0.25246357  1
  C  C199  1  0.64745584  0.83408924  0.26396189  1
  C  C200  1  0.26526802  0.69782798  0.26506987  1
  C  C201  1  0.76606415  0.68059809  0.25520582  1
  C  C202  1  0.08083284  0.44918951  0.26026539  1
  C  C203  1  0.57771913  0.46599677  0.25832852  1
  C  C204  1  0.17025223  0.47048320  0.75357479  1
  C  C205  1  0.65753409  0.46813322  0.75110593  1
  C  C206  1  0.07834183  0.67456663  0.75020988  1
  C  C207  1  0.58464118  0.70874225  0.75167177  1
  C  C208  1  0.26902669  0.84146841  0.75210320  1
  C  C209  1  0.77202868  0.83891936  0.75383779  1
