# generated using pymatgen
data_CuNi3
_symmetry_space_group_name_H-M   'P 1'
_cell_length_a   6.27048100
_cell_length_b   6.27048100
_cell_length_c   6.46649100
_cell_angle_alpha   90.00000000
_cell_angle_beta   90.00000000
_cell_angle_gamma   90.00000000
_symmetry_Int_Tables_number   1
_chemical_formula_structural   CuNi3
_chemical_formula_sum   'Cu4 Ni12'
_cell_volume   254.25551972
_cell_formula_units_Z   4
loop_
 _symmetry_equiv_pos_site_id
 _symmetry_equiv_pos_as_xyz
  1  'x, y, z'
loop_
 _atom_site_type_symbol
 _atom_site_label
 _atom_site_symmetry_multiplicity
 _atom_site_fract_x
 _atom_site_fract_y
 _atom_site_fract_z
 _atom_site_occupancy
  Ni  Ni0  1  0.50000000  0.00000000  0.00000000  1
  Ni  Ni1  1  0.50000000  0.00000000  0.50000000  1
  Ni  Ni2  1  0.00000000  0.50000000  0.00000000  1
  Ni  Ni3  1  0.00000000  0.50000000  0.50000000  1
  Ni  Ni4  1  0.65128100  0.34871900  0.74499500  1
  Ni  Ni5  1  0.84871900  0.84871900  0.75500500  1
  Ni  Ni6  1  0.15128100  0.15128100  0.75500500  1
  Ni  Ni7  1  0.34871900  0.65128100  0.74499500  1
  Ni  Ni8  1  0.34871900  0.65128100  0.25500500  1
  Ni  Ni9  1  0.65128100  0.34871900  0.25500500  1
  Ni  Ni10  1  0.84871900  0.84871900  0.24499500  1
  Ni  Ni11  1  0.15128100  0.15128100  0.24499500  1
  Cu  Cu12  1  0.84514300  0.15485700  0.00000000  1
  Cu  Cu13  1  0.65485700  0.65485700  0.50000000  1
  Cu  Cu14  1  0.34514300  0.34514300  0.50000000  1
  Cu  Cu15  1  0.15485700  0.84514300  0.00000000  1
