# generated using pymatgen
data_Cu6NiC12
_symmetry_space_group_name_H-M   'P 1'
_cell_length_a   5.08997358
_cell_length_b   7.76027215
_cell_length_c   5.59920384
_cell_angle_alpha   98.70341158
_cell_angle_beta   96.80965578
_cell_angle_gamma   83.36896161
_symmetry_Int_Tables_number   1
_chemical_formula_structural   Cu6NiC12
_chemical_formula_sum   'Cu6 Ni1 C12'
_cell_volume   216.00278511
_cell_formula_units_Z   1
loop_
 _symmetry_equiv_pos_site_id
 _symmetry_equiv_pos_as_xyz
  1  'x, y, z'
loop_
 _atom_site_type_symbol
 _atom_site_label
 _atom_site_symmetry_multiplicity
 _atom_site_fract_x
 _atom_site_fract_y
 _atom_site_fract_z
 _atom_site_occupancy
  Ni  Ni0  1  0.00009175  0.83781354  0.33737053  1
  Cu  Cu1  1  0.48171083  0.00412630  0.51869613  1
  Cu  Cu2  1  0.51825395  0.67174950  0.15615857  1
  Cu  Cu3  1  0.49956268  0.33775268  0.83790593  1
  Cu  Cu4  1  0.98984751  0.65907180  0.71013388  1
  Cu  Cu5  1  -0.00013963  0.33783080  0.33757864  1
  Cu  Cu6  1  0.01022617  0.01664933  0.96464849  1
  C  C7  1  0.85082571  0.44955886  0.63750775  1
  C  C8  1  0.84536254  0.77972855  0.98074447  1
  C  C9  1  0.68301458  0.10258123  0.80914199  1
  C  C10  1  0.69278911  0.77264916  0.47327815  1
  C  C11  1  0.67869260  0.43561865  0.14528944  1
  C  C12  1  0.31705756  0.57321497  0.86589601  1
  C  C13  1  0.32130894  0.24016440  0.52994713  1
  C  C14  1  0.30714836  0.90319319  0.20151967  1
  C  C15  1  0.14944492  0.22620460  0.03763243  1
  C  C16  1  0.15465335  0.89604854  0.69400702  1
  C  C17  1  0.83668837  0.07883230  0.28920544  1
  C  C18  1  0.16346069  0.59685659  0.38583732  1
