# generated using pymatgen
data_Cu4NiC
_symmetry_space_group_name_H-M   'P 1'
_cell_length_a   8.66382871
_cell_length_b   8.66382843
_cell_length_c   22.60493322
_cell_angle_alpha   90.00000000
_cell_angle_beta   90.00000000
_cell_angle_gamma   120.00000102
_symmetry_Int_Tables_number   1
_chemical_formula_structural   Cu4NiC
_chemical_formula_sum   'Cu72 Ni18 C18'
_cell_volume   1469.44574792
_cell_formula_units_Z   18
loop_
 _symmetry_equiv_pos_site_id
 _symmetry_equiv_pos_as_xyz
  1  'x, y, z'
loop_
 _atom_site_type_symbol
 _atom_site_label
 _atom_site_symmetry_multiplicity
 _atom_site_fract_x
 _atom_site_fract_y
 _atom_site_fract_z
 _atom_site_occupancy
  C  C0  1  -0.00000000  -0.00000000  0.50505459  1
  C  C1  1  -0.00000000  -0.00000000  0.00265202  1
  C  C2  1  0.66666700  0.33333300  0.83118376  1
  C  C3  1  0.66666700  0.33333300  0.33526130  1
  C  C4  1  0.33333300  0.66666700  0.17320669  1
  C  C5  1  0.33333300  0.66666700  0.66103274  1
  C  C6  1  -0.00000000  -0.00000000  0.35435917  1
  C  C7  1  -0.00000000  -0.00000000  0.84709919  1
  C  C8  1  0.33333300  0.66666700  0.02075771  1
  C  C9  1  -0.00000000  -0.00000000  0.64370759  1
  C  C10  1  -0.00000000  -0.00000000  0.15269788  1
  C  C11  1  0.66666700  0.33333300  0.67668697  1
  C  C12  1  0.66666700  0.33333300  0.18754481  1
  C  C13  1  0.66666700  0.33333300  0.98385743  1
  C  C14  1  0.66666700  0.33333300  0.48666652  1
  C  C15  1  0.33333300  0.66666700  0.51881969  1
  C  C16  1  0.33333300  0.66666700  0.31809912  1
  C  C17  1  0.33333300  0.66666700  0.81509001  1
  Ni  Ni18  1  0.29057302  0.99880975  0.25005794  1
  Ni  Ni19  1  0.70823674  0.70942698  0.25005794  1
  Ni  Ni20  1  0.00119025  0.29176326  0.25005794  1
  Ni  Ni21  1  0.29238694  0.29281840  0.74906194  1
  Ni  Ni22  1  0.00043146  0.70761306  0.74906194  1
  Ni  Ni23  1  0.70718160  0.99956854  0.74906194  1
  Ni  Ni24  1  0.96234488  0.33476269  0.58342811  1
  Ni  Ni25  1  0.37241881  0.03765512  0.58342811  1
  Ni  Ni26  1  0.66523731  0.62758119  0.58342811  1
  Ni  Ni27  1  0.95903367  0.62737500  0.08221809  1
  Ni  Ni28  1  0.66834232  0.04096633  0.08221809  1
  Ni  Ni29  1  0.37262500  0.33165768  0.08221809  1
  Ni  Ni30  1  0.62496298  0.66723725  0.91612847  1
  Ni  Ni31  1  0.04227326  0.37503702  0.91612847  1
  Ni  Ni32  1  0.33276275  0.95772674  0.91612847  1
  Ni  Ni33  1  0.62592355  0.96098711  0.41551092  1
  Ni  Ni34  1  0.33506256  0.37407645  0.41551092  1
  Ni  Ni35  1  0.03901289  0.66493744  0.41551092  1
  Cu  Cu36  1  0.19810208  0.02179454  0.30323752  1
  Cu  Cu37  1  0.82369245  0.80189792  0.30323752  1
  Cu  Cu38  1  0.97820546  0.17630755  0.30323752  1
  Cu  Cu39  1  0.19491279  0.17388396  0.80491282  1
  Cu  Cu40  1  0.97897117  0.80508721  0.80491282  1
  Cu  Cu41  1  0.82611604  0.02102883  0.80491282  1
  Cu  Cu42  1  0.79064553  0.97283018  0.69765084  1
  Cu  Cu43  1  0.18218465  0.20935447  0.69765084  1
  Cu  Cu44  1  0.02716982  0.81781535  0.69765084  1
  Cu  Cu45  1  0.78532307  0.81362200  0.19557973  1
  Cu  Cu46  1  0.02829892  0.21467693  0.19557973  1
  Cu  Cu47  1  0.18637800  0.97170108  0.19557973  1
  Cu  Cu48  1  0.88533957  0.36289463  0.63846867  1
  Cu  Cu49  1  0.47755606  0.11466043  0.63846867  1
  Cu  Cu50  1  0.63710537  0.52244394  0.63846867  1
  Cu  Cu51  1  0.88940707  0.51750337  0.13546846  1
  Cu  Cu52  1  0.62809730  0.11059293  0.13546846  1
  Cu  Cu53  1  0.48249663  0.37190270  0.13546846  1
  Cu  Cu54  1  0.45134715  0.30590577  0.02826401  1
  Cu  Cu55  1  0.85455963  0.54865285  0.02826401  1
  Cu  Cu56  1  0.69409423  0.14544037  0.02826401  1
  Cu  Cu57  1  0.45211196  0.14627454  0.52983768  1
  Cu  Cu58  1  0.69416357  0.54788804  0.52983768  1
  Cu  Cu59  1  0.85372546  0.30583643  0.52983768  1
  Cu  Cu60  1  0.53771529  0.69496728  0.97016493  1
  Cu  Cu61  1  0.15725100  0.46228471  0.97016493  1
  Cu  Cu62  1  0.30503272  0.84274900  0.97016493  1
  Cu  Cu63  1  0.55680889  0.85124922  0.46854280  1
  Cu  Cu64  1  0.29443933  0.44319111  0.46854280  1
  Cu  Cu65  1  0.14875078  0.70556067  0.46854280  1
  Cu  Cu66  1  0.11755666  0.63899356  0.36150477  1
  Cu  Cu67  1  0.52143590  0.88244334  0.36150477  1
  Cu  Cu68  1  0.36100644  0.47856410  0.36150477  1
  Cu  Cu69  1  0.12151380  0.48158464  0.86323973  1
  Cu  Cu70  1  0.36006985  0.87848620  0.86323973  1
  Cu  Cu71  1  0.51841536  0.63993015  0.86323973  1
  Cu  Cu72  1  0.02127065  0.83270321  0.40599159  1
  Cu  Cu73  1  0.81143255  0.97872935  0.40599159  1
  Cu  Cu74  1  0.16729679  0.18856745  0.40599159  1
  Cu  Cu75  1  0.02929382  0.19573528  0.91137214  1
  Cu  Cu76  1  0.16644146  0.97070618  0.91137214  1
  Cu  Cu77  1  0.80426472  0.83355854  0.91137214  1
  Cu  Cu78  1  0.97841361  0.17230950  0.58847457  1
  Cu  Cu79  1  0.19389589  0.02158639  0.58847457  1
  Cu  Cu80  1  0.82769050  0.80610411  0.58847457  1
  Cu  Cu81  1  0.98742006  0.80879092  0.08810748  1
  Cu  Cu82  1  0.82137086  0.01257994  0.08810748  1
  Cu  Cu83  1  0.19120908  0.17862914  0.08810748  1
  Cu  Cu84  1  0.69830273  0.16448659  0.74918871  1
  Cu  Cu85  1  0.46618486  0.30169727  0.74918871  1
  Cu  Cu86  1  0.83551341  0.53381514  0.74918871  1
  Cu  Cu87  1  0.69802558  0.53363669  0.24725625  1
  Cu  Cu88  1  0.83561211  0.30197442  0.24725625  1
  Cu  Cu89  1  0.46636331  0.16438789  0.24725625  1
  Cu  Cu90  1  0.64736925  0.51078927  0.92406964  1
  Cu  Cu91  1  0.86342102  0.35263075  0.92406964  1
  Cu  Cu92  1  0.48921073  0.13657898  0.92406964  1
  Cu  Cu93  1  0.65438319  0.14268691  0.42146543  1
  Cu  Cu94  1  0.48830471  0.34561681  0.42146543  1
  Cu  Cu95  1  0.85731309  0.51169529  0.42146543  1
  Cu  Cu96  1  0.35505648  0.49977183  0.07273405  1
  Cu  Cu97  1  0.14471435  0.64494352  0.07273405  1
  Cu  Cu98  1  0.50022817  0.85528565  0.07273405  1
  Cu  Cu99  1  0.35531443  0.85909729  0.57817351  1
  Cu  Cu100  1  0.50378186  0.64468557  0.57817351  1
  Cu  Cu101  1  0.14090271  0.49621814  0.57817351  1
  Cu  Cu102  1  0.30887139  0.83954870  0.25689990  1
  Cu  Cu103  1  0.53067631  0.69112861  0.25689990  1
  Cu  Cu104  1  0.16045130  0.46932369  0.25689990  1
  Cu  Cu105  1  0.30703977  0.46734280  0.75839689  1
  Cu  Cu106  1  0.16030202  0.69296023  0.75839689  1
  Cu  Cu107  1  0.53265720  0.83969798  0.75839689  1
