# generated using pymatgen
data_CuNiC6
_symmetry_space_group_name_H-M   'P 1'
_cell_length_a   4.06852807
_cell_length_b   4.06852713
_cell_length_c   7.61576494
_cell_angle_alpha   105.49250001
_cell_angle_beta   105.49249460
_cell_angle_gamma   89.99999386
_symmetry_Int_Tables_number   1
_chemical_formula_structural   CuNiC6
_chemical_formula_sum   'Cu1 Ni1 C6'
_cell_volume   116.72261958
_cell_formula_units_Z   1
loop_
 _symmetry_equiv_pos_site_id
 _symmetry_equiv_pos_as_xyz
  1  'x, y, z'
loop_
 _atom_site_type_symbol
 _atom_site_label
 _atom_site_symmetry_multiplicity
 _atom_site_fract_x
 _atom_site_fract_y
 _atom_site_fract_z
 _atom_site_occupancy
  C  C0  1  0.61013600  0.61013700  0.22027200  1
  C  C1  1  0.38986500  0.38986300  0.77972700  1
  Ni  Ni2  1  0.75000000  0.25000000  0.50000000  1
  Cu  Cu3  1  0.00000000  0.00000000  0.00000000  1
  C  C4  1  0.80770200  0.80770400  0.61540700  1
  C  C5  1  0.19229700  0.19229700  0.38459300  1
  C  C6  1  0.50959900  0.00959800  0.01919500  1
  C  C7  1  0.99040300  0.49040200  0.98080500  1
