# generated using pymatgen
data_Cu7NiC
_symmetry_space_group_name_H-M   'P 1'
_cell_length_a   6.82140100
_cell_length_b   7.12416600
_cell_length_c   15.29868452
_cell_angle_alpha   74.77920322
_cell_angle_beta   90.00000000
_cell_angle_gamma   90.00000000
_symmetry_Int_Tables_number   1
_chemical_formula_structural   Cu7NiC
_chemical_formula_sum   'Cu14 Ni2 C2'
_cell_volume   717.38712291
_cell_formula_units_Z   2
loop_
 _symmetry_equiv_pos_site_id
 _symmetry_equiv_pos_as_xyz
  1  'x, y, z'
loop_
 _atom_site_type_symbol
 _atom_site_label
 _atom_site_symmetry_multiplicity
 _atom_site_fract_x
 _atom_site_fract_y
 _atom_site_fract_z
 _atom_site_occupancy
  C  C0  1  0.99828000  0.69868800  0.66284700  1
  C  C1  1  0.00172000  0.69868800  0.16284700  1
  Ni  Ni2  1  0.59736300  0.99714100  0.50356800  1
  Ni  Ni3  1  0.40263700  0.99714100  0.00356800  1
  Cu  Cu4  1  0.39921300  0.89454300  0.39766500  1
  Cu  Cu5  1  0.39809700  0.24283700  0.53621300  1
  Cu  Cu6  1  0.17961000  0.20208900  0.90080000  1
  Cu  Cu7  1  0.82039000  0.20208900  0.40080000  1
  Cu  Cu8  1  0.12117400  0.00737000  0.16303000  1
  Cu  Cu9  1  0.60190300  0.24283700  0.03621300  1
  Cu  Cu10  1  0.12890500  0.64010300  0.02992400  1
  Cu  Cu11  1  0.87109500  0.64010300  0.52992400  1
  Cu  Cu12  1  0.66323600  0.67704800  0.16601800  1
  Cu  Cu13  1  0.33676400  0.67704800  0.66601800  1
  Cu  Cu14  1  0.12967000  0.47547900  0.28983300  1
  Cu  Cu15  1  0.87033000  0.47547900  0.78983300  1
  Cu  Cu16  1  0.60078700  0.89454300  0.89766500  1
  Cu  Cu17  1  0.87882600  0.00737000  0.66303000  1
