# generated using pymatgen
data_Cu2Ni3C8
_symmetry_space_group_name_H-M   'P 1'
_cell_length_a   4.96016800
_cell_length_b   11.45524100
_cell_length_c   16.82636105
_cell_angle_alpha   85.32510455
_cell_angle_beta   90.00000000
_cell_angle_gamma   90.00000000
_symmetry_Int_Tables_number   1
_chemical_formula_structural   Cu2Ni3C8
_chemical_formula_sum   'Cu8 Ni12 C32'
_cell_volume   952.89181775
_cell_formula_units_Z   4
loop_
 _symmetry_equiv_pos_site_id
 _symmetry_equiv_pos_as_xyz
  1  'x, y, z'
loop_
 _atom_site_type_symbol
 _atom_site_label
 _atom_site_symmetry_multiplicity
 _atom_site_fract_x
 _atom_site_fract_y
 _atom_site_fract_z
 _atom_site_occupancy
  Ni  Ni0  1  0.87960300  0.14272900  0.03648400  1
  Ni  Ni1  1  0.37960300  0.85727100  0.46351600  1
  Ni  Ni2  1  0.12039700  0.85727100  0.96351600  1
  Ni  Ni3  1  0.62039700  0.14272900  0.53648400  1
  Ni  Ni4  1  0.72223500  0.48081300  0.36769600  1
  Ni  Ni5  1  0.22223500  0.51918700  0.13230400  1
  Ni  Ni6  1  0.27776500  0.51918700  0.63230400  1
  Ni  Ni7  1  0.77776500  0.48081300  0.86769600  1
  Ni  Ni8  1  0.75348300  0.80738800  0.21608300  1
  Ni  Ni9  1  0.25348300  0.19261200  0.28391700  1
  Ni  Ni10  1  0.24651700  0.19261200  0.78391700  1
  Ni  Ni11  1  0.74651700  0.80738800  0.71608300  1
  Cu  Cu12  1  0.69589500  0.64949300  0.02680700  1
  Cu  Cu13  1  0.19589500  0.35050700  0.47319300  1
  Cu  Cu14  1  0.30410500  0.35050700  0.97319300  1
  Cu  Cu15  1  0.80410500  0.64949300  0.52680700  1
  Cu  Cu16  1  0.78519900  0.02200100  0.35243600  1
  Cu  Cu17  1  0.28519900  0.97799900  0.14756400  1
  Cu  Cu18  1  0.21480100  0.97799900  0.64756400  1
  Cu  Cu19  1  0.71480100  0.02200100  0.85243600  1
  C  C20  1  0.38633300  0.64887300  0.04468800  1
  C  C21  1  0.88633300  0.35112700  0.45531200  1
  C  C22  1  0.61366700  0.35112700  0.95531200  1
  C  C23  1  0.11366700  0.64887300  0.54468800  1
  C  C24  1  0.74809000  0.62586800  0.93868100  1
  C  C25  1  0.24809000  0.37413200  0.56131900  1
  C  C26  1  0.25191000  0.37413200  0.06131900  1
  C  C27  1  0.75191000  0.62586800  0.43868100  1
  C  C28  1  0.82396700  0.55463100  0.08657300  1
  C  C29  1  0.32396700  0.44536900  0.41342700  1
  C  C30  1  0.17603300  0.44536900  0.91342700  1
  C  C31  1  0.67603300  0.55463100  0.58657300  1
  C  C32  1  0.80796400  0.77354300  0.03976100  1
  C  C33  1  0.30796400  0.22645700  0.46023900  1
  C  C34  1  0.19203600  0.22645700  0.96023900  1
  C  C35  1  0.69203600  0.77354300  0.53976100  1
  C  C36  1  0.09440500  0.04092200  0.35261700  1
  C  C37  1  0.59440500  0.95907800  0.14738300  1
  C  C38  1  0.90559500  0.95907800  0.64738300  1
  C  C39  1  0.40559500  0.04092200  0.85261700  1
  C  C40  1  0.84187600  0.12773500  0.80257700  1
  C  C41  1  0.34187600  0.87226500  0.69742300  1
  C  C42  1  0.15812400  0.87226500  0.19742300  1
  C  C43  1  0.65812400  0.12773500  0.30257700  1
  C  C44  1  0.82575900  0.01418500  0.94058700  1
  C  C45  1  0.32575900  0.98581500  0.55941300  1
  C  C46  1  0.17424100  0.98581500  0.05941300  1
  C  C47  1  0.67424100  0.01418500  0.44058700  1
  C  C48  1  0.79157200  0.90167500  0.82328700  1
  C  C49  1  0.29157200  0.09832500  0.67671300  1
  C  C50  1  0.20842800  0.09832500  0.17671300  1
  C  C51  1  0.70842800  0.90167500  0.32328700  1
