# generated using pymatgen
data_Cu12Ni4C
_symmetry_space_group_name_H-M   'P 1'
_cell_length_a   10.25060200
_cell_length_b   10.25060200
_cell_length_c   5.40181300
_cell_angle_alpha   90.00000000
_cell_angle_beta   90.00000000
_cell_angle_gamma   90.00000000
_symmetry_Int_Tables_number   1
_chemical_formula_structural   Cu12Ni4C
_chemical_formula_sum   'Cu24 Ni8 C2'
_cell_volume   567.59464404
_cell_formula_units_Z   2
loop_
 _symmetry_equiv_pos_site_id
 _symmetry_equiv_pos_as_xyz
  1  'x, y, z'
loop_
 _atom_site_type_symbol
 _atom_site_label
 _atom_site_symmetry_multiplicity
 _atom_site_fract_x
 _atom_site_fract_y
 _atom_site_fract_z
 _atom_site_occupancy
  C  C0  1  0.00000000  0.00000000  0.00000000  1
  C  C1  1  0.50000000  0.50000000  0.50000000  1
  Ni  Ni2  1  0.00301300  0.27093700  0.53622300  1
  Ni  Ni3  1  0.77093700  0.49698700  0.03622300  1
  Ni  Ni4  1  0.22906300  0.50301300  0.03622300  1
  Ni  Ni5  1  0.99698700  0.72906300  0.53622300  1
  Ni  Ni6  1  0.49698700  0.22906300  0.96377700  1
  Ni  Ni7  1  0.72906300  0.00301300  0.46377700  1
  Ni  Ni8  1  0.27093700  0.99698700  0.46377700  1
  Ni  Ni9  1  0.50301300  0.77093700  0.96377700  1
  Cu  Cu10  1  0.07177800  0.15116900  0.31254500  1
  Cu  Cu11  1  0.65116900  0.42822200  0.81254500  1
  Cu  Cu12  1  0.34883100  0.57177800  0.81254500  1
  Cu  Cu13  1  0.92822200  0.84883100  0.31254500  1
  Cu  Cu14  1  0.42822200  0.34883100  0.18745500  1
  Cu  Cu15  1  0.84883100  0.07177800  0.68745500  1
  Cu  Cu16  1  0.15116900  0.92822200  0.68745500  1
  Cu  Cu17  1  0.57177800  0.65116900  0.18745500  1
  Cu  Cu18  1  0.07710600  0.19199300  0.80909300  1
  Cu  Cu19  1  0.69199300  0.42289400  0.30909300  1
  Cu  Cu20  1  0.62001500  0.90131800  0.00117600  1
  Cu  Cu21  1  0.40131800  0.87998500  0.50117600  1
  Cu  Cu22  1  0.59868200  0.12001500  0.50117600  1
  Cu  Cu23  1  0.37998500  0.09868200  0.00117600  1
  Cu  Cu24  1  0.87998500  0.59868200  0.49882400  1
  Cu  Cu25  1  0.09868200  0.62001500  0.99882400  1
  Cu  Cu26  1  0.90131800  0.37998500  0.99882400  1
  Cu  Cu27  1  0.12001500  0.40131800  0.49882400  1
  Cu  Cu28  1  0.57710600  0.69199300  0.69090700  1
  Cu  Cu29  1  0.19199300  0.92289400  0.19090700  1
  Cu  Cu30  1  0.80800700  0.07710600  0.19090700  1
  Cu  Cu31  1  0.42289400  0.30800700  0.69090700  1
  Cu  Cu32  1  0.92289400  0.80800700  0.80909300  1
  Cu  Cu33  1  0.30800700  0.57710600  0.30909300  1
