# generated using pymatgen
data_Cu2NiC17
_symmetry_space_group_name_H-M   'P 1'
_cell_length_a   15.79974358
_cell_length_b   9.14677329
_cell_length_c   9.57702642
_cell_angle_alpha   90.00000000
_cell_angle_beta   128.17302447
_cell_angle_gamma   90.00000000
_symmetry_Int_Tables_number   1
_chemical_formula_structural   Cu2NiC17
_chemical_formula_sum   'Cu8 Ni4 C68'
_cell_volume   1088.06021572
_cell_formula_units_Z   4
loop_
 _symmetry_equiv_pos_site_id
 _symmetry_equiv_pos_as_xyz
  1  'x, y, z'
loop_
 _atom_site_type_symbol
 _atom_site_label
 _atom_site_symmetry_multiplicity
 _atom_site_fract_x
 _atom_site_fract_y
 _atom_site_fract_z
 _atom_site_occupancy
  C  C0  1  0.23649375  0.72660737  0.99774566  1
  C  C1  1  0.73649375  0.77339263  0.49774566  1
  C  C2  1  0.73649375  0.22660737  0.99774566  1
  C  C3  1  0.23649375  0.27339263  0.49774566  1
  C  C4  1  0.48711017  0.10242344  0.71477658  1
  C  C5  1  0.48711017  0.89757656  0.21477658  1
  C  C6  1  0.98711017  0.60242344  0.71477658  1
  C  C7  1  0.98711017  0.39757656  0.21477658  1
  C  C8  1  0.19585394  0.91926808  0.32436223  1
  C  C9  1  0.19585394  0.08073192  0.82436223  1
  C  C10  1  0.69585394  0.41926808  0.32436223  1
  C  C11  1  0.69585394  0.58073192  0.82436223  1
  C  C12  1  0.11119400  0.74358985  0.56802687  1
  C  C13  1  0.11119400  0.25641015  0.06802687  1
  C  C14  1  0.61119400  0.24358985  0.56802687  1
  C  C15  1  0.61119400  0.75641015  0.06802687  1
  Ni  Ni16  1  0.65164236  0.87984397  0.74719844  1
  Ni  Ni17  1  0.65164236  0.12015603  0.24719844  1
  Ni  Ni18  1  0.15164236  0.37984397  0.74719844  1
  Ni  Ni19  1  0.15164236  0.62015603  0.24719844  1
  C  C20  1  0.90704018  0.78212870  0.91403687  1
  C  C21  1  0.90704018  0.21787130  0.41403687  1
  C  C22  1  0.40704018  0.28212870  0.91403687  1
  C  C23  1  0.40704018  0.71787130  0.41403687  1
  Cu  Cu24  1  0.99088322  0.96637442  0.73915745  1
  Cu  Cu25  1  0.99088322  0.03362558  0.23915745  1
  Cu  Cu26  1  0.49088322  0.46637442  0.73915745  1
  Cu  Cu27  1  0.49088322  0.53362558  0.23915745  1
  Cu  Cu28  1  0.35612337  0.93163314  0.77208570  1
  Cu  Cu29  1  0.35612337  0.06836686  0.27208570  1
  Cu  Cu30  1  0.85612337  0.43163314  0.77208570  1
  Cu  Cu31  1  0.85612337  0.56836686  0.27208570  1
  C  C32  1  0.15454980  0.55680095  0.75160127  1
  C  C33  1  0.86018859  0.60677301  0.77769993  1
  C  C34  1  0.86018859  0.39322699  0.27769993  1
  C  C35  1  0.15454980  0.44319905  0.25160127  1
  C  C36  1  0.65454980  0.05680095  0.75160127  1
  C  C37  1  0.36018859  0.10677301  0.77769993  1
  C  C38  1  0.36018859  0.89322699  0.27769993  1
  C  C39  1  0.65454980  0.94319905  0.25160127  1
  C  C40  1  0.42986162  0.56768491  0.57083548  1
  C  C41  1  0.55284692  0.55060523  0.91155051  1
  C  C42  1  0.55284692  0.44939477  0.41155051  1
  C  C43  1  0.42986162  0.43231509  0.07083548  1
  C  C44  1  0.92986162  0.06768491  0.57083548  1
  C  C45  1  0.05284692  0.05060523  0.91155051  1
  C  C46  1  0.05284692  0.94939477  0.41155051  1
  C  C47  1  0.92986162  0.93231509  0.07083548  1
  C  C48  1  0.25799537  0.88315449  0.76030720  1
  C  C49  1  0.75812796  0.81043402  0.77342369  1
  C  C50  1  0.75812796  0.18956598  0.27342369  1
  C  C51  1  0.25799537  0.11684551  0.26030720  1
  C  C52  1  0.75799537  0.38315449  0.76030720  1
  C  C53  1  0.25812796  0.31043402  0.77342369  1
  C  C54  1  0.25812796  0.68956598  0.27342369  1
  C  C55  1  0.75799537  0.61684551  0.26030720  1
  C  C56  1  0.35134025  0.89797144  0.61120799  1
  C  C57  1  0.64632279  0.81895698  0.89849869  1
  C  C58  1  0.64632279  0.18104302  0.39849869  1
  C  C59  1  0.35134025  0.10202856  0.11120799  1
  C  C60  1  0.85134025  0.39797144  0.61120799  1
  C  C61  1  0.14632279  0.31895698  0.89849869  1
  C  C62  1  0.14632279  0.68104302  0.39849869  1
  C  C63  1  0.85134025  0.60202856  0.11120799  1
  C  C64  1  0.45596513  0.87143789  0.94708075  1
  C  C65  1  0.54789155  0.79348023  0.55315160  1
  C  C66  1  0.54789155  0.20651977  0.05315160  1
  C  C67  1  0.45596513  0.12856211  0.44708075  1
  C  C68  1  0.95596513  0.37143789  0.94708075  1
  C  C69  1  0.04789155  0.29348023  0.55315160  1
  C  C70  1  0.04789155  0.70651977  0.05315160  1
  C  C71  1  0.95596513  0.62856211  0.44708075  1
  C  C72  1  0.06578882  0.86020996  0.73735200  1
  C  C73  1  0.90278021  0.87198143  0.72990108  1
  C  C74  1  0.90278021  0.12801857  0.22990108  1
  C  C75  1  0.06578882  0.13979004  0.23735200  1
  C  C76  1  0.56578882  0.36020996  0.73735200  1
  C  C77  1  0.40278021  0.37198143  0.72990108  1
  C  C78  1  0.40278021  0.62801857  0.22990108  1
  C  C79  1  0.56578882  0.63979004  0.23735200  1
