# generated using pymatgen
data_CuNiC9
_symmetry_space_group_name_H-M   'P 1'
_cell_length_a   5.99874114
_cell_length_b   6.04393738
_cell_length_c   5.91261310
_cell_angle_alpha   90.05934421
_cell_angle_beta   119.49182163
_cell_angle_gamma   120.21569278
_symmetry_Int_Tables_number   1
_chemical_formula_structural   CuNiC9
_chemical_formula_sum   'Cu1 Ni1 C9'
_cell_volume   152.16487308
_cell_formula_units_Z   1
loop_
 _symmetry_equiv_pos_site_id
 _symmetry_equiv_pos_as_xyz
  1  'x, y, z'
loop_
 _atom_site_type_symbol
 _atom_site_label
 _atom_site_symmetry_multiplicity
 _atom_site_fract_x
 _atom_site_fract_y
 _atom_site_fract_z
 _atom_site_occupancy
  C  C0  1  0.00000000  0.50000000  0.00000000  1
  Ni  Ni1  1  0.00000000  0.00000000  0.00000000  1
  Cu  Cu2  1  0.00000000  0.50000000  0.50000000  1
  C  C3  1  0.35435500  0.17717800  0.67717800  1
  C  C4  1  0.64564500  0.82282200  0.32282200  1
  C  C5  1  0.00000000  0.26310100  0.24793400  1
  C  C6  1  0.00000000  0.73689900  0.75206600  1
  C  C7  1  0.00000000  0.26304600  0.75216000  1
  C  C8  1  0.00000000  0.73695400  0.24784000  1
  C  C9  1  0.47786600  0.73893200  0.73893200  1
  C  C10  1  0.52213400  0.26106800  0.26106800  1
