# generated using pymatgen
data_Cu2NiC12
_symmetry_space_group_name_H-M   'P 1'
_cell_length_a   7.31872991
_cell_length_b   7.31846850
_cell_length_c   7.31846802
_cell_angle_alpha   60.00709331
_cell_angle_beta   59.99881751
_cell_angle_gamma   59.99881256
_symmetry_Int_Tables_number   1
_chemical_formula_structural   Cu2NiC12
_chemical_formula_sum   'Cu2 Ni1 C12'
_cell_volume   277.18939233
_cell_formula_units_Z   1
loop_
 _symmetry_equiv_pos_site_id
 _symmetry_equiv_pos_as_xyz
  1  'x, y, z'
loop_
 _atom_site_type_symbol
 _atom_site_label
 _atom_site_symmetry_multiplicity
 _atom_site_fract_x
 _atom_site_fract_y
 _atom_site_fract_z
 _atom_site_occupancy
  Ni  Ni0  1  0.37416400  0.37583600  0.37583600  1
  Cu  Cu1  1  0.87517300  0.87482700  0.87482700  1
  Cu  Cu2  1  0.12412300  0.12587700  0.12587700  1
  C  C3  1  0.50890500  0.50919500  0.97299500  1
  C  C4  1  0.50932200  0.50948700  0.50948700  1
  C  C5  1  0.97170400  0.50948700  0.50948700  1
  C  C6  1  0.50890500  0.97299500  0.50919500  1
  C  C7  1  0.73505600  0.73597100  0.73597100  1
  C  C8  1  0.24983900  0.24964500  0.75067600  1
  C  C9  1  0.24983900  0.75067600  0.24964500  1
  C  C10  1  0.74931300  0.25021800  0.25021800  1
  C  C11  1  0.73538700  0.29297000  0.73625700  1
  C  C12  1  0.29300200  0.73597100  0.73597100  1
  C  C13  1  0.25025000  0.25021800  0.25021800  1
  C  C14  1  0.73538700  0.73625700  0.29297000  1
