# generated using pymatgen
data_Cu3Ni3C35
_symmetry_space_group_name_H-M   'P 1'
_cell_length_a   9.20753086
_cell_length_b   9.20524854
_cell_length_c   22.53456257
_cell_angle_alpha   90.02075894
_cell_angle_beta   90.04136591
_cell_angle_gamma   120.02187086
_symmetry_Int_Tables_number   1
_chemical_formula_structural   Cu3Ni3C35
_chemical_formula_sum   'Cu9 Ni9 C105'
_cell_volume   1653.72178297
_cell_formula_units_Z   3
loop_
 _symmetry_equiv_pos_site_id
 _symmetry_equiv_pos_as_xyz
  1  'x, y, z'
loop_
 _atom_site_type_symbol
 _atom_site_label
 _atom_site_symmetry_multiplicity
 _atom_site_fract_x
 _atom_site_fract_y
 _atom_site_fract_z
 _atom_site_occupancy
  C  C0  1  0.62948380  0.99868817  0.25294448  1
  C  C1  1  0.36887567  0.37068107  0.25251060  1
  C  C2  1  0.00264589  0.63381917  0.25546327  1
  C  C3  1  0.64329426  0.63317910  0.74325341  1
  C  C4  1  0.99211943  0.35107091  0.74096518  1
  C  C5  1  0.29593278  0.34291941  0.58328180  1
  C  C6  1  0.03824251  0.70021745  0.58150581  1
  C  C7  1  0.66554153  0.95761602  0.57892489  1
  C  C8  1  0.30139612  0.96318128  0.08304718  1
  C  C9  1  0.65730810  0.69975667  0.08349907  1
  C  C10  1  0.04645413  0.33475188  0.07930824  1
  C  C11  1  0.31960326  0.29527690  0.91160198  1
  C  C12  1  0.98041066  0.29965043  0.41797753  1
  C  C13  1  0.32411913  0.02335414  0.41823934  1
  C  C14  1  0.69774108  0.67884391  0.41780796  1
  C  C15  1  0.99691996  0.00043664  0.49880016  1
  C  C16  1  0.98833713  0.99785574  0.99510276  1
  C  C17  1  0.65960363  0.32087520  0.82786713  1
  C  C18  1  0.66396303  0.33102983  0.33505811  1
  C  C19  1  0.33902930  0.66606866  0.16491441  1
  C  C20  1  0.33501686  0.67242119  0.65774090  1
  C  C21  1  0.66892937  0.32745576  0.97917094  1
  C  C22  1  0.67198706  0.33842731  0.48209496  1
  C  C23  1  0.32710911  0.66401350  0.81615072  1
  C  C24  1  0.99850077  0.99980339  0.35005061  1
  C  C25  1  0.00071836  0.00097147  0.85023218  1
  C  C26  1  0.00152077  0.00445148  0.64923501  1
  C  C27  1  0.00177026  0.00371984  0.14538297  1
  C  C28  1  0.65977670  0.33070444  0.68468118  1
  C  C29  1  0.66301623  0.33044321  0.18113389  1
  C  C30  1  0.33625917  0.66688534  0.01440408  1
  C  C31  1  0.33249616  0.66253465  0.51420149  1
  C  C32  1  0.33422988  0.66606780  0.32276835  1
  Ni  Ni33  1  0.30100582  0.29839723  0.75283454  1
  Ni  Ni34  1  0.96246902  0.33468383  0.58681786  1
  Ni  Ni35  1  0.66728847  0.63209867  0.58634948  1
  Ni  Ni36  1  0.66453240  0.03576568  0.08434077  1
  Ni  Ni37  1  0.37378298  0.33514235  0.08302808  1
  Ni  Ni38  1  0.03395945  0.36871100  0.91928618  1
  Ni  Ni39  1  0.63140999  0.96868929  0.41667727  1
  Ni  Ni40  1  0.33578976  0.36570002  0.41629841  1
  Ni  Ni41  1  0.03311965  0.66528865  0.41666615  1
  Cu  Cu42  1  0.29728767  0.99749072  0.24859064  1
  Cu  Cu43  1  0.70185611  0.70161645  0.24787123  1
  Cu  Cu44  1  0.00141997  0.30241661  0.24839857  1
  Cu  Cu45  1  0.00547141  0.70649738  0.75082347  1
  Cu  Cu46  1  0.69809822  0.99541222  0.75118071  1
  Cu  Cu47  1  0.37504959  0.04058362  0.58263884  1
  Cu  Cu48  1  0.95702603  0.62339425  0.08291176  1
  Cu  Cu49  1  0.63041550  0.66482105  0.91723295  1
  Cu  Cu50  1  0.33585249  0.96232888  0.91915553  1
  C  C51  1  0.21282948  0.02093827  0.30391861  1
  C  C52  1  0.80817843  0.78462377  0.30377912  1
  C  C53  1  0.97389417  0.19342463  0.30388492  1
  C  C54  1  0.21913256  0.19502712  0.81288490  1
  C  C55  1  0.96999246  0.78980043  0.80292189  1
  C  C56  1  0.81640357  0.02806176  0.80343606  1
  C  C57  1  0.76028055  0.94834456  0.69370449  1
  C  C58  1  0.17967925  0.22849191  0.69394823  1
  C  C59  1  0.03465512  0.80418242  0.69221320  1
  C  C60  1  0.78414374  0.80707847  0.19103518  1
  C  C61  1  0.02625210  0.22185217  0.19143288  1
  C  C62  1  0.19242172  0.97330146  0.19135776  1
  C  C63  1  0.88100762  0.35969945  0.64694817  1
  C  C64  1  0.48246981  0.11624595  0.63794693  1
  C  C65  1  0.63187100  0.52172038  0.64615008  1
  C  C66  1  0.89004352  0.52440024  0.14143255  1
  C  C67  1  0.63255326  0.10892064  0.14547363  1
  C  C68  1  0.48336178  0.37430151  0.14377954  1
  C  C69  1  0.48225015  0.31825659  0.02563406  1
  C  C70  1  0.83664448  0.52087772  0.03008197  1
  C  C71  1  0.68633421  0.16780353  0.02812447  1
  C  C72  1  0.46728407  0.14999768  0.52654710  1
  C  C73  1  0.67977959  0.52145207  0.52878424  1
  C  C74  1  0.83764543  0.31726531  0.52928958  1
  C  C75  1  0.56089174  0.69278881  0.97562344  1
  C  C76  1  0.14498333  0.44715628  0.97856997  1
  C  C77  1  0.31533187  0.87018058  0.97773466  1
  C  C78  1  0.55274286  0.84896260  0.47423117  1
  C  C79  1  0.29204458  0.44169236  0.47405620  1
  C  C80  1  0.15204672  0.70566946  0.47425841  1
  C  C81  1  0.10137972  0.61555001  0.35730759  1
  C  C82  1  0.51456844  0.89929908  0.35675883  1
  C  C83  1  0.38632617  0.48471364  0.35684439  1
  C  C84  1  0.14141132  0.49848338  0.86253546  1
  C  C85  1  0.35581960  0.86368686  0.86656840  1
  C  C86  1  0.50630185  0.64282624  0.86461656  1
  C  C87  1  0.00027404  0.82262382  0.41116637  1
  C  C88  1  0.82094054  0.99811603  0.41117030  1
  C  C89  1  0.17573077  0.17655782  0.41035053  1
  C  C90  1  0.01770632  0.18604496  0.91254754  1
  C  C91  1  0.18695529  0.99256004  0.91240550  1
  C  C92  1  0.80744901  0.81160925  0.90836114  1
  C  C93  1  0.96962985  0.16004532  0.58332477  1
  C  C94  1  0.20351450  0.03505544  0.58394180  1
  C  C95  1  0.84738080  0.80956702  0.58455150  1
  C  C96  1  0.96056741  0.79358048  0.08278119  1
  C  C97  1  0.83763928  0.02691753  0.08178964  1
  C  C98  1  0.19502136  0.15615509  0.08173078  1
  C  C99  1  0.68241960  0.15425896  0.74597580  1
  C  C100  1  0.49488886  0.33999563  0.75002794  1
  C  C101  1  0.85728212  0.52303013  0.74897496  1
  C  C102  1  0.68627240  0.52453670  0.24622679  1
  C  C103  1  0.84295375  0.32303742  0.24569800  1
  C  C104  1  0.47478058  0.15842886  0.24728578  1
  C  C105  1  0.62600394  0.49129253  0.91954366  1
  C  C106  1  0.84971136  0.36186928  0.92288320  1
  C  C107  1  0.50133537  0.14213048  0.92130012  1
  C  C108  1  0.64892640  0.15629228  0.42584621  1
  C  C109  1  0.50553227  0.34816691  0.42583990  1
  C  C110  1  0.84461713  0.49348434  0.42570041  1
  C  C111  1  0.34757479  0.49742428  0.07845029  1
  C  C112  1  0.13386069  0.64824959  0.07576256  1
  C  C113  1  0.49702540  0.85241891  0.07741130  1
  C  C114  1  0.35099671  0.86264474  0.57711702  1
  C  C115  1  0.50449334  0.65737596  0.58019386  1
  C  C116  1  0.14667036  0.50353580  0.58111989  1
  C  C117  1  0.31445704  0.83758404  0.25237423  1
  C  C118  1  0.52472712  0.68440887  0.25158420  1
  C  C119  1  0.16250850  0.47872598  0.25278124  1
  C  C120  1  0.31795324  0.49390937  0.76188155  1
  C  C121  1  0.16826927  0.69022690  0.76117862  1
  C  C122  1  0.52082168  0.83621804  0.76314975  1
