# generated using pymatgen
data_Cu7(NiC)2
_symmetry_space_group_name_H-M   'P 1'
_cell_length_a   6.86225201
_cell_length_b   6.77336749
_cell_length_c   6.95271996
_cell_angle_alpha   90.21237543
_cell_angle_beta   91.82086272
_cell_angle_gamma   85.00075441
_symmetry_Int_Tables_number   1
_chemical_formula_structural   Cu7(NiC)2
_chemical_formula_sum   'Cu7 Ni2 C2'
_cell_volume   321.77420329
_cell_formula_units_Z   1
loop_
 _symmetry_equiv_pos_site_id
 _symmetry_equiv_pos_as_xyz
  1  'x, y, z'
loop_
 _atom_site_type_symbol
 _atom_site_label
 _atom_site_symmetry_multiplicity
 _atom_site_fract_x
 _atom_site_fract_y
 _atom_site_fract_z
 _atom_site_occupancy
  C  C0  1  0.28894951  0.95198498  0.03618496  1
  C  C1  1  0.50650334  0.50869722  0.98498927  1
  Ni  Ni2  1  0.05195360  0.61912700  0.08913002  1
  Ni  Ni3  1  0.65881679  0.07879891  0.88835976  1
  Cu  Cu4  1  0.18096000  0.50329864  0.84483166  1
  Cu  Cu5  1  0.51427885  0.82808542  0.78984252  1
  Cu  Cu6  1  0.31606428  0.64115599  0.25420281  1
  Cu  Cu7  1  0.95110496  0.91951306  0.08368307  1
  Cu  Cu8  1  0.61327521  0.32545355  0.71404326  1
  Cu  Cu9  1  0.83373944  0.46965268  0.18766447  1
  Cu  Cu10  1  0.51635303  0.19039754  0.13706819  1
