# generated using pymatgen
data_Cu(NiC8)2
_symmetry_space_group_name_H-M   'P 1'
_cell_length_a   9.00656722
_cell_length_b   9.00656691
_cell_length_c   23.04043155
_cell_angle_alpha   89.98649855
_cell_angle_beta   90.01350146
_cell_angle_gamma   120.41252394
_symmetry_Int_Tables_number   1
_chemical_formula_structural   Cu(NiC8)2
_chemical_formula_sum   'Cu6 Ni12 C96'
_cell_volume   1611.83078209
_cell_formula_units_Z   6
loop_
 _symmetry_equiv_pos_site_id
 _symmetry_equiv_pos_as_xyz
  1  'x, y, z'
loop_
 _atom_site_type_symbol
 _atom_site_label
 _atom_site_symmetry_multiplicity
 _atom_site_fract_x
 _atom_site_fract_y
 _atom_site_fract_z
 _atom_site_occupancy
  Ni  Ni0  1  0.36571463  0.36245421  0.24943400  1
  Ni  Ni1  1  0.63754579  0.63428537  0.74943400  1
  Ni  Ni2  1  0.03238163  0.69578721  0.58276700  1
  Ni  Ni3  1  0.30421279  0.96761837  0.08276700  1
  Ni  Ni4  1  0.69904763  0.02912121  0.91610100  1
  Ni  Ni5  1  0.97087879  0.30095237  0.41610100  1
  Ni  Ni6  1  0.99986114  0.99952712  0.49817582  1
  Ni  Ni7  1  0.00047288  0.00013886  0.99817582  1
  Ni  Ni8  1  0.66652814  0.33286012  0.83150882  1
  Ni  Ni9  1  0.66713988  0.33347186  0.33150882  1
  Ni  Ni10  1  0.33319414  0.66619412  0.16484282  1
  Ni  Ni11  1  0.33380588  0.66680586  0.66484282  1
  C  C12  1  0.00135402  0.00729259  0.64782289  1
  C  C13  1  0.99270741  0.99864598  0.14782289  1
  C  C14  1  0.66802102  0.34062559  0.98115589  1
  C  C15  1  0.65937441  0.33197898  0.48115589  1
  C  C16  1  0.33468702  0.67395959  0.31448989  1
  C  C17  1  0.32604041  0.66531298  0.81448989  1
  Cu  Cu18  1  0.99886416  0.99303429  0.35170076  1
  Cu  Cu19  1  0.00696571  0.00113584  0.85170076  1
  Cu  Cu20  1  0.66553116  0.32636729  0.68503376  1
  Cu  Cu21  1  0.67363271  0.33446884  0.18503376  1
  Cu  Cu22  1  0.33219716  0.65970129  0.01836776  1
  Cu  Cu23  1  0.34029871  0.66780284  0.51836776  1
  C  C24  1  0.29144312  0.00110033  0.24991238  1
  C  C25  1  0.70949124  0.70678350  0.25094200  1
  C  C26  1  0.99572687  0.28957306  0.25146967  1
  C  C27  1  0.29321650  0.29050876  0.75094200  1
  C  C28  1  0.99889967  0.70855688  0.74991238  1
  C  C29  1  0.71042694  0.00427313  0.75146967  1
  C  C30  1  0.95811012  0.33443333  0.58324538  1
  C  C31  1  0.37615824  0.04011650  0.58427500  1
  C  C32  1  0.66239387  0.62290606  0.58480267  1
  C  C33  1  0.95988350  0.62384176  0.08427500  1
  C  C34  1  0.66556667  0.04188988  0.08324538  1
  C  C35  1  0.37709394  0.33760613  0.08480267  1
  C  C36  1  0.62477612  0.66776733  0.91657938  1
  C  C37  1  0.04282424  0.37345050  0.91760900  1
  C  C38  1  0.32905987  0.95624006  0.91813667  1
  C  C39  1  0.62654950  0.95717576  0.41760900  1
  C  C40  1  0.33223267  0.37522388  0.41657938  1
  C  C41  1  0.04375994  0.67094013  0.41813667  1
  C  C42  1  0.20735005  0.03224644  0.30271741  1
  C  C43  1  0.82075423  0.79219388  0.30398965  1
  C  C44  1  0.97265382  0.18224203  0.30590946  1
  C  C45  1  0.20780612  0.17924577  0.80398965  1
  C  C46  1  0.96775356  0.79264995  0.80271741  1
  C  C47  1  0.81775797  0.02734618  0.80590946  1
  C  C48  1  0.79252391  0.96748418  0.69754354  1
  C  C49  1  0.17909263  0.20848592  0.69641585  1
  C  C50  1  0.02882922  0.81951872  0.69438751  1
  C  C51  1  0.79151408  0.82090737  0.19641585  1
  C  C52  1  0.03251582  0.20747609  0.19754354  1
  C  C53  1  0.18048128  0.97117078  0.19438751  1
  C  C54  1  0.87401705  0.36557944  0.63605041  1
  C  C55  1  0.48742123  0.12552688  0.63732265  1
  C  C56  1  0.63932082  0.51557503  0.63924246  1
  C  C57  1  0.87447312  0.51257877  0.13732265  1
  C  C58  1  0.63442056  0.12598295  0.13605041  1
  C  C59  1  0.48442497  0.36067918  0.13924246  1
  C  C60  1  0.45919091  0.30081718  0.03087654  1
  C  C61  1  0.84575963  0.54181892  0.02974885  1
  C  C62  1  0.69549622  0.15285172  0.02772051  1
  C  C63  1  0.45818108  0.15424037  0.52974885  1
  C  C64  1  0.69918282  0.54080909  0.53087654  1
  C  C65  1  0.84714828  0.30450378  0.52772051  1
  C  C66  1  0.54068305  0.69891344  0.96938441  1
  C  C67  1  0.15408723  0.45886088  0.97065665  1
  C  C68  1  0.30598682  0.84890903  0.97257646  1
  C  C69  1  0.54113912  0.84591277  0.47065665  1
  C  C70  1  0.30108656  0.45931695  0.46938441  1
  C  C71  1  0.15109097  0.69401318  0.47257646  1
  C  C72  1  0.12585691  0.63415118  0.36421054  1
  C  C73  1  0.51242563  0.87515292  0.36308285  1
  C  C74  1  0.36216222  0.48618572  0.36105451  1
  C  C75  1  0.12484708  0.48757437  0.86308285  1
  C  C76  1  0.36584882  0.87414309  0.86421054  1
  C  C77  1  0.51381428  0.63783778  0.86105451  1
  C  C78  1  0.02257515  0.82724323  0.40997454  1
  C  C79  1  0.80868162  0.98454645  0.41012049  1
  C  C80  1  0.16850765  0.19713738  0.40960781  1
  C  C81  1  0.01545355  0.19131838  0.91012049  1
  C  C82  1  0.17275677  0.97742485  0.90997454  1
  C  C83  1  0.80286262  0.83149235  0.90960781  1
  C  C84  1  0.97585892  0.17266852  0.58980216  1
  C  C85  1  0.19235831  0.01785257  0.58993009  1
  C  C86  1  0.83220110  0.80245736  0.59014395  1
  C  C87  1  0.98214743  0.80764169  0.08993009  1
  C  C88  1  0.82733148  0.02414108  0.08980216  1
  C  C89  1  0.19754264  0.16779890  0.09014395  1
  C  C90  1  0.68924215  0.16057623  0.74330754  1
  C  C91  1  0.47534862  0.31787945  0.74345349  1
  C  C92  1  0.83517465  0.53047038  0.74294081  1
  C  C93  1  0.68212055  0.52465138  0.24345349  1
  C  C94  1  0.83942377  0.31075785  0.24330754  1
  C  C95  1  0.46952962  0.16482535  0.24294081  1
  C  C96  1  0.64252592  0.50600152  0.92313516  1
  C  C97  1  0.85902531  0.35118557  0.92326309  1
  C  C98  1  0.49886810  0.13579036  0.92347695  1
  C  C99  1  0.64881443  0.14097469  0.42326309  1
  C  C100  1  0.49399848  0.35747408  0.42313516  1
  C  C101  1  0.86420964  0.50113190  0.42347695  1
  C  C102  1  0.35590815  0.49391023  0.07664154  1
  C  C103  1  0.14201462  0.65121345  0.07678749  1
  C  C104  1  0.50184065  0.86380438  0.07627481  1
  C  C105  1  0.34878655  0.85798538  0.57678749  1
  C  C106  1  0.50608977  0.64409185  0.57664154  1
  C  C107  1  0.13619562  0.49815935  0.57627481  1
  C  C108  1  0.30919192  0.83933552  0.25646916  1
  C  C109  1  0.52569131  0.68451957  0.25659709  1
  C  C110  1  0.16553410  0.46912436  0.25681095  1
  C  C111  1  0.31548043  0.47430869  0.75659709  1
  C  C112  1  0.16066448  0.69080808  0.75646916  1
  C  C113  1  0.53087564  0.83446590  0.75681095  1
