# generated using pymatgen
data_CuNiC19
_symmetry_space_group_name_H-M   'P 1'
_cell_length_a   9.04311814
_cell_length_b   9.02094184
_cell_length_c   22.00890921
_cell_angle_alpha   89.78330058
_cell_angle_beta   90.14369596
_cell_angle_gamma   119.39353716
_symmetry_Int_Tables_number   1
_chemical_formula_structural   CuNiC19
_chemical_formula_sum   'Cu6 Ni6 C114'
_cell_volume   1564.29165892
_cell_formula_units_Z   6
loop_
 _symmetry_equiv_pos_site_id
 _symmetry_equiv_pos_as_xyz
  1  'x, y, z'
loop_
 _atom_site_type_symbol
 _atom_site_label
 _atom_site_symmetry_multiplicity
 _atom_site_fract_x
 _atom_site_fract_y
 _atom_site_fract_z
 _atom_site_occupancy
  C  C0  1  0.64626825  0.99786675  0.25571999  1
  C  C1  1  0.35687262  0.36882692  0.24175057  1
  C  C2  1  0.99369374  0.62892651  0.25773937  1
  C  C3  1  0.62431314  0.63055963  0.73287601  1
  C  C4  1  0.99773240  0.35234768  0.75359284  1
  C  C5  1  0.38142594  0.01389853  0.75309751  1
  C  C6  1  0.30933333  0.33298015  0.59067603  1
  C  C7  1  0.04065716  0.71432570  0.57419501  1
  C  C8  1  0.65959393  0.94728897  0.58948351  1
  C  C9  1  0.28739652  0.96833254  0.07435546  1
  C  C10  1  0.67454773  0.69286812  0.09229123  1
  C  C11  1  0.04978348  0.33973467  0.09057541  1
  C  C12  1  0.98172146  0.66524806  0.92449983  1
  C  C13  1  0.69451360  0.04205866  0.90372603  1
  C  C14  1  0.31990569  0.28712396  0.92346800  1
  C  C15  1  0.95980649  0.30306199  0.40690265  1
  C  C16  1  0.32927144  0.01838869  0.42214451  1
  C  C17  1  0.70545804  0.67419260  0.42508259  1
  C  C18  1  0.98748894  0.97760744  0.49947921  1
  C  C19  1  0.02178445  0.01260890  0.00115551  1
  C  C20  1  0.65411003  0.31114689  0.83070897  1
  C  C21  1  0.67957375  0.34105884  0.33538110  1
  C  C22  1  0.32326324  0.64782473  0.17204733  1
  C  C23  1  0.34922284  0.67732096  0.66330546  1
  Ni  Ni24  1  0.95929141  0.97638044  0.35013072  1
  Ni  Ni25  1  0.00019498  0.99844369  0.64521912  1
  Ni  Ni26  1  0.63733281  0.31393175  0.68190226  1
  Ni  Ni27  1  0.68747453  0.36774745  0.18938810  1
  Ni  Ni28  1  0.66482132  0.33255638  0.48191577  1
  Ni  Ni29  1  0.32832121  0.66901710  0.31937802  1
  Cu  Cu30  1  0.01202969  0.01938354  0.84550727  1
  Cu  Cu31  1  0.99695259  0.00214097  0.15685649  1
  Cu  Cu32  1  0.66710403  0.33586206  0.98444362  1
  Cu  Cu33  1  0.31947645  0.65437294  0.02090993  1
  Cu  Cu34  1  0.34763421  0.68673778  0.51555529  1
  Cu  Cu35  1  0.33229375  0.66576061  0.81084835  1
  C  C36  1  0.68652325  0.69757321  0.25305990  1
  C  C37  1  0.00109308  0.30141199  0.25349979  1
  C  C38  1  0.29884541  0.29240087  0.74338077  1
  C  C39  1  0.71089369  0.01032519  0.74136769  1
  C  C40  1  0.37070109  0.04777158  0.58185499  1
  C  C41  1  0.67521678  0.61798483  0.58278767  1
  C  C42  1  0.96307825  0.63245012  0.08777817  1
  C  C43  1  0.38036928  0.33184374  0.08947696  1
  C  C44  1  0.03019845  0.36299377  0.91593451  1
  C  C45  1  0.33367361  0.96458516  0.91534716  1
  C  C46  1  0.63158133  0.96868801  0.41654612  1
  C  C47  1  0.03430696  0.67190589  0.41532082  1
  C  C48  1  0.29893035  0.99444937  0.25462651  1
  C  C49  1  0.99341735  0.70521169  0.74429839  1
  C  C50  1  0.94686015  0.32595833  0.58167585  1
  C  C51  1  0.66720035  0.04102646  0.08732681  1
  C  C52  1  0.63422586  0.66999361  0.91508469  1
  C  C53  1  0.33261509  0.37185707  0.41587805  1
  C  C54  1  0.20728752  0.01869465  0.30562936  1
  C  C55  1  0.82403962  0.79328435  0.30717294  1
  C  C56  1  0.97365752  0.16106696  0.30696173  1
  C  C57  1  0.24155828  0.18998100  0.80810176  1
  C  C58  1  0.96926203  0.77537278  0.80207847  1
  C  C59  1  0.81135720  0.03841371  0.80631264  1
  C  C60  1  0.81371795  0.98102010  0.68562160  1
  C  C61  1  0.16682616  0.18394735  0.68840027  1
  C  C62  1  0.00645471  0.81404588  0.69165084  1
  C  C63  1  0.75530324  0.81717830  0.19166443  1
  C  C64  1  0.05298278  0.24032578  0.19082397  1
  C  C65  1  0.20485878  0.96797618  0.19642779  1
  C  C66  1  0.86559791  0.34615398  0.63626687  1
  C  C67  1  0.48761866  0.13461611  0.64121405  1
  C  C68  1  0.66136000  0.50156657  0.64187840  1
  C  C69  1  0.86239959  0.51323313  0.14589294  1
  C  C70  1  0.65909874  0.13613276  0.14054621  1
  C  C71  1  0.50004378  0.33886880  0.14734713  1
  C  C72  1  0.44642246  0.29985850  0.02434111  1
  C  C73  1  0.86344926  0.55680210  0.02354577  1
  C  C74  1  0.67637456  0.12512010  0.02851463  1
  C  C75  1  0.46682224  0.16592325  0.52156705  1
  C  C76  1  0.69693761  0.52732868  0.52108931  1
  C  C77  1  0.84824829  0.31237765  0.52551167  1
  C  C78  1  0.55470365  0.68912201  0.97114146  1
  C  C79  1  0.14734560  0.43849019  0.97688387  1
  C  C80  1  0.32052468  0.85992299  0.97823022  1
  C  C81  1  0.58043981  0.85235392  0.47864497  1
  C  C82  1  0.29755570  0.43743254  0.47317001  1
  C  C83  1  0.14804992  0.71548108  0.47817842  1
  C  C84  1  0.13890202  0.64167047  0.36077226  1
  C  C85  1  0.49423459  0.86446019  0.36234709  1
  C  C86  1  0.35176576  0.48479293  0.36404854  1
  C  C87  1  0.11758578  0.47272801  0.85397396  1
  C  C88  1  0.37077009  0.88460721  0.85420450  1
  C  C89  1  0.53700381  0.65680499  0.85924909  1
  C  C90  1  0.01580397  0.84621994  0.40510009  1
  C  C91  1  0.82530749  0.99769332  0.40642762  1
  C  C92  1  0.18846508  0.19724043  0.40768806  1
  C  C93  1  0.00002466  0.16876130  0.91669425  1
  C  C94  1  0.15073312  0.96223198  0.91324051  1
  C  C95  1  0.80579302  0.81978461  0.91225104  1
  C  C96  1  0.96203580  0.16780780  0.58304621  1
  C  C97  1  0.17676311  0.02715988  0.58738568  1
  C  C98  1  0.84209969  0.81394272  0.58820268  1
  C  C99  1  0.98026348  0.82216905  0.09097054  1
  C  C100  1  0.82325566  0.02444699  0.08725774  1
  C  C101  1  0.18652820  0.17004129  0.09197026  1
  C  C102  1  0.69633486  0.18671761  0.73542433  1
  C  C103  1  0.49479782  0.32479860  0.73869771  1
  C  C104  1  0.84948312  0.53058913  0.73986954  1
  C  C105  1  0.67190079  0.50728688  0.24777945  1
  C  C106  1  0.82066286  0.31003095  0.24566929  1
  C  C107  1  0.47214810  0.14468777  0.25164876  1
  C  C108  1  0.64590561  0.51171827  0.91551702  1
  C  C109  1  0.84557830  0.35585577  0.91762108  1
  C  C110  1  0.49567912  0.15820084  0.91662468  1
  C  C111  1  0.64543576  0.15855835  0.42492886  1
  C  C112  1  0.49479659  0.36582126  0.41895483  1
  C  C113  1  0.84592183  0.49712744  0.42138192  1
  C  C114  1  0.37999639  0.51567095  0.08896260  1
  C  C115  1  0.15273601  0.65002600  0.09068334  1
  C  C116  1  0.51403598  0.86875088  0.08892403  1
  C  C117  1  0.34814769  0.85404864  0.58326869  1
  C  C118  1  0.49593147  0.62874043  0.58235602  1
  C  C119  1  0.12179626  0.47590608  0.57866502  1
  C  C120  1  0.31448345  0.83724527  0.26048387  1
  C  C121  1  0.49688187  0.67499830  0.26552958  1
  C  C122  1  0.16445722  0.49254508  0.26493984  1
  C  C123  1  0.30884595  0.48069718  0.74393349  1
  C  C124  1  0.15558113  0.69914671  0.74363031  1
  C  C125  1  0.52043278  0.83981362  0.74331180  1
