# generated using pymatgen
data_Cu7Ni5C58
_symmetry_space_group_name_H-M   'P 1'
_cell_length_a   17.39357990
_cell_length_b   8.70199031
_cell_length_c   22.45941775
_cell_angle_alpha   90.00060967
_cell_angle_beta   90.02472071
_cell_angle_gamma   120.07553085
_symmetry_Int_Tables_number   1
_chemical_formula_structural   Cu7Ni5C58
_chemical_formula_sum   'Cu21 Ni15 C174'
_cell_volume   2941.74888289
_cell_formula_units_Z   3
loop_
 _symmetry_equiv_pos_site_id
 _symmetry_equiv_pos_as_xyz
  1  'x, y, z'
loop_
 _atom_site_type_symbol
 _atom_site_label
 _atom_site_symmetry_multiplicity
 _atom_site_fract_x
 _atom_site_fract_y
 _atom_site_fract_z
 _atom_site_occupancy
  C  C0  1  0.99855117  0.99981045  0.49977635  1
  C  C1  1  0.49802047  0.99797282  0.99703631  1
  C  C2  1  0.33528559  0.33590828  0.83403946  1
  C  C3  1  0.83251783  0.33552155  0.83176960  1
  C  C4  1  0.33337258  0.33108985  0.33249329  1
  C  C5  1  0.83379102  0.33357282  0.33558538  1
  C  C6  1  0.00218062  0.99081042  0.35676233  1
  C  C7  1  0.49768229  0.00587348  0.35753622  1
  C  C8  1  0.99648388  0.98905503  0.85680588  1
  C  C9  1  0.50049229  0.00140751  0.85231865  1
  C  C10  1  0.00012666  0.99663731  0.64712500  1
  C  C11  1  0.50366101  0.99364633  0.64792859  1
  C  C12  1  0.00337576  0.99917942  0.14318025  1
  C  C13  1  0.49862918  0.00278660  0.14645710  1
  C  C14  1  0.33800012  0.35301877  0.68640919  1
  C  C15  1  0.83827156  0.34551922  0.69033259  1
  C  C16  1  0.33967304  0.33187417  0.18940384  1
  C  C17  1  0.83249220  0.32293250  0.18310556  1
  C  C18  1  0.34306737  0.35778792  0.97591425  1
  C  C19  1  0.83900317  0.32349288  0.97828501  1
  C  C20  1  0.34145353  0.35466077  0.48202267  1
  C  C21  1  0.84161104  0.32584079  0.47775478  1
  C  C22  1  0.16958461  0.65575865  0.01637914  1
  C  C23  1  0.65966899  0.66146734  0.02456575  1
  C  C24  1  0.16097622  0.66113821  0.52741221  1
  C  C25  1  0.66872879  0.68502204  0.51854936  1
  C  C26  1  0.15959998  0.67447749  0.31101569  1
  C  C27  1  0.66006892  0.66454502  0.31444745  1
  C  C28  1  0.16140836  0.65608158  0.81316379  1
  C  C29  1  0.65402594  0.64312551  0.80719271  1
  Ni  Ni30  1  0.14424982  0.00505835  0.24918554  1
  Ni  Ni31  1  0.50317323  0.29127748  0.25033577  1
  Ni  Ni32  1  0.64362873  0.28295349  0.74880193  1
  Ni  Ni33  1  0.00311840  0.71457956  0.75032965  1
  Ni  Ni34  1  0.50028361  0.71482995  0.75111688  1
  Ni  Ni35  1  0.97656830  0.32791823  0.58589216  1
  Ni  Ni36  1  0.33477373  0.63302078  0.58397443  1
  Ni  Ni37  1  0.47720545  0.62518452  0.08498522  1
  Ni  Ni38  1  0.83388883  0.03596666  0.08256647  1
  Ni  Ni39  1  0.31248148  0.67085236  0.91409263  1
  Ni  Ni40  1  0.02331868  0.37372336  0.91597035  1
  Ni  Ni41  1  0.52402043  0.37463949  0.91736863  1
  Ni  Ni42  1  0.81100488  0.95304343  0.41464971  1
  Ni  Ni43  1  0.02332147  0.66533280  0.41876168  1
  Ni  Ni44  1  0.52180087  0.67067805  0.41670024  1
  Cu  Cu45  1  0.64379551  0.00049525  0.25004194  1
  Cu  Cu46  1  0.35537017  0.71250807  0.25062739  1
  Cu  Cu47  1  0.85539454  0.71125084  0.24948506  1
  Cu  Cu48  1  0.00020516  0.28742890  0.24999948  1
  Cu  Cu49  1  0.14366855  0.28641632  0.75027312  1
  Cu  Cu50  1  0.35465796  0.99878510  0.74945578  1
  Cu  Cu51  1  0.85574246  0.99827207  0.75046603  1
  Cu  Cu52  1  0.47892486  0.33335850  0.58341627  1
  Cu  Cu53  1  0.19055152  0.04730766  0.58356525  1
  Cu  Cu54  1  0.68994363  0.04774367  0.58335521  1
  Cu  Cu55  1  0.83173197  0.61968016  0.58299195  1
  Cu  Cu56  1  0.97812346  0.62153293  0.08298043  1
  Cu  Cu57  1  0.33167586  0.04375510  0.08289507  1
  Cu  Cu58  1  0.19017861  0.33389771  0.08348020  1
  Cu  Cu59  1  0.68995181  0.33350138  0.08280151  1
  Cu  Cu60  1  0.80946924  0.66509607  0.91685888  1
  Cu  Cu61  1  0.16656648  0.95403845  0.91682191  1
  Cu  Cu62  1  0.66688344  0.95346791  0.91647842  1
  Cu  Cu63  1  0.30955903  0.95376701  0.41710254  1
  Cu  Cu64  1  0.16743788  0.38039679  0.41646806  1
  Cu  Cu65  1  0.66670258  0.37965966  0.41702813  1
  C  C66  1  0.09576854  0.03150519  0.30735766  1
  C  C67  1  0.60493431  0.03300431  0.30318525  1
  C  C68  1  0.41246216  0.79188749  0.30369075  1
  C  C69  1  0.91195365  0.79066783  0.30316548  1
  C  C70  1  0.48529839  0.15945518  0.30735655  1
  C  C71  1  0.98211758  0.17814739  0.30348408  1
  C  C72  1  0.10353502  0.17590111  0.80339003  1
  C  C73  1  0.59766180  0.16213609  0.80791463  1
  C  C74  1  0.48062096  0.79991205  0.80881022  1
  C  C75  1  0.98535381  0.81102161  0.80734674  1
  C  C76  1  0.41099204  0.03499708  0.80348448  1
  C  C77  1  0.91334079  0.03428346  0.80369309  1
  C  C78  1  0.39486246  0.96934370  0.69610203  1
  C  C79  1  0.89803691  0.97220708  0.69654927  1
  C  C80  1  0.08854907  0.20723455  0.69590545  1
  C  C81  1  0.58041126  0.19510952  0.69092804  1
  C  C82  1  0.01408544  0.83978543  0.69222308  1
  C  C83  1  0.51481111  0.83373603  0.69197139  1
  C  C84  1  0.39692096  0.82308177  0.19674069  1
  C  C85  1  0.89645154  0.82225898  0.19598873  1
  C  C86  1  0.01395162  0.20775341  0.19639199  1
  C  C87  1  0.51403497  0.18824759  0.19225033  1
  C  C88  1  0.07938627  0.96856292  0.19195703  1
  C  C89  1  0.58960757  0.97145252  0.19587273  1
  C  C90  1  0.43609717  0.36380511  0.63623426  1
  C  C91  1  0.92849838  0.36265031  0.64139906  1
  C  C92  1  0.24394107  0.12498674  0.63716022  1
  C  C93  1  0.74505051  0.12439245  0.63638372  1
  C  C94  1  0.31721803  0.49373526  0.63976928  1
  C  C95  1  0.81763320  0.51210535  0.63700146  1
  C  C96  1  0.42863509  0.49525736  0.14143002  1
  C  C97  1  0.93474308  0.50847901  0.13701777  1
  C  C98  1  0.31779298  0.12350041  0.13731642  1
  C  C99  1  0.81904079  0.14318457  0.14016696  1
  C  C100  1  0.24451777  0.36399407  0.13708052  1
  C  C101  1  0.74525993  0.36195315  0.13756822  1
  C  C102  1  0.22709645  0.29841690  0.03018943  1
  C  C103  1  0.72979848  0.30234115  0.03015661  1
  C  C104  1  0.41480513  0.53186446  0.02641353  1
  C  C105  1  0.92049545  0.54116894  0.03034732  1
  C  C106  1  0.34901116  0.15491363  0.03009738  1
  C  C107  1  0.84957596  0.17391216  0.02713483  1
  C  C108  1  0.22939983  0.15605129  0.52933398  1
  C  C109  1  0.72961461  0.15696294  0.52940372  1
  C  C110  1  0.34867136  0.52638682  0.52675691  1
  C  C111  1  0.84885214  0.54247662  0.52969670  1
  C  C112  1  0.42047147  0.30292350  0.52964490  1
  C  C113  1  0.91541853  0.29892438  0.52603231  1
  C  C114  1  0.26445451  0.69827809  0.97475880  1
  C  C115  1  0.77245380  0.69879324  0.97065528  1
  C  C116  1  0.08374832  0.47228708  0.97503444  1
  C  C117  1  0.58674023  0.47530214  0.97489247  1
  C  C118  1  0.15004413  0.84278052  0.97074185  1
  C  C119  1  0.65326181  0.84698157  0.97072629  1
  C  C120  1  0.27196834  0.84467841  0.46991987  1
  C  C121  1  0.76511871  0.82968526  0.47476964  1
  C  C122  1  0.15223091  0.45816509  0.46987780  1
  C  C123  1  0.64985023  0.45652579  0.47045569  1
  C  C124  1  0.08766193  0.70131938  0.47452439  1
  C  C125  1  0.58439815  0.69614042  0.47469162  1
  C  C126  1  0.06893683  0.63328970  0.35889126  1
  C  C127  1  0.56661447  0.63176896  0.35894085  1
  C  C128  1  0.25567137  0.87276104  0.36233847  1
  C  C129  1  0.74771602  0.85849968  0.35767887  1
  C  C130  1  0.18327304  0.48864833  0.36239662  1
  C  C131  1  0.68264690  0.48927448  0.36295319  1
  C  C132  1  0.06684280  0.50301976  0.85874350  1
  C  C133  1  0.56774694  0.50457908  0.85982979  1
  C  C134  1  0.18279237  0.87619127  0.86322416  1
  C  C135  1  0.68532293  0.88144591  0.86337766  1
  C  C136  1  0.24683092  0.63562892  0.85826774  1
  C  C137  1  0.75690968  0.63761483  0.86297256  1
  C  C138  1  0.01226384  0.83949149  0.40794190  1
  C  C139  1  0.51117275  0.84165682  0.40311391  1
  C  C140  1  0.39911923  0.97283328  0.40768443  1
  C  C141  1  0.90997564  0.98118718  0.40639260  1
  C  C142  1  0.08675037  0.20151592  0.40978925  1
  C  C143  1  0.58700706  0.20004773  0.40791989  1
  C  C144  1  0.01086160  0.18000829  0.90377292  1
  C  C145  1  0.51186685  0.18004505  0.90898161  1
  C  C146  1  0.08700680  0.97362296  0.90838929  1
  C  C147  1  0.58814536  0.97471802  0.91160296  1
  C  C148  1  0.40979443  0.84188718  0.90987929  1
  C  C149  1  0.90014203  0.82558846  0.90849320  1
  C  C150  1  0.48529902  0.17442279  0.59053420  1
  C  C151  1  0.98899393  0.15518903  0.59354938  1
  C  C152  1  0.09984414  0.02698079  0.59004169  1
  C  C153  1  0.60072887  0.02548221  0.58990054  1
  C  C154  1  0.42130370  0.82153665  0.59443552  1
  C  C155  1  0.91262306  0.80121200  0.59065873  1
  C  C156  1  0.48909269  0.82235003  0.09454775  1
  C  C157  1  0.98486110  0.79658653  0.09181956  1
  C  C158  1  0.41256780  0.02391663  0.09117643  1
  C  C159  1  0.92191190  0.02633069  0.09744499  1
  C  C160  1  0.09925439  0.17622457  0.09250377  1
  C  C161  1  0.60074149  0.17275273  0.09094350  1
  C  C162  1  0.34498870  0.15892800  0.74164463  1
  C  C163  1  0.84702535  0.15835876  0.74307086  1
  C  C164  1  0.23260246  0.30235188  0.74294839  1
  C  C165  1  0.74206997  0.30601220  0.73897756  1
  C  C166  1  0.41313768  0.51266287  0.74069104  1
  C  C167  1  0.91403790  0.51946873  0.74191135  1
  C  C168  1  0.34606044  0.53448814  0.24295922  1
  C  C169  1  0.84684213  0.53159703  0.24173341  1
  C  C170  1  0.41400552  0.30857967  0.24183316  1
  C  C171  1  0.92026107  0.31213645  0.24187530  1
  C  C172  1  0.24194008  0.17642011  0.23971469  1
  C  C173  1  0.73449577  0.16462877  0.24234585  1
  C  C174  1  0.31658488  0.48814401  0.92485373  1
  C  C175  1  0.82119420  0.50772875  0.92515586  1
  C  C176  1  0.42436457  0.35203372  0.92588164  1
  C  C177  1  0.92527021  0.35948283  0.92558437  1
  C  C178  1  0.24504638  0.13168063  0.92480270  1
  C  C179  1  0.74666408  0.13815934  0.92505378  1
  C  C180  1  0.32018753  0.13283628  0.42334911  1
  C  C181  1  0.81766746  0.14646273  0.42454305  1
  C  C182  1  0.24579534  0.35444898  0.42371392  1
  C  C183  1  0.74495188  0.35804478  0.42411243  1
  C  C184  1  0.42411597  0.48942515  0.42505234  1
  C  C185  1  0.92302047  0.49557158  0.42460084  1
  C  C186  1  0.17893139  0.49207426  0.07597491  1
  C  C187  1  0.68132051  0.49199541  0.07702200  1
  C  C188  1  0.06609346  0.64181039  0.07611600  1
  C  C189  1  0.57371301  0.64426079  0.07311154  1
  C  C190  1  0.25311676  0.86617375  0.07599720  1
  C  C191  1  0.74727035  0.84926819  0.07082614  1
  C  C192  1  0.18037326  0.86985615  0.57573084  1
  C  C193  1  0.68007505  0.86676583  0.57518707  1
  C  C194  1  0.24707167  0.64329611  0.56963798  1
  C  C195  1  0.75315702  0.63963696  0.57533631  1
  C  C196  1  0.07268553  0.50199166  0.57270235  1
  C  C197  1  0.56625957  0.49276912  0.57438595  1
  C  C198  1  0.15587435  0.82960378  0.26096672  1
  C  C199  1  0.65494741  0.84485172  0.25655797  1
  C  C200  1  0.26722167  0.69283341  0.25897546  1
  C  C201  1  0.76748290  0.69102187  0.25779632  1
  C  C202  1  0.07985037  0.46521715  0.25742563  1
  C  C203  1  0.58938583  0.48376364  0.26089325  1
  C  C204  1  0.15384986  0.46404278  0.75654700  1
  C  C205  1  0.65801395  0.48110155  0.76053965  1
  C  C206  1  0.08928403  0.69519096  0.76104580  1
  C  C207  1  0.58724655  0.69555437  0.75912536  1
  C  C208  1  0.26666006  0.84189357  0.75852506  1
  C  C209  1  0.76859044  0.84194957  0.75872858  1
