# generated using pymatgen
data_Cu2Ni12C17
_symmetry_space_group_name_H-M   'P 1'
_cell_length_a   12.80854100
_cell_length_b   6.45603800
_cell_length_c   9.41547815
_cell_angle_alpha   75.27413775
_cell_angle_beta   90.00000000
_cell_angle_gamma   90.00000000
_symmetry_Int_Tables_number   1
_chemical_formula_structural   Cu2Ni12C17
_chemical_formula_sum   'Cu4 Ni24 C34'
_cell_volume   753.01452681
_cell_formula_units_Z   2
loop_
 _symmetry_equiv_pos_site_id
 _symmetry_equiv_pos_as_xyz
  1  'x, y, z'
loop_
 _atom_site_type_symbol
 _atom_site_label
 _atom_site_symmetry_multiplicity
 _atom_site_fract_x
 _atom_site_fract_y
 _atom_site_fract_z
 _atom_site_occupancy
  C  C0  1  0.34634800  0.65620300  0.13357900  1
  C  C1  1  0.84634800  0.34379700  0.36642100  1
  C  C2  1  0.65365200  0.34379700  0.86642100  1
  C  C3  1  0.15365200  0.65620300  0.63357900  1
  C  C4  1  0.00000000  0.00000000  0.00000000  1
  C  C5  1  0.50000000  0.00000000  0.50000000  1
  Ni  Ni6  1  0.63834900  0.67637800  0.52835400  1
  Ni  Ni7  1  0.13834900  0.32362200  0.97164600  1
  Ni  Ni8  1  0.36165100  0.32362200  0.47164600  1
  Ni  Ni9  1  0.86165100  0.67637800  0.02835400  1
  Ni  Ni10  1  0.55777100  0.66582400  0.40255000  1
  Ni  Ni11  1  0.05777100  0.33417600  0.09745000  1
  Ni  Ni12  1  0.40419000  0.07143800  0.23010500  1
  Ni  Ni13  1  0.90419000  0.92856200  0.26989500  1
  Ni  Ni14  1  0.59581000  0.92856200  0.76989500  1
  Ni  Ni15  1  0.09581000  0.07143800  0.73010500  1
  Ni  Ni16  1  0.37260000  0.90280100  0.74145100  1
  Ni  Ni17  1  0.87260000  0.09719900  0.75854900  1
  Ni  Ni18  1  0.62740000  0.09719900  0.25854900  1
  Ni  Ni19  1  0.12740000  0.90280100  0.24145100  1
  Ni  Ni20  1  0.40932600  0.68202500  0.70666700  1
  Ni  Ni21  1  0.90932600  0.31797500  0.79333300  1
  Ni  Ni22  1  0.59067400  0.31797500  0.29333300  1
  Ni  Ni23  1  0.09067400  0.68202500  0.20666700  1
  Ni  Ni24  1  0.81659300  0.99886600  0.14742000  1
  Ni  Ni25  1  0.31659300  0.00113400  0.35258000  1
  Ni  Ni26  1  0.94222900  0.66582400  0.90255000  1
  Ni  Ni27  1  0.44222900  0.33417600  0.59745000  1
  Ni  Ni28  1  0.68340700  0.99886600  0.64742000  1
  Ni  Ni29  1  0.18340700  0.00113400  0.85258000  1
  Cu  Cu30  1  0.14016300  0.26696800  0.40357700  1
  Cu  Cu31  1  0.64016300  0.73303200  0.09642300  1
  Cu  Cu32  1  0.35983700  0.26696800  0.90357700  1
  Cu  Cu33  1  0.85983700  0.73303200  0.59642300  1
  C  C34  1  0.61238800  0.16756000  0.33862500  1
  C  C35  1  0.88761200  0.16756000  0.83862500  1
  C  C36  1  0.10976200  0.97298000  0.82878000  1
  C  C37  1  0.60976200  0.02702000  0.67122000  1
  C  C38  1  0.89023800  0.02702000  0.17122000  1
  C  C39  1  0.39023800  0.97298000  0.32878000  1
  C  C40  1  0.93585800  0.70688800  0.99721200  1
  C  C41  1  0.11238800  0.83244000  0.16137500  1
  C  C42  1  0.06414200  0.29311200  0.00278800  1
  C  C43  1  0.56414200  0.70688800  0.49721200  1
  C  C44  1  0.31822400  0.03353100  0.87414200  1
  C  C45  1  0.81822400  0.96646900  0.62585800  1
  C  C46  1  0.68177600  0.96646900  0.12585800  1
  C  C47  1  0.18177600  0.03353100  0.37414200  1
  C  C48  1  0.43542200  0.40010900  0.76382600  1
  C  C49  1  0.93542200  0.59989100  0.73617400  1
  C  C50  1  0.56457800  0.59989100  0.23617400  1
  C  C51  1  0.06457800  0.40010900  0.26382600  1
  C  C52  1  0.43042800  0.22477300  0.05749800  1
  C  C53  1  0.93042800  0.77522700  0.44250200  1
  C  C54  1  0.56957200  0.77522700  0.94250200  1
  C  C55  1  0.06957200  0.22477300  0.55749800  1
  C  C56  1  0.43585800  0.29311200  0.50278800  1
  C  C57  1  0.75684200  0.57702400  0.58576400  1
  C  C58  1  0.74315800  0.57702400  0.08576400  1
  C  C59  1  0.24315800  0.42297600  0.41423600  1
  C  C60  1  0.38761200  0.83244000  0.66137500  1
  C  C61  1  0.25684200  0.42297600  0.91423600  1
