# generated using pymatgen
data_Cu7Ni5C66
_symmetry_space_group_name_H-M   'P 1'
_cell_length_a   18.10829181
_cell_length_b   9.06343920
_cell_length_c   22.88858607
_cell_angle_alpha   89.86397445
_cell_angle_beta   89.54773677
_cell_angle_gamma   119.98853845
_symmetry_Int_Tables_number   1
_chemical_formula_structural   Cu7Ni5C66
_chemical_formula_sum   'Cu21 Ni15 C198'
_cell_volume   3253.45769138
_cell_formula_units_Z   3
loop_
 _symmetry_equiv_pos_site_id
 _symmetry_equiv_pos_as_xyz
  1  'x, y, z'
loop_
 _atom_site_type_symbol
 _atom_site_label
 _atom_site_symmetry_multiplicity
 _atom_site_fract_x
 _atom_site_fract_y
 _atom_site_fract_z
 _atom_site_occupancy
  C  C0  1  0.32552593  0.02926669  0.25097835  1
  C  C1  1  0.67369801  0.34400274  0.25266529  1
  C  C2  1  0.99797100  0.63502702  0.24076584  1
  C  C3  1  0.49866414  0.62435210  0.23944612  1
  C  C4  1  0.32255865  0.61851733  0.75374699  1
  C  C5  1  0.82255278  0.61828215  0.75256217  1
  C  C6  1  0.99689481  0.37093085  0.73871782  1
  C  C7  1  0.49738652  0.37108926  0.73944435  1
  C  C8  1  0.17427683  0.00653352  0.75132302  1
  C  C9  1  0.67534233  0.00729895  0.75054552  1
  C  C10  1  0.33447138  0.97132640  0.57416976  1
  C  C11  1  0.83427306  0.97149423  0.57228515  1
  C  C12  1  0.33508118  0.69817085  0.07386312  1
  C  C13  1  0.83211162  0.69644934  0.07304185  1
  C  C14  1  0.48174311  0.68290127  0.91089330  1
  C  C15  1  0.98203185  0.68317477  0.90985647  1
  C  C16  1  0.48472025  0.28419031  0.40865458  1
  C  C17  1  0.16510266  0.02848338  0.40798126  1
  C  C18  1  0.98738836  0.00562042  0.49356723  1
  C  C19  1  0.49964892  0.99919162  0.49353521  1
  C  C20  1  0.99637637  -0.00010339  0.99181249  1
  C  C21  1  0.49551576  0.99529401  0.99463772  1
  C  C22  1  0.32650543  0.34308168  0.82827945  1
  C  C23  1  0.82673763  0.34303145  0.82726292  1
  C  C24  1  0.32861321  0.32522313  0.32242568  1
  C  C25  1  0.82106192  0.29125185  0.33109164  1
  C  C26  1  0.15454049  0.66299866  0.15666360  1
  C  C27  1  0.65145027  0.67023931  0.16036462  1
  C  C28  1  0.14764741  0.63464815  0.65842771  1
  C  C29  1  0.65001899  0.63771912  0.65725518  1
  C  C30  1  0.99641785  0.00655457  0.35125864  1
  C  C31  1  0.50212320  0.01041085  0.34940428  1
  C  C32  1  0.99966698  0.99103804  0.84989330  1
  C  C33  1  0.49953708  0.99102381  0.85033899  1
  C  C34  1  0.34108205  0.35286022  0.68421102  1
  C  C35  1  0.84124251  0.35412982  0.68336617  1
  C  C36  1  0.33859232  0.33040680  0.18508493  1
  C  C37  1  0.83490215  0.32023838  0.18260049  1
  C  C38  1  0.16617936  0.67284503  0.01733815  1
  C  C39  1  0.66467780  0.67080042  0.01746467  1
  C  C40  1  0.16304072  0.65271597  0.51738808  1
  C  C41  1  0.66729524  0.65969920  0.51687777  1
  C  C42  1  0.00846123  0.01317488  0.64798595  1
  C  C43  1  0.50964358  0.01495392  0.64829556  1
  C  C44  1  0.00619706  0.99340938  0.14672186  1
  C  C45  1  0.50859452  0.00314450  0.14893572  1
  C  C46  1  0.33484820  0.34770374  0.98162753  1
  C  C47  1  0.83505338  0.34720902  0.98092920  1
  C  C48  1  0.33895516  0.33183247  0.48195335  1
  C  C49  1  0.83783255  0.32034201  0.47967810  1
  C  C50  1  0.16993580  0.67758383  0.31650769  1
  C  C51  1  0.67149423  0.68745806  0.31376870  1
  C  C52  1  0.16759588  0.65501425  0.81585402  1
  C  C53  1  0.66768116  0.65541988  0.81597149  1
  Ni  Ni54  1  0.14813094  0.00776536  0.25595952  1
  Ni  Ni55  1  0.65167750  0.01267374  0.25281492  1
  Ni  Ni56  1  0.49969374  0.29570578  0.25334741  1
  Ni  Ni57  1  0.14826897  0.28897938  0.75297064  1
  Ni  Ni58  1  0.64852217  0.28947076  0.75334131  1
  Ni  Ni59  1  0.99920590  0.70415417  0.75333039  1
  Ni  Ni60  1  0.49927246  0.70445309  0.75340311  1
  Ni  Ni61  1  0.48593441  0.33961272  0.58638817  1
  Ni  Ni62  1  0.98479447  0.33923194  0.58726441  1
  Ni  Ni63  1  0.48497142  0.63074499  0.08635567  1
  Ni  Ni64  1  0.98391234  0.62164238  0.08723376  1
  Ni  Ni65  1  0.31754675  0.68000888  0.92143384  1
  Ni  Ni66  1  0.81739886  0.68074919  0.92168464  1
  Ni  Ni67  1  0.31680039  0.95538494  0.42276275  1
  Ni  Ni68  1  0.81812819  0.95491480  0.42171056  1
  Cu  Cu69  1  0.35351579  0.70661019  0.25091927  1
  Cu  Cu70  1  0.85569015  0.70870689  0.25047442  1
  Cu  Cu71  1  0.99888628  0.29022799  0.25097684  1
  Cu  Cu72  1  0.35427603  0.00085062  0.75068504  1
  Cu  Cu73  1  0.85421004  0.00088489  0.75105679  1
  Cu  Cu74  1  0.18830889  0.03978993  0.58396406  1
  Cu  Cu75  1  0.68874917  0.04025318  0.58476220  1
  Cu  Cu76  1  0.33136096  0.62694712  0.58489526  1
  Cu  Cu77  1  0.83166696  0.62581699  0.58434909  1
  Cu  Cu78  1  0.33141700  0.03733765  0.08467794  1
  Cu  Cu79  1  0.83239159  0.03924491  0.08433548  1
  Cu  Cu80  1  0.18838490  0.33651558  0.08550711  1
  Cu  Cu81  1  0.68798927  0.33676932  0.08472900  1
  Cu  Cu82  1  0.02021443  0.36855419  0.91885751  1
  Cu  Cu83  1  0.51997960  0.36803576  0.91861810  1
  Cu  Cu84  1  0.16739298  0.95985453  0.91750540  1
  Cu  Cu85  1  0.66761597  0.96014704  0.91746053  1
  Cu  Cu86  1  0.16535822  0.37236230  0.41826969  1
  Cu  Cu87  1  0.66780058  0.37554344  0.41724359  1
  Cu  Cu88  1  0.02050253  0.66880690  0.41770352  1
  Cu  Cu89  1  0.52169773  0.67345104  0.41783761  1
  C  C90  1  0.10056135  0.01599114  0.31413833  1
  C  C91  1  0.60254092  0.03376835  0.30751331  1
  C  C92  1  0.40609615  0.78841004  0.30168291  1
  C  C93  1  0.90953917  0.79524949  0.30014032  1
  C  C94  1  0.48012453  0.17891423  0.31106095  1
  C  C95  1  0.98879998  0.18825838  0.30275878  1
  C  C96  1  0.10038330  0.17065836  0.80793419  1
  C  C97  1  0.59993051  0.17018451  0.80790332  1
  C  C98  1  0.48116215  0.78234932  0.81118291  1
  C  C99  1  0.98146672  0.78234304  0.81124254  1
  C  C100  1  0.40770763  0.02741685  0.80102046  1
  C  C101  1  0.90764761  0.02712175  0.80147089  1
  C  C102  1  0.39056068  0.96744472  0.69633540  1
  C  C103  1  0.89050602  0.96735254  0.69679587  1
  C  C104  1  0.08574895  0.21239749  0.69443887  1
  C  C105  1  0.58598627  0.21403333  0.69455712  1
  C  C106  1  0.01549098  0.83179371  0.69619509  1
  C  C107  1  0.51486097  0.83159820  0.69612896  1
  C  C108  1  0.38934829  0.81379316  0.19655143  1
  C  C109  1  0.89219502  0.81260966  0.19532722  1
  C  C110  1  0.00988336  0.20970839  0.19722145  1
  C  C111  1  0.51416680  0.19692168  0.19654371  1
  C  C112  1  0.08304550  0.96596376  0.19863889  1
  C  C113  1  0.58880180  0.96618773  0.19379976  1
  C  C114  1  0.43555935  0.34554042  0.64394921  1
  C  C115  1  0.93765869  0.34670783  0.64636714  1
  C  C116  1  0.23857025  0.12484769  0.63615889  1
  C  C117  1  0.73699674  0.12139050  0.63807598  1
  C  C118  1  0.32110276  0.52676268  0.63837040  1
  C  C119  1  0.82167656  0.52747898  0.63847554  1
  C  C120  1  0.43502289  0.52489692  0.14412946  1
  C  C121  1  0.93541556  0.51939575  0.14598586  1
  C  C122  1  0.32131141  0.11631636  0.13815413  1
  C  C123  1  0.82166075  0.12098828  0.13626442  1
  C  C124  1  0.23991192  0.35309518  0.13639631  1
  C  C125  1  0.73793105  0.35462207  0.13730589  1
  C  C126  1  0.22549244  0.30447508  0.03134423  1
  C  C127  1  0.72993590  0.31018628  0.03213176  1
  C  C128  1  0.42103286  0.53438676  0.02767573  1
  C  C129  1  0.92033812  0.53356909  0.02895392  1
  C  C130  1  0.34035842  0.14253608  0.03216541  1
  C  C131  1  0.84330665  0.14274647  0.03095544  1
  C  C132  1  0.22924971  0.14761243  0.53008396  1
  C  C133  1  0.73012546  0.14977846  0.53228897  1
  C  C134  1  0.34102309  0.53892943  0.53252330  1
  C  C135  1  0.84158769  0.54007453  0.53241390  1
  C  C136  1  0.42231353  0.30859587  0.52749452  1
  C  C137  1  0.91910091  0.30641244  0.53069114  1
  C  C138  1  0.26753436  0.68343693  0.97913511  1
  C  C139  1  0.76756841  0.68422724  0.97948189  1
  C  C140  1  0.07221398  0.45744363  0.96897284  1
  C  C141  1  0.57230785  0.45713187  0.96859643  1
  C  C142  1  0.15420641  0.84641004  0.96734631  1
  C  C143  1  0.65485501  0.84696452  0.96722688  1
  C  C144  1  0.26438639  0.84873094  0.47914891  1
  C  C145  1  0.77176006  0.85506633  0.48128619  1
  C  C146  1  0.15535081  0.45575672  0.46937147  1
  C  C147  1  0.65411712  0.46179971  0.46698877  1
  C  C148  1  0.07466486  0.68762013  0.46719487  1
  C  C149  1  0.57253165  0.68755626  0.46872106  1
  C  C150  1  0.05793220  0.63763362  0.36236938  1
  C  C151  1  0.55730164  0.63565679  0.36336042  1
  C  C152  1  0.25500724  0.86856238  0.36276966  1
  C  C153  1  0.75567620  0.86214376  0.36418788  1
  C  C154  1  0.17621411  0.47598882  0.36411402  1
  C  C155  1  0.67813018  0.47341150  0.36169232  1
  C  C156  1  0.05663422  0.47781503  0.86375477  1
  C  C157  1  0.55667590  0.47791358  0.86354825  1
  C  C158  1  0.17810128  0.88226369  0.86199831  1
  C  C159  1  0.67890454  0.88362909  0.86191751  1
  C  C160  1  0.25989636  0.65113184  0.86102286  1
  C  C161  1  0.75983141  0.65102785  0.86134229  1
  C  C162  1  0.01498795  0.82451983  0.41072110  1
  C  C163  1  0.50951366  0.81943643  0.41013533  1
  C  C164  1  0.41316685  0.99203595  0.41578347  1
  C  C165  1  0.91241724  0.98288304  0.41167473  1
  C  C166  1  0.09221561  0.19805705  0.41262498  1
  C  C167  1  0.59127309  0.20350819  0.41323243  1
  C  C168  1  0.00973727  0.19980123  0.91073401  1
  C  C169  1  0.50988648  0.19969850  0.91038587  1
  C  C170  1  0.09115389  0.97875161  0.91312017  1
  C  C171  1  0.59152845  0.97910768  0.91300662  1
  C  C172  1  0.41447287  0.83807423  0.91578180  1
  C  C173  1  0.91454458  0.83827659  0.91601536  1
  C  C174  1  0.48232443  0.14946603  0.58642869  1
  C  C175  1  0.98283880  0.15036026  0.58681673  1
  C  C176  1  0.10174138  0.02179328  0.58585176  1
  C  C177  1  0.60135691  0.02114572  0.58643157  1
  C  C178  1  0.40997469  0.79976901  0.58778284  1
  C  C179  1  0.90989679  0.80085762  0.58820119  1
  C  C180  1  0.48258366  0.81535026  0.08645608  1
  C  C181  1  0.98306403  0.81043251  0.08874484  1
  C  C182  1  0.40965058  0.01971142  0.08764258  1
  C  C183  1  0.91167307  0.02342160  0.08946117  1
  C  C184  1  0.09998318  0.18356479  0.08991918  1
  C  C185  1  0.60150236  0.18198934  0.08654932  1
  C  C186  1  0.34035507  0.14751688  0.74316369  1
  C  C187  1  0.84014133  0.14722961  0.74376825  1
  C  C188  1  0.24185286  0.30876840  0.74207335  1
  C  C189  1  0.74194652  0.30918632  0.74235017  1
  C  C190  1  0.41838857  0.51186808  0.74654077  1
  C  C191  1  0.91819346  0.51206049  0.74660926  1
  C  C192  1  0.34193532  0.53519898  0.24341184  1
  C  C193  1  0.84697318  0.53776480  0.24420973  1
  C  C194  1  0.41917086  0.32767739  0.24624270  1
  C  C195  1  0.92505452  0.31837026  0.24573582  1
  C  C196  1  0.24380642  0.16077299  0.24400952  1
  C  C197  1  0.74298130  0.18498829  0.24244641  1
  C  C198  1  0.32614698  0.49929783  0.92150155  1
  C  C199  1  0.82660395  0.50052879  0.92187993  1
  C  C200  1  0.43339619  0.35546195  0.92342140  1
  C  C201  1  0.93368628  0.35621024  0.92365026  1
  C  C202  1  0.24573834  0.12915984  0.92337859  1
  C  C203  1  0.74603225  0.13003375  0.92361432  1
  C  C204  1  0.31953215  0.14828556  0.42260896  1
  C  C205  1  0.82264220  0.14777589  0.42137003  1
  C  C206  1  0.24452075  0.35639910  0.42241680  1
  C  C207  1  0.74595729  0.36197696  0.42377052  1
  C  C208  1  0.43409928  0.51178585  0.42311675  1
  C  C209  1  0.93339795  0.51708294  0.42256016  1
  C  C210  1  0.18156526  0.49121012  0.07845705  1
  C  C211  1  0.68165651  0.49183100  0.07758422  1
  C  C212  1  0.07787620  0.65073844  0.07673637  1
  C  C213  1  0.57803026  0.65323484  0.07618781  1
  C  C214  1  0.25703154  0.86236131  0.07958388  1
  C  C215  1  0.75905909  0.86414444  0.07952323  1
  C  C216  1  0.18216524  0.87254578  0.57771361  1
  C  C217  1  0.68163488  0.87167123  0.57841000  1
  C  C218  1  0.25742530  0.65248740  0.57912406  1
  C  C219  1  0.75721834  0.65184885  0.57976461  1
  C  C220  1  0.07759600  0.50287927  0.57696702  1
  C  C221  1  0.57827841  0.50331673  0.57584754  1
  C  C222  1  0.15237493  0.82224225  0.25679927  1
  C  C223  1  0.65536677  0.83206684  0.25488720  1
  C  C224  1  0.26658785  0.69238881  0.25720661  1
  C  C225  1  0.76747516  0.68258278  0.25566664  1
  C  C226  1  0.07749174  0.46616430  0.25560149  1
  C  C227  1  0.58974051  0.48261822  0.25721127  1
  C  C228  1  0.15950540  0.48456839  0.75574541  1
  C  C229  1  0.65946789  0.48472150  0.75601001  1
  C  C230  1  0.08925305  0.69527209  0.75730754  1
  C  C231  1  0.58927929  0.69570104  0.75726624  1
  C  C232  1  0.26714252  0.84393800  0.75682836  1
  C  C233  1  0.76711902  0.84375644  0.75718174  1
