# generated using pymatgen
data_Cu2Ni10C11
_symmetry_space_group_name_H-M   'P 1'
_cell_length_a   8.33060268
_cell_length_b   8.33060268
_cell_length_c   11.19873227
_cell_angle_alpha   57.02995575
_cell_angle_beta   57.02995575
_cell_angle_gamma   54.64413369
_symmetry_Int_Tables_number   1
_chemical_formula_structural   Cu2Ni10C11
_chemical_formula_sum   'Cu4 Ni20 C22'
_cell_volume   501.02105023
_cell_formula_units_Z   2
loop_
 _symmetry_equiv_pos_site_id
 _symmetry_equiv_pos_as_xyz
  1  'x, y, z'
loop_
 _atom_site_type_symbol
 _atom_site_label
 _atom_site_symmetry_multiplicity
 _atom_site_fract_x
 _atom_site_fract_y
 _atom_site_fract_z
 _atom_site_occupancy
  C  C0  1  0.96462700  0.03537300  0.25000000  1
  C  C1  1  0.03537300  0.96462700  0.75000000  1
  Ni  Ni2  1  0.39752100  0.25613700  0.05620500  1
  Ni  Ni3  1  0.74386300  0.60247900  0.44379500  1
  Ni  Ni4  1  0.60247900  0.74386300  0.94379500  1
  Ni  Ni5  1  0.25613700  0.39752100  0.55620500  1
  Ni  Ni6  1  0.28632000  0.25784900  0.97589600  1
  Ni  Ni7  1  0.74215100  0.71368000  0.52410400  1
  Ni  Ni8  1  0.32007300  0.56149400  0.83331500  1
  Ni  Ni9  1  0.43850600  0.67992700  0.66668500  1
  Ni  Ni10  1  0.67992700  0.43850600  0.16668500  1
  Ni  Ni11  1  0.56149400  0.32007300  0.33331500  1
  Ni  Ni12  1  0.62664800  0.24877900  0.83080400  1
  Ni  Ni13  1  0.75122100  0.37335200  0.66919600  1
  Ni  Ni14  1  0.37335200  0.75122100  0.16919600  1
  Ni  Ni15  1  0.24877900  0.62664800  0.33080400  1
  Ni  Ni16  1  0.94766800  0.41190800  0.27841200  1
  Ni  Ni17  1  0.58809200  0.05233200  0.22158800  1
  Ni  Ni18  1  0.05233200  0.58809200  0.72158800  1
  Ni  Ni19  1  0.41190800  0.94766800  0.77841200  1
  Ni  Ni20  1  0.71368000  0.74215100  0.02410400  1
  Ni  Ni21  1  0.25784900  0.28632000  0.47589600  1
  Cu  Cu22  1  0.00942700  0.26521200  0.88520200  1
  Cu  Cu23  1  0.73478800  0.99057300  0.61479800  1
  Cu  Cu24  1  0.26521200  0.00942700  0.38520200  1
  Cu  Cu25  1  0.99057300  0.73478800  0.11479800  1
  C  C26  1  0.69818000  0.30182000  0.25000000  1
  C  C27  1  0.30182000  0.69818000  0.75000000  1
  C  C28  1  0.31077100  0.38208800  0.45743500  1
  C  C29  1  0.61791200  0.68922900  0.04256500  1
  C  C30  1  0.68922900  0.61791200  0.54256500  1
  C  C31  1  0.38208800  0.31077100  0.95743500  1
  C  C32  1  0.85591800  0.56529600  0.26998000  1
  C  C33  1  0.43470400  0.14408200  0.23002000  1
  C  C34  1  0.14408200  0.43470400  0.73002000  1
  C  C35  1  0.56529600  0.85591800  0.76998000  1
  C  C36  1  0.89145800  0.82101900  0.98217800  1
  C  C37  1  0.17898100  0.10854200  0.51782200  1
  C  C38  1  0.10854200  0.17898100  0.01782200  1
  C  C39  1  0.82101900  0.89145800  0.48217800  1
  C  C40  1  0.93278000  0.84260800  0.68754400  1
  C  C41  1  0.15739200  0.06722000  0.81245600  1
  C  C42  1  0.06722000  0.15739200  0.31245600  1
  C  C43  1  0.84260800  0.93278000  0.18754400  1
  C  C44  1  0.76667700  0.23332300  0.75000000  1
  C  C45  1  0.23332300  0.76667700  0.25000000  1
