# generated using pymatgen
data_Cu3NiC
_symmetry_space_group_name_H-M   'P 1'
_cell_length_a   6.12821971
_cell_length_b   9.97247584
_cell_length_c   10.11908825
_cell_angle_alpha   90.00000000
_cell_angle_beta   90.00000000
_cell_angle_gamma   90.00000000
_symmetry_Int_Tables_number   1
_chemical_formula_structural   Cu3NiC
_chemical_formula_sum   'Cu12 Ni4 C4'
_cell_volume   618.41313251
_cell_formula_units_Z   4
loop_
 _symmetry_equiv_pos_site_id
 _symmetry_equiv_pos_as_xyz
  1  'x, y, z'
loop_
 _atom_site_type_symbol
 _atom_site_label
 _atom_site_symmetry_multiplicity
 _atom_site_fract_x
 _atom_site_fract_y
 _atom_site_fract_z
 _atom_site_occupancy
  Ni  Ni0  1  0.89798849  0.75708947  0.82193966  1
  Ni  Ni1  1  0.10201151  0.25708947  0.17806034  1
  Ni  Ni2  1  0.60201151  0.75708947  0.32193966  1
  Ni  Ni3  1  0.39798849  0.25708947  0.67806034  1
  Cu  Cu4  1  0.20178455  0.41571223  0.64832867  1
  Cu  Cu5  1  0.79821545  0.91571223  0.35167133  1
  Cu  Cu6  1  0.29821545  0.41571223  0.14832867  1
  Cu  Cu7  1  0.70178455  0.91571223  0.85167133  1
  Cu  Cu8  1  0.09949910  0.75778827  0.97823639  1
  Cu  Cu9  1  0.90050090  0.25778827  0.02176361  1
  Cu  Cu10  1  0.40050090  0.75778827  0.47823639  1
  Cu  Cu11  1  0.59949910  0.25778827  0.52176361  1
  Cu  Cu12  1  0.70447174  0.59724692  0.85187445  1
  Cu  Cu13  1  0.29552826  0.09724692  0.14812555  1
  Cu  Cu14  1  0.79552826  0.59724692  0.35187445  1
  Cu  Cu15  1  0.20447174  0.09724692  0.64812555  1
  C  C16  1  0.00931096  0.75736310  0.69306095  1
  C  C17  1  0.99068904  0.25736310  0.30693905  1
  C  C18  1  0.49068904  0.75736310  0.19306095  1
  C  C19  1  0.50931096  0.25736310  0.80693905  1
