# generated using pymatgen
data_Cu12Ni4C3
_symmetry_space_group_name_H-M   'P 1'
_cell_length_a   6.80892925
_cell_length_b   6.95189607
_cell_length_c   11.59267380
_cell_angle_alpha   101.53468971
_cell_angle_beta   100.95027448
_cell_angle_gamma   111.23073622
_symmetry_Int_Tables_number   1
_chemical_formula_structural   Cu12Ni4C3
_chemical_formula_sum   'Cu12 Ni4 C3'
_cell_volume   480.04071128
_cell_formula_units_Z   1
loop_
 _symmetry_equiv_pos_site_id
 _symmetry_equiv_pos_as_xyz
  1  'x, y, z'
loop_
 _atom_site_type_symbol
 _atom_site_label
 _atom_site_symmetry_multiplicity
 _atom_site_fract_x
 _atom_site_fract_y
 _atom_site_fract_z
 _atom_site_occupancy
  C  C0  1  0.24187200  0.15016300  0.40913000  1
  C  C1  1  0.85415200  0.85069500  0.71155200  1
  C  C2  1  0.59681700  0.09817300  0.18597100  1
  Ni  Ni3  1  0.73118100  0.86459500  0.38145600  1
  Ni  Ni4  1  0.61590500  0.98698400  0.87887400  1
  Ni  Ni5  1  0.26479300  0.89166600  0.87806700  1
  Ni  Ni6  1  0.64731200  0.51726100  0.37834300  1
  Cu  Cu7  1  0.67054400  0.71603500  0.85930400  1
  Cu  Cu8  1  0.18941400  0.14203100  0.85861400  1
  Cu  Cu9  1  0.97589900  0.03610700  0.54371400  1
  Cu  Cu10  1  0.56055700  0.51039700  0.53928800  1
  Cu  Cu11  1  0.26749200  0.81888300  0.04221200  1
  Cu  Cu12  1  0.78242300  0.22712800  0.04427700  1
  Cu  Cu13  1  0.37269100  0.31215100  0.23615200  1
  Cu  Cu14  1  0.86299200  0.92061000  0.24037700  1
  Cu  Cu15  1  0.66403900  0.09277000  0.73145200  1
  Cu  Cu16  1  0.06742900  0.63445300  0.72991300  1
  Cu  Cu17  1  0.43999000  0.89283000  0.34137400  1
  Cu  Cu18  1  0.89949800  0.44947600  0.35326300  1
