# generated using pymatgen
data_CuNiC10
_symmetry_space_group_name_H-M   'P 1'
_cell_length_a   5.41422382
_cell_length_b   6.08361339
_cell_length_c   7.45436768
_cell_angle_alpha   125.70398137
_cell_angle_beta   113.45508694
_cell_angle_gamma   88.05490124
_symmetry_Int_Tables_number   1
_chemical_formula_structural   CuNiC10
_chemical_formula_sum   'Cu1 Ni1 C10'
_cell_volume   176.30560385
_cell_formula_units_Z   1
loop_
 _symmetry_equiv_pos_site_id
 _symmetry_equiv_pos_as_xyz
  1  'x, y, z'
loop_
 _atom_site_type_symbol
 _atom_site_label
 _atom_site_symmetry_multiplicity
 _atom_site_fract_x
 _atom_site_fract_y
 _atom_site_fract_z
 _atom_site_occupancy
  Ni  Ni0  1  0.39660000  0.65110000  0.67731700  1
  Cu  Cu1  1  0.10803900  0.18671400  0.04617500  1
  C  C2  1  0.85715900  0.36667800  0.59651600  1
  C  C3  1  0.37885500  0.06585300  0.58395600  1
  C  C4  1  0.12822000  0.74535100  0.81739800  1
  C  C5  1  0.58838800  0.39909500  0.37263900  1
  C  C6  1  0.14952400  0.24340200  0.78137800  1
  C  C7  1  0.58422000  0.98091400  0.41183800  1
  C  C8  1  0.61975500  0.03766200  0.83725200  1
  C  C9  1  0.17169700  0.70650500  0.39716000  1
  C  C10  1  0.12861300  0.22760900  0.42982200  1
  C  C11  1  0.66059100  0.46974900  0.80257100  1
