# generated using pymatgen
data_CuNi3
_symmetry_space_group_name_H-M   'P 1'
_cell_length_a   5.11634700
_cell_length_b   5.11634700
_cell_length_c   5.11634700
_cell_angle_alpha   90.00000000
_cell_angle_beta   90.00000000
_cell_angle_gamma   90.00000000
_symmetry_Int_Tables_number   1
_chemical_formula_structural   CuNi3
_chemical_formula_sum   'Cu4 Ni12'
_cell_volume   133.93064931
_cell_formula_units_Z   4
loop_
 _symmetry_equiv_pos_site_id
 _symmetry_equiv_pos_as_xyz
  1  'x, y, z'
loop_
 _atom_site_type_symbol
 _atom_site_label
 _atom_site_symmetry_multiplicity
 _atom_site_fract_x
 _atom_site_fract_y
 _atom_site_fract_z
 _atom_site_occupancy
  Ni  Ni0  1  0.13835200  0.72950700  0.60175500  1
  Ni  Ni1  1  0.63835200  0.77049300  0.39824500  1
  Ni  Ni2  1  0.86164800  0.22950700  0.89824500  1
  Ni  Ni3  1  0.77049300  0.39824500  0.63835200  1
  Ni  Ni4  1  0.36164800  0.27049300  0.10175500  1
  Ni  Ni5  1  0.10175500  0.36164800  0.27049300  1
  Ni  Ni6  1  0.27049300  0.10175500  0.36164800  1
  Ni  Ni7  1  0.22950700  0.89824500  0.86164800  1
  Ni  Ni8  1  0.60175500  0.13835200  0.72950700  1
  Ni  Ni9  1  0.72950700  0.60175500  0.13835200  1
  Ni  Ni10  1  0.39824500  0.63835200  0.77049300  1
  Ni  Ni11  1  0.89824500  0.86164800  0.22950700  1
  Cu  Cu12  1  0.79817100  0.70182900  0.29817100  1
  Cu  Cu13  1  0.70182900  0.29817100  0.79817100  1
  Cu  Cu14  1  0.29817100  0.79817100  0.70182900  1
  Cu  Cu15  1  0.20182900  0.20182900  0.20182900  1
