# generated using pymatgen
data_Cu6NiC12
_symmetry_space_group_name_H-M   'P 1'
_cell_length_a   5.15968030
_cell_length_b   7.67856863
_cell_length_c   5.77331441
_cell_angle_alpha   96.52784966
_cell_angle_beta   98.48755403
_cell_angle_gamma   83.73078536
_symmetry_Int_Tables_number   1
_chemical_formula_structural   Cu6NiC12
_chemical_formula_sum   'Cu6 Ni1 C12'
_cell_volume   223.76457551
_cell_formula_units_Z   1
loop_
 _symmetry_equiv_pos_site_id
 _symmetry_equiv_pos_as_xyz
  1  'x, y, z'
loop_
 _atom_site_type_symbol
 _atom_site_label
 _atom_site_symmetry_multiplicity
 _atom_site_fract_x
 _atom_site_fract_y
 _atom_site_fract_z
 _atom_site_occupancy
  Ni  Ni0  1  0.49510500  0.17327600  0.16205400  1
  Cu  Cu1  1  0.43108900  0.98518900  0.55513100  1
  Cu  Cu2  1  0.50522000  0.67394100  0.18909000  1
  Cu  Cu3  1  0.60203300  0.35910500  0.77018800  1
  Cu  Cu4  1  0.98951000  0.67889400  0.66044900  1
  Cu  Cu5  1  0.00658700  0.35152700  0.33880100  1
  Cu  Cu6  1  0.98786800  0.98372200  0.00011600  1
  C  C7  1  0.89081300  0.44364600  0.62488600  1
  C  C8  1  0.64082000  0.08908100  0.84697400  1
  C  C9  1  0.64882200  0.76186500  0.50058300  1
  C  C10  1  0.66478200  0.42168000  0.15419600  1
  C  C11  1  0.35179400  0.23519900  0.48354800  1
  C  C12  1  0.33554800  0.92395900  0.20150000  1
  C  C13  1  0.12469000  0.90478000  0.71712600  1
  C  C14  1  0.82567400  0.74164300  0.99249600  1
  C  C15  1  0.85092900  0.08645700  0.29989000  1
  C  C16  1  0.33290000  0.59079300  0.86336700  1
  C  C17  1  0.18199700  0.59247200  0.35722500  1
  C  C18  1  0.13381500  0.25276700  0.03237900  1
