# generated using pymatgen
data_Cu3Ni2C15
_symmetry_space_group_name_H-M   'P 1'
_cell_length_a   15.83664875
_cell_length_b   9.13142873
_cell_length_c   9.11812595
_cell_angle_alpha   90.00000000
_cell_angle_beta   125.25394702
_cell_angle_gamma   90.00000000
_symmetry_Int_Tables_number   1
_chemical_formula_structural   Cu3Ni2C15
_chemical_formula_sum   'Cu12 Ni8 C60'
_cell_volume   1076.75757298
_cell_formula_units_Z   4
loop_
 _symmetry_equiv_pos_site_id
 _symmetry_equiv_pos_as_xyz
  1  'x, y, z'
loop_
 _atom_site_type_symbol
 _atom_site_label
 _atom_site_symmetry_multiplicity
 _atom_site_fract_x
 _atom_site_fract_y
 _atom_site_fract_z
 _atom_site_occupancy
  C  C0  1  0.24482398  0.77194614  0.99752560  1
  C  C1  1  0.74482398  0.72805386  0.49752560  1
  C  C2  1  0.74482398  0.27194614  0.99752560  1
  C  C3  1  0.24482398  0.22805386  0.49752560  1
  C  C4  1  0.50163055  0.10246721  0.74750685  1
  C  C5  1  0.50163055  0.89753279  0.24750685  1
  C  C6  1  0.00163055  0.60246721  0.74750685  1
  C  C7  1  0.00163055  0.39753279  0.24750685  1
  C  C8  1  0.81236742  0.93172890  0.20766622  1
  C  C9  1  0.81236742  0.06827110  0.70766622  1
  C  C10  1  0.31236742  0.43172890  0.20766622  1
  C  C11  1  0.31236742  0.56827110  0.70766622  1
  Ni  Ni12  1  0.10207985  0.75820526  0.55075791  1
  Ni  Ni13  1  0.89966870  0.75093307  0.94560866  1
  Ni  Ni14  1  0.89966870  0.24906693  0.44560866  1
  Ni  Ni15  1  0.10207985  0.24179474  0.05075791  1
  Ni  Ni16  1  0.60207985  0.25820526  0.55075791  1
  Ni  Ni17  1  0.39966870  0.25093307  0.94560866  1
  Ni  Ni18  1  0.39966870  0.74906693  0.44560866  1
  Ni  Ni19  1  0.60207985  0.74179474  0.05075791  1
  Cu  Cu20  1  0.99929583  0.94641694  0.74629276  1
  Cu  Cu21  1  0.99929583  0.05358306  0.24629276  1
  Cu  Cu22  1  0.49929583  0.44641694  0.74629276  1
  Cu  Cu23  1  0.49929583  0.55358306  0.24629276  1
  Cu  Cu24  1  0.35366324  0.89840171  0.75751851  1
  Cu  Cu25  1  0.65189548  0.90146657  0.74617693  1
  Cu  Cu26  1  0.65189548  0.09853343  0.24617693  1
  Cu  Cu27  1  0.35366324  0.10159829  0.25751851  1
  Cu  Cu28  1  0.85366324  0.39840171  0.75751851  1
  Cu  Cu29  1  0.15189548  0.40146657  0.74617693  1
  Cu  Cu30  1  0.15189548  0.59853343  0.24617693  1
  Cu  Cu31  1  0.85366324  0.60159829  0.25751851  1
  C  C32  1  0.15919105  0.57236908  0.74557355  1
  C  C33  1  0.84608948  0.56804096  0.75351697  1
  C  C34  1  0.84608948  0.43195904  0.25351697  1
  C  C35  1  0.15919105  0.42763092  0.24557355  1
  C  C36  1  0.65919105  0.07236908  0.74557355  1
  C  C37  1  0.34608948  0.06804096  0.75351697  1
  C  C38  1  0.34608948  0.93195904  0.25351697  1
  C  C39  1  0.65919105  0.92763092  0.24557355  1
  C  C40  1  0.43183049  0.53883562  0.57293241  1
  C  C41  1  0.55982293  0.54222711  0.91447711  1
  C  C42  1  0.55982293  0.45777289  0.41447711  1
  C  C43  1  0.43183049  0.46116438  0.07293241  1
  C  C44  1  0.93183049  0.03883562  0.57293241  1
  C  C45  1  0.05982293  0.04222711  0.91447711  1
  C  C46  1  0.05982293  0.95777289  0.41447711  1
  C  C47  1  0.93183049  0.96116438  0.07293241  1
  C  C48  1  0.26293205  0.82218700  0.74748634  1
  C  C49  1  0.74361893  0.83794611  0.74916848  1
  C  C50  1  0.74361893  0.16205389  0.24916848  1
  C  C51  1  0.26293205  0.17781300  0.24748634  1
  C  C52  1  0.76293205  0.32218700  0.74748634  1
  C  C53  1  0.24361893  0.33794611  0.74916848  1
  C  C54  1  0.24361893  0.66205389  0.24916848  1
  C  C55  1  0.76293205  0.67781300  0.24748634  1
  C  C56  1  0.35581577  0.85470954  0.59607708  1
  C  C57  1  0.65704914  0.86568761  0.91808857  1
  C  C58  1  0.65704914  0.13431239  0.41808857  1
  C  C59  1  0.35581577  0.14529046  0.09607708  1
  C  C60  1  0.85581577  0.35470954  0.59607708  1
  C  C61  1  0.15704914  0.36568761  0.91808857  1
  C  C62  1  0.15704914  0.63431239  0.41808857  1
  C  C63  1  0.85581577  0.64529046  0.09607708  1
  C  C64  1  0.45349330  0.84515256  0.93515557  1
  C  C65  1  0.55033901  0.84672863  0.57432261  1
  C  C66  1  0.55033901  0.15327137  0.07432261  1
  C  C67  1  0.45349330  0.15484744  0.43515557  1
  C  C68  1  0.95349330  0.34515256  0.93515557  1
  C  C69  1  0.05033901  0.34672863  0.57432261  1
  C  C70  1  0.05033901  0.65327137  0.07432261  1
  C  C71  1  0.95349330  0.65484744  0.43515557  1
  C  C72  1  0.07584974  0.84125186  0.74560662  1
  C  C73  1  0.91854304  0.84851952  0.74854124  1
  C  C74  1  0.91854304  0.15148048  0.24854124  1
  C  C75  1  0.07584974  0.15874814  0.24560662  1
  C  C76  1  0.57584974  0.34125186  0.74560662  1
  C  C77  1  0.41854304  0.34851952  0.74854124  1
  C  C78  1  0.41854304  0.65148048  0.24854124  1
  C  C79  1  0.57584974  0.65874814  0.24560662  1
