# generated using pymatgen
data_Cu6Ni6C7
_symmetry_space_group_name_H-M   'P 1'
_cell_length_a   5.35805659
_cell_length_b   14.51301844
_cell_length_c   3.06999610
_cell_angle_alpha   90.02888029
_cell_angle_beta   89.98324004
_cell_angle_gamma   99.59291944
_symmetry_Int_Tables_number   1
_chemical_formula_structural   Cu6Ni6C7
_chemical_formula_sum   'Cu6 Ni6 C7'
_cell_volume   235.38947761
_cell_formula_units_Z   1
loop_
 _symmetry_equiv_pos_site_id
 _symmetry_equiv_pos_as_xyz
  1  'x, y, z'
loop_
 _atom_site_type_symbol
 _atom_site_label
 _atom_site_symmetry_multiplicity
 _atom_site_fract_x
 _atom_site_fract_y
 _atom_site_fract_z
 _atom_site_occupancy
  C  C0  1  0.51170700  0.33392200  0.97406500  1
  C  C1  1  0.06818300  0.98693900  0.99191800  1
  C  C2  1  0.01142200  0.33278400  0.03957500  1
  C  C3  1  0.95279400  0.67769000  0.99181100  1
  C  C4  1  0.57777900  0.13859100  0.48643300  1
  C  C5  1  0.44024000  0.52924500  0.48722800  1
  C  C6  1  0.44709300  0.83246200  0.49421500  1
  Ni  Ni7  1  0.18469600  0.92645000  0.49317700  1
  Ni  Ni8  1  0.38205800  0.08227500  0.98705800  1
  Ni  Ni9  1  0.27729400  0.76488400  0.99396100  1
  Ni  Ni10  1  0.30525700  0.43690800  0.98627300  1
  Ni  Ni11  1  0.71515200  0.22945300  0.98562800  1
  Ni  Ni12  1  0.63660500  0.58597400  0.98809000  1
  Cu  Cu13  1  0.27595200  0.27639500  0.48450000  1
  Cu  Cu14  1  0.10848100  0.60087300  0.49044000  1
  Cu  Cu15  1  0.68008600  0.90167100  0.99404200  1
  Cu  Cu16  1  0.89730100  0.06181300  0.48826600  1
  Cu  Cu17  1  0.74705300  0.38965000  0.48375700  1
  Cu  Cu18  1  0.79473600  0.74535300  0.49289500  1
