# generated using pymatgen
data_Cu2NiC10
_symmetry_space_group_name_H-M   'P 1'
_cell_length_a   6.33750091
_cell_length_b   5.62231105
_cell_length_c   5.62231105
_cell_angle_alpha   110.03120975
_cell_angle_beta   94.76432753
_cell_angle_gamma   120.01422982
_symmetry_Int_Tables_number   1
_chemical_formula_structural   Cu2NiC10
_chemical_formula_sum   'Cu2 Ni1 C10'
_cell_volume   154.79962717
_cell_formula_units_Z   1
loop_
 _symmetry_equiv_pos_site_id
 _symmetry_equiv_pos_as_xyz
  1  'x, y, z'
loop_
 _atom_site_type_symbol
 _atom_site_label
 _atom_site_symmetry_multiplicity
 _atom_site_fract_x
 _atom_site_fract_y
 _atom_site_fract_z
 _atom_site_occupancy
  Ni  Ni0  1  0.50000000  0.50000000  0.50000000  1
  Cu  Cu1  1  0.87094674  0.13538183  0.23556491  1
  Cu  Cu2  1  0.12905326  0.86461817  0.76443509  1
  C  C3  1  0.68482314  0.37773077  0.80709237  1
  C  C4  1  0.31517686  0.62226923  0.19290763  1
  C  C5  1  0.74795044  0.25197633  0.99597411  1
  C  C6  1  0.20520863  0.61408130  0.45462482  1
  C  C7  1  0.20520863  0.25058381  0.09112733  1
  C  C8  1  0.37280134  0.20436038  0.66844095  1
  C  C9  1  0.25204956  0.74802367  0.00402589  1
  C  C10  1  0.79479137  0.38591870  0.54537518  1
  C  C11  1  0.79479137  0.74941619  0.90887267  1
  C  C12  1  0.62719866  0.79563962  0.33155905  1
