# generated using pymatgen
data_Cu2NiC10
_symmetry_space_group_name_H-M   'P 1'
_cell_length_a   3.67744900
_cell_length_b   6.68086322
_cell_length_c   6.67303443
_cell_angle_alpha   110.48908981
_cell_angle_beta   90.00000000
_cell_angle_gamma   105.97528416
_symmetry_Int_Tables_number   1
_chemical_formula_structural   Cu2NiC10
_chemical_formula_sum   'Cu2 Ni1 C10'
_cell_volume   146.79702689
_cell_formula_units_Z   1
loop_
 _symmetry_equiv_pos_site_id
 _symmetry_equiv_pos_as_xyz
  1  'x, y, z'
loop_
 _atom_site_type_symbol
 _atom_site_label
 _atom_site_symmetry_multiplicity
 _atom_site_fract_x
 _atom_site_fract_y
 _atom_site_fract_z
 _atom_site_occupancy
  Ni  Ni0  1  0.50000000  0.00000000  0.50000000  1
  C  C1  1  0.11261800  0.22523500  0.22121300  1
  C  C2  1  0.88738200  0.77476500  0.77878700  1
  Cu  Cu3  1  0.80707600  0.61415200  0.18332400  1
  Cu  Cu4  1  0.19292400  0.38584800  0.81667600  1
  C  C5  1  0.32710300  0.65420500  0.74337700  1
  C  C6  1  0.67289700  0.34579500  0.25662300  1
  C  C7  1  0.72472400  0.44944700  0.85676300  1
  C  C8  1  0.27527600  0.55055300  0.14323700  1
  C  C9  1  0.89629500  0.79259000  0.47471500  1
  C  C10  1  0.10370500  0.20741000  0.52528500  1
  C  C11  1  0.94257700  0.88515600  0.12022200  1
  C  C12  1  0.05742300  0.11484400  0.87977800  1
