# generated using pymatgen
data_Cu(NiC8)2
_symmetry_space_group_name_H-M   'P 1'
_cell_length_a   9.36161772
_cell_length_b   9.36161737
_cell_length_c   23.38284228
_cell_angle_alpha   89.90991883
_cell_angle_beta   90.09008117
_cell_angle_gamma   120.18304521
_symmetry_Int_Tables_number   1
_chemical_formula_structural   Cu(NiC8)2
_chemical_formula_sum   'Cu6 Ni12 C96'
_cell_volume   1771.43409313
_cell_formula_units_Z   6
loop_
 _symmetry_equiv_pos_site_id
 _symmetry_equiv_pos_as_xyz
  1  'x, y, z'
loop_
 _atom_site_type_symbol
 _atom_site_label
 _atom_site_symmetry_multiplicity
 _atom_site_fract_x
 _atom_site_fract_y
 _atom_site_fract_z
 _atom_site_occupancy
  Ni  Ni0  1  0.35769753  0.34783791  0.24837832  1
  Ni  Ni1  1  0.65216209  0.64230247  0.74837832  1
  Ni  Ni2  1  0.02436453  0.68117091  0.58171132  1
  Ni  Ni3  1  0.31882909  0.97563547  0.08171132  1
  Ni  Ni4  1  0.69103053  0.01450491  0.91504532  1
  Ni  Ni5  1  0.98549509  0.30896947  0.41504532  1
  Ni  Ni6  1  0.99975575  0.99876560  0.50287022  1
  Ni  Ni7  1  0.00123440  0.00024425  0.00287022  1
  Ni  Ni8  1  0.66642275  0.33209860  0.83620322  1
  Ni  Ni9  1  0.66790140  0.33357725  0.33620322  1
  Ni  Ni10  1  0.33308875  0.66543260  0.16953722  1
  Ni  Ni11  1  0.33456740  0.66691125  0.66953722  1
  Cu  Cu12  1  0.99298596  0.98085751  0.35234343  1
  Cu  Cu13  1  0.01914249  0.00701404  0.85234343  1
  Cu  Cu14  1  0.65965296  0.31419051  0.68567643  1
  Cu  Cu15  1  0.68580949  0.34034704  0.18567643  1
  Cu  Cu16  1  0.32631896  0.64752451  0.01901043  1
  Cu  Cu17  1  0.35247549  0.67368104  0.51901043  1
  C  C18  1  0.00511771  0.01082946  0.64925490  1
  C  C19  1  0.98917054  0.99488229  0.14925490  1
  C  C20  1  0.67178471  0.34416246  0.98258790  1
  C  C21  1  0.65583754  0.32821529  0.48258790  1
  C  C22  1  0.33845071  0.67749646  0.31592190  1
  C  C23  1  0.32250354  0.66154929  0.81592190  1
  C  C24  1  0.28776577  0.98588383  0.24700457  1
  C  C25  1  0.68593931  0.70664429  0.24868250  1
  C  C26  1  0.02030140  0.30452293  0.25354174  1
  C  C27  1  0.29335571  0.31406069  0.74868250  1
  C  C28  1  0.01411617  0.71223423  0.74700457  1
  C  C29  1  0.69547707  0.97969860  0.75354174  1
  C  C30  1  0.95443277  0.31921683  0.58033757  1
  C  C31  1  0.35260631  0.03997729  0.58201550  1
  C  C32  1  0.68696840  0.63785593  0.58687474  1
  C  C33  1  0.96002271  0.64739369  0.08201550  1
  C  C34  1  0.68078317  0.04556723  0.08033757  1
  C  C35  1  0.36214407  0.31303160  0.08687474  1
  C  C36  1  0.62109877  0.65255083  0.91367157  1
  C  C37  1  0.01927231  0.37331129  0.91534950  1
  C  C38  1  0.35363440  0.97118993  0.92020874  1
  C  C39  1  0.62668871  0.98072769  0.41534950  1
  C  C40  1  0.34744917  0.37890123  0.41367157  1
  C  C41  1  0.02881007  0.64636560  0.42020874  1
  C  C42  1  0.20968585  0.01653737  0.29913361  1
  C  C43  1  0.78170787  0.77412738  0.30356812  1
  C  C44  1  0.00447454  0.21538880  0.30975337  1
  C  C45  1  0.22587262  0.21829213  0.80356812  1
  C  C46  1  0.98346263  0.79031415  0.79913361  1
  C  C47  1  0.78461120  0.99552546  0.80975337  1
  C  C48  1  0.80157316  0.96891530  0.70218618  1
  C  C49  1  0.18229142  0.21216117  0.69614285  1
  C  C50  1  0.03456288  0.82315531  0.69275404  1
  C  C51  1  0.78783883  0.81770858  0.19614285  1
  C  C52  1  0.03108470  0.19842684  0.20218618  1
  C  C53  1  0.17684469  0.96543712  0.19275404  1
  C  C54  1  0.87635285  0.34987037  0.63246661  1
  C  C55  1  0.44837487  0.10746038  0.63690112  1
  C  C56  1  0.67114154  0.54872180  0.64308637  1
  C  C57  1  0.89253962  0.55162513  0.13690112  1
  C  C58  1  0.65012963  0.12364715  0.13246661  1
  C  C59  1  0.45127820  0.32885846  0.14308637  1
  C  C60  1  0.46824016  0.30224830  0.03551918  1
  C  C61  1  0.84895842  0.54549417  0.02947585  1
  C  C62  1  0.70122988  0.15648831  0.02608704  1
  C  C63  1  0.45450583  0.15104158  0.52947585  1
  C  C64  1  0.69775170  0.53175984  0.53551918  1
  C  C65  1  0.84351169  0.29877012  0.52608704  1
  C  C66  1  0.54301885  0.68320437  0.96580061  1
  C  C67  1  0.11504087  0.44079438  0.97023512  1
  C  C68  1  0.33780754  0.88205580  0.97642037  1
  C  C69  1  0.55920562  0.88495913  0.47023512  1
  C  C70  1  0.31679563  0.45698115  0.46580061  1
  C  C71  1  0.11794420  0.66219246  0.47642037  1
  C  C72  1  0.13490616  0.63558230  0.36885318  1
  C  C73  1  0.51562442  0.87882817  0.36280985  1
  C  C74  1  0.36789588  0.48982231  0.35942104  1
  C  C75  1  0.12117183  0.48437558  0.86280985  1
  C  C76  1  0.36441770  0.86509384  0.86885318  1
  C  C77  1  0.51017769  0.63210412  0.85942104  1
  C  C78  1  0.99744807  0.79086116  0.41547216  1
  C  C79  1  0.80751650  0.02161365  0.40999998  1
  C  C80  1  0.19469435  0.20531221  0.40904175  1
  C  C81  1  0.97838635  0.19248350  0.90999998  1
  C  C82  1  0.20913884  0.00255193  0.91547216  1
  C  C83  1  0.79468779  0.80530565  0.90904175  1
  C  C84  1  0.96431245  0.15794539  0.58792879  1
  C  C85  1  0.18393766  0.03772569  0.58503911  1
  C  C86  1  0.85505411  0.80773733  0.58690436  1
  C  C87  1  0.96227431  0.81606234  0.08503911  1
  C  C88  1  0.84205461  0.03568755  0.08792879  1
  C  C89  1  0.19226267  0.14494589  0.08690436  1
  C  C90  1  0.66411507  0.12419416  0.74880516  1
  C  C91  1  0.47418350  0.35494665  0.74333298  1
  C  C92  1  0.86136135  0.53864521  0.74237475  1
  C  C93  1  0.64505335  0.52581650  0.24333298  1
  C  C94  1  0.87580584  0.33588493  0.24880516  1
  C  C95  1  0.46135479  0.13863865  0.24237475  1
  C  C96  1  0.63097945  0.49127839  0.92126179  1
  C  C97  1  0.85060466  0.37105869  0.91837211  1
  C  C98  1  0.52172111  0.14107033  0.92023736  1
  C  C99  1  0.62894131  0.14939534  0.41837211  1
  C  C100  1  0.50872161  0.36902055  0.42126179  1
  C  C101  1  0.85892967  0.47827889  0.42023736  1
  C  C102  1  0.33078107  0.45752816  0.08213916  1
  C  C103  1  0.14084950  0.68828065  0.07666698  1
  C  C104  1  0.52802735  0.87197921  0.07570875  1
  C  C105  1  0.31171935  0.85915050  0.57666698  1
  C  C106  1  0.54247184  0.66921893  0.58213916  1
  C  C107  1  0.12802079  0.47197265  0.57570875  1
  C  C108  1  0.29764545  0.82461239  0.25459579  1
  C  C109  1  0.51727066  0.70439269  0.25170611  1
  C  C110  1  0.18838711  0.47440433  0.25357136  1
  C  C111  1  0.29560731  0.48272934  0.75170611  1
  C  C112  1  0.17538761  0.70235455  0.75459579  1
  C  C113  1  0.52559567  0.81161289  0.75357136  1
