# generated using pymatgen
data_CuNiC9
_symmetry_space_group_name_H-M   'P 1'
_cell_length_a   6.35466465
_cell_length_b   6.29754296
_cell_length_c   6.35466513
_cell_angle_alpha   60.29690664
_cell_angle_beta   56.35650422
_cell_angle_gamma   60.29690872
_symmetry_Int_Tables_number   1
_chemical_formula_structural   CuNiC9
_chemical_formula_sum   'Cu1 Ni1 C9'
_cell_volume   175.09481668
_cell_formula_units_Z   1
loop_
 _symmetry_equiv_pos_site_id
 _symmetry_equiv_pos_as_xyz
  1  'x, y, z'
loop_
 _atom_site_type_symbol
 _atom_site_label
 _atom_site_symmetry_multiplicity
 _atom_site_fract_x
 _atom_site_fract_y
 _atom_site_fract_z
 _atom_site_occupancy
  C  C0  1  0.68819300  0.81180700  0.68819300  1
  C  C1  1  0.31180700  0.18819300  0.31180700  1
  C  C2  1  0.50000000  0.50000000  0.50000000  1
  Ni  Ni3  1  0.00000000  0.50000000  0.00000000  1
  Cu  Cu4  1  0.00000000  0.00000000  0.00000000  1
  C  C5  1  0.22922300  0.73901800  0.77077700  1
  C  C6  1  0.23272100  0.76727900  0.23272100  1
  C  C7  1  0.76727900  0.23272100  0.76727900  1
  C  C8  1  0.22922300  0.26098200  0.77077700  1
  C  C9  1  0.77077700  0.26098200  0.22922300  1
  C  C10  1  0.77077700  0.73901800  0.22922300  1
