# generated using pymatgen
data_Cu4Ni2C9
_symmetry_space_group_name_H-M   'P 1'
_cell_length_a   7.11389798
_cell_length_b   6.81584617
_cell_length_c   6.81373812
_cell_angle_alpha   59.99330123
_cell_angle_beta   61.39363206
_cell_angle_gamma   61.37015467
_symmetry_Int_Tables_number   1
_chemical_formula_structural   Cu4Ni2C9
_chemical_formula_sum   'Cu4 Ni2 C9'
_cell_volume   238.36210001
_cell_formula_units_Z   1
loop_
 _symmetry_equiv_pos_site_id
 _symmetry_equiv_pos_as_xyz
  1  'x, y, z'
loop_
 _atom_site_type_symbol
 _atom_site_label
 _atom_site_symmetry_multiplicity
 _atom_site_fract_x
 _atom_site_fract_y
 _atom_site_fract_z
 _atom_site_occupancy
  C  C0  1  0.50000000  0.00000000  0.00000000  1
  Ni  Ni1  1  0.93908900  0.85364600  0.85366500  1
  Ni  Ni2  1  0.06091200  0.14635200  0.14633600  1
  Cu  Cu3  1  0.50000000  0.50000000  0.50000000  1
  Cu  Cu4  1  0.50000000  0.50000000  0.00000000  1
  Cu  Cu5  1  0.00000000  0.50000000  0.50000000  1
  Cu  Cu6  1  0.50000000  0.99999900  0.50000000  1
  C  C7  1  0.73684300  0.73703800  0.73731900  1
  C  C8  1  0.26286800  0.26315200  0.71095200  1
  C  C9  1  0.26327500  0.71135000  0.26261300  1
  C  C10  1  0.67895100  0.27359300  0.27374600  1
  C  C11  1  0.73672500  0.28865000  0.73738700  1
  C  C12  1  0.32105100  0.72640600  0.72625300  1
  C  C13  1  0.26315500  0.26296200  0.26268100  1
  C  C14  1  0.73713200  0.73684700  0.28904900  1
