# generated using pymatgen
data_CuNiC12
_symmetry_space_group_name_H-M   'P 1'
_cell_length_a   7.15394069
_cell_length_b   7.00569762
_cell_length_c   7.15813529
_cell_angle_alpha   60.70199854
_cell_angle_beta   61.76289355
_cell_angle_gamma   60.68313885
_symmetry_Int_Tables_number   1
_chemical_formula_structural   CuNiC12
_chemical_formula_sum   'Cu1 Ni1 C12'
_cell_volume   259.61233382
_cell_formula_units_Z   1
loop_
 _symmetry_equiv_pos_site_id
 _symmetry_equiv_pos_as_xyz
  1  'x, y, z'
loop_
 _atom_site_type_symbol
 _atom_site_label
 _atom_site_symmetry_multiplicity
 _atom_site_fract_x
 _atom_site_fract_y
 _atom_site_fract_z
 _atom_site_occupancy
  Ni  Ni0  1  0.00000000  0.00000000  0.50000000  1
  C  C1  1  0.00000000  0.50000000  0.50000000  1
  C  C2  1  0.50000000  0.50000000  0.00000000  1
  C  C3  1  0.50000000  0.50000000  0.50000000  1
  C  C4  1  0.50000000  0.00000000  0.50000000  1
  Cu  Cu5  1  0.50000000  0.00000000  0.00000000  1
  C  C6  1  0.26428200  0.23752700  0.26342200  1
  C  C7  1  0.28101100  0.25004500  0.71889900  1
  C  C8  1  0.26428200  0.73476900  0.26342200  1
  C  C9  1  0.71628600  0.25347600  0.27676200  1
  C  C10  1  0.28371400  0.74652400  0.72323800  1
  C  C11  1  0.71898900  0.74995500  0.28110100  1
  C  C12  1  0.73571800  0.26523100  0.73657800  1
  C  C13  1  0.73571800  0.76247300  0.73657800  1
