# generated using pymatgen
data_CuNi2C7
_symmetry_space_group_name_H-M   'P 1'
_cell_length_a   10.35339760
_cell_length_b   10.35339760
_cell_length_c   10.35339790
_cell_angle_alpha   33.65900677
_cell_angle_beta   33.65900677
_cell_angle_gamma   33.65901300
_symmetry_Int_Tables_number   1
_chemical_formula_structural   CuNi2C7
_chemical_formula_sum   'Cu2 Ni4 C14'
_cell_volume   303.72064715
_cell_formula_units_Z   2
loop_
 _symmetry_equiv_pos_site_id
 _symmetry_equiv_pos_as_xyz
  1  'x, y, z'
loop_
 _atom_site_type_symbol
 _atom_site_label
 _atom_site_symmetry_multiplicity
 _atom_site_fract_x
 _atom_site_fract_y
 _atom_site_fract_z
 _atom_site_occupancy
  Ni  Ni0  1  0.87237800  0.87237800  0.87237800  1
  Ni  Ni1  1  0.12762200  0.12762200  0.12762200  1
  Ni  Ni2  1  0.28297000  0.28297000  0.28297000  1
  Ni  Ni3  1  0.71703000  0.71703000  0.71703000  1
  Cu  Cu4  1  0.40386300  0.40386300  0.40386300  1
  Cu  Cu5  1  0.59613700  0.59613700  0.59613700  1
  C  C6  1  0.00000000  0.00000000  0.00000000  1
  C  C7  1  0.50000000  0.50000000  0.50000000  1
  C  C8  1  0.80448300  0.80448300  0.27617900  1
  C  C9  1  0.27617900  0.80448300  0.80448300  1
  C  C10  1  0.80448300  0.27617900  0.80448300  1
  C  C11  1  0.19551700  0.72382100  0.19551700  1
  C  C12  1  0.19551700  0.19551700  0.72382100  1
  C  C13  1  0.72382100  0.19551700  0.19551700  1
  C  C14  1  0.16139600  0.60774100  0.60774100  1
  C  C15  1  0.60774100  0.60774100  0.16139600  1
  C  C16  1  0.60774100  0.16139600  0.60774100  1
  C  C17  1  0.39225900  0.83860400  0.39225900  1
  C  C18  1  0.83860400  0.39225900  0.39225900  1
  C  C19  1  0.39225900  0.39225900  0.83860400  1
