# generated using pymatgen
data_Cu2NiC10
_symmetry_space_group_name_H-M   'P 1'
_cell_length_a   5.26203867
_cell_length_b   5.26178483
_cell_length_c   6.46654300
_cell_angle_alpha   90.00000000
_cell_angle_beta   90.00000000
_cell_angle_gamma   113.43298651
_symmetry_Int_Tables_number   1
_chemical_formula_structural   Cu2NiC10
_chemical_formula_sum   'Cu2 Ni1 C10'
_cell_volume   164.27731179
_cell_formula_units_Z   1
loop_
 _symmetry_equiv_pos_site_id
 _symmetry_equiv_pos_as_xyz
  1  'x, y, z'
loop_
 _atom_site_type_symbol
 _atom_site_label
 _atom_site_symmetry_multiplicity
 _atom_site_fract_x
 _atom_site_fract_y
 _atom_site_fract_z
 _atom_site_occupancy
  Ni  Ni0  1  0.34047700  0.65950800  0.75000000  1
  Cu  Cu1  1  0.99959800  0.00040600  0.49467600  1
  Cu  Cu2  1  0.99959800  0.00040600  0.00532400  1
  C  C3  1  0.65563900  0.34435100  0.75000000  1
  C  C4  1  0.35866600  0.64127700  0.25000000  1
  C  C5  1  0.75877900  0.24121300  0.53546800  1
  C  C6  1  0.24182300  0.75818300  0.47442100  1
  C  C7  1  0.75877900  0.24121300  0.96453200  1
  C  C8  1  0.24182300  0.75818300  0.02557900  1
  C  C9  1  0.74930700  0.72214200  0.75000000  1
  C  C10  1  0.71746200  0.78732800  0.25000000  1
  C  C11  1  0.21270200  0.28261300  0.25000000  1
  C  C12  1  0.27784500  0.25067900  0.75000000  1
