# generated using pymatgen
data_Cu(NiC11)3
_symmetry_space_group_name_H-M   'P 1'
_cell_length_a   9.12523584
_cell_length_b   9.14421055
_cell_length_c   23.43686356
_cell_angle_alpha   89.80322069
_cell_angle_beta   90.17910612
_cell_angle_gamma   120.37381065
_symmetry_Int_Tables_number   1
_chemical_formula_structural   Cu(NiC11)3
_chemical_formula_sum   'Cu3 Ni9 C99'
_cell_volume   1687.20974062
_cell_formula_units_Z   3
loop_
 _symmetry_equiv_pos_site_id
 _symmetry_equiv_pos_as_xyz
  1  'x, y, z'
loop_
 _atom_site_type_symbol
 _atom_site_label
 _atom_site_symmetry_multiplicity
 _atom_site_fract_x
 _atom_site_fract_y
 _atom_site_fract_z
 _atom_site_occupancy
  Ni  Ni0  1  0.35970564  0.35309989  0.24621443  1
  Ni  Ni1  1  0.63321495  0.62882397  0.74981976  1
  Ni  Ni2  1  0.96983608  0.29707525  0.41601279  1
  Ni  Ni3  1  0.00004119  0.98713791  0.50298977  1
  Ni  Ni4  1  0.99978809  0.99997991  0.00345132  1
  Ni  Ni5  1  0.66653992  0.31926156  0.83593221  1
  Ni  Ni6  1  0.66839144  0.33379693  0.32868560  1
  Ni  Ni7  1  0.33233407  0.68009888  0.16495754  1
  Ni  Ni8  1  0.31739256  0.66626821  0.66594369  1
  Cu  Cu9  1  0.99470752  0.98224487  0.35500346  1
  Cu  Cu10  1  0.66810260  0.32210688  0.68473696  1
  Cu  Cu11  1  0.67938218  0.33377142  0.17499399  1
  C  C12  1  0.00397087  0.00314415  0.85740810  1
  C  C13  1  0.00349189  0.00489622  0.64696387  1
  C  C14  1  0.99611067  0.99674060  0.14665524  1
  C  C15  1  0.66588108  0.33464286  0.98246451  1
  C  C16  1  0.65897199  0.33428509  0.48373906  1
  C  C17  1  0.33426813  0.66451998  0.01455900  1
  C  C18  1  0.33937204  0.66879184  0.52050267  1
  C  C19  1  0.33707650  0.67694248  0.31365208  1
  C  C20  1  0.32601678  0.66702126  0.81569218  1
  C  C21  1  0.29309083  0.99374461  0.24802223  1
  C  C22  1  0.69096105  0.70126021  0.24789451  1
  C  C23  1  0.00940273  0.30139196  0.25336552  1
  C  C24  1  0.28213734  0.29479179  0.75307086  1
  C  C25  1  0.00994531  0.72463658  0.75276251  1
  C  C26  1  0.71128147  0.98907044  0.75383595  1
  C  C27  1  0.96762384  0.32929636  0.57984877  1
  C  C28  1  0.35958272  0.02983825  0.58188466  1
  C  C29  1  0.67132709  0.63665000  0.58538621  1
  C  C30  1  0.97561703  0.64409508  0.07917085  1
  C  C31  1  0.66816697  0.02769014  0.07956925  1
  C  C32  1  0.36068470  0.33157391  0.08255233  1
  C  C33  1  0.62354258  0.66176110  0.91452189  1
  C  C34  1  0.03620618  0.37450460  0.91665468  1
  C  C35  1  0.33812778  0.96114197  0.91649893  1
  C  C36  1  0.61693865  0.96768388  0.41967765  1
  C  C37  1  0.34650715  0.38922980  0.41728297  1
  C  C38  1  0.03984057  0.65153337  0.42065408  1
  C  C39  1  0.21810789  0.02020407  0.30227014  1
  C  C40  1  0.78734173  0.77360862  0.30310326  1
  C  C41  1  0.99577645  0.21341870  0.31051778  1
  C  C42  1  0.18836785  0.18891582  0.80561943  1
  C  C43  1  0.00135201  0.81997113  0.80503098  1
  C  C44  1  0.81594646  -0.00417262  0.80604249  1
  C  C45  1  0.79909368  0.97457697  0.69871326  1
  C  C46  1  0.18230469  0.20500434  0.69783011  1
  C  C47  1  0.02533010  0.82624656  0.69749379  1
  C  C48  1  0.79266643  0.81172767  0.19540582  1
  C  C49  1  0.02341411  0.19657596  0.20223508  1
  C  C50  1  0.17856045  0.97670203  0.19553566  1
  C  C51  1  0.90034720  0.36552253  0.63387306  1
  C  C52  1  0.45872008  0.09304379  0.63712441  1
  C  C53  1  0.63827114  0.54362250  0.64223603  1
  C  C54  1  0.92377530  0.55088235  0.13575461  1
  C  C55  1  0.62594521  0.07948176  0.13581066  1
  C  C56  1  0.44995357  0.36708310  0.14014600  1
  C  C57  1  0.46862835  0.31039247  0.03459953  1
  C  C58  1  0.84724114  0.53802142  0.03064680  1
  C  C59  1  0.69176486  0.15574550  0.03094386  1
  C  C60  1  0.46023876  0.15191921  0.53143649  1
  C  C61  1  0.68994385  0.53222225  0.53569721  1
  C  C62  1  0.85081930  0.30683772  0.52746752  1
  C  C63  1  0.53317811  0.68622794  0.96504162  1
  C  C64  1  0.14821636  0.46041342  0.96818598  1
  C  C65  1  0.31274034  0.84858448  0.96768138  1
  C  C66  1  0.52132528  0.86098032  0.47135259  1
  C  C67  1  0.34092748  0.49161004  0.46766292  1
  C  C68  1  0.14500273  0.65412477  0.47151569  1
  C  C69  1  0.12907500  0.64102538  0.36474719  1
  C  C70  1  0.51784084  0.87550819  0.36406592  1
  C  C71  1  0.36064677  0.48671496  0.36041040  1
  C  C72  1  0.12547290  0.48654671  0.86285006  1
  C  C73  1  0.36021805  0.87360358  0.86242660  1
  C  C74  1  0.51683426  0.63926761  0.85918162  1
  C  C75  1  0.01622776  0.80425308  0.42381675  1
  C  C76  1  0.79896438  -0.00043568  0.42086415  1
  C  C77  1  0.18193002  0.21684077  0.41905260  1
  C  C78  1  0.01691238  0.19678845  0.91017038  1
  C  C79  1  0.17982585  0.98122463  0.91014380  1
  C  C80  1  0.80381659  0.82051781  0.90959473  1
  C  C81  1  0.97688183  0.16436687  0.58655421  1
  C  C82  1  0.18536658  0.02097260  0.58613674  1
  C  C83  1  0.83628366  0.81302023  0.58789983  1
  C  C84  1  0.98300586  0.81765457  0.08394165  1
  C  C85  1  0.83483461  0.02059299  0.08517321  1
  C  C86  1  0.18349015  0.16671935  0.08598325  1
  C  C87  1  0.68871194  0.14313121  0.75423347  1
  C  C88  1  0.46470478  0.32600638  0.75250314  1
  C  C89  1  0.84475277  0.55153915  0.75184923  1
  C  C90  1  0.64962118  0.51626227  0.24325233  1
  C  C91  1  0.86162683  0.33322498  0.24752496  1
  C  C92  1  0.46992598  0.15091709  0.24236188  1
  C  C93  1  0.63959187  0.50183489  0.92302444  1
  C  C94  1  0.85896210  0.35666434  0.92298814  1
  C  C95  1  0.49778416  0.13955852  0.92319403  1
  C  C96  1  0.63012493  0.14481279  0.42258449  1
  C  C97  1  0.50675989  0.37064632  0.42316026  1
  C  C98  1  0.86338717  0.48256986  0.42298608  1
  C  C99  1  0.33536256  0.48235420  0.06784570  1
  C  C100  1  0.15377225  0.67302903  0.06575658  1
  C  C101  1  0.52056745  0.84859199  0.06579391  1
  C  C102  1  0.32892965  0.84987895  0.57161521  1
  C  C103  1  0.52043331  0.66441923  0.57347894  1
  C  C104  1  0.15071925  0.47866189  0.57115944  1
  C  C105  1  0.30182457  0.82794592  0.25314027  1
  C  C106  1  0.51691455  0.69752816  0.25134104  1
  C  C107  1  0.18392173  0.47516807  0.25389817  1
  C  C108  1  0.29747967  0.47406341  0.75635088  1
  C  C109  1  0.16971879  0.70363107  0.75680023  1
  C  C110  1  0.53392705  0.81970616  0.75680483  1
