# generated using pymatgen
data_Cu2Ni4C13
_symmetry_space_group_name_H-M   'P 1'
_cell_length_a   5.14019487
_cell_length_b   5.14323418
_cell_length_c   8.55513216
_cell_angle_alpha   88.32276094
_cell_angle_beta   88.31216386
_cell_angle_gamma   75.57396529
_symmetry_Int_Tables_number   1
_chemical_formula_structural   Cu2Ni4C13
_chemical_formula_sum   'Cu2 Ni4 C13'
_cell_volume   218.89148026
_cell_formula_units_Z   1
loop_
 _symmetry_equiv_pos_site_id
 _symmetry_equiv_pos_as_xyz
  1  'x, y, z'
loop_
 _atom_site_type_symbol
 _atom_site_label
 _atom_site_symmetry_multiplicity
 _atom_site_fract_x
 _atom_site_fract_y
 _atom_site_fract_z
 _atom_site_occupancy
  C  C0  1  0.19466499  0.19934819  0.17386872  1
  Ni  Ni1  1  0.90595194  0.90576106  0.35585319  1
  Ni  Ni2  1  0.08491209  0.08535685  0.66003833  1
  Ni  Ni3  1  0.52995506  0.53126660  0.16793261  1
  Ni  Ni4  1  0.49030484  0.49084750  0.82405673  1
  Cu  Cu5  1  0.91975510  0.92024904  0.99004075  1
  Cu  Cu6  1  0.49714095  0.49729025  0.50129687  1
  C  C7  1  0.17950987  0.81810962  0.16566871  1
  C  C8  1  0.19328175  0.81840583  0.83402542  1
  C  C9  1  0.19791313  0.80587490  0.50028945  1
  C  C10  1  0.36568348  0.36792877  1.01371405  1
  C  C11  1  0.36056641  0.36275448  0.33024380  1
  C  C12  1  0.32341990  0.32386155  0.65840531  1
  C  C13  1  0.67428310  0.67301923  0.33845365  1
  C  C14  1  0.64089525  0.64058148  0.65454197  1
  C  C15  1  0.69795202  0.69697757  1.00302276  1
  C  C16  1  0.80537275  0.19775473  0.50010549  1
  C  C17  1  0.81497850  0.17912932  0.16564939  1
  C  C18  1  0.81790485  0.19381605  0.83421982  1
