# generated using pymatgen
data_Cu2Ni2C9
_symmetry_space_group_name_H-M   'P 1'
_cell_length_a   5.12363140
_cell_length_b   4.89504142
_cell_length_c   5.88522700
_cell_angle_alpha   90.00000000
_cell_angle_beta   90.00000000
_cell_angle_gamma   88.66270487
_symmetry_Int_Tables_number   1
_chemical_formula_structural   Cu2Ni2C9
_chemical_formula_sum   'Cu2 Ni2 C9'
_cell_volume   147.56357326
_cell_formula_units_Z   1
loop_
 _symmetry_equiv_pos_site_id
 _symmetry_equiv_pos_as_xyz
  1  'x, y, z'
loop_
 _atom_site_type_symbol
 _atom_site_label
 _atom_site_symmetry_multiplicity
 _atom_site_fract_x
 _atom_site_fract_y
 _atom_site_fract_z
 _atom_site_occupancy
  C  C0  1  0.50000000  0.25000000  0.08721300  1
  Ni  Ni1  1  0.50000000  0.25000000  0.62947300  1
  Ni  Ni2  1  0.50000000  0.75000000  0.36636600  1
  Cu  Cu3  1  0.00000000  0.25000000  0.19120800  1
  Cu  Cu4  1  0.00000000  0.75000000  0.82049600  1
  C  C5  1  0.75794600  0.91101700  0.63263500  1
  C  C6  1  0.24205400  0.58898300  0.63263500  1
  C  C7  1  0.28472100  0.10267000  0.37032000  1
  C  C8  1  0.71527900  0.39733000  0.37032000  1
  C  C9  1  0.78659300  0.94703000  0.10462700  1
  C  C10  1  0.21340700  0.55297000  0.10462700  1
  C  C11  1  0.22733900  0.06138000  0.89712400  1
  C  C12  1  0.77266100  0.43862000  0.89712400  1
