# generated using pymatgen
data_Cu12NiC61
_symmetry_space_group_name_H-M   'P 1'
_cell_length_a   17.78880983
_cell_length_b   8.90794548
_cell_length_c   22.94825544
_cell_angle_alpha   90.01163642
_cell_angle_beta   90.00374441
_cell_angle_gamma   120.02093255
_symmetry_Int_Tables_number   1
_chemical_formula_structural   Cu12NiC61
_chemical_formula_sum   'Cu36 Ni3 C183'
_cell_volume   3148.56808046
_cell_formula_units_Z   3
loop_
 _symmetry_equiv_pos_site_id
 _symmetry_equiv_pos_as_xyz
  1  'x, y, z'
loop_
 _atom_site_type_symbol
 _atom_site_label
 _atom_site_symmetry_multiplicity
 _atom_site_fract_x
 _atom_site_fract_y
 _atom_site_fract_z
 _atom_site_occupancy
  C  C0  1  0.69023529  0.36763954  0.24261291  1
  C  C1  1  0.99221586  0.62003659  0.24246777  1
  C  C2  1  0.99224246  0.36202309  0.73960212  1
  C  C3  1  0.49249335  0.36210501  0.73966402  1
  C  C4  1  0.18839290  0.01097292  0.73970931  1
  C  C5  1  0.68852514  0.01140800  0.73991414  1
  C  C6  1  0.99995477  0.99908895  0.50038318  1
  C  C7  1  0.49998344  0.00016408  0.50064113  1
  C  C8  1  0.99780498  0.99635526  0.00195578  1
  C  C9  1  0.50234666  0.00452837  0.00115341  1
  C  C10  1  0.33289284  0.34952346  0.82749541  1
  C  C11  1  0.83258177  0.34896195  0.82922415  1
  C  C12  1  0.33310631  0.33380097  0.33607237  1
  C  C13  1  0.83299691  0.31478535  0.32939374  1
  C  C14  1  0.17109324  0.66374729  0.16540262  1
  C  C15  1  0.67044847  0.68766184  0.16452132  1
  C  C16  1  0.17471505  0.66455802  0.65945845  1
  C  C17  1  0.67480875  0.66488763  0.65971476  1
  C  C18  1  0.00053932  0.00370405  0.35448478  1
  C  C19  1  0.49902006  0.99788186  0.35463626  1
  C  C20  1  0.99943386  0.99793839  0.85516779  1
  C  C21  1  0.49963722  0.99773626  0.85515143  1
  C  C22  1  0.99834340  0.99696762  0.64419889  1
  C  C23  1  0.49862255  0.99674073  0.64419014  1
  C  C24  1  0.99755223  0.00138082  0.14558911  1
  C  C25  1  0.50117330  0.99923623  0.14524175  1
  C  C26  1  0.33344931  0.33427771  0.18686346  1
  C  C27  1  0.33331883  0.33213281  0.97937743  1
  C  C28  1  0.83357311  0.33303526  0.98251860  1
  C  C29  1  0.33332122  0.33288040  0.48289846  1
  C  C30  1  0.83346943  0.33459253  0.48175486  1
  C  C31  1  0.16584205  0.66671432  0.02089795  1
  C  C32  1  0.66681520  0.66518069  0.02057551  1
  C  C33  1  0.16601112  0.66696303  0.51967968  1
  C  C34  1  0.66632222  0.66670080  0.51968834  1
  C  C35  1  0.16923189  0.66550192  0.31379214  1
  C  C36  1  0.66614832  0.67259509  0.31429735  1
  C  C37  1  0.16857531  0.66538895  0.81489602  1
  C  C38  1  0.66896567  0.66618713  0.81501425  1
  Ni  Ni39  1  0.33296570  0.34285814  0.67764373  1
  Ni  Ni40  1  0.83291259  0.34244612  0.67763824  1
  Ni  Ni41  1  0.83308074  0.32151365  0.18000674  1
  Cu  Cu42  1  0.14464530  -0.00016073  0.25006582  1
  Cu  Cu43  1  0.64602917  0.00106625  0.24997941  1
  Cu  Cu44  1  0.35547119  0.71052966  0.24946011  1
  Cu  Cu45  1  0.85388082  0.70972285  0.25051716  1
  Cu  Cu46  1  0.99889077  0.29149772  0.25030000  1
  Cu  Cu47  1  0.49971734  0.28889997  0.25038854  1
  Cu  Cu48  1  0.14548428  0.28988863  0.75031731  1
  Cu  Cu49  1  0.64538681  0.29012251  0.75032051  1
  Cu  Cu50  1  0.99858937  0.70722897  0.75091971  1
  Cu  Cu51  1  0.49859262  0.70708008  0.75094803  1
  Cu  Cu52  1  0.35434164  0.99857977  0.75044394  1
  Cu  Cu53  1  0.85421535  0.99858723  0.75037694  1
  Cu  Cu54  1  0.47994299  0.33450343  0.58667960  1
  Cu  Cu55  1  0.97958248  0.33475626  0.58638525  1
  Cu  Cu56  1  0.18790660  0.04042407  0.58686835  1
  Cu  Cu57  1  0.68830397  0.04096205  0.58649851  1
  Cu  Cu58  1  0.33199432  0.62324805  0.58451708  1
  Cu  Cu59  1  0.83208361  0.62306709  0.58448409  1
  Cu  Cu60  1  0.47822686  0.62293352  0.08293192  1
  Cu  Cu61  1  0.97913880  0.62574609  0.08668065  1
  Cu  Cu62  1  0.33348730  0.04350886  0.08340284  1
  Cu  Cu63  1  0.83237410  0.04138051  0.08425071  1
  Cu  Cu64  1  0.18817487  0.33323339  0.08318862  1
  Cu  Cu65  1  0.68802013  0.33425905  0.08649697  1
  Cu  Cu66  1  0.31272122  0.66620546  0.91830045  1
  Cu  Cu67  1  0.81281098  0.66441141  0.91791472  1
  Cu  Cu68  1  0.02013395  0.37533534  0.91631824  1
  Cu  Cu69  1  0.52036599  0.37502515  0.91578924  1
  Cu  Cu70  1  0.16753869  0.95876987  0.91603012  1
  Cu  Cu71  1  0.66780592  0.95951655  0.91654363  1
  Cu  Cu72  1  0.31198871  0.95948109  0.41696371  1
  Cu  Cu73  1  0.81250017  0.95993668  0.41729673  1
  Cu  Cu74  1  0.16782070  0.37547018  0.41744332  1
  Cu  Cu75  1  0.66752977  0.37636978  0.41509573  1
  Cu  Cu76  1  0.02040783  0.66513261  0.41497592  1
  Cu  Cu77  1  0.51959068  0.66454724  0.41719378  1
  C  C78  1  0.10199606  0.02306571  0.30504477  1
  C  C79  1  0.59698362  0.01848774  0.30337869  1
  C  C80  1  0.40939158  0.79696631  0.30445387  1
  C  C81  1  0.91139730  0.80626650  0.30375909  1
  C  C82  1  0.48747887  0.17842386  0.30494235  1
  C  C83  1  0.99322477  0.18403930  0.30473354  1
  C  C84  1  0.09813779  0.17715646  0.80451150  1
  C  C85  1  0.59804652  0.17721015  0.80446412  1
  C  C86  1  0.49160498  0.80038088  0.80564293  1
  C  C87  1  0.99177883  0.80082882  0.80561967  1
  C  C88  1  0.41029411  0.01574209  0.80437301  1
  C  C89  1  0.91026656  0.01584002  0.80429306  1
  C  C90  1  0.39806505  0.97634936  0.69567356  1
  C  C91  1  0.89789875  0.97609462  0.69565694  1
  C  C92  1  0.08671701  0.20327369  0.69652164  1
  C  C93  1  0.58666178  0.20337329  0.69651375  1
  C  C94  1  0.01457486  0.82462984  0.69717709  1
  C  C95  1  0.51436455  0.82431342  0.69718743  1
  C  C96  1  0.39943916  0.82118895  0.19515829  1
  C  C97  1  0.89748839  0.81918590  0.19544206  1
  C  C98  1  0.01047099  0.20350910  0.19564416  1
  C  C99  1  0.51404976  0.20218717  0.19652780  1
  C  C100  1  0.08661293  0.97174410  0.19647301  1
  C  C101  1  0.59045490  0.97789342  0.19504468  1
  C  C102  1  0.44511518  0.36084521  0.64439206  1
  C  C103  1  0.94500987  0.36086126  0.64434671  1
  C  C104  1  0.23658943  0.10898287  0.64443955  1
  C  C105  1  0.73665838  0.10910998  0.64431624  1
  C  C106  1  0.31582510  0.52057433  0.64026410  1
  C  C107  1  0.81596786  0.52054086  0.64034196  1
  C  C108  1  0.43404187  0.51281859  0.13754014  1
  C  C109  1  0.94456583  0.52913650  0.14417146  1
  C  C110  1  0.32246521  0.13254372  0.13779316  1
  C  C111  1  0.81614076  0.11233120  0.13974688  1
  C  C112  1  0.24378675  0.35628438  0.13774766  1
  C  C113  1  0.73653065  0.36269351  0.14397586  1
  C  C114  1  0.23250576  0.31117844  0.02882065  1
  C  C115  1  0.73520633  0.31198827  0.03329219  1
  C  C116  1  0.42318204  0.53394895  0.02856204  1
  C  C117  1  0.92118571  0.53030948  0.03342792  1
  C  C118  1  0.34460501  0.15353889  0.02881884  1
  C  C119  1  0.84441429  0.15314278  0.02953097  1
  C  C120  1  0.23558233  0.15784183  0.53397962  1
  C  C121  1  0.73597044  0.15868969  0.53370766  1
  C  C122  1  0.34389309  0.53434034  0.53005636  1
  C  C123  1  0.84402842  0.53484105  0.52991916  1
  C  C124  1  0.42144501  0.31389200  0.53381643  1
  C  C125  1  0.92123070  0.31462318  0.53357221  1
  C  C126  1  0.26795770  0.68849227  0.97204941  1
  C  C127  1  0.76787049  0.68729774  0.97143726  1
  C  C128  1  0.07858766  0.46864852  0.96908262  1
  C  C129  1  0.57784828  0.46823027  0.96866338  1
  C  C130  1  0.15737644  0.84449727  0.96898634  1
  C  C131  1  0.65628833  0.84321612  0.96919417  1
  C  C132  1  0.26761595  0.84728691  0.47075063  1
  C  C133  1  0.76796051  0.84776790  0.47102347  1
  C  C134  1  0.15637768  0.46494355  0.47110061  1
  C  C135  1  0.65585353  0.46914274  0.46794804  1
  C  C136  1  0.07837830  0.68869205  0.46797207  1
  C  C137  1  0.57592494  0.68881566  0.47095103  1
  C  C138  1  0.06314763  0.64406826  0.35877549  1
  C  C139  1  0.56421028  0.64328180  0.36232806  1
  C  C140  1  0.25699193  0.87051492  0.36191142  1
  C  C141  1  0.75688741  0.87054658  0.36244107  1
  C  C142  1  0.17858028  0.48606569  0.36247159  1
  C  C143  1  0.67788399  0.48207313  0.35880975  1
  C  C144  1  0.06292227  0.48145731  0.85992242  1
  C  C145  1  0.56283987  0.48106350  0.85946684  1
  C  C146  1  0.17784627  0.87348819  0.85975346  1
  C  C147  1  0.67798989  0.87380171  0.86010210  1
  C  C148  1  0.25742303  0.64445323  0.86317475  1
  C  C149  1  0.75768443  0.64343621  0.86274066  1
  C  C150  1  0.01152468  0.82861253  0.40994662  1
  C  C151  1  0.51074386  0.82786174  0.41107473  1
  C  C152  1  0.40261178  0.97710378  0.41103824  1
  C  C153  1  0.90315305  0.97821993  0.41097928  1
  C  C154  1  0.08605615  0.19467575  0.41160332  1
  C  C155  1  0.58555939  0.19457100  0.41005568  1
  C  C156  1  0.01133993  0.19439621  0.91111886  1
  C  C157  1  0.51141971  0.19407629  0.91115334  1
  C  C158  1  0.08585719  0.97659572  0.91162217  1
  C  C159  1  0.58594524  0.97712728  0.91168776  1
  C  C160  1  0.40301103  0.82893770  0.91235169  1
  C  C161  1  0.90310578  0.82782416  0.91190920  1
  C  C162  1  0.48851074  0.16892010  0.58846738  1
  C  C163  1  0.98857202  0.16951887  0.58839612  1
  C  C164  1  0.09640654  0.02297378  0.58926680  1
  C  C165  1  0.59663105  0.02314988  0.58911954  1
  C  C166  1  0.41510521  0.80567823  0.58831387  1
  C  C167  1  0.91505641  0.80562761  0.58837292  1
  C  C168  1  0.48685687  0.80394990  0.08846905  1
  C  C169  1  0.98909482  0.80963029  0.08859339  1
  C  C170  1  0.41497901  0.02522538  0.08949245  1
  C  C171  1  0.91525623  0.02395513  0.08763342  1
  C  C172  1  0.09743838  0.17089615  0.08941963  1
  C  C173  1  0.59598655  0.16876459  0.08819655  1
  C  C174  1  0.34458070  0.16011379  0.74841292  1
  C  C175  1  0.84445540  0.16011456  0.74828588  1
  C  C176  1  0.23443703  0.30520641  0.74676814  1
  C  C177  1  0.73446105  0.30535167  0.74678710  1
  C  C178  1  0.42151786  0.52352457  0.74734929  1
  C  C179  1  0.92154510  0.52358475  0.74738919  1
  C  C180  1  0.34550599  0.52835044  0.24371299  1
  C  C181  1  0.84493816  0.52952068  0.24838790  1
  C  C182  1  0.42016012  0.31254644  0.24374735  1
  C  C183  1  0.92004019  0.31661461  0.24796588  1
  C  C184  1  0.23606646  0.15936136  0.24339510  1
  C  C185  1  0.73464821  0.16611236  0.24766037  1
  C  C186  1  0.32161664  0.50327594  0.92274862  1
  C  C187  1  0.82192584  0.50213483  0.92294001  1
  C  C188  1  0.43006402  0.35735220  0.92170310  1
  C  C189  1  0.93022193  0.35861977  0.92272266  1
  C  C190  1  0.24874288  0.13958974  0.92172465  1
  C  C191  1  0.74881440  0.14036237  0.92281169  1
  C  C192  1  0.32135108  0.14056129  0.42284168  1
  C  C193  1  0.82154472  0.14055131  0.42300836  1
  C  C194  1  0.24890746  0.35609040  0.42295670  1
  C  C195  1  0.74846405  0.35705403  0.42222536  1
  C  C196  1  0.42935492  0.50140059  0.42291490  1
  C  C197  1  0.93030349  0.50210267  0.42216374  1
  C  C198  1  0.17886420  0.49632515  0.07739968  1
  C  C199  1  0.67472379  0.49175254  0.07560531  1
  C  C200  1  0.07104076  0.64913348  0.07574240  1
  C  C201  1  0.56948890  0.64368553  0.07748338  1
  C  C202  1  0.25196579  0.86190580  0.07770661  1
  C  C203  1  0.75339055  0.85638698  0.07463714  1
  C  C204  1  0.17519804  0.85703278  0.57608234  1
  C  C205  1  0.67560753  0.85742049  0.57588450  1
  C  C206  1  0.25364623  0.65167272  0.57476229  1
  C  C207  1  0.75346194  0.65079692  0.57482000  1
  C  C208  1  0.07141153  0.49388967  0.57613425  1
  C  C209  1  0.57183660  0.49304904  0.57627885  1
  C  C210  1  0.15012223  0.83117877  0.25561729  1
  C  C211  1  0.65308030  0.83505922  0.25579248  1
  C  C212  1  0.26422729  0.69175448  0.25484439  1
  C  C213  1  0.76150624  0.68743754  0.25588619  1
  C  C214  1  0.08239752  0.47597622  0.25515739  1
  C  C215  1  0.58410858  0.46796929  0.25631316  1
  C  C216  1  0.14917028  0.46836863  0.75648217  1
  C  C217  1  0.64909318  0.46851066  0.75647620  1
  C  C218  1  0.08466965  0.69709799  0.75645378  1
  C  C219  1  0.58466040  0.69710216  0.75642463  1
  C  C220  1  0.26189470  0.83530590  0.75572086  1
  C  C221  1  0.76184409  0.83544026  0.75563850  1
