# generated using pymatgen
data_Cu11NiC105
_symmetry_space_group_name_H-M   'P 1'
_cell_length_a   9.05677027
_cell_length_b   9.05624359
_cell_length_c   22.55497571
_cell_angle_alpha   90.12426648
_cell_angle_beta   89.88017706
_cell_angle_gamma   120.12550187
_symmetry_Int_Tables_number   1
_chemical_formula_structural   Cu11NiC105
_chemical_formula_sum   'Cu11 Ni1 C105'
_cell_volume   1600.08300665
_cell_formula_units_Z   1
loop_
 _symmetry_equiv_pos_site_id
 _symmetry_equiv_pos_as_xyz
  1  'x, y, z'
loop_
 _atom_site_type_symbol
 _atom_site_label
 _atom_site_symmetry_multiplicity
 _atom_site_fract_x
 _atom_site_fract_y
 _atom_site_fract_z
 _atom_site_occupancy
  C  C0  1  0.36695598  0.36588130  0.25164859  1
  C  C1  1  0.63070609  0.61300706  0.74161378  1
  C  C2  1  0.98116130  0.36995290  0.74192603  1
  C  C3  1  0.38956190  0.01848538  0.74148985  1
  C  C4  1  0.31261695  0.33655799  0.58366236  1
  C  C5  1  0.02324912  0.68629715  0.58373413  1
  C  C6  1  0.66269056  0.97615892  0.58361685  1
  C  C7  1  0.30032432  0.96714795  0.08525091  1
  C  C8  1  0.70156275  0.03568315  0.91825139  1
  C  C9  1  0.00075054  0.00039847  0.49294835  1
  C  C10  1  0.00071362  0.00092208  0.00222275  1
  C  C11  1  0.66537000  0.34121372  0.82858536  1
  C  C12  1  0.67737548  0.33171011  0.33519938  1
  C  C13  1  0.33423014  0.66726426  0.16881309  1
  C  C14  1  0.33354960  0.66707443  0.66464438  1
  Ni  Ni15  1  0.66689434  0.33356205  0.68594252  1
  Cu  Cu16  1  0.99903936  0.99973898  0.35536083  1
  Cu  Cu17  1  0.00480113  0.99982006  0.85692796  1
  Cu  Cu18  1  0.99970567  0.99994371  0.64553042  1
  Cu  Cu19  1  0.99405418  0.99885967  0.14503830  1
  Cu  Cu20  1  0.67120873  0.33414865  0.18933864  1
  Cu  Cu21  1  0.66750328  0.33849424  0.97795971  1
  Cu  Cu22  1  0.66576521  0.33328689  0.47787974  1
  Cu  Cu23  1  0.33232141  0.66157593  0.02320864  1
  Cu  Cu24  1  0.33300471  0.66650895  0.51658257  1
  Cu  Cu25  1  0.33319618  0.67188072  0.31159646  1
  Cu  Cu26  1  0.33282928  0.66549501  0.81333799  1
  C  C27  1  0.28601454  0.99689986  0.24864222  1
  C  C28  1  0.71180694  0.71148017  0.25075646  1
  C  C29  1  0.99794388  0.28712802  0.25080075  1
  C  C30  1  0.28947639  0.29110919  0.75059263  1
  C  C31  1  0.00116754  0.71072628  0.75073361  1
  C  C32  1  0.71013740  -0.00087246  0.75230094  1
  C  C33  1  0.95597885  0.33559698  0.58589646  1
  C  C34  1  0.37928970  0.04327781  0.58611204  1
  C  C35  1  0.66340829  0.62043374  0.58600393  1
  C  C36  1  0.95464477  0.62184934  0.08344286  1
  C  C37  1  0.66967038  0.04735616  0.08180345  1
  C  C38  1  0.37971506  0.33496604  0.08489858  1
  C  C39  1  0.62062190  0.66358973  0.91677541  1
  C  C40  1  0.04365784  0.37835946  0.91691750  1
  C  C41  1  0.33146740  0.95465010  0.91877000  1
  C  C42  1  0.62590366  0.95941559  0.41605717  1
  C  C43  1  0.33449508  0.37565879  0.41435474  1
  C  C44  1  0.04097563  0.66614071  0.41574304  1
  C  C45  1  0.19124191  0.02927152  0.30494959  1
  C  C46  1  0.83104802  0.80673851  0.30809686  1
  C  C47  1  0.97400257  0.16851851  0.30838163  1
  C  C48  1  0.18204701  0.16951891  0.80691413  1
  C  C49  1  0.98405312  0.81642173  0.80702876  1
  C  C50  1  0.82560275  0.01456700  0.81028540  1
  C  C51  1  0.80380268  0.97006713  0.69288445  1
  C  C52  1  0.16938530  0.19986747  0.69081588  1
  C  C53  1  0.03123727  0.83166477  0.69109290  1
  C  C54  1  0.80918783  0.83073596  0.19234412  1
  C  C55  1  0.02845799  0.19210625  0.19312998  1
  C  C56  1  0.17442806  0.97435680  0.18835803  1
  C  C57  1  0.88974827  0.38008692  0.64539103  1
  C  C58  1  0.49051373  0.11068482  0.64539062  1
  C  C59  1  0.61943901  0.50952061  0.64532724  1
  C  C60  1  0.85767338  0.50294964  0.14099861  1
  C  C61  1  0.63778686  0.14324375  0.13820847  1
  C  C62  1  0.49154410  0.35903809  0.14448048  1
  C  C63  1  0.47757462  0.30573374  0.02784740  1
  C  C64  1  0.83638842  0.52420465  0.02519724  1
  C  C65  1  0.69259334  0.15861965  0.02157318  1
  C  C66  1  0.47212095  0.17150999  0.52949678  1
  C  C67  1  0.69932396  0.52783711  0.52943425  1
  C  C68  1  0.82774463  0.30050777  0.52947993  1
  C  C69  1  0.52420699  0.69559922  0.97248901  1
  C  C70  1  0.16569577  0.47804148  0.97336665  1
  C  C71  1  0.30876381  0.84011976  0.97719115  1
  C  C72  1  0.53109552  0.84485177  0.47594926  1
  C  C73  1  0.31415511  0.47300484  0.47374664  1
  C  C74  1  0.15650627  0.68728407  0.47552314  1
  C  C75  1  0.14210261  0.64287011  0.35937809  1
  C  C76  1  0.50261373  0.85665503  0.35963128  1
  C  C77  1  0.35711454  0.49216378  0.35612102  1
  C  C78  1  0.13650300  0.49326789  0.85696096  1
  C  C79  1  0.35931644  0.85939294  0.85990279  1
  C  C80  1  0.50497044  0.64052482  0.85677781  1
  C  C81  1  0.02730430  0.83769163  0.41046253  1
  C  C82  1  0.81207990  0.97489909  0.41151850  1
  C  C83  1  0.16374706  0.18784002  0.41105731  1
  C  C84  1  0.01862400  0.18653960  0.91234851  1
  C  C85  1  0.16369569  0.97524203  0.91173171  1
  C  C86  1  0.80568829  0.83903568  0.91169307  1
  C  C87  1  0.97417974  0.16124991  0.58893924  1
  C  C88  1  0.18666910  0.02481619  0.58892155  1
  C  C89  1  0.83778475  0.81332586  0.58900849  1
  C  C90  1  0.98060342  0.81399205  0.08738370  1
  C  C91  1  0.83768106  0.02676130  0.08894877  1
  C  C92  1  0.19323824  0.15971917  0.08792428  1
  C  C93  1  0.69155653  0.16526283  0.74968910  1
  C  C94  1  0.47340903  0.30843236  0.74921818  1
  C  C95  1  0.83445710  0.52647407  0.74889839  1
  C  C96  1  0.68637895  0.51908654  0.24500844  1
  C  C97  1  0.82876843  0.30571273  0.24363147  1
  C  C98  1  0.47355019  0.17222811  0.24385953  1
  C  C99  1  0.63854235  0.49459700  0.92235356  1
  C  C100  1  0.85244194  0.35360809  0.92114297  1
  C  C101  1  0.50720578  0.14000467  0.92166329  1
  C  C102  1  0.63941978  0.14494916  0.42332557  1
  C  C103  1  0.50560852  0.36076156  0.42382962  1
  C  C104  1  0.85512522  0.49445898  0.42360862  1
  C  C105  1  0.36019318  0.50380866  0.07666429  1
  C  C106  1  0.14691390  0.64647290  0.07844908  1
  C  C107  1  0.49380922  0.86010095  0.07760379  1
  C  C108  1  0.34448306  0.84715773  0.57548628  1
  C  C109  1  0.50191525  0.65465956  0.57526467  1
  C  C110  1  0.15261536  0.49691946  0.57503575  1
  C  C111  1  0.30740276  0.82876082  0.25536003  1
  C  C112  1  0.51929304  0.68566094  0.25465620  1
  C  C113  1  0.17350330  0.47298431  0.25514641  1
  C  C114  1  0.29687428  0.47706897  0.75390407  1
  C  C115  1  0.18027208  0.70446995  0.75482346  1
  C  C116  1  0.52275907  0.82016391  0.75438107  1
