# generated using pymatgen
data_Cu2NiC31
_symmetry_space_group_name_H-M   'P 1'
_cell_length_a   9.01661712
_cell_length_b   9.05729227
_cell_length_c   23.31347625
_cell_angle_alpha   89.47377609
_cell_angle_beta   90.08079958
_cell_angle_gamma   120.20828787
_symmetry_Int_Tables_number   1
_chemical_formula_structural   Cu2NiC31
_chemical_formula_sum   'Cu6 Ni3 C93'
_cell_volume   1645.29210636
_cell_formula_units_Z   3
loop_
 _symmetry_equiv_pos_site_id
 _symmetry_equiv_pos_as_xyz
  1  'x, y, z'
loop_
 _atom_site_type_symbol
 _atom_site_label
 _atom_site_symmetry_multiplicity
 _atom_site_fract_x
 _atom_site_fract_y
 _atom_site_fract_z
 _atom_site_occupancy
  C  C0  1  0.99156212  0.00179821  0.37058190  1
  C  C1  1  0.00469361  0.00302928  0.86496344  1
  C  C2  1  0.67781055  0.33766963  0.67425611  1
  C  C3  1  0.65513121  0.33431745  0.18422651  1
  C  C4  1  0.65280134  0.33048400  0.99317728  1
  C  C5  1  0.32955306  0.66390583  0.79983069  1
  Ni  Ni6  1  0.99153156  0.33968960  0.58006302  1
  Ni  Ni7  1  0.33969952  0.33532878  0.08454646  1
  Ni  Ni8  1  0.58309737  0.94423939  0.42160686  1
  Cu  Cu9  1  0.00250795  0.00784643  0.63682025  1
  Cu  Cu10  1  0.00337324  0.00832321  0.14764835  1
  Cu  Cu11  1  0.70853487  0.30290383  0.47765814  1
  Cu  Cu12  1  0.33025284  0.65886884  0.02394121  1
  Cu  Cu13  1  0.34044821  0.66268975  0.52038045  1
  Cu  Cu14  1  0.34939426  0.68376734  0.31750393  1
  C  C15  1  0.27364096  0.96493534  0.25261846  1
  C  C16  1  0.69466048  0.72465692  0.25162106  1
  C  C17  1  0.02827975  0.30706772  0.25061039  1
  C  C18  1  0.27278520  0.27220050  0.73931277  1
  C  C19  1  0.99946537  0.73425096  0.73973103  1
  C  C20  1  0.73038560  0.99855560  0.74032100  1
  C  C21  1  0.35089444  0.01866535  0.57810223  1
  C  C22  1  0.67275393  0.65397666  0.57824744  1
  C  C23  1  0.99698998  0.66565309  0.08479628  1
  C  C24  1  0.66584694  0.00186350  0.08460150  1
  C  C25  1  0.60560712  0.66768941  0.92424586  1
  C  C26  1  0.05506690  0.39227888  0.92492620  1
  C  C27  1  0.33608150  0.93545225  0.92541868  1
  C  C28  1  0.36775246  0.41506511  0.41942768  1
  C  C29  1  0.04335476  0.63321282  0.42086620  1
  C  C30  1  0.19564337  0.99423983  0.30268482  1
  C  C31  1  0.80386278  0.80510545  0.30119623  1
  C  C32  1  0.99545059  0.19721049  0.30114767  1
  C  C33  1  0.19219374  0.18276902  0.79367461  1
  C  C34  1  0.99505297  0.81611068  0.79360820  1
  C  C35  1  0.81983686  0.00687471  0.79428011  1
  C  C36  1  0.82137843  0.98918023  0.68812537  1
  C  C37  1  0.16932711  0.18110141  0.68768399  1
  C  C38  1  0.01304113  0.83695109  0.68662095  1
  C  C39  1  0.77092503  0.82986911  0.19743542  1
  C  C40  1  0.05582890  0.22478522  0.19783537  1
  C  C41  1  0.17001558  0.94042931  0.19892762  1
  C  C42  1  0.91889158  0.39275630  0.63352277  1
  C  C43  1  0.45388344  0.08420740  0.63096801  1
  C  C44  1  0.63249104  0.55155983  0.63163394  1
  C  C45  1  0.92203689  0.54674142  0.13356212  1
  C  C46  1  0.62914728  0.07912789  0.13356325  1
  C  C47  1  0.47589443  0.38074065  0.13629908  1
  C  C48  1  0.41009898  0.28279095  0.02894287  1
  C  C49  1  0.88956456  0.59722173  0.03313253  1
  C  C50  1  0.71316053  0.11317088  0.03335397  1
  C  C51  1  0.43581696  0.13925795  0.52919571  1
  C  C52  1  0.70991596  0.57659872  0.52978879  1
  C  C53  1  0.84393445  0.28220186  0.52579567  1
  C  C54  1  0.51190244  0.67615006  0.97589661  1
  C  C55  1  0.15830393  0.48881453  0.97592589  1
  C  C56  1  0.32719475  0.83394886  0.97826905  1
  C  C57  1  0.48831925  0.83123714  0.47785120  1
  C  C58  1  0.32894944  0.48711792  0.47066606  1
  C  C59  1  0.14524089  0.65458371  0.47210957  1
  C  C60  1  0.11136217  0.59879721  0.36745575  1
  C  C61  1  0.46915166  0.86601503  0.36169311  1
  C  C62  1  0.39410319  0.52421946  0.36474365  1
  C  C63  1  0.13553146  0.48135122  0.87051743  1
  C  C64  1  0.34128167  0.85338972  0.87184489  1
  C  C65  1  0.51597591  0.65816465  0.87032512  1
  C  C66  1  0.02041412  0.78082642  0.41497592  1
  C  C67  1  0.77007190  0.96713945  0.41781349  1
  C  C68  1  0.21237019  0.24702236  0.41206407  1
  C  C69  1  0.04770151  0.22567098  0.92651926  1
  C  C70  1  0.17957239  0.94828503  0.92707284  1
  C  C71  1  0.77448360  0.82573331  0.92530747  1
  C  C72  1  0.00346258  0.16635290  0.59081673  1
  C  C73  1  0.17655122  0.00436603  0.58676920  1
  C  C74  1  0.82610965  0.83165962  0.58791761  1
  C  C75  1  0.01216134  0.83577879  0.09770153  1
  C  C76  1  0.81415420  0.97275123  0.09727327  1
  C  C77  1  0.15150507  0.16261708  0.10061375  1
  C  C78  1  0.71085270  0.14956681  0.73767028  1
  C  C79  1  0.44251728  0.28975190  0.73595720  1
  C  C80  1  0.84308369  0.56641349  0.73817116  1
  C  C81  1  0.66722151  0.55227700  0.24446512  1
  C  C82  1  0.88122620  0.33118412  0.24007938  1
  C  C83  1  0.45024058  0.10685469  0.24411587  1
  C  C84  1  0.62585079  0.51732597  0.92796214  1
  C  C85  1  0.88441766  0.37212353  0.92922764  1
  C  C86  1  0.49167147  0.10369182  0.92807891  1
  C  C87  1  0.60690251  0.14005198  0.42861238  1
  C  C88  1  0.52158142  0.40344391  0.42638863  1
  C  C89  1  0.86192855  0.47461788  0.42739902  1
  C  C90  1  0.31297970  0.49996917  0.07132870  1
  C  C91  1  0.17449589  0.69783114  0.07340768  1
  C  C92  1  0.51274203  0.83061858  0.07321052  1
  C  C93  1  0.31821543  0.84298263  0.56825338  1
  C  C94  1  0.51971338  0.67621482  0.56891062  1
  C  C95  1  0.17850148  0.50225624  0.56275237  1
  C  C96  1  0.27789950  0.79788864  0.26029632  1
  C  C97  1  0.52115032  0.71383233  0.25979852  1
  C  C98  1  0.19023582  0.47753018  0.25830985  1
  C  C99  1  0.28411676  0.44078453  0.73898980  1
  C  C100  1  0.15471954  0.71853444  0.73922332  1
  C  C101  1  0.56051157  0.84087371  0.74021730  1
