# generated using pymatgen
data_Cu2NiC6
_symmetry_space_group_name_H-M   'P 1'
_cell_length_a   3.89038800
_cell_length_b   3.89038800
_cell_length_c   7.88584200
_cell_angle_alpha   90.00000000
_cell_angle_beta   90.00000000
_cell_angle_gamma   90.00000000
_symmetry_Int_Tables_number   1
_chemical_formula_structural   Cu2NiC6
_chemical_formula_sum   'Cu2 Ni1 C6'
_cell_volume   119.35315543
_cell_formula_units_Z   1
loop_
 _symmetry_equiv_pos_site_id
 _symmetry_equiv_pos_as_xyz
  1  'x, y, z'
loop_
 _atom_site_type_symbol
 _atom_site_label
 _atom_site_symmetry_multiplicity
 _atom_site_fract_x
 _atom_site_fract_y
 _atom_site_fract_z
 _atom_site_occupancy
  C  C0  1  0.75000100  0.75000100  0.25474700  1
  C  C1  1  0.24999900  0.24999900  0.74525400  1
  Ni  Ni2  1  0.25000000  0.75000000  0.50000000  1
  Cu  Cu3  1  0.75000100  0.75000100  0.89661900  1
  Cu  Cu4  1  0.24999900  0.24999900  0.10338000  1
  C  C5  1  0.24999900  0.75000100  0.00000000  1
  C  C6  1  0.75000100  0.24999900  0.00000000  1
  C  C7  1  0.75000100  0.75000100  0.63033600  1
  C  C8  1  0.24999900  0.24999900  0.36966400  1
