# generated using pymatgen
data_Cu2Ni10C7
_symmetry_space_group_name_H-M   'P 1'
_cell_length_a   8.12068556
_cell_length_b   5.72300175
_cell_length_c   5.93771625
_cell_angle_alpha   67.30955462
_cell_angle_beta   62.80500634
_cell_angle_gamma   65.37633316
_symmetry_Int_Tables_number   1
_chemical_formula_structural   Cu2Ni10C7
_chemical_formula_sum   'Cu2 Ni10 C7'
_cell_volume   216.51989725
_cell_formula_units_Z   1
loop_
 _symmetry_equiv_pos_site_id
 _symmetry_equiv_pos_as_xyz
  1  'x, y, z'
loop_
 _atom_site_type_symbol
 _atom_site_label
 _atom_site_symmetry_multiplicity
 _atom_site_fract_x
 _atom_site_fract_y
 _atom_site_fract_z
 _atom_site_occupancy
  C  C0  1  0.33608628  0.66259731  0.16232951  1
  C  C1  1  0.86876203  0.68064450  0.68798637  1
  C  C2  1  0.66831373  0.32655764  0.34868562  1
  C  C3  1  0.32060706  0.65870057  0.66344971  1
  C  C4  1  0.10566035  0.30598920  0.31286875  1
  C  C5  1  0.53701443  0.04243602  0.02907113  1
  C  C6  1  0.97352400  0.00465339  0.99308801  1
  Ni  Ni7  1  0.69053430  0.04474534  0.66316319  1
  Ni  Ni8  1  0.34354330  0.39309668  0.00475944  1
  Ni  Ni9  1  0.94299767  0.25006828  0.19623582  1
  Ni  Ni10  1  0.03733101  0.74952222  0.79707798  1
  Ni  Ni11  1  0.39755456  0.40554479  0.47282318  1
  Ni  Ni12  1  0.69703248  0.09272276  0.15006744  1
  Ni  Ni13  1  0.30635779  0.95142369  0.32431726  1
  Ni  Ni14  1  0.63826541  0.65422438  0.03402985  1
  Ni  Ni15  1  0.97587433  0.30609670  0.68270206  1
  Ni  Ni16  1  0.03017703  0.69664592  0.30558325  1
  Cu  Cu17  1  0.27892227  0.92536425  0.85449300  1
  Cu  Cu18  1  0.61036899  0.59896635  0.54345742  1
