# generated using pymatgen
data_Cu2NiC12
_symmetry_space_group_name_H-M   'P 1'
_cell_length_a   5.93415009
_cell_length_b   6.33158400
_cell_length_c   5.93797675
_cell_angle_alpha   62.01692958
_cell_angle_beta   59.93016805
_cell_angle_gamma   62.04876893
_symmetry_Int_Tables_number   1
_chemical_formula_structural   Cu2NiC12
_chemical_formula_sum   'Cu2 Ni1 C12'
_cell_volume   162.34311488
_cell_formula_units_Z   1
loop_
 _symmetry_equiv_pos_site_id
 _symmetry_equiv_pos_as_xyz
  1  'x, y, z'
loop_
 _atom_site_type_symbol
 _atom_site_label
 _atom_site_symmetry_multiplicity
 _atom_site_fract_x
 _atom_site_fract_y
 _atom_site_fract_z
 _atom_site_occupancy
  Ni  Ni0  1  0.12500000  0.62500000  0.12500000  1
  C  C1  1  0.97057400  0.09772900  0.96440500  1
  C  C2  1  0.27942600  0.15227100  0.28559500  1
  C  C3  1  0.62500000  0.12500000  0.62500000  1
  C  C4  1  0.62500000  0.62500000  0.62500000  1
  Cu  Cu5  1  0.12500000  0.62500000  0.62500000  1
  Cu  Cu6  1  0.62500000  0.62500000  0.12500000  1
  C  C7  1  0.38485600  0.36869600  0.38492400  1
  C  C8  1  0.38169700  0.38162200  0.86985000  1
  C  C9  1  0.40346800  0.79805600  0.40230500  1
  C  C10  1  0.87086500  0.38148200  0.38106600  1
  C  C11  1  0.37913500  0.86851800  0.86893400  1
  C  C12  1  0.84653200  0.45194400  0.84769500  1
  C  C13  1  0.86830300  0.86837800  0.38015000  1
  C  C14  1  0.86514400  0.88130400  0.86507600  1
