# generated using pymatgen
data_Cu3NiC38
_symmetry_space_group_name_H-M   'P 1'
_cell_length_a   9.28142374
_cell_length_b   9.29636639
_cell_length_c   22.79091695
_cell_angle_alpha   90.07788744
_cell_angle_beta   90.37889447
_cell_angle_gamma   119.99300945
_symmetry_Int_Tables_number   1
_chemical_formula_structural   Cu3NiC38
_chemical_formula_sum   'Cu9 Ni3 C114'
_cell_volume   1703.08001914
_cell_formula_units_Z   3
loop_
 _symmetry_equiv_pos_site_id
 _symmetry_equiv_pos_as_xyz
  1  'x, y, z'
loop_
 _atom_site_type_symbol
 _atom_site_label
 _atom_site_symmetry_multiplicity
 _atom_site_fract_x
 _atom_site_fract_y
 _atom_site_fract_z
 _atom_site_occupancy
  C  C0  1  0.64902075  0.02326503  0.24682207  1
  C  C1  1  0.36197823  0.36145857  0.24178811  1
  C  C2  1  0.98563147  0.60981646  0.24272242  1
  C  C3  1  0.63308964  0.61916360  0.74701707  1
  C  C4  1  0.98744306  0.36449225  0.75202287  1
  C  C5  1  0.38137791  0.01309435  0.74729849  1
  C  C6  1  0.31807377  0.33386882  0.58898767  1
  C  C7  1  0.03203171  0.70816340  0.58356199  1
  C  C8  1  0.65926049  0.96385436  0.59108379  1
  C  C9  1  0.30827004  0.96901292  0.07921359  1
  C  C10  1  0.66312189  0.69151303  0.07900138  1
  C  C11  1  0.03017126  0.34418383  0.08124505  1
  C  C12  1  0.96592229  0.66632534  0.91534088  1
  C  C13  1  0.69997412  0.03385188  0.91499171  1
  C  C14  1  0.33393473  0.30006516  0.91516528  1
  C  C15  1  0.96486731  0.28791909  0.41104034  1
  C  C16  1  0.31983689  0.02880412  0.41823593  1
  C  C17  1  0.71219432  0.68048869  0.41826953  1
  C  C18  1  0.00105542  0.99224858  0.49486865  1
  C  C19  1  0.00020726  0.99873943  0.99393547  1
  C  C20  1  0.66612884  0.33264008  0.82618349  1
  C  C21  1  0.68085369  0.33114539  0.33355814  1
  C  C22  1  0.32593854  0.65850238  0.15859909  1
  C  C23  1  0.34332125  0.67464233  0.67253415  1
  Ni  Ni24  1  0.99573745  0.00936364  0.35627577  1
  Ni  Ni25  1  0.65002956  0.32908125  0.68853186  1
  Ni  Ni26  1  0.67849903  0.33255112  0.17476321  1
  Cu  Cu27  1  0.99892493  0.99876831  0.84994715  1
  Cu  Cu28  1  0.00125612  0.99144963  0.65176698  1
  Cu  Cu29  1  0.00451996  0.01436963  0.14405247  1
  Cu  Cu30  1  0.66819728  0.33468553  0.98242609  1
  Cu  Cu31  1  0.65730820  0.33570000  0.48069911  1
  Cu  Cu32  1  0.33329416  0.66609593  0.01690927  1
  Cu  Cu33  1  0.34226905  0.67577601  0.51592300  1
  Cu  Cu34  1  0.32430162  0.65702169  0.31957386  1
  Cu  Cu35  1  0.33472595  0.66728267  0.81459404  1
  C  C36  1  0.99592534  0.29539425  0.25332412  1
  C  C37  1  0.29495887  0.29583585  0.74979072  1
  C  C38  1  0.99762267  0.69722345  0.75035050  1
  C  C39  1  0.70441725  0.00327263  0.74875148  1
  C  C40  1  0.37296183  0.03956922  0.58519419  1
  C  C41  1  0.66652767  0.62756067  0.58560760  1
  C  C42  1  0.96282035  0.62896868  0.08678991  1
  C  C43  1  0.66131237  0.03793193  0.08622509  1
  C  C44  1  0.38069620  0.33741421  0.08735413  1
  C  C45  1  0.62930249  0.66669877  0.91716060  1
  C  C46  1  0.03766193  0.37097553  0.91632455  1
  C  C47  1  0.33338864  0.96210908  0.91696155  1
  C  C48  1  0.63178579  0.96399089  0.41451533  1
  C  C49  1  0.32969292  0.36796311  0.41744545  1
  C  C50  1  0.03415808  0.66751787  0.41685140  1
  C  C51  1  0.29189801  -0.00008852  0.25201103  1
  C  C52  1  0.70863454  0.70840255  0.25162920  1
  C  C53  1  0.95834704  0.33434232  0.58374520  1
  C  C54  1  0.20814900  0.01592048  0.30408196  1
  C  C55  1  0.81183128  0.78908617  0.30403951  1
  C  C56  1  0.97329905  0.17937106  0.30913577  1
  C  C57  1  0.19977288  0.17659112  0.80670477  1
  C  C58  1  0.97078096  0.79155649  0.80707035  1
  C  C59  1  0.82197016  0.02616667  0.80678909  1
  C  C60  1  0.79382662  0.97010020  0.69101086  1
  C  C61  1  0.17460696  0.20768124  0.69097806  1
  C  C62  1  0.03334156  0.82133251  0.69244818  1
  C  C63  1  0.78861256  0.81001205  0.19799953  1
  C  C64  1  0.02848617  0.20571099  0.19474039  1
  C  C65  1  0.18767884  0.97334382  0.19792686  1
  C  C66  1  0.88233765  0.35900853  0.63573875  1
  C  C67  1  0.49368503  0.12040825  0.64088935  1
  C  C68  1  0.63563768  0.51068803  0.64124072  1
  C  C69  1  0.88633107  0.51825923  0.14481169  1
  C  C70  1  0.62675518  0.11297753  0.14471594  1
  C  C71  1  0.48977908  0.36551181  0.14621976  1
  C  C72  1  0.46207717  0.30227836  0.02891119  1
  C  C73  1  0.84297008  0.54573611  0.02839063  1
  C  C74  1  0.70092707  0.15848573  0.02857834  1
  C  C75  1  0.46135132  0.15403223  0.52538223  1
  C  C76  1  0.69849798  0.54320669  0.52563540  1
  C  C77  1  0.85630038  0.31083134  0.52931268  1
  C  C78  1  0.54175339  0.69640485  0.97504408  1
  C  C79  1  0.15497863  0.45798441  0.97484276  1
  C  C80  1  0.30357748  0.84470874  0.97489266  1
  C  C81  1  0.53695451  0.84427350  0.47162366  1
  C  C82  1  0.30206549  0.46119269  0.47381058  1
  C  C83  1  0.15448361  0.69502141  0.47391169  1
  C  C84  1  0.12445007  0.63254966  0.35954803  1
  C  C85  1  0.50746090  0.87524326  0.35694184  1
  C  C86  1  0.36710717  0.49230884  0.35982341  1
  C  C87  1  0.12607387  0.49086601  0.85962241  1
  C  C88  1  0.36472544  0.87375642  0.86005258  1
  C  C89  1  0.50946083  0.63494915  0.85989866  1
  C  C90  1  0.01764627  0.83137662  0.40860609  1
  C  C91  1  0.81056298  0.97474607  0.41191924  1
  C  C92  1  0.17045956  0.18437888  0.41171637  1
  C  C93  1  0.02079799  0.18680959  0.91246801  1
  C  C94  1  0.16610099  0.97935358  0.91283972  1
  C  C95  1  0.81334309  0.83402766  0.91309595  1
  C  C96  1  0.97599673  0.18247444  0.58636757  1
  C  C97  1  0.18689785  0.02600784  0.58663150  1
  C  C98  1  0.83186486  0.81829420  0.58661365  1
  C  C99  1  0.98214269  0.81614823  0.09343845  1
  C  C100  1  0.83033741  0.01675728  0.09114291  1
  C  C101  1  0.19121786  0.16597906  0.09024653  1
  C  C102  1  0.69166005  0.16991916  0.74468450  1
  C  C103  1  0.47586830  0.31101692  0.74779715  1
  C  C104  1  0.83492801  0.51616525  0.74373004  1
  C  C105  1  0.68349312  0.53809128  0.24645964  1
  C  C106  1  0.83200638  0.31894717  0.24750560  1
  C  C107  1  0.45869639  0.15081754  0.24707127  1
  C  C108  1  0.64497671  0.49896103  0.92273422  1
  C  C109  1  0.85373973  0.35463745  0.92234706  1
  C  C110  1  0.50067362  0.14604779  0.92293497  1
  C  C111  1  0.64766319  0.14764412  0.42187251  1
  C  C112  1  0.50361335  0.35953407  0.42086316  1
  C  C113  1  0.85433541  0.49429453  0.42198533  1
  C  C114  1  0.35238908  0.49818200  0.07979013  1
  C  C115  1  0.14983204  0.65165521  0.07863275  1
  C  C116  1  0.50033075  0.84961109  0.07853588  1
  C  C117  1  0.34266597  0.84771263  0.57722410  1
  C  C118  1  0.49738025  0.64598508  0.57739110  1
  C  C119  1  0.12843067  0.48403735  0.57720113  1
  C  C120  1  0.31122010  0.84740594  0.25439577  1
  C  C121  1  0.53959575  0.69679768  0.25455546  1
  C  C122  1  0.17249346  0.48444128  0.25393058  1
  C  C123  1  0.30636036  0.47844716  0.75376540  1
  C  C124  1  0.17102911  0.69031553  0.75419559  1
  C  C125  1  0.52227260  0.83093666  0.75356431  1
