# generated using pymatgen
data_Cu3Ni
_symmetry_space_group_name_H-M   'P 1'
_cell_length_a   5.38460690
_cell_length_b   5.38460690
_cell_length_c   10.28609695
_cell_angle_alpha   82.22993225
_cell_angle_beta   82.22993225
_cell_angle_gamma   115.11069303
_symmetry_Int_Tables_number   1
_chemical_formula_structural   Cu3Ni
_chemical_formula_sum   'Cu12 Ni4'
_cell_volume   261.33298085
_cell_formula_units_Z   4
loop_
 _symmetry_equiv_pos_site_id
 _symmetry_equiv_pos_as_xyz
  1  'x, y, z'
loop_
 _atom_site_type_symbol
 _atom_site_label
 _atom_site_symmetry_multiplicity
 _atom_site_fract_x
 _atom_site_fract_y
 _atom_site_fract_z
 _atom_site_occupancy
  Ni  Ni0  1  0.81360500  0.67762500  0.85820400  1
  Ni  Ni1  1  0.67762500  0.81360500  0.35820400  1
  Ni  Ni2  1  0.19093000  0.31414300  0.62342400  1
  Ni  Ni3  1  0.31414300  0.19093000  0.12342400  1
  Cu  Cu4  1  0.58123400  0.46817900  0.81716600  1
  Cu  Cu5  1  0.46817900  0.58123400  0.31716600  1
  Cu  Cu6  1  0.82919500  0.95960800  0.81550800  1
  Cu  Cu7  1  0.95960800  0.82919500  0.31550800  1
  Cu  Cu8  1  0.35467200  0.98909800  0.05630000  1
  Cu  Cu9  1  0.98909800  0.35467200  0.55630000  1
  Cu  Cu10  1  0.13318800  0.30233800  0.07814200  1
  Cu  Cu11  1  0.30233800  0.13318800  0.57814200  1
  Cu  Cu12  1  0.61598100  0.76204600  0.50700600  1
  Cu  Cu13  1  0.76204600  0.61598100  0.00700600  1
  Cu  Cu14  1  0.68399700  0.07796200  0.30265000  1
  Cu  Cu15  1  0.07796200  0.68399700  0.80265000  1
