# generated using pymatgen
data_Cu6NiC12
_symmetry_space_group_name_H-M   'P 1'
_cell_length_a   11.79531595
_cell_length_b   6.72878423
_cell_length_c   2.92363202
_cell_angle_alpha   89.98898088
_cell_angle_beta   89.99400086
_cell_angle_gamma   75.94057964
_symmetry_Int_Tables_number   1
_chemical_formula_structural   Cu6NiC12
_chemical_formula_sum   'Cu6 Ni1 C12'
_cell_volume   225.09220474
_cell_formula_units_Z   1
loop_
 _symmetry_equiv_pos_site_id
 _symmetry_equiv_pos_as_xyz
  1  'x, y, z'
loop_
 _atom_site_type_symbol
 _atom_site_label
 _atom_site_symmetry_multiplicity
 _atom_site_fract_x
 _atom_site_fract_y
 _atom_site_fract_z
 _atom_site_occupancy
  Ni  Ni0  1  0.16269600  0.18755300  0.99050100  1
  Cu  Cu1  1  0.97931600  0.02318300  0.98968000  1
  Cu  Cu2  1  0.94635300  0.55829100  0.48996100  1
  Cu  Cu3  1  0.36803100  0.30810200  0.99055200  1
  Cu  Cu4  1  0.65187600  0.17121200  0.49002300  1
  Cu  Cu5  1  0.39598800  0.75021500  0.49017500  1
  Cu  Cu6  1  0.66932500  0.66575600  0.99012600  1
  C  C7  1  0.98860300  0.35547000  0.98985800  1
  C  C8  1  0.97169300  0.73663800  0.98999800  1
  C  C9  1  0.24806300  0.31031800  0.49051100  1
  C  C10  1  0.47751900  0.23207300  0.49047500  1
  C  C11  1  0.09379900  0.02153700  0.48985300  1
  C  C12  1  0.35693900  0.60177900  0.99028800  1
  C  C13  1  0.66272500  0.35381500  0.99021500  1
  C  C14  1  0.55765500  0.71742400  0.49014600  1
  C  C15  1  0.77823300  0.61538000  0.49011900  1
  C  C16  1  0.66905200  0.97816200  0.98991900  1
  C  C17  1  0.33987500  0.97622100  0.99033200  1
  C  C18  1  0.85725600  0.09687100  0.48976800  1
