# generated using pymatgen
data_Cu(NiC8)2
_symmetry_space_group_name_H-M   'P 1'
_cell_length_a   8.98081798
_cell_length_b   8.98081768
_cell_length_c   22.70048472
_cell_angle_alpha   90.00000000
_cell_angle_beta   90.00000000
_cell_angle_gamma   120.00000111
_symmetry_Int_Tables_number   1
_chemical_formula_structural   Cu(NiC8)2
_chemical_formula_sum   'Cu6 Ni12 C96'
_cell_volume   1585.61421908
_cell_formula_units_Z   6
loop_
 _symmetry_equiv_pos_site_id
 _symmetry_equiv_pos_as_xyz
  1  'x, y, z'
loop_
 _atom_site_type_symbol
 _atom_site_label
 _atom_site_symmetry_multiplicity
 _atom_site_fract_x
 _atom_site_fract_y
 _atom_site_fract_z
 _atom_site_occupancy
  C  C0  1  0.96700308  0.67916496  0.91642497  1
  C  C1  1  0.71216089  0.03299692  0.91642497  1
  C  C2  1  0.32083504  0.28783911  0.91642497  1
  C  C3  1  0.96700308  0.28783911  0.41642497  1
  C  C4  1  0.32083504  0.03299692  0.41642497  1
  C  C5  1  0.71216089  0.67916496  0.41642497  1
  C  C6  1  -0.00000000  0.00000000  0.49257576  1
  C  C7  1  -0.00000000  0.00000000  0.99257576  1
  C  C8  1  0.66666700  0.33333300  0.82749888  1
  C  C9  1  0.66666700  0.33333300  0.32749888  1
  C  C10  1  0.33333300  0.66666700  0.16218340  1
  C  C11  1  0.33333300  0.66666700  0.66218340  1
  C  C12  1  -0.00000000  0.00000000  0.35275902  1
  C  C13  1  -0.00000000  0.00000000  0.85275902  1
  C  C14  1  0.66666700  0.33333300  0.68079202  1
  C  C15  1  0.66666700  0.33333300  0.18079202  1
  C  C16  1  -0.00000000  0.00000000  0.63909661  1
  C  C17  1  -0.00000000  0.00000000  0.13909661  1
  C  C18  1  0.66666700  0.33333300  0.98290148  1
  C  C19  1  0.66666700  0.33333300  0.48290148  1
  C  C20  1  0.33333300  0.66666700  0.02315392  1
  C  C21  1  0.33333300  0.66666700  0.52315392  1
  C  C22  1  0.33333300  0.66666700  0.31492948  1
  C  C23  1  0.33333300  0.66666700  0.81492948  1
  Ni  Ni24  1  0.95475244  0.33943254  0.58719723  1
  Ni  Ni25  1  0.38468110  0.04524756  0.58719723  1
  Ni  Ni26  1  0.66056746  0.61531890  0.58719723  1
  Ni  Ni27  1  0.95475244  0.61531890  0.08719723  1
  Ni  Ni28  1  0.66056746  0.04524756  0.08719723  1
  Ni  Ni29  1  0.38468110  0.33943254  0.08719723  1
  Ni  Ni30  1  0.62389749  0.66557507  0.91690392  1
  Ni  Ni31  1  0.04167659  0.37610251  0.91690392  1
  Ni  Ni32  1  0.33442493  0.95832341  0.91690392  1
  Ni  Ni33  1  0.62389749  0.95832341  0.41690392  1
  Ni  Ni34  1  0.33442493  0.37610251  0.41690392  1
  Ni  Ni35  1  0.04167659  0.66557507  0.41690392  1
  Cu  Cu36  1  0.29128155  0.00101135  0.25139813  1
  Cu  Cu37  1  0.70972980  0.70871845  0.25139813  1
  Cu  Cu38  1  0.99898865  0.29027020  0.25139813  1
  Cu  Cu39  1  0.29128155  0.29027020  0.75139813  1
  Cu  Cu40  1  0.99898865  0.70871845  0.75139813  1
  Cu  Cu41  1  0.70972980  0.00101135  0.75139813  1
  C  C42  1  0.20703535  0.01189073  0.30603446  1
  C  C43  1  0.80485538  0.79296465  0.30603446  1
  C  C44  1  0.98810927  0.19514462  0.30603446  1
  C  C45  1  0.20703535  0.19514462  0.80603446  1
  C  C46  1  0.98810927  0.79296465  0.80603446  1
  C  C47  1  0.80485538  0.01189073  0.80603446  1
  C  C48  1  0.79966517  0.98069006  0.69912895  1
  C  C49  1  0.18102489  0.20033483  0.69912895  1
  C  C50  1  0.01930994  0.81897511  0.69912895  1
  C  C51  1  0.79966517  0.81897511  0.19912895  1
  C  C52  1  0.01930994  0.20033483  0.19912895  1
  C  C53  1  0.18102489  0.98069006  0.19912895  1
  C  C54  1  0.87968009  0.37187838  0.64452478  1
  C  C55  1  0.49219929  0.12031991  0.64452478  1
  C  C56  1  0.62812162  0.50780071  0.64452478  1
  C  C57  1  0.87968009  0.50780071  0.14452478  1
  C  C58  1  0.62812162  0.12031991  0.14452478  1
  C  C59  1  0.49219929  0.37187838  0.14452478  1
  C  C60  1  0.46485443  0.30199074  0.02507838  1
  C  C61  1  0.83713731  0.53514557  0.02507838  1
  C  C62  1  0.69800926  0.16286269  0.02507838  1
  C  C63  1  0.46485443  0.16286269  0.52507838  1
  C  C64  1  0.69800926  0.53514557  0.52507838  1
  C  C65  1  0.83713731  0.30199074  0.52507838  1
  C  C66  1  0.52708906  0.69628223  0.97132481  1
  C  C67  1  0.16919218  0.47291094  0.97132481  1
  C  C68  1  0.30371777  0.83080782  0.97132481  1
  C  C69  1  0.52708906  0.83080782  0.47132481  1
  C  C70  1  0.30371777  0.47291094  0.47132481  1
  C  C71  1  0.16919218  0.69628223  0.47132481  1
  C  C72  1  0.13823836  0.63106090  0.35867637  1
  C  C73  1  0.49282154  0.86176164  0.35867637  1
  C  C74  1  0.36893910  0.50717846  0.35867637  1
  C  C75  1  0.13823836  0.50717846  0.85867637  1
  C  C76  1  0.36893910  0.86176164  0.85867637  1
  C  C77  1  0.49282154  0.63106090  0.85867637  1
  C  C78  1  0.02038019  0.83152036  0.40974951  1
  C  C79  1  0.81114018  0.97961981  0.40974951  1
  C  C80  1  0.16847964  0.18885982  0.40974951  1
  C  C81  1  0.02038019  0.18885982  0.90974951  1
  C  C82  1  0.16847964  0.97961981  0.90974951  1
  C  C83  1  0.81114018  0.83152036  0.90974951  1
  C  C84  1  0.97536051  0.16267430  0.59349368  1
  C  C85  1  0.18731379  0.02463949  0.59349368  1
  C  C86  1  0.83732570  0.81268621  0.59349368  1
  C  C87  1  0.97536051  0.81268621  0.09349368  1
  C  C88  1  0.83732570  0.02463949  0.09349368  1
  C  C89  1  0.18731379  0.16267430  0.09349368  1
  C  C90  1  0.68687052  0.15007228  0.74733318  1
  C  C91  1  0.46320275  0.31312948  0.74733318  1
  C  C92  1  0.84992772  0.53679725  0.74733318  1
  C  C93  1  0.68687052  0.53679725  0.24733318  1
  C  C94  1  0.84992772  0.31312948  0.24733318  1
  C  C95  1  0.46320275  0.15007228  0.24733318  1
  C  C96  1  0.63083910  0.48673199  0.92063285  1
  C  C97  1  0.85589388  0.36916090  0.92063285  1
  C  C98  1  0.51326801  0.14410612  0.92063285  1
  C  C99  1  0.63083910  0.14410612  0.42063285  1
  C  C100  1  0.51326801  0.36916090  0.42063285  1
  C  C101  1  0.85589388  0.48673199  0.42063285  1
  C  C102  1  0.34710772  0.49588149  0.07333569  1
  C  C103  1  0.14877277  0.65289228  0.07333569  1
  C  C104  1  0.50411851  0.85122723  0.07333569  1
  C  C105  1  0.34710772  0.85122723  0.57333569  1
  C  C106  1  0.50411851  0.65289228  0.57333569  1
  C  C107  1  0.14877277  0.49588149  0.57333569  1
  C  C108  1  0.30178030  0.83589368  0.25346655  1
  C  C109  1  0.53411238  0.69821970  0.25346655  1
  C  C110  1  0.16410632  0.46588762  0.25346655  1
  C  C111  1  0.30178030  0.46588762  0.75346655  1
  C  C112  1  0.16410632  0.69821970  0.75346655  1
  C  C113  1  0.53411238  0.83589368  0.75346655  1
