# generated using pymatgen
data_Cu7Ni5C66
_symmetry_space_group_name_H-M   'P 1'
_cell_length_a   18.56161901
_cell_length_b   9.25979463
_cell_length_c   23.24934415
_cell_angle_alpha   89.93794579
_cell_angle_beta   90.18653029
_cell_angle_gamma   119.95198438
_symmetry_Int_Tables_number   1
_chemical_formula_structural   Cu7Ni5C66
_chemical_formula_sum   'Cu21 Ni15 C198'
_cell_volume   3462.31107242
_cell_formula_units_Z   3
loop_
 _symmetry_equiv_pos_site_id
 _symmetry_equiv_pos_as_xyz
  1  'x, y, z'
loop_
 _atom_site_type_symbol
 _atom_site_label
 _atom_site_symmetry_multiplicity
 _atom_site_fract_x
 _atom_site_fract_y
 _atom_site_fract_z
 _atom_site_occupancy
  C  C0  1  0.32912888  0.03036370  0.24930087  1
  C  C1  1  0.82816724  0.02722663  0.24996563  1
  C  C2  1  0.18307225  0.33703151  0.24996448  1
  C  C3  1  0.68144994  0.33838566  0.24882616  1
  C  C4  1  0.98532738  0.63039148  0.25063852  1
  C  C5  1  0.48527820  0.62151587  0.24020694  1
  C  C6  1  0.32785195  0.62825043  0.75106314  1
  C  C7  1  0.83150747  0.63155580  0.75184414  1
  C  C8  1  0.98507377  0.34602486  0.74273412  1
  C  C9  1  0.48449568  0.34655419  0.74179391  1
  C  C10  1  0.18020696  0.02658513  0.75051212  1
  C  C11  1  0.68222400  0.02740508  0.75055839  1
  C  C12  1  0.01122567  0.66782048  0.59236820  1
  C  C13  1  0.51119932  0.66676221  0.59116687  1
  C  C14  1  0.51173954  0.35507686  0.08738691  1
  C  C15  1  0.47908315  0.66968353  0.91583278  1
  C  C16  1  0.47991570  0.28881338  0.41862695  1
  C  C17  1  0.97931802  0.28833450  0.42032167  1
  C  C18  1  0.99695362  0.00961241  0.50850482  1
  C  C19  1  0.49801523  0.01045830  0.50790098  1
  C  C20  1  0.00071271  0.00126689  0.99660731  1
  C  C21  1  0.49660199  0.98468431  0.00307806  1
  C  C22  1  0.32677238  0.31886922  0.82443558  1
  C  C23  1  0.83620453  0.33685196  0.82514114  1
  C  C24  1  0.32992628  0.33636431  0.32430287  1
  C  C25  1  0.82566198  0.33162937  0.32689189  1
  C  C26  1  0.16647647  0.66544169  0.15720105  1
  C  C27  1  0.66379833  0.68214964  0.15552059  1
  C  C28  1  0.16294279  0.64431501  0.65760289  1
  C  C29  1  0.66376811  0.64531088  0.65675651  1
  C  C30  1  0.00005745  0.99436847  0.35050645  1
  C  C31  1  0.50160040  0.99435177  0.35034649  1
  C  C32  1  0.00057345  0.00204357  0.85176153  1
  C  C33  1  0.50060108  0.00839321  0.85035258  1
  C  C34  1  0.33335972  0.33013050  0.67929104  1
  C  C35  1  0.83368962  0.32951101  0.67896822  1
  C  C36  1  0.33377390  0.33704526  0.17823214  1
  C  C37  1  0.83370484  0.33383244  0.17820496  1
  C  C38  1  0.33139222  0.34064045  0.98514498  1
  C  C39  1  0.83503942  0.33678558  0.97997050  1
  C  C40  1  0.33355990  0.32336331  0.48660733  1
  C  C41  1  0.83318630  0.32274658  0.48705851  1
  C  C42  1  0.16687720  0.66547213  0.01884416  1
  C  C43  1  0.67081402  0.67630873  0.02015299  1
  C  C44  1  0.17043382  0.66661278  0.52079001  1
  C  C45  1  0.67065842  0.66670837  0.52046351  1
  C  C46  1  0.99911118  0.01307857  0.65587611  1
  C  C47  1  0.49841090  0.01242285  0.65640132  1
  C  C48  1  0.99958104  -0.00041480  0.15669404  1
  C  C49  1  0.49911500  0.98507360  0.15510897  1
  C  C50  1  0.16794184  0.66828870  0.30826571  1
  C  C51  1  0.66669967  0.66612434  0.30804212  1
  C  C52  1  0.16433268  0.66741001  0.80895737  1
  C  C53  1  0.66764820  0.66682191  0.80862897  1
  Ni  Ni54  1  0.14713520  0.99803043  0.25231668  1
  Ni  Ni55  1  0.64878568  0.00073738  0.25371192  1
  Ni  Ni56  1  0.35057571  0.70283023  0.25271782  1
  Ni  Ni57  1  0.85052515  0.70336261  0.25160710  1
  Ni  Ni58  1  0.00130931  0.29775981  0.25524367  1
  Ni  Ni59  1  0.50063680  0.29249507  0.25320171  1
  Ni  Ni60  1  0.14778029  0.29793649  0.75472908  1
  Ni  Ni61  1  0.64841087  0.29758131  0.75415509  1
  Ni  Ni62  1  0.00029699  0.70949528  0.74981737  1
  Ni  Ni63  1  0.50115450  0.70875338  0.75392191  1
  Ni  Ni64  1  0.34895315  0.99671517  0.75327459  1
  Ni  Ni65  1  0.85103229  0.99861361  0.75359532  1
  Ni  Ni66  1  0.48718250  0.32682847  0.58315855  1
  Ni  Ni67  1  0.98739323  0.32652421  0.58289693  1
  Ni  Ni68  1  0.48697778  0.64569858  0.08372627  1
  Cu  Cu69  1  0.17302916  0.02857927  0.58622272  1
  Cu  Cu70  1  0.67253243  0.02743647  0.58670927  1
  Cu  Cu71  1  0.34182049  0.65021419  0.58688601  1
  Cu  Cu72  1  0.84158734  0.65014426  0.58664260  1
  Cu  Cu73  1  0.98642825  0.65408425  0.08739419  1
  Cu  Cu74  1  0.33930161  0.02895025  0.08746338  1
  Cu  Cu75  1  0.84322109  0.03231917  0.08730768  1
  Cu  Cu76  1  0.17141151  0.31794269  0.08817349  1
  Cu  Cu77  1  0.67467918  0.31899754  0.08634319  1
  Cu  Cu78  1  0.30973780  0.66147917  0.91356910  1
  Cu  Cu79  1  0.80913767  0.66066682  0.91390454  1
  Cu  Cu80  1  0.02194897  0.38299781  0.91426786  1
  Cu  Cu81  1  0.52256690  0.38326379  0.91547969  1
  Cu  Cu82  1  0.16988380  0.95673124  0.91440848  1
  Cu  Cu83  1  0.66917858  0.95706883  0.91315477  1
  Cu  Cu84  1  0.30990364  0.95926128  0.41253419  1
  Cu  Cu85  1  0.81002042  0.95959812  0.41248122  1
  Cu  Cu86  1  0.16970878  0.38307180  0.41250814  1
  Cu  Cu87  1  0.66980975  0.38268523  0.41268188  1
  Cu  Cu88  1  0.02271747  0.66152375  0.41413337  1
  Cu  Cu89  1  0.52310138  0.66174401  0.41442232  1
  C  C90  1  0.11242685  0.04952600  0.30544086  1
  C  C91  1  0.61680578  0.05445331  0.30772033  1
  C  C92  1  0.40921025  0.77533397  0.30658240  1
  C  C93  1  0.91080323  0.77387966  0.30497083  1
  C  C94  1  0.48534096  0.19337683  0.31186905  1
  C  C95  1  0.98037860  0.19388931  0.31314512  1
  C  C96  1  0.11479057  0.17891797  0.80831511  1
  C  C97  1  0.61522405  0.17891630  0.80787765  1
  C  C98  1  0.48473326  0.77613049  0.81246468  1
  C  C99  1  0.97977913  0.78661157  0.80327210  1
  C  C100  1  0.40994064  0.04615411  0.80606518  1
  C  C101  1  0.91123310  0.04840352  0.80676440  1
  C  C102  1  0.39942003  0.96268930  0.69675234  1
  C  C103  1  0.90070529  0.96308805  0.69686297  1
  C  C104  1  0.07920236  0.19806410  0.69885877  1
  C  C105  1  0.57908207  0.19871819  0.69878354  1
  C  C106  1  0.01986479  0.83512676  0.69119442  1
  C  C107  1  0.51846250  0.83958501  0.69724944  1
  C  C108  1  0.40062716  0.83683362  0.19641830  1
  C  C109  1  0.90110346  0.83987601  0.19570871  1
  C  C110  1  0.01769732  0.19021562  0.20091984  1
  C  C111  1  0.51868621  0.19814013  0.19662000  1
  C  C112  1  0.07849169  0.96010586  0.19622210  1
  C  C113  1  0.57989461  0.96129563  0.19852845  1
  C  C114  1  0.44415958  0.35497481  0.63916979  1
  C  C115  1  0.94398080  0.35345940  0.63878077  1
  C  C116  1  0.21816937  0.10276803  0.63973047  1
  C  C117  1  0.71791208  0.10197239  0.64008194  1
  C  C118  1  0.32901801  0.55589901  0.64027257  1
  C  C119  1  0.82939590  0.55635798  0.64012486  1
  C  C120  1  0.44573299  0.53719825  0.14121257  1
  C  C121  1  0.95014516  0.56215822  0.14118853  1
  C  C122  1  0.32721507  0.09742741  0.14127639  1
  C  C123  1  0.83344363  0.10454111  0.14112260  1
  C  C124  1  0.21747962  0.33601582  0.14170022  1
  C  C125  1  0.71945462  0.33560944  0.14038838  1
  C  C126  1  0.21139092  0.29557133  0.03718035  1
  C  C127  1  0.71743942  0.29980574  0.03631181  1
  C  C128  1  0.43423874  0.57315209  0.02390845  1
  C  C129  1  0.93445983  0.56921709  0.03682853  1
  C  C130  1  0.34959850  0.13643821  0.03752491  1
  C  C131  1  0.85205029  0.13578917  0.03675680  1
  C  C132  1  0.21450567  0.13051479  0.53528002  1
  C  C133  1  0.71316707  0.12969074  0.53568119  1
  C  C134  1  0.35148706  0.56365636  0.53647615  1
  C  C135  1  0.85083143  0.56272435  0.53628685  1
  C  C136  1  0.43642801  0.29310613  0.52206086  1
  C  C137  1  0.93677527  0.29358653  0.52174097  1
  C  C138  1  0.26670720  0.66458528  0.96548223  1
  C  C139  1  0.76604198  0.66429273  0.96566545  1
  C  C140  1  0.06696552  0.46951103  0.96636158  1
  C  C141  1  0.56647618  0.46445561  0.96889076  1
  C  C142  1  0.16878781  0.86575896  0.96610417  1
  C  C143  1  0.66585948  0.86294472  0.96434494  1
  C  C144  1  0.26651705  0.86860804  0.46399987  1
  C  C145  1  0.76657660  0.86987005  0.46399924  1
  C  C146  1  0.16659271  0.47133449  0.46364488  1
  C  C147  1  0.66729391  0.47177294  0.46366103  1
  C  C148  1  0.06724680  0.66686903  0.46704129  1
  C  C149  1  0.56710514  0.66733573  0.46759736  1
  C  C150  1  0.07431582  0.65699741  0.36226928  1
  C  C151  1  0.57538493  0.65759855  0.36303436  1
  C  C152  1  0.25902075  0.85842952  0.35959252  1
  C  C153  1  0.76030758  0.85980810  0.35947474  1
  C  C154  1  0.17283328  0.48828071  0.35931153  1
  C  C155  1  0.67288996  0.48696652  0.35931626  1
  C  C156  1  0.07253593  0.48833913  0.86189970  1
  C  C157  1  0.57397368  0.49151414  0.86416765  1
  C  C158  1  0.17128020  0.85448835  0.86141301  1
  C  C159  1  0.67294102  0.86124477  0.86005255  1
  C  C160  1  0.26014839  0.66057851  0.86089297  1
  C  C161  1  0.75657634  0.65693033  0.86112035  1
  C  C162  1  0.01256571  0.80688578  0.41143243  1
  C  C163  1  0.51275404  0.80685013  0.41163201  1
  C  C164  1  0.39389353  0.97979808  0.41150991  1
  C  C165  1  0.89423013  0.98026489  0.41215782  1
  C  C166  1  0.09125648  0.22180556  0.41057761  1
  C  C167  1  0.59139463  0.22136368  0.41137240  1
  C  C168  1  0.01448329  0.21835139  0.91269961  1
  C  C169  1  0.51196495  0.21666834  0.91294148  1
  C  C170  1  0.09443275  0.96934339  0.91290681  1
  C  C171  1  0.59122498  0.96330453  0.91174756  1
  C  C172  1  0.39437157  0.80911647  0.91352604  1
  C  C173  1  0.89137815  0.81012368  0.91196667  1
  C  C174  1  0.49383928  0.15051416  0.59607020  1
  C  C175  1  0.99426728  0.15028811  0.59524610  1
  C  C176  1  0.08706975  0.00907554  0.58925626  1
  C  C177  1  0.58608713  0.00593816  0.59050253  1
  C  C178  1  0.42443008  0.81278866  0.59146170  1
  C  C179  1  0.92376397  0.81329268  0.59056489  1
  C  C180  1  0.49420319  0.83685139  0.09590818  1
  C  C181  1  0.99138215  0.82352849  0.09192285  1
  C  C182  1  0.42160593  0.02977133  0.09179055  1
  C  C183  1  0.92329300  0.02409211  0.09209126  1
  C  C184  1  0.08632895  0.16050153  0.09323521  1
  C  C185  1  0.58810867  0.16651415  0.09005008  1
  C  C186  1  0.32232873  0.13406030  0.74173479  1
  C  C187  1  0.82322155  0.13394909  0.74145918  1
  C  C188  1  0.24130625  0.34709638  0.73987059  1
  C  C189  1  0.74200318  0.34834724  0.73946349  1
  C  C190  1  0.42733687  0.52106412  0.74307464  1
  C  C191  1  0.92838543  0.51887114  0.74159746  1
  C  C192  1  0.32356814  0.51179552  0.24175465  1
  C  C193  1  0.82558453  0.51408340  0.23901805  1
  C  C194  1  0.42653979  0.33204687  0.24307191  1
  C  C195  1  0.93071838  0.34310902  0.24002040  1
  C  C196  1  0.24103991  0.13597101  0.23921250  1
  C  C197  1  0.74276146  0.13879591  0.23909632  1
  C  C198  1  0.31673514  0.50817895  0.91007132  1
  C  C199  1  0.81340972  0.50513842  0.91043418  1
  C  C200  1  0.44183161  0.38129715  0.91153783  1
  C  C201  1  0.93998871  0.37410545  0.91086552  1
  C  C202  1  0.24688735  0.12021702  0.91066830  1
  C  C203  1  0.74416567  0.12338108  0.91178737  1
  C  C204  1  0.31582707  0.12502232  0.40827572  1
  C  C205  1  0.81650711  0.12617410  0.40837222  1
  C  C206  1  0.24415843  0.36667553  0.41005097  1
  C  C207  1  0.74433630  0.36596605  0.41024280  1
  C  C208  1  0.44257215  0.50207449  0.40995912  1
  C  C209  1  0.94207312  0.50205469  0.40983677  1
  C  C210  1  0.15839191  0.46288089  0.08283874  1
  C  C211  1  0.66171901  0.46458883  0.08092794  1
  C  C212  1  0.07194201  0.68174717  0.08215029  1
  C  C213  1  0.57928326  0.66437957  0.08177608  1
  C  C214  1  0.26999300  0.85638783  0.08083499  1
  C  C215  1  0.77309088  0.86057374  0.08222162  1
  C  C216  1  0.16040303  0.85687273  0.58097070  1
  C  C217  1  0.66030014  0.85620899  0.58122167  1
  C  C218  1  0.27406529  0.68763056  0.58019919  1
  C  C219  1  0.77339171  0.68636876  0.58021523  1
  C  C220  1  0.07984883  0.49313962  0.58163021  1
  C  C221  1  0.57965511  0.49323456  0.58148689  1
  C  C222  1  0.14419826  0.81169281  0.26041579  1
  C  C223  1  0.64678928  0.81555908  0.26119997  1
  C  C224  1  0.26037406  0.71083705  0.25895603  1
  C  C225  1  0.76053802  0.70889448  0.25931752  1
  C  C226  1  0.09400326  0.48008288  0.25966648  1
  C  C227  1  0.59211144  0.48230629  0.25985613  1
  C  C228  1  0.14516992  0.47874302  0.76137750  1
  C  C229  1  0.64490023  0.47748700  0.76146366  1
  C  C230  1  0.09216006  0.70602692  0.75984694  1
  C  C231  1  0.59282348  0.70413903  0.76064626  1
  C  C232  1  0.25945824  0.80985903  0.76076085  1
  C  C233  1  0.76087473  0.81039474  0.76045512  1
