# generated using pymatgen
data_Cu2NiC16
_symmetry_space_group_name_H-M   'P 1'
_cell_length_a   5.14708903
_cell_length_b   5.14681103
_cell_length_c   9.98281500
_cell_angle_alpha   90.00000000
_cell_angle_beta   90.00000000
_cell_angle_gamma   90.01184443
_symmetry_Int_Tables_number   1
_chemical_formula_structural   Cu2NiC16
_chemical_formula_sum   'Cu2 Ni1 C16'
_cell_volume   264.45569055
_cell_formula_units_Z   1
loop_
 _symmetry_equiv_pos_site_id
 _symmetry_equiv_pos_as_xyz
  1  'x, y, z'
loop_
 _atom_site_type_symbol
 _atom_site_label
 _atom_site_symmetry_multiplicity
 _atom_site_fract_x
 _atom_site_fract_y
 _atom_site_fract_z
 _atom_site_occupancy
  Ni  Ni0  1  0.00000000  0.50000000  0.24997800  1
  Cu  Cu1  1  0.00000000  0.00000000  0.99864200  1
  Cu  Cu2  1  0.50000000  0.50000000  0.50139800  1
  C  C3  1  0.00000000  0.00000000  0.35461600  1
  C  C4  1  0.00000000  0.00000000  0.67921600  1
  C  C5  1  0.50000000  0.50000000  0.14527800  1
  C  C6  1  0.50000000  0.50000000  0.82084500  1
  C  C7  1  0.17317300  0.79348600  0.16499000  1
  C  C8  1  0.19255400  0.80769800  0.84018300  1
  C  C9  1  0.19833500  0.79750000  0.51287800  1
  C  C10  1  0.29739400  0.30168100  0.98697500  1
  C  C11  1  0.29309300  0.32651000  0.33523700  1
  C  C12  1  0.30771000  0.30747100  0.65975200  1
  C  C13  1  0.70690700  0.67349000  0.33523700  1
  C  C14  1  0.69229000  0.69252900  0.65975200  1
  C  C15  1  0.70260600  0.69831900  0.98697500  1
  C  C16  1  0.80166500  0.20250000  0.51287800  1
  C  C17  1  0.82682700  0.20651400  0.16499000  1
  C  C18  1  0.80744600  0.19230200  0.84018300  1
