# generated using pymatgen
data_Cu2Ni7C32
_symmetry_space_group_name_H-M   'P 1'
_cell_length_a   9.29970909
_cell_length_b   9.31833912
_cell_length_c   22.57220483
_cell_angle_alpha   90.00629689
_cell_angle_beta   89.87459068
_cell_angle_gamma   119.95896644
_symmetry_Int_Tables_number   1
_chemical_formula_structural   Cu2Ni7C32
_chemical_formula_sum   'Cu6 Ni21 C96'
_cell_volume   1694.69127458
_cell_formula_units_Z   3
loop_
 _symmetry_equiv_pos_site_id
 _symmetry_equiv_pos_as_xyz
  1  'x, y, z'
loop_
 _atom_site_type_symbol
 _atom_site_label
 _atom_site_symmetry_multiplicity
 _atom_site_fract_x
 _atom_site_fract_y
 _atom_site_fract_z
 _atom_site_occupancy
  Ni  Ni0  1  0.62860482  0.00104607  0.25408670  1
  Ni  Ni1  1  0.36811141  0.37171838  0.24919606  1
  Ni  Ni2  1  0.00234227  0.62052066  0.25132715  1
  Ni  Ni3  1  0.63688087  0.63329404  0.74452169  1
  Ni  Ni4  1  0.98802015  0.36400734  0.74404641  1
  Ni  Ni5  1  0.37571559  0.00384260  0.74081297  1
  Ni  Ni6  1  0.02821229  0.69503819  0.58309356  1
  Ni  Ni7  1  0.65809628  0.96554819  0.57994179  1
  Ni  Ni8  1  0.67448842  0.68992520  0.08409640  1
  Ni  Ni9  1  0.02401463  0.34038501  0.08633072  1
  Ni  Ni10  1  0.95914871  0.66159355  0.92548533  1
  Ni  Ni11  1  0.69826711  0.03339603  0.92099814  1
  Ni  Ni12  1  0.34183659  0.30566682  0.92231252  1
  Ni  Ni13  1  0.97366368  0.31019821  0.41823760  1
  Ni  Ni14  1  0.33263017  0.03175639  0.41821929  1
  Ni  Ni15  1  0.00262293  0.99769229  0.49982824  1
  Ni  Ni16  1  0.01130807  0.99407166  0.00711660  1
  Ni  Ni17  1  0.66756082  0.33389132  0.83226436  1
  Ni  Ni18  1  0.67517977  0.34888859  0.34134173  1
  Ni  Ni19  1  0.32316581  0.67004255  0.16247520  1
  Ni  Ni20  1  0.33482578  0.65543703  0.65793637  1
  Cu  Cu21  1  0.99225755  0.99521121  0.85235821  1
  Cu  Cu22  1  0.66639939  0.33199798  0.66261055  1
  Cu  Cu23  1  0.67024135  0.33363888  0.18178973  1
  Cu  Cu24  1  0.66130706  0.33606973  0.99841657  1
  Cu  Cu25  1  0.32922974  0.66129764  0.32678294  1
  Cu  Cu26  1  0.34087052  0.67047025  0.81283094  1
  C  C27  1  0.98534169  0.99487652  0.35730086  1
  C  C28  1  0.00259486  0.01199073  0.64317314  1
  C  C29  1  0.01129180  0.00839995  0.14878532  1
  C  C30  1  0.66937792  0.32749568  0.48800995  1
  C  C31  1  0.33438972  0.66499979  0.01930828  1
  C  C32  1  0.32892227  0.67259401  0.51088973  1
  C  C33  1  0.99889775  0.27829222  0.25306017  1
  C  C34  1  0.70571440  0.00484913  0.74378634  1
  C  C35  1  0.98398548  0.33950194  0.58135935  1
  C  C36  1  0.35602375  0.01978671  0.58102747  1
  C  C37  1  0.99529368  0.66211548  0.08442505  1
  C  C38  1  0.34342852  0.33681757  0.08323600  1
  C  C39  1  0.62917421  0.66185351  0.91983906  1
  C  C40  1  0.63591619  0.97679289  0.41723923  1
  C  C41  1  0.01809908  0.66293057  0.41706870  1
  C  C42  1  0.27431803  0.00061927  0.25383468  1
  C  C43  1  0.72517784  0.72511174  0.25139677  1
  C  C44  1  0.29058262  0.28943019  0.74377334  1
  C  C45  1  0.99622189  0.70534914  0.74223063  1
  C  C46  1  0.66152353  0.64127467  0.58143647  1
  C  C47  1  0.66879346  0.00577691  0.08466075  1
  C  C48  1  0.03918821  0.37391677  0.92130876  1
  C  C49  1  0.33735283  0.96069546  0.92038478  1
  C  C50  1  0.33897178  0.36141512  0.41806232  1
  C  C51  1  0.18288328  0.00213953  0.31109346  1
  C  C52  1  0.82652200  0.82373219  0.30775153  1
  C  C53  1  0.99882481  0.16986919  0.31257910  1
  C  C54  1  0.22527220  0.21062713  0.80495401  1
  C  C55  1  0.99102018  0.77802678  0.80333715  1
  C  C56  1  0.79152410  0.01855006  0.80790678  1
  C  C57  1  0.83289142  0.00424626  0.68936873  1
  C  C58  1  0.17717033  0.17035276  0.69363103  1
  C  C59  1  -0.00215432  0.81660650  0.69093075  1
  C  C60  1  0.81765568  0.81636540  0.19500628  1
  C  C61  1  0.99271787  0.16833383  0.19516246  1
  C  C62  1  0.17610868  0.00248517  0.19857308  1
  C  C63  1  0.93867980  0.39589320  0.64299118  1
  C  C64  1  0.45867106  0.06592194  0.64239396  1
  C  C65  1  0.62830928  0.56505136  0.64402976  1
  C  C66  1  0.91794228  0.52703678  0.13861478  1
  C  C67  1  0.63546846  0.08636262  0.13892743  1
  C  C68  1  0.47658548  0.38775503  0.13756296  1
  C  C69  1  0.40640411  0.29334918  0.02309240  1
  C  C70  1  0.87058041  0.59437202  0.02791562  1
  C  C71  1  0.71238454  0.11927154  0.02988327  1
  C  C72  1  0.47798036  0.16057416  0.53131683  1
  C  C73  1  0.68866345  0.52468764  0.53944520  1
  C  C74  1  0.83064289  0.30457527  0.53440440  1
  C  C75  1  0.49964464  0.65564749  0.97297149  1
  C  C76  1  0.14545563  0.48893688  0.97208348  1
  C  C77  1  0.34107899  0.84444744  0.96809907  1
  C  C78  1  0.52303498  0.84197043  0.46844786  1
  C  C79  1  0.31235533  0.47482479  0.46118154  1
  C  C80  1  0.16787040  0.69292408  0.46493208  1
  C  C81  1  0.06617206  0.60362729  0.35590461  1
  C  C82  1  0.53324771  0.92436744  0.35544558  1
  C  C83  1  0.37230627  0.44107484  0.35546717  1
  C  C84  1  0.10701097  0.45539267  0.86062050  1
  C  C85  1  0.34226196  0.89452149  0.85808116  1
  C  C86  1  0.54550461  0.64991549  0.85549195  1
  C  C87  1  0.01891965  0.83853003  0.41211712  1
  C  C88  1  0.82411345  0.99775135  0.41216341  1
  C  C89  1  0.17507121  0.18798969  0.41717400  1
  C  C90  1  0.04077813  0.21007524  0.92748814  1
  C  C91  1  0.17837170  0.97083466  0.92797888  1
  C  C92  1  0.80351683  0.83372568  0.92936011  1
  C  C93  1  0.98513809  0.16239217  0.58690882  1
  C  C94  1  0.17034988  0.99799914  0.58636971  1
  C  C95  1  0.82623272  0.81443029  0.58228041  1
  C  C96  1  0.00763428  0.84046396  0.09939390  1
  C  C97  1  0.82136623  0.98346924  0.09424928  1
  C  C98  1  0.15688333  0.17923193  0.09635985  1
  C  C99  1  0.68605315  0.16861850  0.74090103  1
  C  C100  1  0.46729085  0.31691194  0.73920054  1
  C  C101  1  0.83953110  0.53303508  0.74145623  1
  C  C102  1  0.70912096  0.55134891  0.25458598  1
  C  C103  1  0.83046831  0.29199381  0.25638457  1
  C  C104  1  0.44823291  0.15860945  0.25315738  1
  C  C105  1  0.65230391  0.49932092  0.92137216  1
  C  C106  1  0.86083811  0.34327825  0.92465174  1
  C  C107  1  0.49370204  0.13296762  0.92330495  1
  C  C108  1  0.66296131  0.16399593  0.43208753  1
  C  C109  1  0.48571890  0.33337641  0.43270685  1
  C  C110  1  0.83986679  0.50003878  0.43792958  1
  C  C111  1  0.31941629  0.49969405  0.07487292  1
  C  C112  1  0.17701202  0.68005319  0.07078981  1
  C  C113  1  0.51655052  0.83186575  0.07544925  1
  C  C114  1  0.33434725  0.83510132  0.56513910  1
  C  C115  1  0.51594017  0.66898880  0.56556983  1
  C  C116  1  0.16167193  0.49928179  0.56028988  1
  C  C117  1  0.29116160  0.84303510  0.24994202  1
  C  C118  1  0.55169456  0.70947879  0.25141691  1
  C  C119  1  0.16730875  0.45947550  0.24899341  1
  C  C120  1  0.28781604  0.45235711  0.73758059  1
  C  C121  1  0.15514431  0.69354948  0.73741652  1
  C  C122  1  0.53183049  0.83132946  0.73597102  1
