# generated using pymatgen
data_Cu2NiC14
_symmetry_space_group_name_H-M   'P 1'
_cell_length_a   8.87275889
_cell_length_b   8.86065699
_cell_length_c   22.71339946
_cell_angle_alpha   90.34435566
_cell_angle_beta   90.00000000
_cell_angle_gamma   120.04519063
_symmetry_Int_Tables_number   1
_chemical_formula_structural   Cu2NiC14
_chemical_formula_sum   'Cu12 Ni6 C84'
_cell_volume   1545.71336436
_cell_formula_units_Z   6
loop_
 _symmetry_equiv_pos_site_id
 _symmetry_equiv_pos_as_xyz
  1  'x, y, z'
loop_
 _atom_site_type_symbol
 _atom_site_label
 _atom_site_symmetry_multiplicity
 _atom_site_fract_x
 _atom_site_fract_y
 _atom_site_fract_z
 _atom_site_occupancy
  C  C0  1  0.99800216  0.00391141  0.64172403  1
  C  C1  1  0.00590925  0.00391141  0.14172403  1
  C  C2  1  0.65621461  0.33904006  0.97650738  1
  C  C3  1  0.68282645  0.33904006  0.47650738  1
  C  C4  1  0.32394467  0.66946686  0.02433615  1
  C  C5  1  0.34552120  0.66946686  0.52433615  1
  C  C6  1  0.33965390  0.67541002  0.30721486  1
  C  C7  1  0.33575512  0.67541002  0.80721486  1
  C  C8  1  0.98868196  0.00351665  0.35841596  1
  C  C9  1  0.01483469  0.00351665  0.85841596  1
  C  C10  1  0.67738250  0.34886983  0.68391592  1
  C  C11  1  0.67148832  0.34886983  0.18391592  1
  Ni  Ni12  1  0.95328052  0.34034157  0.58603360  1
  Ni  Ni13  1  0.66704599  0.61021450  0.58733500  1
  Ni  Ni14  1  0.94316951  0.61021450  0.08733500  1
  Ni  Ni15  1  0.38706205  0.34034157  0.08603360  1
  Ni  Ni16  1  0.33320310  0.95681522  0.91566334  1
  Ni  Ni17  1  0.62361112  0.95681522  0.41566334  1
  Cu  Cu18  1  0.28516571  0.00278798  0.25209875  1
  Cu  Cu19  1  0.71585676  0.71250506  0.25194780  1
  Cu  Cu20  1  0.99478372  0.28480834  0.25195555  1
  Cu  Cu21  1  0.29002462  0.28480834  0.75195555  1
  Cu  Cu22  1  0.99664830  0.71250506  0.75194780  1
  Cu  Cu23  1  0.71762227  0.00278798  0.75209875  1
  Cu  Cu24  1  0.38042607  0.04757179  0.58394996  1
  Cu  Cu25  1  0.66714672  0.04757179  0.08394996  1
  Cu  Cu26  1  0.61699987  0.66864003  0.91458116  1
  Cu  Cu27  1  0.04772508  0.38381181  0.91531141  1
  Cu  Cu28  1  0.33608574  0.38381181  0.41531141  1
  Cu  Cu29  1  0.05163916  0.66864003  0.41458116  1
  C  C30  1  0.20412909  0.02511022  0.30422024  1
  C  C31  1  0.81813763  0.79629001  0.30430566  1
  C  C32  1  0.97905164  0.18399685  0.30404483  1
  C  C33  1  0.20494521  0.18399685  0.80404483  1
  C  C34  1  0.97815239  0.79629001  0.80430566  1
  C  C35  1  0.82098113  0.02511022  0.80422024  1
  C  C36  1  0.80105035  0.97131558  0.69835839  1
  C  C37  1  0.17403048  0.20314351  0.69808987  1
  C  C38  1  0.03424605  0.82329576  0.69871006  1
  C  C39  1  0.78904971  0.82329576  0.19871006  1
  C  C40  1  0.02911303  0.20314351  0.19808987  1
  C  C41  1  0.17026523  0.97131558  0.19835839  1
  C  C42  1  0.87715087  0.36960168  0.64401995  1
  C  C43  1  0.48397720  0.10889017  0.63702479  1
  C  C44  1  0.61162496  0.49714122  0.64418143  1
  C  C45  1  0.88551726  0.49714122  0.14418143  1
  C  C46  1  0.62491398  0.10889017  0.13702479  1
  C  C47  1  0.49245182  0.36960168  0.14401995  1
  C  C48  1  0.47144440  0.29935529  0.02585859  1
  C  C49  1  0.82452632  0.52184998  0.02764909  1
  C  C50  1  0.70125156  0.15779469  0.03138631  1
  C  C51  1  0.45654412  0.15779469  0.53138631  1
  C  C52  1  0.69732466  0.52184998  0.52764909  1
  C  C53  1  0.82791189  0.29935529  0.52585859  1
  C  C54  1  0.53117572  0.68496314  0.96748113  1
  C  C55  1  0.15898177  0.46814321  0.96857491  1
  C  C56  1  0.32151007  0.83243965  0.97068745  1
  C  C57  1  0.51092858  0.83243965  0.47068745  1
  C  C58  1  0.30916045  0.46814321  0.46857491  1
  C  C59  1  0.15378642  0.68496314  0.46748113  1
  C  C60  1  0.12983881  0.63148725  0.36163534  1
  C  C61  1  0.49115660  0.85463285  0.35732695  1
  C  C62  1  0.36170656  0.49693657  0.36277715  1
  C  C63  1  0.13522900  0.49693657  0.86277715  1
  C  C64  1  0.36347525  0.85463285  0.85732695  1
  C  C65  1  0.50164744  0.63148725  0.86163534  1
  C  C66  1  0.03515530  0.82133523  0.40703223  1
  C  C67  1  0.80757691  0.97599791  0.40973429  1
  C  C68  1  0.18516708  0.21190822  0.40861853  1
  C  C69  1  0.02674114  0.21190822  0.90861853  1
  C  C70  1  0.16842100  0.97599791  0.90973429  1
  C  C71  1  0.78617992  0.82133523  0.90703223  1
  C  C72  1  0.97992662  0.16701037  0.59578450  1
  C  C73  1  0.20324929  0.02903203  0.59224740  1
  C  C74  1  0.84368174  0.80630634  0.59807481  1
  C  C75  1  0.96262460  0.80630634  0.09807481  1
  C  C76  1  0.82578274  0.02903203  0.09224740  1
  C  C77  1  0.18708376  0.16701037  0.09578450  1
  C  C78  1  0.67720500  0.13946507  0.74206533  1
  C  C79  1  0.46162196  0.30767686  0.74314421  1
  C  C80  1  0.85384924  0.53565883  0.74552998  1
  C  C81  1  0.68181059  0.53565883  0.24552998  1
  C  C82  1  0.84605590  0.30767686  0.24314421  1
  C  C83  1  0.46226107  0.13946507  0.24206533  1
  C  C84  1  0.62974272  0.50411855  0.92053591  1
  C  C85  1  0.87973048  0.37936469  0.92342920  1
  C  C86  1  0.51920695  0.14017801  0.92665283  1
  C  C87  1  0.62097206  0.14017801  0.42665283  1
  C  C88  1  0.49963521  0.37936469  0.42342920  1
  C  C89  1  0.87437683  0.50411855  0.42053591  1
  C  C90  1  0.35757909  0.49958224  0.06568645  1
  C  C91  1  0.14294287  0.65534223  0.06902657  1
  C  C92  1  0.52217529  0.86512083  0.07119459  1
  C  C93  1  0.34294454  0.86512083  0.57119459  1
  C  C94  1  0.51239836  0.65534223  0.56902657  1
  C  C95  1  0.14200215  0.49958224  0.56568645  1
  C  C96  1  0.28639123  0.82752873  0.25721433  1
  C  C97  1  0.53221880  0.69745170  0.25842018  1
  C  C98  1  0.16088605  0.46282340  0.25828565  1
  C  C99  1  0.30193635  0.46282340  0.75828565  1
  C  C100  1  0.16523190  0.69745170  0.75842018  1
  C  C101  1  0.54113650  0.82752873  0.75721433  1
