# generated using pymatgen
data_Cu5Ni6C7
_symmetry_space_group_name_H-M   'P 1'
_cell_length_a   13.36882100
_cell_length_b   13.36882100
_cell_length_c   13.36882100
_cell_angle_alpha   90.00000000
_cell_angle_beta   90.00000000
_cell_angle_gamma   90.00000000
_symmetry_Int_Tables_number   1
_chemical_formula_structural   Cu5Ni6C7
_chemical_formula_sum   'Cu20 Ni24 C28'
_cell_volume   2389.34754560
_cell_formula_units_Z   4
loop_
 _symmetry_equiv_pos_site_id
 _symmetry_equiv_pos_as_xyz
  1  'x, y, z'
loop_
 _atom_site_type_symbol
 _atom_site_label
 _atom_site_symmetry_multiplicity
 _atom_site_fract_x
 _atom_site_fract_y
 _atom_site_fract_z
 _atom_site_occupancy
  Ni  Ni0  1  0.68550400  0.29944300  0.05212100  1
  Ni  Ni1  1  0.18550400  0.20055700  0.94787900  1
  Ni  Ni2  1  0.31449600  0.79944300  0.44787900  1
  Ni  Ni3  1  0.20055700  0.94787900  0.18550400  1
  Ni  Ni4  1  0.44787900  0.31449600  0.79944300  1
  Ni  Ni5  1  0.94787900  0.18550400  0.20055700  1
  Ni  Ni6  1  0.29944300  0.05212100  0.68550400  1
  Ni  Ni7  1  0.05212100  0.68550400  0.29944300  1
  Ni  Ni8  1  0.79944300  0.44787900  0.31449600  1
  Ni  Ni9  1  0.70055700  0.55212100  0.81449600  1
  Ni  Ni10  1  0.55212100  0.81449600  0.70055700  1
  Ni  Ni11  1  0.81449600  0.70055700  0.55212100  1
  Ni  Ni12  1  0.31449600  0.70055700  0.94787900  1
  Ni  Ni13  1  0.81449600  0.79944300  0.05212100  1
  Ni  Ni14  1  0.68550400  0.20055700  0.55212100  1
  Ni  Ni15  1  0.79944300  0.05212100  0.81449600  1
  Ni  Ni16  1  0.55212100  0.68550400  0.20055700  1
  Ni  Ni17  1  0.05212100  0.81449600  0.79944300  1
  Ni  Ni18  1  0.70055700  0.94787900  0.31449600  1
  Ni  Ni19  1  0.94787900  0.31449600  0.70055700  1
  Ni  Ni20  1  0.20055700  0.55212100  0.68550400  1
  Ni  Ni21  1  0.29944300  0.44787900  0.18550400  1
  Ni  Ni22  1  0.44787900  0.18550400  0.29944300  1
  Ni  Ni23  1  0.18550400  0.29944300  0.44787900  1
  Cu  Cu24  1  0.26214600  0.23785400  0.76214600  1
  Cu  Cu25  1  0.23785400  0.76214600  0.26214600  1
  Cu  Cu26  1  0.76214600  0.26214600  0.23785400  1
  Cu  Cu27  1  0.73785400  0.73785400  0.73785400  1
  Cu  Cu28  1  0.73785400  0.76214600  0.23785400  1
  Cu  Cu29  1  0.76214600  0.23785400  0.73785400  1
  Cu  Cu30  1  0.23785400  0.73785400  0.76214600  1
  Cu  Cu31  1  0.26214600  0.26214600  0.26214600  1
  Cu  Cu32  1  0.13622100  0.36377900  0.63622100  1
  Cu  Cu33  1  0.36377900  0.63622100  0.13622100  1
  Cu  Cu34  1  0.63622100  0.13622100  0.36377900  1
  Cu  Cu35  1  0.86377900  0.86377900  0.86377900  1
  Cu  Cu36  1  0.86377900  0.63622100  0.36377900  1
  Cu  Cu37  1  0.63622100  0.36377900  0.86377900  1
  Cu  Cu38  1  0.36377900  0.86377900  0.63622100  1
  Cu  Cu39  1  0.13622100  0.13622100  0.13622100  1
  Cu  Cu40  1  0.50000000  0.50000000  0.50000000  1
  Cu  Cu41  1  0.00000000  0.00000000  0.50000000  1
  Cu  Cu42  1  0.00000000  0.50000000  0.00000000  1
  Cu  Cu43  1  0.50000000  0.00000000  0.00000000  1
  C  C44  1  0.00000000  0.50000000  0.50000000  1
  C  C45  1  0.50000000  0.50000000  0.00000000  1
  C  C46  1  0.50000000  0.00000000  0.50000000  1
  C  C47  1  0.00000000  0.00000000  0.00000000  1
  C  C48  1  0.95031700  0.20253400  0.45601900  1
  C  C49  1  0.45031700  0.29746600  0.54398100  1
  C  C50  1  0.04968300  0.70253400  0.04398100  1
  C  C51  1  0.29746600  0.54398100  0.45031700  1
  C  C52  1  0.04398100  0.04968300  0.70253400  1
  C  C53  1  0.54398100  0.45031700  0.29746600  1
  C  C54  1  0.20253400  0.45601900  0.95031700  1
  C  C55  1  0.45601900  0.95031700  0.20253400  1
  C  C56  1  0.70253400  0.04398100  0.04968300  1
  C  C57  1  0.79746600  0.95601900  0.54968300  1
  C  C58  1  0.95601900  0.54968300  0.79746600  1
  C  C59  1  0.54968300  0.79746600  0.95601900  1
  C  C60  1  0.04968300  0.79746600  0.54398100  1
  C  C61  1  0.54968300  0.70253400  0.45601900  1
  C  C62  1  0.95031700  0.29746600  0.95601900  1
  C  C63  1  0.70253400  0.45601900  0.54968300  1
  C  C64  1  0.95601900  0.95031700  0.29746600  1
  C  C65  1  0.45601900  0.54968300  0.70253400  1
  C  C66  1  0.79746600  0.54398100  0.04968300  1
  C  C67  1  0.54398100  0.04968300  0.79746600  1
  C  C68  1  0.29746600  0.95601900  0.95031700  1
  C  C69  1  0.20253400  0.04398100  0.45031700  1
  C  C70  1  0.04398100  0.45031700  0.20253400  1
  C  C71  1  0.45031700  0.20253400  0.04398100  1
