# generated using pymatgen
data_CuNiC9
_symmetry_space_group_name_H-M   'P 1'
_cell_length_a   7.21385967
_cell_length_b   7.21386021
_cell_length_c   7.21386016
_cell_angle_alpha   41.87713230
_cell_angle_beta   41.87713407
_cell_angle_gamma   41.87713526
_symmetry_Int_Tables_number   1
_chemical_formula_structural   CuNiC9
_chemical_formula_sum   'Cu1 Ni1 C9'
_cell_volume   151.28207519
_cell_formula_units_Z   1
loop_
 _symmetry_equiv_pos_site_id
 _symmetry_equiv_pos_as_xyz
  1  'x, y, z'
loop_
 _atom_site_type_symbol
 _atom_site_label
 _atom_site_symmetry_multiplicity
 _atom_site_fract_x
 _atom_site_fract_y
 _atom_site_fract_z
 _atom_site_occupancy
  C  C0  1  0.95768418  0.95768418  0.95768418  1
  Ni  Ni1  1  0.12797973  0.12797973  0.12797973  1
  Cu  Cu2  1  0.50037053  0.50037053  0.50037053  1
  C  C3  1  0.24382923  0.24382923  0.24382923  1
  C  C4  1  0.76872699  0.76872699  0.76872699  1
  C  C5  1  0.36932286  0.93340295  0.41616080  1
  C  C6  1  0.41616080  0.36932286  0.93340295  1
  C  C7  1  0.04313462  0.50062085  0.76376725  1
  C  C8  1  0.76376725  0.04313462  0.50062085  1
  C  C9  1  0.50062085  0.76376725  0.04313462  1
  C  C10  1  0.93340295  0.41616080  0.36932286  1
