# generated using pymatgen
data_Cu2Ni5C9
_symmetry_space_group_name_H-M   'P 1'
_cell_length_a   6.68413200
_cell_length_b   7.02897100
_cell_length_c   16.31565500
_cell_angle_alpha   90.00000000
_cell_angle_beta   90.00000000
_cell_angle_gamma   90.00000000
_symmetry_Int_Tables_number   1
_chemical_formula_structural   Cu2Ni5C9
_chemical_formula_sum   'Cu8 Ni20 C36'
_cell_volume   766.55140294
_cell_formula_units_Z   4
loop_
 _symmetry_equiv_pos_site_id
 _symmetry_equiv_pos_as_xyz
  1  'x, y, z'
loop_
 _atom_site_type_symbol
 _atom_site_label
 _atom_site_symmetry_multiplicity
 _atom_site_fract_x
 _atom_site_fract_y
 _atom_site_fract_z
 _atom_site_occupancy
  C  C0  1  0.12508300  0.39153900  0.78400600  1
  C  C1  1  0.62508300  0.10846100  0.21599400  1
  C  C2  1  0.87491700  0.89153900  0.71599400  1
  C  C3  1  0.37491700  0.60846100  0.28400600  1
  Ni  Ni4  1  0.19085200  0.40432100  0.08139100  1
  Ni  Ni5  1  0.69085200  0.09567900  0.91860900  1
  Ni  Ni6  1  0.80914800  0.90432100  0.41860900  1
  Ni  Ni7  1  0.30914800  0.59567900  0.58139100  1
  Ni  Ni8  1  0.05529700  0.22944900  0.10139000  1
  Ni  Ni9  1  0.55529700  0.27055100  0.89861000  1
  Ni  Ni10  1  0.94470300  0.72944900  0.39861000  1
  Ni  Ni11  1  0.44470300  0.77055100  0.60139000  1
  Ni  Ni12  1  0.88860300  0.74022700  0.54065500  1
  Ni  Ni13  1  0.38860300  0.75977300  0.45934500  1
  Ni  Ni14  1  0.02722400  0.08149200  0.89610000  1
  Ni  Ni15  1  0.52722400  0.41850800  0.10390000  1
  Ni  Ni16  1  0.97277600  0.58149200  0.60390000  1
  Ni  Ni17  1  0.47277600  0.91850800  0.39610000  1
  Ni  Ni18  1  0.80005400  0.83036000  0.04641600  1
  Ni  Ni19  1  0.30005400  0.66964000  0.95358400  1
  Ni  Ni20  1  0.19994600  0.33036000  0.45358400  1
  Ni  Ni21  1  0.69994600  0.16964000  0.54641600  1
  Ni  Ni22  1  0.11139700  0.24022700  0.95934500  1
  Ni  Ni23  1  0.61139700  0.25977300  0.04065500  1
  Cu  Cu24  1  0.86735500  0.68836200  0.92096500  1
  Cu  Cu25  1  0.36735500  0.81163800  0.07903500  1
  Cu  Cu26  1  0.13264500  0.18836200  0.57903500  1
  Cu  Cu27  1  0.63264500  0.31163800  0.42096500  1
  Cu  Cu28  1  0.65495800  0.38883400  0.72815900  1
  Cu  Cu29  1  0.15495800  0.11116600  0.27184100  1
  Cu  Cu30  1  0.84504200  0.61116600  0.22815900  1
  Cu  Cu31  1  0.34504200  0.88883400  0.77184100  1
  C  C32  1  0.03214000  0.60951600  0.30036700  1
  C  C33  1  0.53214000  0.89048400  0.69963300  1
  C  C34  1  0.96786000  0.10951600  0.19963300  1
  C  C35  1  0.46786000  0.39048400  0.80036700  1
  C  C36  1  0.39995100  0.40255200  0.40132500  1
  C  C37  1  0.81485300  0.56911800  0.76253700  1
  C  C38  1  0.60004900  0.90255200  0.09867500  1
  C  C39  1  0.10004900  0.59744800  0.90132500  1
  C  C40  1  0.63828100  0.10591100  0.36247800  1
  C  C41  1  0.13828100  0.39408900  0.63752200  1
  C  C42  1  0.36171900  0.60591100  0.13752200  1
  C  C43  1  0.86171900  0.89408900  0.86247800  1
  C  C44  1  0.31485300  0.93088200  0.23746300  1
  C  C45  1  0.07035400  0.29465400  0.48218700  1
  C  C46  1  0.42964600  0.70534600  0.98218700  1
  C  C47  1  0.92964600  0.79465400  0.01781300  1
  C  C48  1  0.18514700  0.06911800  0.73746300  1
  C  C49  1  0.68514700  0.43088200  0.26253700  1
  C  C50  1  0.81176800  0.21095400  0.76376900  1
  C  C51  1  0.31176800  0.28904600  0.23623100  1
  C  C52  1  0.38798600  0.80330400  0.40057100  1
  C  C53  1  0.88798600  0.69669600  0.59942900  1
  C  C54  1  0.61201400  0.30330400  0.09942900  1
  C  C55  1  0.11201400  0.19669600  0.90057100  1
  C  C56  1  0.18823200  0.71095400  0.73623100  1
  C  C57  1  0.68823200  0.78904600  0.26376900  1
  C  C58  1  0.39586600  0.69134800  0.55584500  1
  C  C59  1  0.89586600  0.80865200  0.44415500  1
  C  C60  1  0.60413400  0.19134800  0.94415500  1
  C  C61  1  0.10413400  0.30865200  0.05584500  1
  C  C62  1  0.89995100  0.09744800  0.59867500  1
  C  C63  1  0.57035400  0.20534600  0.51781300  1
