# generated using pymatgen
data_CuNi3C35
_symmetry_space_group_name_H-M   'P 1'
_cell_length_a   9.09585268
_cell_length_b   9.02075023
_cell_length_c   22.65274677
_cell_angle_alpha   91.82394374
_cell_angle_beta   89.92181416
_cell_angle_gamma   119.99048577
_symmetry_Int_Tables_number   1
_chemical_formula_structural   CuNi3C35
_chemical_formula_sum   'Cu3 Ni9 C105'
_cell_volume   1608.78423660
_cell_formula_units_Z   3
loop_
 _symmetry_equiv_pos_site_id
 _symmetry_equiv_pos_as_xyz
  1  'x, y, z'
loop_
 _atom_site_type_symbol
 _atom_site_label
 _atom_site_symmetry_multiplicity
 _atom_site_fract_x
 _atom_site_fract_y
 _atom_site_fract_z
 _atom_site_occupancy
  C  C0  1  0.64687893  0.00802572  0.25669286  1
  C  C1  1  0.00157533  0.62317090  0.24748791  1
  C  C2  1  0.63845341  0.64270099  0.74355545  1
  C  C3  1  0.36263365  0.01175047  0.75898728  1
  C  C4  1  0.66502896  0.95039575  0.58523019  1
  C  C5  1  0.97789836  0.68147418  0.92217439  1
  C  C6  1  0.69983777  0.02507546  0.91459728  1
  C  C7  1  0.97014996  0.30984942  0.40894716  1
  C  C8  1  0.70163964  0.68442289  0.42679716  1
  C  C9  1  0.00777080  0.98121735  0.50209791  1
  C  C10  1  0.01151209  0.99058991  0.99750580  1
  C  C11  1  0.65123510  0.32451811  0.83250412  1
  C  C12  1  0.66361926  0.32104834  0.33542386  1
  C  C13  1  0.29884504  0.63117369  0.16004285  1
  C  C14  1  0.32553228  0.63148285  0.66910639  1
  C  C15  1  0.99559856  0.00024834  0.35177581  1
  C  C16  1  0.00623783  0.01103628  0.84989087  1
  C  C17  1  0.99425875  -0.00002463  0.65218105  1
  C  C18  1  0.99906953  0.99637060  0.14154271  1
  C  C19  1  0.65670471  0.33503728  0.68636681  1
  C  C20  1  0.68412118  0.33860205  0.17928121  1
  C  C21  1  0.32988311  0.67594087  0.01685422  1
  C  C22  1  0.33824810  0.67316143  0.51599013  1
  C  C23  1  0.32148681  0.66656341  0.32191365  1
  Ni  Ni24  1  0.00481837  0.29644689  0.25003964  1
  Ni  Ni25  1  0.29109015  0.30595653  0.75254366  1
  Ni  Ni26  1  0.69961402  0.00260267  0.75151846  1
  Ni  Ni27  1  0.66739132  0.62591288  0.58335558  1
  Ni  Ni28  1  0.95935782  0.62384931  0.08090918  1
  Ni  Ni29  1  0.62919957  0.66806776  0.91875016  1
  Ni  Ni30  1  0.33993246  0.96624617  0.91786506  1
  Ni  Ni31  1  0.63092022  0.97586332  0.42020994  1
  Ni  Ni32  1  0.03156434  0.66754475  0.41835409  1
  Cu  Cu33  1  0.64779418  0.35204610  0.97796177  1
  Cu  Cu34  1  0.69091597  0.35071581  0.48133223  1
  Cu  Cu35  1  0.38059504  0.68655677  0.81683172  1
  C  C36  1  0.29907974  0.00397395  0.24873175  1
  C  C37  1  0.69520033  0.69720037  0.24996571  1
  C  C38  1  0.00882157  0.70168683  0.75138132  1
  C  C39  1  0.95788160  0.33573642  0.58074270  1
  C  C40  1  0.37291262  0.04521801  0.58110505  1
  C  C41  1  0.66528146  0.03602608  0.08162353  1
  C  C42  1  0.37905767  0.33284687  0.08109277  1
  C  C43  1  0.03715721  0.37806815  0.91681591  1
  C  C44  1  0.34334011  0.36852927  0.41763214  1
  C  C45  1  0.22169780  0.02314424  0.30370618  1
  C  C46  1  0.79998300  0.76830819  0.30563072  1
  C  C47  1  0.97333065  0.18963366  0.31075378  1
  C  C48  1  0.21830678  0.16901432  0.80419157  1
  C  C49  1  0.97257365  0.77315903  0.80581114  1
  C  C50  1  0.80235136  0.02256493  0.81214026  1
  C  C51  1  0.76640375  0.94924363  0.69155214  1
  C  C52  1  0.18236840  0.22721594  0.69052130  1
  C  C53  1  0.03534102  0.80977220  0.69958630  1
  C  C54  1  0.78296923  0.80322792  0.19941286  1
  C  C55  1  0.02064239  0.19490180  0.19242477  1
  C  C56  1  0.18956725  0.97109006  0.19634133  1
  C  C57  1  0.87211864  0.35201942  0.63302194  1
  C  C58  1  0.46771229  0.11602680  0.63808052  1
  C  C59  1  0.65440026  0.53045315  0.64355014  1
  C  C60  1  0.88779291  0.54180757  0.14509927  1
  C  C61  1  0.64665680  0.10898352  0.13994473  1
  C  C62  1  0.47633688  0.34629138  0.13497603  1
  C  C63  1  0.45982347  0.30580516  0.02591401  1
  C  C64  1  0.82293016  0.50824554  0.02304118  1
  C  C65  1  0.67091851  0.13834574  0.03135940  1
  C  C66  1  0.46804584  0.14881818  0.53039922  1
  C  C67  1  0.68050529  0.51689967  0.52258614  1
  C  C68  1  0.85300952  0.31209447  0.52434495  1
  C  C69  1  0.53980486  0.70049420  0.97428161  1
  C  C70  1  0.13054777  0.44731883  0.97296488  1
  C  C71  1  0.28760038  0.84261259  0.97212232  1
  C  C72  1  0.55754672  0.84726280  0.47450400  1
  C  C73  1  0.30958750  0.44328107  0.47100379  1
  C  C74  1  0.14560178  0.68512327  0.47471707  1
  C  C75  1  0.08954474  0.61122828  0.35700761  1
  C  C76  1  0.52414297  0.89701067  0.35737203  1
  C  C77  1  0.37368609  0.47673124  0.36545975  1
  C  C78  1  0.12566368  0.48359669  0.86604997  1
  C  C79  1  0.38386488  0.87309893  0.85776509  1
  C  C80  1  0.52076418  0.63684370  0.85600936  1
  C  C81  1  0.99712305  0.82755389  0.41249111  1
  C  C82  1  0.82652626  0.01226143  0.41514286  1
  C  C83  1  0.19236160  0.19658010  0.41044066  1
  C  C84  1  0.00439548  0.19891941  0.91333291  1
  C  C85  1  0.17732634  0.98869506  0.90782222  1
  C  C86  1  0.82197248  0.83065715  0.91321822  1
  C  C87  1  0.96505990  0.17468910  0.58020750  1
  C  C88  1  0.20371515  0.02991220  0.58301804  1
  C  C89  1  0.83908327  0.81893151  0.58202269  1
  C  C90  1  0.97144467  0.81233909  0.07914989  1
  C  C91  1  0.82577984  0.02984794  0.08144971  1
  C  C92  1  0.20883021  0.17797812  0.08061476  1
  C  C93  1  0.66145027  0.16029692  0.74545131  1
  C  C94  1  0.48987466  0.34703729  0.74875299  1
  C  C95  1  0.85866256  0.52888179  0.74400332  1
  C  C96  1  0.66826795  0.52089601  0.24456744  1
  C  C97  1  0.82771206  0.31268108  0.24809638  1
  C  C98  1  0.47056579  0.15839006  0.24411907  1
  C  C99  1  0.64613764  0.49018935  0.92186505  1
  C  C100  1  0.86469679  0.36636684  0.91863983  1
  C  C101  1  0.52741456  0.15494435  0.92880626  1
  C  C102  1  0.64522644  0.16805515  0.43170985  1
  C  C103  1  0.49935066  0.35513371  0.42306152  1
  C  C104  1  0.83541072  0.49121321  0.42503799  1
  C  C105  1  0.36919805  0.49028394  0.07790503  1
  C  C106  1  0.14231829  0.63393608  0.07712036  1
  C  C107  1  0.51673656  0.86120503  0.08096440  1
  C  C108  1  0.35769979  0.87209681  0.57818746  1
  C  C109  1  0.49910957  0.64923003  0.57833279  1
  C  C110  1  0.12747025  0.48741970  0.57748627  1
  C  C111  1  0.32201059  0.84999221  0.25126665  1
  C  C112  1  0.53118753  0.69406000  0.25560499  1
  C  C113  1  0.17040477  0.49221990  0.25235844  1
  C  C114  1  0.30425303  0.49869151  0.76440035  1
  C  C115  1  0.16647891  0.69314283  0.75764053  1
  C  C116  1  0.50515697  0.82277681  0.75635536  1
