# generated using pymatgen
data_Cu6NiC10
_symmetry_space_group_name_H-M   'P 1'
_cell_length_a   3.94714500
_cell_length_b   5.24949046
_cell_length_c   9.90726899
_cell_angle_alpha   89.77529192
_cell_angle_beta   90.00000000
_cell_angle_gamma   112.08335954
_symmetry_Int_Tables_number   1
_chemical_formula_structural   Cu6NiC10
_chemical_formula_sum   'Cu6 Ni1 C10'
_cell_volume   190.22182177
_cell_formula_units_Z   1
loop_
 _symmetry_equiv_pos_site_id
 _symmetry_equiv_pos_as_xyz
  1  'x, y, z'
loop_
 _atom_site_type_symbol
 _atom_site_label
 _atom_site_symmetry_multiplicity
 _atom_site_fract_x
 _atom_site_fract_y
 _atom_site_fract_z
 _atom_site_occupancy
  Ni  Ni0  1  0.50379100  0.00758100  0.24268300  1
  Cu  Cu1  1  0.15817200  0.31634400  0.56439800  1
  Cu  Cu2  1  0.14893800  0.29787800  0.93294300  1
  Cu  Cu3  1  0.21081100  0.42162000  0.25125900  1
  Cu  Cu4  1  0.79369700  0.58739300  0.75628500  1
  Cu  Cu5  1  0.85427200  0.70854400  0.04814900  1
  Cu  Cu6  1  0.86005900  0.72011600  0.45523600  1
  C  C7  1  0.32277200  0.64554200  0.41731300  1
  C  C8  1  0.33398500  0.66796900  0.09342800  1
  C  C9  1  0.23601100  0.47202000  0.74592600  1
  C  C10  1  0.69166600  0.38333000  0.93276400  1
  C  C11  1  0.04709800  0.09419600  0.12268200  1
  C  C12  1  0.04044500  0.08089000  0.37103800  1
  C  C13  1  0.95290100  0.90580100  0.61738900  1
  C  C14  1  0.95444400  0.90889000  0.87979900  1
  C  C15  1  0.67584200  0.35168300  0.56852500  1
  C  C16  1  0.71510000  0.43020200  0.25018400  1
