# generated using pymatgen
data_Cu12NiC24
_symmetry_space_group_name_H-M   'P 1'
_cell_length_a   4.81270906
_cell_length_b   5.71539768
_cell_length_c   15.34847557
_cell_angle_alpha   90.08723210
_cell_angle_beta   89.71115095
_cell_angle_gamma   89.78929768
_symmetry_Int_Tables_number   1
_chemical_formula_structural   Cu12NiC24
_chemical_formula_sum   'Cu12 Ni1 C24'
_cell_volume   422.17483152
_cell_formula_units_Z   1
loop_
 _symmetry_equiv_pos_site_id
 _symmetry_equiv_pos_as_xyz
  1  'x, y, z'
loop_
 _atom_site_type_symbol
 _atom_site_label
 _atom_site_symmetry_multiplicity
 _atom_site_fract_x
 _atom_site_fract_y
 _atom_site_fract_z
 _atom_site_occupancy
  Ni  Ni0  1  0.99445900  0.60170100  0.08916200  1
  Cu  Cu1  1  0.99383000  0.16158000  0.41410200  1
  Cu  Cu2  1  0.00793400  0.85641900  0.25221600  1
  Cu  Cu3  1  0.02990800  0.13782900  0.07777600  1
  Cu  Cu4  1  0.03990900  0.17554900  0.73813400  1
  Cu  Cu5  1  0.01517000  0.83062000  0.57932000  1
  Cu  Cu6  1  0.04035700  0.86057200  0.89884000  1
  Cu  Cu7  1  0.50249300  0.35872400  0.59114000  1
  Cu  Cu8  1  0.50021100  0.33701200  0.91850100  1
  Cu  Cu9  1  0.49914800  0.34388200  0.25770000  1
  Cu  Cu10  1  0.49886600  0.63448100  0.09604600  1
  Cu  Cu11  1  0.50182500  0.65580600  0.42610100  1
  Cu  Cu12  1  0.48390700  0.64099600  0.74717800  1
  C  C13  1  0.20883300  0.12258200  0.30520300  1
  C  C14  1  0.22849400  0.11716100  0.63192600  1
  C  C15  1  0.22952900  0.11090000  0.96857600  1
  C  C16  1  0.21991200  0.86361800  0.13713500  1
  C  C17  1  0.20414400  0.88196800  0.46981900  1
  C  C18  1  0.25477800  0.89696300  0.79080800  1
  C  C19  1  0.27513900  0.38750400  0.14403500  1
  C  C20  1  0.27881300  0.59819800  0.64389400  1
  C  C21  1  0.28204800  0.40748400  0.81096700  1
  C  C22  1  0.73088100  0.38626500  0.03105200  1
  C  C23  1  0.75261200  0.62070000  0.19838700  1
  C  C24  1  0.70757600  0.38442900  0.36582700  1
  C  C25  1  0.71693400  0.61179000  0.53067300  1
  C  C26  1  0.71854100  0.38508200  0.69282700  1
  C  C27  1  0.26644300  0.62348700  0.31875100  1
  C  C28  1  0.25941400  0.38090400  0.48601100  1
  C  C29  1  0.24082800  0.61534200  0.98224800  1
  C  C30  1  0.71955900  0.63492200  0.85957800  1
  C  C31  1  0.77078200  0.11771700  0.18284300  1
  C  C32  1  0.74797900  0.12507900  0.52612000  1
  C  C33  1  0.74702300  0.89195500  0.35343900  1
  C  C34  1  0.76643000  0.85315300  0.02548200  1
  C  C35  1  0.79470200  0.13891000  0.84757800  1
  C  C36  1  0.77058700  0.86776200  0.68976900  1
