# generated using pymatgen
data_CuNiC19
_symmetry_space_group_name_H-M   'P 1'
_cell_length_a   9.11837910
_cell_length_b   9.11837878
_cell_length_c   22.44484571
_cell_angle_alpha   90.00000000
_cell_angle_beta   90.00000000
_cell_angle_gamma   120.00000117
_symmetry_Int_Tables_number   1
_chemical_formula_structural   CuNiC19
_chemical_formula_sum   'Cu6 Ni6 C114'
_cell_volume   1616.15319068
_cell_formula_units_Z   6
loop_
 _symmetry_equiv_pos_site_id
 _symmetry_equiv_pos_as_xyz
  1  'x, y, z'
loop_
 _atom_site_type_symbol
 _atom_site_label
 _atom_site_symmetry_multiplicity
 _atom_site_fract_x
 _atom_site_fract_y
 _atom_site_fract_z
 _atom_site_occupancy
  C  C0  1  0.63248457  0.99986330  0.25020780  1
  C  C1  1  0.36737873  0.36751543  0.25020780  1
  C  C2  1  0.00013670  0.63262127  0.25020780  1
  C  C3  1  0.63432964  0.63012973  0.74875934  1
  C  C4  1  0.99580008  0.36567036  0.74875934  1
  C  C5  1  0.36987027  0.00419992  0.74875934  1
  C  C6  1  0.29695524  0.33330237  0.58323102  1
  C  C7  1  0.03634814  0.70304476  0.58323102  1
  C  C8  1  0.66669763  0.96365186  0.58323102  1
  C  C9  1  0.29846223  0.96824231  0.08399800  1
  C  C10  1  0.66978107  0.70153777  0.08399800  1
  C  C11  1  0.03175769  0.33021893  0.08399800  1
  C  C12  1  0.96766843  0.66679817  0.91653242  1
  C  C13  1  0.69912874  0.03233157  0.91653242  1
  C  C14  1  0.33320183  0.30087126  0.91653242  1
  C  C15  1  0.96409839  0.29835418  0.41725640  1
  C  C16  1  0.33425479  0.03590161  0.41725640  1
  C  C17  1  0.70164582  0.66574521  0.41725640  1
  C  C18  1  -0.00000000  -0.00000000  0.50021663  1
  C  C19  1  -0.00000000  -0.00000000  0.00147415  1
  C  C20  1  0.66666700  0.33333300  0.83129816  1
  C  C21  1  0.66666700  0.33333300  0.33608954  1
  C  C22  1  0.33333300  0.66666700  0.16648818  1
  C  C23  1  0.33333300  0.66666700  0.66431771  1
  Ni  Ni24  1  -0.00000000  -0.00000000  0.85072913  1
  Ni  Ni25  1  0.66666700  0.33333300  0.18665455  1
  Ni  Ni26  1  0.66666700  0.33333300  0.98216732  1
  Ni  Ni27  1  0.33333300  0.66666700  0.01896898  1
  Ni  Ni28  1  0.33333300  0.66666700  0.31518409  1
  Ni  Ni29  1  0.33333300  0.66666700  0.81258058  1
  Cu  Cu30  1  -0.00000000  -0.00000000  0.35294893  1
  Cu  Cu31  1  -0.00000000  -0.00000000  0.64765105  1
  Cu  Cu32  1  -0.00000000  -0.00000000  0.14843154  1
  Cu  Cu33  1  0.66666700  0.33333300  0.68294188  1
  Cu  Cu34  1  0.66666700  0.33333300  0.48342539  1
  Cu  Cu35  1  0.33333300  0.66666700  0.51770657  1
  C  C36  1  0.28484798  0.99954312  0.25044242  1
  C  C37  1  0.71469514  0.71515202  0.25044242  1
  C  C38  1  0.00045688  0.28530486  0.25044242  1
  C  C39  1  0.29429949  0.28999260  0.74728747  1
  C  C40  1  0.99569311  0.70570051  0.74728747  1
  C  C41  1  0.71000740  0.00430689  0.74728747  1
  C  C42  1  0.95688667  0.33364213  0.58316692  1
  C  C43  1  0.37675646  0.04311333  0.58316692  1
  C  C44  1  0.66635787  0.62324354  0.58316692  1
  C  C45  1  0.96146236  0.63162209  0.08465341  1
  C  C46  1  0.67016073  0.03853764  0.08465341  1
  C  C47  1  0.36837791  0.32983927  0.08465341  1
  C  C48  1  0.62795666  0.66666572  0.91630946  1
  C  C49  1  0.03870806  0.37204334  0.91630946  1
  C  C50  1  0.33333428  0.96129194  0.91630946  1
  C  C51  1  0.62664803  0.96087649  0.41806749  1
  C  C52  1  0.33422746  0.37335197  0.41806749  1
  C  C53  1  0.03912351  0.66577254  0.41806749  1
  C  C54  1  0.19329969  0.02936280  0.30907193  1
  C  C55  1  0.83606311  0.80670031  0.30907193  1
  C  C56  1  0.97063720  0.16393689  0.30907193  1
  C  C57  1  0.21209396  0.17387603  0.80711892  1
  C  C58  1  0.96178207  0.78790604  0.80711892  1
  C  C59  1  0.82612397  0.03821793  0.80711892  1
  C  C60  1  0.80595101  0.97110792  0.69062688  1
  C  C61  1  0.16515691  0.19404899  0.69062688  1
  C  C62  1  0.02889208  0.83484309  0.69062688  1
  C  C63  1  0.80491988  0.83483525  0.19167563  1
  C  C64  1  0.02991538  0.19508012  0.19167563  1
  C  C65  1  0.16516475  0.97008462  0.19167563  1
  C  C66  1  0.86482625  0.36608783  0.64115574  1
  C  C67  1  0.50126258  0.13517375  0.64115574  1
  C  C68  1  0.63391217  0.49873742  0.64115574  1
  C  C69  1  0.87451139  0.50758261  0.14239135  1
  C  C70  1  0.63307222  0.12548861  0.14239135  1
  C  C71  1  0.49241739  0.36692778  0.14239135  1
  C  C72  1  0.45420240  0.29526163  0.02587407  1
  C  C73  1  0.84106024  0.54579760  0.02587407  1
  C  C74  1  0.70473837  0.15893976  0.02587407  1
  C  C75  1  0.46926407  0.16824087  0.52534957  1
  C  C76  1  0.69897780  0.53073593  0.52534957  1
  C  C77  1  0.83175913  0.30102220  0.52534957  1
  C  C78  1  0.54233720  0.70096865  0.97495746  1
  C  C79  1  0.15863044  0.45766280  0.97495746  1
  C  C80  1  0.29903135  0.84136956  0.97495746  1
  C  C81  1  0.53030246  0.83157637  0.47510146  1
  C  C82  1  0.30127291  0.46969754  0.47510146  1
  C  C83  1  0.16842363  0.69872709  0.47510146  1
  C  C84  1  0.12249534  0.62911173  0.35890956  1
  C  C85  1  0.50661540  0.87750466  0.35890956  1
  C  C86  1  0.37088827  0.49338460  0.35890956  1
  C  C87  1  0.12576847  0.49320636  0.85786041  1
  C  C88  1  0.36743689  0.87423153  0.85786041  1
  C  C89  1  0.50679364  0.63256311  0.85786041  1
  C  C90  1  0.02436371  0.83802456  0.41193366  1
  C  C91  1  0.81366085  0.97563629  0.41193366  1
  C  C92  1  0.16197544  0.18633915  0.41193366  1
  C  C93  1  0.02157826  0.18510788  0.91178458  1
  C  C94  1  0.16352962  0.97842174  0.91178458  1
  C  C95  1  0.81489212  0.83647038  0.91178458  1
  C  C96  1  0.97374474  0.16243253  0.58919358  1
  C  C97  1  0.18868779  0.02625526  0.58919358  1
  C  C98  1  0.83756747  0.81131221  0.58919358  1
  C  C99  1  0.97826319  0.81860079  0.09054904  1
  C  C100  1  0.84033760  0.02173681  0.09054904  1
  C  C101  1  0.18139921  0.15966240  0.09054904  1
  C  C102  1  0.69088624  0.17329981  0.74124798  1
  C  C103  1  0.48241456  0.30911376  0.74124798  1
  C  C104  1  0.82670019  0.51758544  0.74124798  1
  C  C105  1  0.69644837  0.52673363  0.24681450  1
  C  C106  1  0.83028626  0.30355163  0.24681450  1
  C  C107  1  0.47326637  0.16971374  0.24681450  1
  C  C108  1  0.64464496  0.49662798  0.92117239  1
  C  C109  1  0.85198402  0.35535504  0.92117239  1
  C  C110  1  0.50337202  0.14801598  0.92117239  1
  C  C111  1  0.64492921  0.14882014  0.42489436  1
  C  C112  1  0.50389193  0.35507079  0.42489436  1
  C  C113  1  0.85117986  0.49610807  0.42489436  1
  C  C114  1  0.35164461  0.50019409  0.07976176  1
  C  C115  1  0.14854848  0.64835539  0.07976176  1
  C  C116  1  0.49980591  0.85145152  0.07976176  1
  C  C117  1  0.35989509  0.85499825  0.57692297  1
  C  C118  1  0.49510216  0.64010491  0.57692297  1
  C  C119  1  0.14500175  0.50489784  0.57692297  1
  C  C120  1  0.30360763  0.82964971  0.25426296  1
  C  C121  1  0.52604108  0.69639237  0.25426296  1
  C  C122  1  0.17035029  0.47395892  0.25426296  1
  C  C123  1  0.30895097  0.47690662  0.75169899  1
  C  C124  1  0.16795465  0.69104903  0.75169899  1
  C  C125  1  0.52309338  0.83204535  0.75169899  1
