# generated using pymatgen
data_Cu4NiC20
_symmetry_space_group_name_H-M   'P 1'
_cell_length_a   5.53144747
_cell_length_b   7.95613562
_cell_length_c   8.39363844
_cell_angle_alpha   86.68168436
_cell_angle_beta   90.32175573
_cell_angle_gamma   96.12764074
_symmetry_Int_Tables_number   1
_chemical_formula_structural   Cu4NiC20
_chemical_formula_sum   'Cu4 Ni1 C20'
_cell_volume   366.66880600
_cell_formula_units_Z   1
loop_
 _symmetry_equiv_pos_site_id
 _symmetry_equiv_pos_as_xyz
  1  'x, y, z'
loop_
 _atom_site_type_symbol
 _atom_site_label
 _atom_site_symmetry_multiplicity
 _atom_site_fract_x
 _atom_site_fract_y
 _atom_site_fract_z
 _atom_site_occupancy
  Ni  Ni0  1  0.71662200  0.45378100  0.21389700  1
  C  C1  1  0.77706800  0.11448500  0.29318200  1
  C  C2  1  0.26025800  0.63538500  0.18669000  1
  C  C3  1  0.73542800  0.36060100  0.81179200  1
  C  C4  1  0.23164100  0.87929800  0.69394200  1
  Cu  Cu5  1  0.27646600  0.12688600  0.03289100  1
  Cu  Cu6  1  0.70449300  0.70000400  0.50847800  1
  Cu  Cu7  1  0.23834400  0.34175200  0.52562700  1
  Cu  Cu8  1  0.72584700  0.85955800  0.96564500  1
  C  C9  1  0.92477100  0.04331900  0.13918500  1
  C  C10  1  0.52960700  0.21498600  0.22228900  1
  C  C11  1  0.25615200  0.04346500  0.57050600  1
  C  C12  1  0.24998000  0.49510600  0.05354500  1
  C  C13  1  0.74381000  0.48565200  0.96337600  1
  C  C14  1  0.50129400  0.82088800  0.74017100  1
  C  C15  1  0.71876000  0.97766900  0.44418700  1
  C  C16  1  0.07232400  0.72001400  0.61671300  1
  C  C17  1  0.58468800  0.17775500  0.86777200  1
  C  C18  1  0.09359500  0.92729700  0.85859300  1
  C  C19  1  0.40221300  0.82226900  0.12312300  1
  C  C20  1  0.00960100  0.32746700  0.76187400  1
  C  C21  1  0.97232400  0.65377300  0.24574600  1
  C  C22  1  0.59314600  0.44169000  0.65601400  1
  C  C23  1  0.93484200  0.30229200  0.34784000  1
  C  C24  1  0.44464500  0.55609000  0.33661100  1
