# generated using pymatgen
data_Cu4NiC12
_symmetry_space_group_name_H-M   'P 1'
_cell_length_a   5.73741709
_cell_length_b   5.74280696
_cell_length_c   7.51590324
_cell_angle_alpha   70.03126969
_cell_angle_beta   109.93147663
_cell_angle_gamma   126.90733795
_symmetry_Int_Tables_number   1
_chemical_formula_structural   Cu4NiC12
_chemical_formula_sum   'Cu4 Ni1 C12'
_cell_volume   183.04628138
_cell_formula_units_Z   1
loop_
 _symmetry_equiv_pos_site_id
 _symmetry_equiv_pos_as_xyz
  1  'x, y, z'
loop_
 _atom_site_type_symbol
 _atom_site_label
 _atom_site_symmetry_multiplicity
 _atom_site_fract_x
 _atom_site_fract_y
 _atom_site_fract_z
 _atom_site_occupancy
  Ni  Ni0  1  0.18963500  0.81359800  0.90474000  1
  C  C1  1  0.99936600  0.01515500  0.48443700  1
  C  C2  1  0.98299600  0.04225600  0.01036500  1
  Cu  Cu3  1  0.39250600  0.62075800  0.76336200  1
  Cu  Cu4  1  0.37596000  0.64818400  0.28987700  1
  Cu  Cu5  1  0.63313500  0.37881600  0.67903800  1
  Cu  Cu6  1  0.62604000  0.38583800  0.20802800  1
  C  C7  1  0.34140100  0.96588500  0.65501800  1
  C  C8  1  0.03274600  0.68858000  0.14412600  1
  C  C9  1  0.26373000  0.42417500  0.54851500  1
  C  C10  1  0.81727700  0.81225100  0.74347200  1
  C  C11  1  0.39528400  0.25095900  0.94413700  1
  C  C12  1  0.55253400  0.76672900  0.03436600  1
  C  C13  1  0.19333700  0.22280100  0.24527600  1
  C  C14  1  0.74269100  0.60056000  0.42614200  1
  C  C15  1  0.98269000  0.39496900  0.83955800  1
  C  C16  1  0.65724300  0.05181900  0.33880300  1
