# generated using pymatgen
data_Cu5NiC2
_symmetry_space_group_name_H-M   'P 1'
_cell_length_a   5.78034926
_cell_length_b   5.78034926
_cell_length_c   8.48248454
_cell_angle_alpha   68.67476920
_cell_angle_beta   68.67476920
_cell_angle_gamma   71.87757423
_symmetry_Int_Tables_number   1
_chemical_formula_structural   Cu5NiC2
_chemical_formula_sum   'Cu10 Ni2 C4'
_cell_volume   240.66081633
_cell_formula_units_Z   2
loop_
 _symmetry_equiv_pos_site_id
 _symmetry_equiv_pos_as_xyz
  1  'x, y, z'
loop_
 _atom_site_type_symbol
 _atom_site_label
 _atom_site_symmetry_multiplicity
 _atom_site_fract_x
 _atom_site_fract_y
 _atom_site_fract_z
 _atom_site_occupancy
  C  C0  1  0.50000000  0.50000000  0.00000000  1
  C  C1  1  0.50000000  0.50000000  0.50000000  1
  C  C2  1  0.97414300  0.97414300  0.32302400  1
  C  C3  1  0.02585700  0.02585700  0.67697600  1
  Ni  Ni4  1  0.19400300  0.80599700  0.50000000  1
  Ni  Ni5  1  0.80599700  0.19400300  0.50000000  1
  Cu  Cu6  1  0.20380800  0.20380800  0.14720100  1
  Cu  Cu7  1  0.79619200  0.79619200  0.85279900  1
  Cu  Cu8  1  0.27655500  0.27655500  0.50167300  1
  Cu  Cu9  1  0.72344500  0.72344500  0.49832700  1
  Cu  Cu10  1  0.39765900  0.39765900  0.76046300  1
  Cu  Cu11  1  0.60234100  0.60234100  0.23953700  1
  Cu  Cu12  1  0.87308400  0.29107500  0.80301600  1
  Cu  Cu13  1  0.70892500  0.12691600  0.19698400  1
  Cu  Cu14  1  0.12691600  0.70892500  0.19698400  1
  Cu  Cu15  1  0.29107500  0.87308400  0.80301600  1
