# generated using pymatgen
data_Cu6NiC12
_symmetry_space_group_name_H-M   'P 1'
_cell_length_a   5.30478922
_cell_length_b   14.59581787
_cell_length_c   3.04425000
_cell_angle_alpha   90.00057329
_cell_angle_beta   90.00063223
_cell_angle_gamma   87.53446689
_symmetry_Int_Tables_number   1
_chemical_formula_structural   Cu6NiC12
_chemical_formula_sum   'Cu6 Ni1 C12'
_cell_volume   235.49118836
_cell_formula_units_Z   1
loop_
 _symmetry_equiv_pos_site_id
 _symmetry_equiv_pos_as_xyz
  1  'x, y, z'
loop_
 _atom_site_type_symbol
 _atom_site_label
 _atom_site_symmetry_multiplicity
 _atom_site_fract_x
 _atom_site_fract_y
 _atom_site_fract_z
 _atom_site_occupancy
  Ni  Ni0  1  0.87651500  0.84189200  0.49999300  1
  Cu  Cu1  1  0.01939700  0.02881600  0.99996300  1
  Cu  Cu2  1  0.12074100  0.33329700  0.00000800  1
  Cu  Cu3  1  0.94975400  0.64486900  0.00007100  1
  Cu  Cu4  1  0.56032900  0.17783700  0.49992800  1
  Cu  Cu5  1  0.53461300  0.49046900  0.50008300  1
  Cu  Cu6  1  0.35336200  0.81675000  0.50001200  1
  C  C7  1  0.27518900  0.26740000  0.50004300  1
  C  C8  1  0.12022400  0.94453600  0.49997000  1
  C  C9  1  0.09936300  0.78015700  0.00001800  1
  C  C10  1  0.36868500  0.43372000  0.00004200  1
  C  C11  1  0.69177700  0.55149000  0.00007100  1
  C  C12  1  0.84255400  0.08625100  0.49994400  1
  C  C13  1  0.19138900  0.60439200  0.50004600  1
  C  C14  1  0.37202800  0.10636500  0.99988200  1
  C  C15  1  0.74289800  0.24319700  0.99992200  1
  C  C16  1  0.63393600  0.88146200  0.99997000  1
  C  C17  1  0.91160300  0.39040600  0.49999900  1
  C  C18  1  0.68286700  0.72854800  0.50003200  1
