# generated using pymatgen
data_Cu(NiC)2
_symmetry_space_group_name_H-M   'P 1'
_cell_length_a   8.67542054
_cell_length_b   8.67542054
_cell_length_c   13.03164538
_cell_angle_alpha   65.68935167
_cell_angle_beta   65.68935167
_cell_angle_gamma   50.82754010
_symmetry_Int_Tables_number   1
_chemical_formula_structural   Cu(NiC)2
_chemical_formula_sum   'Cu4 Ni8 C8'
_cell_volume   676.78985650
_cell_formula_units_Z   4
loop_
 _symmetry_equiv_pos_site_id
 _symmetry_equiv_pos_as_xyz
  1  'x, y, z'
loop_
 _atom_site_type_symbol
 _atom_site_label
 _atom_site_symmetry_multiplicity
 _atom_site_fract_x
 _atom_site_fract_y
 _atom_site_fract_z
 _atom_site_occupancy
  C  C0  1  0.16141400  0.53424600  0.13088100  1
  C  C1  1  0.46575400  0.83858600  0.36911900  1
  C  C2  1  0.83858600  0.46575400  0.86911900  1
  C  C3  1  0.53424600  0.16141400  0.63088100  1
  C  C4  1  0.91260700  0.08739300  0.25000000  1
  C  C5  1  0.08739300  0.91260700  0.75000000  1
  C  C6  1  0.00000000  0.50000000  0.50000000  1
  C  C7  1  0.50000000  0.00000000  0.00000000  1
  Ni  Ni8  1  0.70457900  0.60627100  0.12934300  1
  Ni  Ni9  1  0.39372900  0.29542100  0.37065700  1
  Ni  Ni10  1  0.29542100  0.39372900  0.87065700  1
  Ni  Ni11  1  0.60627100  0.70457900  0.62934300  1
  Ni  Ni12  1  0.27784700  0.91599300  0.95272600  1
  Ni  Ni13  1  0.08400700  0.72215300  0.54727400  1
  Ni  Ni14  1  0.72215300  0.08400700  0.04727400  1
  Ni  Ni15  1  0.91599300  0.27784700  0.45272600  1
  Cu  Cu16  1  0.91378400  0.69218500  0.36800800  1
  Cu  Cu17  1  0.30781500  0.08621600  0.13199200  1
  Cu  Cu18  1  0.08621600  0.30781500  0.63199200  1
  Cu  Cu19  1  0.69218500  0.91378400  0.86800800  1
