# generated using pymatgen
data_Cu2Ni5C33
_symmetry_space_group_name_H-M   'P 1'
_cell_length_a   8.82051398
_cell_length_b   8.81815010
_cell_length_c   21.82536268
_cell_angle_alpha   89.89335628
_cell_angle_beta   89.43931401
_cell_angle_gamma   119.96425363
_symmetry_Int_Tables_number   1
_chemical_formula_structural   Cu2Ni5C33
_chemical_formula_sum   'Cu6 Ni15 C99'
_cell_volume   1470.57042809
_cell_formula_units_Z   3
loop_
 _symmetry_equiv_pos_site_id
 _symmetry_equiv_pos_as_xyz
  1  'x, y, z'
loop_
 _atom_site_type_symbol
 _atom_site_label
 _atom_site_symmetry_multiplicity
 _atom_site_fract_x
 _atom_site_fract_y
 _atom_site_fract_z
 _atom_site_occupancy
  C  C0  1  0.63538370  0.00214913  0.25051117  1
  C  C1  1  0.36525451  0.36806568  0.24933640  1
  C  C2  1  0.99885585  0.62962670  0.25036865  1
  C  C3  1  0.63485816  0.63377432  0.74923301  1
  C  C4  1  0.99768754  0.36577754  0.75019792  1
  C  C5  1  0.36811469  0.00272511  0.75014340  1
  C  C6  1  0.29874000  0.33323001  0.58355710  1
  C  C7  1  0.03365384  0.70282805  0.58351990  1
  C  C8  1  0.67044892  0.96633001  0.58322846  1
  C  C9  1  0.03407231  0.33286986  0.08636716  1
  C  C10  1  0.96904078  0.66590385  0.91634838  1
  C  C11  1  0.33248979  0.03154627  0.41714919  1
  C  C12  1  0.98729326  0.99474952  0.49769153  1
  C  C13  1  0.01163645  0.00450290  0.99975667  1
  C  C14  1  0.66119784  0.31992464  0.83466083  1
  C  C15  1  0.68061548  0.33940153  0.33682125  1
  C  C16  1  0.34029841  0.66961204  0.16491973  1
  C  C17  1  0.33480495  0.66697909  0.66626180  1
  C  C18  1  0.01279891  0.01446292  0.85251305  1
  C  C19  1  0.01004407  0.99515699  0.14684837  1
  C  C20  1  0.66822575  0.34593273  0.18894606  1
  C  C21  1  0.65731415  0.32773912  0.97776998  1
  C  C22  1  0.31141031  0.65510380  0.02062559  1
  C  C23  1  0.32694759  0.67530576  0.31395830  1
  Ni  Ni24  1  0.28568624  0.00311046  0.25392433  1
  Ni  Ni25  1  0.71212190  0.71578807  0.25023769  1
  Ni  Ni26  1  -0.00026584  0.28195977  0.25131837  1
  Ni  Ni27  1  0.29320506  0.29346898  0.74735300  1
  Ni  Ni28  1  0.99598096  0.71154889  0.74923970  1
  Ni  Ni29  1  0.71217868  0.00008423  0.74944710  1
  Ni  Ni30  1  0.95778209  0.33311003  0.58385778  1
  Ni  Ni31  1  0.38280462  0.05258596  0.58308133  1
  Ni  Ni32  1  0.66621215  0.61806000  0.58203416  1
  Ni  Ni33  1  0.95009483  0.62722476  0.08134591  1
  Ni  Ni34  1  0.37712580  0.33583305  0.08341547  1
  Ni  Ni35  1  0.04248977  0.37305432  0.91478372  1
  Ni  Ni36  1  0.33641693  0.95645488  0.91475291  1
  Ni  Ni37  1  0.63011313  0.96072056  0.41812011  1
  Ni  Ni38  1  0.03489552  0.66362461  0.41935198  1
  Cu  Cu39  1  0.97945595  0.97992607  0.35229890  1
  Cu  Cu40  1  0.99961470  0.00064127  0.64628772  1
  Cu  Cu41  1  0.66866175  0.33573260  0.68592633  1
  Cu  Cu42  1  0.68499495  0.33255976  0.48287373  1
  Cu  Cu43  1  0.33858472  0.68233925  0.52153420  1
  Cu  Cu44  1  0.32390441  0.67289163  0.81038324  1
  C  C45  1  0.66368299  0.04167075  0.08316494  1
  C  C46  1  0.61844796  0.66699737  0.91569349  1
  C  C47  1  0.33371110  0.37948621  0.41783379  1
  C  C48  1  0.20029462  0.04397160  0.31408266  1
  C  C49  1  0.84109899  0.78606056  0.30913956  1
  C  C50  1  0.95684803  0.14892024  0.30959161  1
  C  C51  1  0.20520287  0.16143458  0.80594820  1
  C  C52  1  0.95782552  0.79325866  0.80985103  1
  C  C53  1  0.84385824  0.04031393  0.80629988  1
  C  C54  1  0.79226349  0.95494002  0.68779642  1
  C  C55  1  0.16380870  0.21080863  0.68818486  1
  C  C56  1  0.04187003  0.83978181  0.68853374  1
  C  C57  1  0.79957191  0.84515340  0.19192579  1
  C  C58  1  0.03870793  0.20345148  0.18910879  1
  C  C59  1  0.15910043  0.95859644  0.19457493  1
  C  C60  1  0.87782719  0.38170584  0.64422188  1
  C  C61  1  0.50841368  0.13231620  0.64315040  1
  C  C62  1  0.62144986  0.49585372  0.64428172  1
  C  C63  1  0.86628218  0.49932170  0.14251446  1
  C  C64  1  0.63741946  0.11838726  0.14026072  1
  C  C65  1  0.49500564  0.35677691  0.14440823  1
  C  C66  1  0.47589654  0.30513891  0.02508952  1
  C  C67  1  0.83673467  0.52703718  0.02142120  1
  C  C68  1  0.69265976  0.15600987  0.02927397  1
  C  C69  1  0.46669830  0.17760460  0.52219623  1
  C  C70  1  0.71087793  0.52770597  0.52487331  1
  C  C71  1  0.82629956  0.27914129  0.52616153  1
  C  C72  1  0.53132104  0.68638351  0.97057748  1
  C  C73  1  0.16045265  0.46261813  0.97648472  1
  C  C74  1  0.30630567  0.82523613  0.97272461  1
  C  C75  1  0.53869746  0.83751936  0.47954693  1
  C  C76  1  0.30898865  0.46148837  0.47425154  1
  C  C77  1  0.16852813  0.70610508  0.47818780  1
  C  C78  1  0.12902262  0.63646100  0.35808479  1
  C  C79  1  0.50069192  0.86759957  0.35904901  1
  C  C80  1  0.35453147  0.48431437  0.36213511  1
  C  C81  1  0.13562414  0.50535644  0.85505590  1
  C  C82  1  0.36924944  0.87118710  0.85199121  1
  C  C83  1  0.51658065  0.64041623  0.85867734  1
  C  C84  1  0.03313988  0.84978977  0.41196396  1
  C  C85  1  0.82288076  0.97814312  0.41161728  1
  C  C86  1  0.17683637  0.20249848  0.41579968  1
  C  C87  1  0.02351093  0.18065187  0.91103146  1
  C  C88  1  0.15321566  0.96092341  0.91108441  1
  C  C89  1  0.79512090  0.82205916  0.91262831  1
  C  C90  1  0.97709834  0.15764284  0.59021690  1
  C  C91  1  0.18580349  0.02929493  0.58892015  1
  C  C92  1  0.84125929  0.81424682  0.58818478  1
  C  C93  1  0.96952717  0.81831672  0.08692199  1
  C  C94  1  0.82525116  0.03142499  0.08610197  1
  C  C95  1  0.17937540  0.16719293  0.08689818  1
  C  C96  1  0.69098260  0.17451547  0.74311166  1
  C  C97  1  0.48543308  0.30783850  0.74280153  1
  C  C98  1  0.82229212  0.51543962  0.74313381  1
  C  C99  1  0.69131655  0.51994473  0.24471648  1
  C  C100  1  0.82648260  0.30426623  0.24543318  1
  C  C101  1  0.48133432  0.17036799  0.24640106  1
  C  C102  1  0.63989960  0.50934022  0.91931223  1
  C  C103  1  0.85470959  0.36547497  0.92052949  1
  C  C104  1  0.50829660  0.14939792  0.92148281  1
  C  C105  1  0.63168869  0.14911846  0.42392223  1
  C  C106  1  0.49203364  0.36180959  0.41995594  1
  C  C107  1  0.84329848  0.48672949  0.42417243  1
  C  C108  1  0.36111065  0.51234255  0.07845602  1
  C  C109  1  0.14491999  0.64094286  0.07886568  1
  C  C110  1  0.50845174  0.86632070  0.07699347  1
  C  C111  1  0.36004811  0.85400099  0.57881003  1
  C  C112  1  0.48901753  0.63775255  0.57566177  1
  C  C113  1  0.15381558  0.50849465  0.57449092  1
  C  C114  1  0.30599112  0.82747799  0.25644803  1
  C  C115  1  0.51598633  0.68772613  0.25803097  1
  C  C116  1  0.17318575  0.47790310  0.25795249  1
  C  C117  1  0.31458501  0.48839255  0.75729537  1
  C  C118  1  0.17356173  0.69151265  0.75257429  1
  C  C119  1  0.51677623  0.82172386  0.75609422  1
