# generated using pymatgen
data_Cu(NiC9)2
_symmetry_space_group_name_H-M   'P 1'
_cell_length_a   9.31435228
_cell_length_b   9.31435193
_cell_length_c   22.36537593
_cell_angle_alpha   90.11884203
_cell_angle_beta   89.88115797
_cell_angle_gamma   119.62423411
_symmetry_Int_Tables_number   1
_chemical_formula_structural   Cu(NiC9)2
_chemical_formula_sum   'Cu6 Ni12 C108'
_cell_volume   1686.71965498
_cell_formula_units_Z   6
loop_
 _symmetry_equiv_pos_site_id
 _symmetry_equiv_pos_as_xyz
  1  'x, y, z'
loop_
 _atom_site_type_symbol
 _atom_site_label
 _atom_site_symmetry_multiplicity
 _atom_site_fract_x
 _atom_site_fract_y
 _atom_site_fract_z
 _atom_site_occupancy
  C  C0  1  0.65542270  0.02268373  0.24922376  1
  C  C1  1  0.37520547  0.35974293  0.24169527  1
  C  C2  1  0.96906583  0.61755114  0.24453290  1
  C  C3  1  0.64025707  0.62479453  0.74169527  1
  C  C4  1  0.97731627  0.34457730  0.74922376  1
  C  C5  1  0.38244886  0.03093417  0.74453290  1
  C  C6  1  0.32208970  0.35601673  0.58255676  1
  C  C7  1  0.04187247  0.69307593  0.57502827  1
  C  C8  1  0.63573283  0.95088414  0.57786590  1
  C  C9  1  0.30692407  0.95812753  0.07502827  1
  C  C10  1  0.64398327  0.67791030  0.08255676  1
  C  C11  1  0.04911586  0.36426717  0.07786590  1
  C  C12  1  0.98875570  0.68935073  0.91589076  1
  C  C13  1  0.70853847  0.02640993  0.90836227  1
  C  C14  1  0.30239883  0.28421814  0.91119990  1
  C  C15  1  0.97359007  0.29146153  0.40836227  1
  C  C16  1  0.31064927  0.01124430  0.41589076  1
  C  C17  1  0.71578186  0.69760117  0.41119990  1
  C  C18  1  0.98917142  0.98794477  0.49210525  1
  C  C19  1  0.01205523  0.01082858  0.99210525  1
  C  C20  1  0.65583842  0.32127777  0.82543825  1
  C  C21  1  0.67872223  0.34416158  0.32543825  1
  C  C22  1  0.32250442  0.65461177  0.15877225  1
  C  C23  1  0.34538823  0.67749558  0.65877225  1
  C  C24  1  0.99854335  0.99884666  0.34849747  1
  C  C25  1  0.00115334  0.00145665  0.84849747  1
  C  C26  1  0.66521035  0.33217966  0.68183047  1
  C  C27  1  0.66782034  0.33478965  0.18183047  1
  C  C28  1  0.33187635  0.66551366  0.01516447  1
  C  C29  1  0.33448634  0.66812365  0.51516447  1
  C  C30  1  0.99899282  0.00113518  0.64821737  1
  C  C31  1  0.99886482  0.00100718  0.14821737  1
  C  C32  1  0.66565982  0.33446818  0.98155037  1
  C  C33  1  0.66553182  0.33434018  0.48155037  1
  C  C34  1  0.33232582  0.66780218  0.31488437  1
  C  C35  1  0.33219782  0.66767418  0.81488437  1
  Ni  Ni36  1  0.69406876  0.70382329  0.25290176  1
  Ni  Ni37  1  0.01029961  0.30550952  0.25320115  1
  Ni  Ni38  1  0.29617671  0.30593124  0.75290176  1
  Ni  Ni39  1  0.69449048  0.98970039  0.75320115  1
  Ni  Ni40  1  0.36073576  0.03715629  0.58623476  1
  Ni  Ni41  1  0.67696661  0.63884252  0.58653415  1
  Ni  Ni42  1  0.96284371  0.63926424  0.08623476  1
  Ni  Ni43  1  0.36115748  0.32303339  0.08653415  1
  Ni  Ni44  1  0.02740176  0.37049029  0.91956876  1
  Ni  Ni45  1  0.34363261  0.97217652  0.91986815  1
  Ni  Ni46  1  0.62950971  0.97259824  0.41956876  1
  Ni  Ni47  1  0.02782348  0.65636739  0.41986815  1
  Cu  Cu48  1  0.28982995  0.98558396  0.25066889  1
  Cu  Cu49  1  0.01441604  0.71017005  0.75066889  1
  Cu  Cu50  1  0.95649695  0.31891696  0.58400189  1
  Cu  Cu51  1  0.68108304  0.04350305  0.08400189  1
  Cu  Cu52  1  0.62316295  0.65225096  0.91733589  1
  Cu  Cu53  1  0.34774904  0.37683705  0.41733589  1
  C  C54  1  0.22404408  0.01671269  0.30837475  1
  C  C55  1  0.79979550  0.77632068  0.31193098  1
  C  C56  1  0.99024211  0.20847730  0.31334118  1
  C  C57  1  0.22367932  0.20020450  0.81193098  1
  C  C58  1  0.98328731  0.77595592  0.80837475  1
  C  C59  1  0.79152270  0.00975789  0.81334118  1
  C  C60  1  0.80586257  0.96961462  0.69472954  1
  C  C61  1  0.16353571  0.19455714  0.69458857  1
  C  C62  1  0.03195107  0.83158570  0.69632229  1
  C  C63  1  0.80544286  0.83646429  0.19458857  1
  C  C64  1  0.03038538  0.19413743  0.19472954  1
  C  C65  1  0.16841430  0.96804893  0.19632229  1
  C  C66  1  0.89071108  0.35004569  0.64170775  1
  C  C67  1  0.46646250  0.10965368  0.64526398  1
  C  C68  1  0.65690911  0.54181030  0.64667418  1
  C  C69  1  0.89034632  0.53353750  0.14526398  1
  C  C70  1  0.64995431  0.10928892  0.14170775  1
  C  C71  1  0.45818970  0.34309089  0.14667418  1
  C  C72  1  0.47252957  0.30294762  0.02806254  1
  C  C73  1  0.83020271  0.52789014  0.02792157  1
  C  C74  1  0.69861807  0.16491870  0.02965529  1
  C  C75  1  0.47210986  0.16979729  0.52792157  1
  C  C76  1  0.69705238  0.52747043  0.52806254  1
  C  C77  1  0.83508130  0.30138193  0.52965529  1
  C  C78  1  0.55737708  0.68337969  0.97504175  1
  C  C79  1  0.13312850  0.44298768  0.97859798  1
  C  C80  1  0.32357511  0.87514430  0.98000818  1
  C  C81  1  0.55701232  0.86687150  0.47859798  1
  C  C82  1  0.31662031  0.44262292  0.47504175  1
  C  C83  1  0.12485570  0.67642489  0.48000818  1
  C  C84  1  0.13919557  0.63628162  0.36139654  1
  C  C85  1  0.49686871  0.86122414  0.36125557  1
  C  C86  1  0.36528407  0.49825270  0.36298929  1
  C  C87  1  0.13877586  0.50313129  0.86125557  1
  C  C88  1  0.36371838  0.86080443  0.86139654  1
  C  C89  1  0.50174730  0.63471593  0.86298929  1
  C  C90  1  0.00089193  0.81379471  0.41387026  1
  C  C91  1  0.81822915  0.01304845  0.41360639  1
  C  C92  1  0.21074173  0.20056442  0.40785845  1
  C  C93  1  0.98695155  0.18177085  0.91360639  1
  C  C94  1  0.18620529  0.99910807  0.91387026  1
  C  C95  1  0.79943558  0.78925827  0.90785845  1
  C  C96  1  0.95143363  0.14586279  0.58681215  1
  C  C97  1  0.18237767  0.04308791  0.58915550  1
  C  C98  1  0.85669894  0.81995643  0.58836613  1
  C  C99  1  0.95691209  0.81762233  0.08915550  1
  C  C100  1  0.85413721  0.04856637  0.08681215  1
  C  C101  1  0.18004357  0.14330106  0.08836613  1
  C  C102  1  0.66755893  0.14712771  0.74720326  1
  C  C103  1  0.48489615  0.34638145  0.74693939  1
  C  C104  1  0.87740873  0.53389742  0.74119145  1
  C  C105  1  0.65361855  0.51510385  0.24693939  1
  C  C106  1  0.85287229  0.33244107  0.24720326  1
  C  C107  1  0.46610258  0.12259127  0.24119145  1
  C  C108  1  0.61810063  0.47919579  0.92014515  1
  C  C109  1  0.84904467  0.37642091  0.92248850  1
  C  C110  1  0.52336594  0.15328943  0.92169913  1
  C  C111  1  0.62357909  0.15095533  0.42248850  1
  C  C112  1  0.52080421  0.38189937  0.42014515  1
  C  C113  1  0.84671057  0.47663406  0.42169913  1
  C  C114  1  0.33422493  0.48046171  0.08053726  1
  C  C115  1  0.15156215  0.67971545  0.08027339  1
  C  C116  1  0.54407473  0.86723142  0.07452545  1
  C  C117  1  0.32028455  0.84843785  0.58027339  1
  C  C118  1  0.51953829  0.66577507  0.58053726  1
  C  C119  1  0.13276858  0.45592527  0.57452545  1
  C  C120  1  0.28476663  0.81252979  0.25347915  1
  C  C121  1  0.51571067  0.70975491  0.25582250  1
  C  C122  1  0.19003194  0.48662343  0.25503313  1
  C  C123  1  0.29024509  0.48428933  0.75582250  1
  C  C124  1  0.18747021  0.71523337  0.75347915  1
  C  C125  1  0.51337657  0.80996806  0.75503313  1
