# generated using pymatgen
data_CuNi5C31
_symmetry_space_group_name_H-M   'P 1'
_cell_length_a   8.62638489
_cell_length_b   8.61045799
_cell_length_c   22.23917231
_cell_angle_alpha   89.60682594
_cell_angle_beta   90.18427040
_cell_angle_gamma   119.98266365
_symmetry_Int_Tables_number   1
_chemical_formula_structural   CuNi5C31
_chemical_formula_sum   'Cu3 Ni15 C93'
_cell_volume   1430.77037050
_cell_formula_units_Z   3
loop_
 _symmetry_equiv_pos_site_id
 _symmetry_equiv_pos_as_xyz
  1  'x, y, z'
loop_
 _atom_site_type_symbol
 _atom_site_label
 _atom_site_symmetry_multiplicity
 _atom_site_fract_x
 _atom_site_fract_y
 _atom_site_fract_z
 _atom_site_occupancy
  C  C0  1  0.63960851  0.63556026  0.74799214  1
  C  C1  1  0.30071077  0.96601886  0.08476661  1
  C  C2  1  0.32985003  0.02778129  0.41397939  1
  C  C3  1  0.99164122  0.99983034  0.50075397  1
  C  C4  1  0.99447740  0.00039149  0.99909521  1
  C  C5  1  0.66675645  0.32740692  0.83096601  1
  C  C6  1  0.66864844  0.33536391  0.32897794  1
  C  C7  1  0.33332668  0.66326813  0.16734435  1
  C  C8  1  0.32732074  0.66364785  0.66235508  1
  C  C9  1  0.66842790  0.33437385  0.97991413  1
  C  C10  1  0.67781717  0.34236467  0.47970783  1
  C  C11  1  0.32850025  0.66624319  0.81218951  1
  C  C12  1  0.00114272  0.00179699  0.35151285  1
  C  C13  1  0.00127069  0.00156206  0.85178479  1
  C  C14  1  0.99306442  0.00104822  0.64839056  1
  C  C15  1  0.00064584  0.99863537  0.14762474  1
  C  C16  1  0.67450807  0.33667008  0.68559926  1
  C  C17  1  0.65918271  0.32683607  0.18394424  1
  C  C18  1  0.33367859  0.66148398  0.01900784  1
  C  C19  1  0.33350848  0.65665116  0.51733069  1
  C  C20  1  0.33340619  0.67340238  0.31552286  1
  Ni  Ni21  1  0.29145165  -0.00004076  0.24999334  1
  Ni  Ni22  1  0.28625847  0.27859539  0.74888315  1
  Ni  Ni23  1  0.99771668  0.71563630  0.74876308  1
  Ni  Ni24  1  0.71812332  0.01012313  0.74969769  1
  Ni  Ni25  1  0.96348540  0.33458237  0.58602801  1
  Ni  Ni26  1  0.66658675  0.62923956  0.58602925  1
  Ni  Ni27  1  0.95702737  0.62259250  0.08625114  1
  Ni  Ni28  1  0.67025071  0.03935281  0.08565539  1
  Ni  Ni29  1  0.37479797  0.33828541  0.08536510  1
  Ni  Ni30  1  0.62691231  0.67468554  0.91771407  1
  Ni  Ni31  1  0.04646984  0.37228372  0.91835512  1
  Ni  Ni32  1  0.32648538  0.95353836  0.91829803  1
  Ni  Ni33  1  0.62482016  0.94799194  0.41643124  1
  Ni  Ni34  1  0.32728067  0.38025252  0.41507259  1
  Ni  Ni35  1  0.05174208  0.67105800  0.41573892  1
  Cu  Cu36  1  0.70965655  0.70966203  0.25010826  1
  Cu  Cu37  1  0.00029804  0.29069362  0.24977005  1
  Cu  Cu38  1  0.37390612  0.03995450  0.58458522  1
  C  C39  1  0.20911400  0.03243857  0.30746714  1
  C  C40  1  0.82026200  0.78898277  0.30457279  1
  C  C41  1  0.96617663  0.17867972  0.30451697  1
  C  C42  1  0.20817708  0.17316434  0.80678028  1
  C  C43  1  0.96133805  0.79112457  0.80575050  1
  C  C44  1  0.82508291  0.03440561  0.80687305  1
  C  C45  1  0.78556665  0.95590385  0.69423411  1
  C  C46  1  0.17189081  0.20760552  0.69252530  1
  C  C47  1  0.03763836  0.83025417  0.69227337  1
  C  C48  1  0.78790318  0.82198666  0.19547100  1
  C  C49  1  0.03090899  0.21061571  0.19550025  1
  C  C50  1  0.17571479  0.96722736  0.19264391  1
  C  C51  1  0.87356937  0.36602588  0.63966759  1
  C  C52  1  0.48776484  0.12302360  0.63742012  1
  C  C53  1  0.63179520  0.50905709  0.64168152  1
  C  C54  1  0.87049908  0.50301815  0.14086211  1
  C  C55  1  0.62754387  0.12290719  0.13913100  1
  C  C56  1  0.49335181  0.36916908  0.13993916  1
  C  C57  1  0.46333346  0.30015103  0.02858219  1
  C  C58  1  0.83775576  0.53453556  0.02838653  1
  C  C59  1  0.69895785  0.16121906  0.02808225  1
  C  C60  1  0.45758830  0.15315444  0.52828385  1
  C  C61  1  0.69390944  0.53236200  0.52927054  1
  C  C62  1  0.83911303  0.30374768  0.52851210  1
  C  C63  1  0.53936139  0.70036455  0.97266203  1
  C  C64  1  0.15943718  0.45963266  0.97332996  1
  C  C65  1  0.30086153  0.84310948  0.97510997  1
  C  C66  1  0.54095221  0.84091565  0.47392996  1
  C  C67  1  0.29736242  0.45545605  0.47272212  1
  C  C68  1  0.16449896  0.70682428  0.47270590  1
  C  C69  1  0.12302760  0.62804745  0.35980602  1
  C  C70  1  0.50339828  0.87921524  0.36080107  1
  C  C71  1  0.37008685  0.49653599  0.35886451  1
  C  C72  1  0.13001158  0.49497406  0.86121808  1
  C  C73  1  0.36408461  0.86821882  0.86189238  1
  C  C74  1  0.50748601  0.63531419  0.85977663  1
  C  C75  1  0.02498689  0.83455008  0.40945904  1
  C  C76  1  0.81358951  0.97781925  0.40839405  1
  C  C77  1  0.16849359  0.18605612  0.40941776  1
  C  C78  1  0.02277256  0.18763974  0.90948216  1
  C  C79  1  0.16474218  0.97627068  0.90937028  1
  C  C80  1  0.81248827  0.83516915  0.90910142  1
  C  C81  1  0.97555023  0.16312266  0.58936535  1
  C  C82  1  0.19819922  0.02787230  0.58853739  1
  C  C83  1  0.83940952  0.81068003  0.58930425  1
  C  C84  1  0.97674808  0.81110090  0.08955193  1
  C  C85  1  0.83932173  0.02592719  0.09107088  1
  C  C86  1  0.19176985  0.16290416  0.08949995  1
  C  C87  1  0.68674020  0.16841253  0.74230917  1
  C  C88  1  0.48062041  0.31549344  0.74285171  1
  C  C89  1  0.83239221  0.52556025  0.74369300  1
  C  C90  1  0.69391325  0.53054192  0.24408931  1
  C  C91  1  0.83856627  0.30944944  0.24377021  1
  C  C92  1  0.47977600  0.17036638  0.24364467  1
  C  C93  1  0.63996387  0.49945232  0.92363059  1
  C  C94  1  0.85937618  0.36000735  0.92338730  1
  C  C95  1  0.50061340  0.14098394  0.92348408  1
  C  C96  1  0.63939974  0.14014670  0.42540536  1
  C  C97  1  0.49657115  0.35275636  0.42478876  1
  C  C98  1  0.85896500  0.50130049  0.42393127  1
  C  C99  1  0.35760439  0.50384887  0.07617564  1
  C  C100  1  0.14451252  0.64652205  0.07671861  1
  C  C101  1  0.49775486  0.85840935  0.07593781  1
  C  C102  1  0.35893916  0.86373104  0.57687137  1
  C  C103  1  0.49847158  0.64400534  0.57658825  1
  C  C104  1  0.14431568  0.50478706  0.57603677  1
  C  C105  1  0.30903649  0.82920676  0.25654861  1
  C  C106  1  0.52941477  0.69094431  0.25614134  1
  C  C107  1  0.16336092  0.46949495  0.25600160  1
  C  C108  1  0.31254939  0.47603015  0.75745462  1
  C  C109  1  0.16604107  0.69209959  0.75711860  1
  C  C110  1  0.52614301  0.83384510  0.75812099  1
