# generated using pymatgen
data_Cu2Ni
_symmetry_space_group_name_H-M   'P 1'
_cell_length_a   4.27537400
_cell_length_b   5.72073100
_cell_length_c   8.38689800
_cell_angle_alpha   90.00000000
_cell_angle_beta   90.00000000
_cell_angle_gamma   90.00000000
_symmetry_Int_Tables_number   1
_chemical_formula_structural   Cu2Ni
_chemical_formula_sum   'Cu8 Ni4'
_cell_volume   205.12897028
_cell_formula_units_Z   4
loop_
 _symmetry_equiv_pos_site_id
 _symmetry_equiv_pos_as_xyz
  1  'x, y, z'
loop_
 _atom_site_type_symbol
 _atom_site_label
 _atom_site_symmetry_multiplicity
 _atom_site_fract_x
 _atom_site_fract_y
 _atom_site_fract_z
 _atom_site_occupancy
  Ni  Ni0  1  0.25000000  0.82203800  0.60020600  1
  Ni  Ni1  1  0.75000000  0.17796200  0.39979400  1
  Ni  Ni2  1  0.25000000  0.32203800  0.89979400  1
  Ni  Ni3  1  0.75000000  0.67796200  0.10020600  1
  Cu  Cu4  1  0.25000000  0.93280900  0.26899800  1
  Cu  Cu5  1  0.75000000  0.06719100  0.73100200  1
  Cu  Cu6  1  0.25000000  0.43280900  0.23100200  1
  Cu  Cu7  1  0.75000000  0.56719100  0.76899800  1
  Cu  Cu8  1  0.75000000  0.65936300  0.42778600  1
  Cu  Cu9  1  0.25000000  0.34063700  0.57221400  1
  Cu  Cu10  1  0.75000000  0.15936300  0.07221400  1
  Cu  Cu11  1  0.25000000  0.84063700  0.92778600  1
