# generated using pymatgen
data_CuNiC3
_symmetry_space_group_name_H-M   'P 1'
_cell_length_a   8.04969220
_cell_length_b   8.04969220
_cell_length_c   20.01291700
_cell_angle_alpha   90.00000000
_cell_angle_beta   90.00000000
_cell_angle_gamma   120.00000168
_symmetry_Int_Tables_number   1
_chemical_formula_structural   CuNiC3
_chemical_formula_sum   'Cu6 Ni6 C18'
_cell_volume   1123.05122966
_cell_formula_units_Z   6
loop_
 _symmetry_equiv_pos_site_id
 _symmetry_equiv_pos_as_xyz
  1  'x, y, z'
loop_
 _atom_site_type_symbol
 _atom_site_label
 _atom_site_symmetry_multiplicity
 _atom_site_fract_x
 _atom_site_fract_y
 _atom_site_fract_z
 _atom_site_occupancy
  C  C0  1  0.33190700  0.16595400  0.41870100  1
  C  C1  1  0.33190700  0.16595400  0.08129900  1
  C  C2  1  0.83404600  0.66809300  0.08129900  1
  C  C3  1  0.16595400  0.33190700  0.58129900  1
  C  C4  1  0.66809300  0.83404600  0.58129900  1
  C  C5  1  0.16595400  0.83404600  0.91870100  1
  C  C6  1  0.83404600  0.66809300  0.41870100  1
  C  C7  1  0.83404600  0.16595400  0.08129900  1
  C  C8  1  0.83404600  0.16595400  0.41870100  1
  C  C9  1  0.47962900  0.52037100  0.75000000  1
  C  C10  1  0.66809300  0.83404600  0.91870100  1
  C  C11  1  0.16595400  0.33190700  0.91870100  1
  C  C12  1  0.52037100  0.47962900  0.25000000  1
  C  C13  1  0.95925800  0.47962900  0.25000000  1
  C  C14  1  0.52037100  0.04074200  0.25000000  1
  C  C15  1  0.47962900  0.95925800  0.75000000  1
  C  C16  1  0.04074200  0.52037100  0.75000000  1
  C  C17  1  0.16595400  0.83404600  0.58129900  1
  Ni  Ni18  1  0.33333300  0.66666700  0.41076100  1
  Ni  Ni19  1  0.66666700  0.33333300  0.91076100  1
  Ni  Ni20  1  0.66666700  0.33333300  0.58923900  1
  Ni  Ni21  1  0.33333300  0.66666700  0.08923900  1
  Ni  Ni22  1  0.00000000  0.00000000  0.75000000  1
  Ni  Ni23  1  0.00000000  0.00000000  0.25000000  1
  Cu  Cu24  1  0.33333300  0.66666700  0.65878600  1
  Cu  Cu25  1  0.66666700  0.33333300  0.15878600  1
  Cu  Cu26  1  0.66666700  0.33333300  0.34121400  1
  Cu  Cu27  1  0.33333300  0.66666700  0.84121400  1
  Cu  Cu28  1  0.00000000  0.00000000  0.50000000  1
  Cu  Cu29  1  0.00000000  0.00000000  0.00000000  1
