# generated using pymatgen
data_Cu5Ni7C66
_symmetry_space_group_name_H-M   'P 1'
_cell_length_a   18.54149253
_cell_length_b   9.29334945
_cell_length_c   22.81752330
_cell_angle_alpha   89.82546412
_cell_angle_beta   90.89562194
_cell_angle_gamma   120.09423449
_symmetry_Int_Tables_number   1
_chemical_formula_structural   Cu5Ni7C66
_chemical_formula_sum   'Cu15 Ni21 C198'
_cell_volume   3401.28633384
_cell_formula_units_Z   3
loop_
 _symmetry_equiv_pos_site_id
 _symmetry_equiv_pos_as_xyz
  1  'x, y, z'
loop_
 _atom_site_type_symbol
 _atom_site_label
 _atom_site_symmetry_multiplicity
 _atom_site_fract_x
 _atom_site_fract_y
 _atom_site_fract_z
 _atom_site_occupancy
  C  C0  1  0.32304332  0.02659997  0.25132817  1
  C  C1  1  0.82127118  0.02652270  0.24080344  1
  C  C2  1  0.17297824  0.32748964  0.25424058  1
  C  C3  1  0.67417566  0.33153645  0.25421776  1
  C  C4  1  0.82657581  0.62441204  0.74961657  1
  C  C5  1  0.49931732  0.36245978  0.73762669  1
  C  C6  1  0.17566204  0.01504806  0.75425859  1
  C  C7  1  0.67118436  0.02031529  0.75454539  1
  C  C8  1  0.66369562  0.96452175  0.07192905  1
  C  C9  1  0.83255280  0.69744496  0.07054497  1
  C  C10  1  0.00758201  0.34976564  0.08595816  1
  C  C11  1  0.49736238  0.70293050  0.90832628  1
  C  C12  1  0.99746578  0.69766650  0.91091947  1
  C  C13  1  0.16280122  0.30141368  0.90526609  1
  C  C14  1  0.50171350  0.29804717  0.41228382  1
  C  C15  1  0.00114636  0.29675423  0.41235402  1
  C  C16  1  0.16322160  0.02533393  0.40611267  1
  C  C17  1  0.66243036  0.02432368  0.40576714  1
  C  C18  1  0.98832936  0.00266788  0.49697010  1
  C  C19  1  0.48884711  0.00330517  0.49701936  1
  C  C20  1  0.99734198  0.97803503  0.99129350  1
  C  C21  1  0.49279006  0.99193416  0.99001726  1
  C  C22  1  0.33649425  0.36873552  0.81989938  1
  C  C23  1  0.83466354  0.34718824  0.82772775  1
  C  C24  1  0.34372631  0.34290115  0.32303140  1
  C  C25  1  0.84378100  0.34276255  0.32287088  1
  C  C26  1  0.15124071  0.68582995  0.16499488  1
  C  C27  1  0.64749468  0.66582896  0.16105954  1
  C  C28  1  0.14655502  0.61688794  0.66362854  1
  C  C29  1  0.65284020  0.64039569  0.65964925  1
  C  C30  1  0.99836100  0.99615557  0.35181180  1
  C  C31  1  0.49676768  0.99565777  0.35248113  1
  C  C32  1  0.99727455  0.99902785  0.85092389  1
  C  C33  1  0.49992263  0.99908955  0.85217904  1
  C  C34  1  0.33660763  0.34799894  0.68269837  1
  C  C35  1  0.83992878  0.33952045  0.68311747  1
  C  C36  1  0.33865832  0.33914598  0.18256184  1
  C  C37  1  0.83683482  0.33490703  0.18423476  1
  C  C38  1  0.17153089  0.68402356  0.01965394  1
  C  C39  1  0.66577079  0.66467284  0.01722801  1
  C  C40  1  0.16667909  0.65724464  0.52183401  1
  C  C41  1  0.66621127  0.65526387  0.52182311  1
  C  C42  1  0.01053037  0.01720909  0.64820289  1
  C  C43  1  0.50718669  0.01042396  0.64737357  1
  C  C44  1  0.00812526  0.00688342  0.14566725  1
  C  C45  1  0.50547879  0.99925758  0.14954766  1
  C  C46  1  0.33682113  0.34467792  0.97677650  1
  C  C47  1  0.83789453  0.33475777  0.97853218  1
  C  C48  1  0.33491179  0.32726043  0.48054955  1
  C  C49  1  0.83450038  0.32459452  0.48026746  1
  C  C50  1  0.16976479  0.66607854  0.31374315  1
  C  C51  1  0.67058384  0.66639345  0.31334841  1
  C  C52  1  0.17358996  0.67750473  0.81156952  1
  C  C53  1  0.67199441  0.67745311  0.81616335  1
  Ni  Ni54  1  0.14784495  0.98993067  0.25461571  1
  Ni  Ni55  1  0.64789000  0.98924518  0.25623512  1
  Ni  Ni56  1  0.00561830  0.30403446  0.25290745  1
  Ni  Ni57  1  0.50393222  0.30269345  0.25349272  1
  Ni  Ni58  1  0.14986155  0.30889631  0.75594950  1
  Ni  Ni59  1  0.64933101  0.30725092  0.75273766  1
  Ni  Ni60  1  0.00473643  0.70735420  0.75277752  1
  Ni  Ni61  1  0.50377870  0.70601432  0.75415589  1
  Ni  Ni62  1  0.48071803  0.32113252  0.59007650  1
  Ni  Ni63  1  0.98253899  0.32177526  0.58693670  1
  Ni  Ni64  1  0.48087424  0.63962755  0.08542502  1
  Ni  Ni65  1  0.98263611  0.63675739  0.08416012  1
  Ni  Ni66  1  0.83663501  0.03701847  0.08753454  1
  Ni  Ni67  1  0.31302894  0.66643436  0.92057414  1
  Ni  Ni68  1  0.81519739  0.65772099  0.92249411  1
  Ni  Ni69  1  0.16937381  0.96448706  0.91761475  1
  Ni  Ni70  1  0.67196085  0.97433650  0.92148475  1
  Ni  Ni71  1  0.31329692  0.96230933  0.42068257  1
  Ni  Ni72  1  0.81285828  0.96059347  0.42072078  1
  Ni  Ni73  1  0.17062757  0.37386531  0.41887312  1
  Ni  Ni74  1  0.67086176  0.37397655  0.41879050  1
  Cu  Cu75  1  0.34794457  0.70967046  0.24813676  1
  Cu  Cu76  1  0.84786168  0.71010465  0.24747405  1
  Cu  Cu77  1  0.34933411  0.98724273  0.74724626  1
  Cu  Cu78  1  0.84819912  0.98700118  0.74834498  1
  Cu  Cu79  1  0.18275670  0.04601096  0.58346973  1
  Cu  Cu80  1  0.68094393  0.04305977  0.58373169  1
  Cu  Cu81  1  0.34422323  0.63980903  0.58224984  1
  Cu  Cu82  1  0.84335242  0.63779071  0.58477348  1
  Cu  Cu83  1  0.34325024  0.04901696  0.08549832  1
  Cu  Cu84  1  0.18222695  0.32074749  0.08260470  1
  Cu  Cu85  1  0.68116881  0.31733443  0.08444264  1
  Cu  Cu86  1  0.01877347  0.38358167  0.91728999  1
  Cu  Cu87  1  0.51519922  0.37937823  0.91465056  1
  Cu  Cu88  1  0.01760104  0.64981161  0.41596371  1
  Cu  Cu89  1  0.51782643  0.64985791  0.41611653  1
  C  C90  1  0.11020773  0.01208985  0.31331067  1
  C  C91  1  0.60544357  0.00440091  0.31332491  1
  C  C92  1  0.39439099  0.77263658  0.30240097  1
  C  C93  1  0.89613551  0.77726843  0.30092445  1
  C  C94  1  0.49473230  0.20388068  0.31261024  1
  C  C95  1  0.99844792  0.20425096  0.31114305  1
  C  C96  1  0.10815018  0.21198520  0.81395975  1
  C  C97  1  0.60200179  0.18623332  0.80415515  1
  C  C98  1  0.49469671  0.77957798  0.81423862  1
  C  C99  1  0.99548130  0.78823023  0.81151817  1
  C  C100  1  0.39725711  0.01776215  0.80145605  1
  C  C101  1  0.89513478  0.02041947  0.80267393  1
  C  C102  1  0.39440648  0.96973746  0.69616125  1
  C  C103  1  0.89334434  0.96909520  0.69735543  1
  C  C104  1  0.08249356  0.19529693  0.69659370  1
  C  C105  1  0.58318461  0.19730899  0.69164801  1
  C  C106  1  0.01598041  0.84532925  0.69623152  1
  C  C107  1  0.51428688  0.84249371  0.69739408  1
  C  C108  1  0.39506562  0.81762995  0.19685723  1
  C  C109  1  0.89149604  0.81308575  0.19467393  1
  C  C110  1  0.01779197  0.19539356  0.19454528  1
  C  C111  1  0.51392846  0.18472271  0.19720272  1
  C  C112  1  0.08293356  0.97554567  0.19639499  1
  C  C113  1  0.58336056  0.97257244  0.19555419  1
  C  C114  1  0.43783020  0.32061074  0.64942887  1
  C  C115  1  0.93312068  0.31833615  0.64224254  1
  C  C116  1  0.22806081  0.12044029  0.63734346  1
  C  C117  1  0.72406578  0.11857168  0.63865152  1
  C  C118  1  0.33421881  0.55184119  0.63676931  1
  C  C119  1  0.83346109  0.55350173  0.64095476  1
  C  C120  1  0.43538000  0.54393811  0.14206829  1
  C  C121  1  0.93168903  0.53282192  0.13839270  1
  C  C122  1  0.33328827  0.11459056  0.14125585  1
  C  C123  1  0.81734726  0.10517318  0.14573507  1
  C  C124  1  0.22584138  0.33739620  0.13781582  1
  C  C125  1  0.72403944  0.33927812  0.14097966  1
  C  C126  1  0.22834698  0.30777756  0.03095599  1
  C  C127  1  0.72798475  0.29503076  0.03527740  1
  C  C128  1  0.41849406  0.52818231  0.02459405  1
  C  C129  1  0.92006905  0.53634275  0.02340848  1
  C  C130  1  0.34900359  0.15961064  0.03503193  1
  C  C131  1  0.85072831  0.17790148  0.03208067  1
  C  C132  1  0.22729602  0.15513198  0.53072922  1
  C  C133  1  0.72729949  0.15306431  0.53157828  1
  C  C134  1  0.34880642  0.53930134  0.53119283  1
  C  C135  1  0.84740892  0.53311804  0.53509534  1
  C  C136  1  0.41450518  0.30855854  0.53085785  1
  C  C137  1  0.91805204  0.30812093  0.52572806  1
  C  C138  1  0.26273210  0.64661233  0.97722709  1
  C  C139  1  0.77304917  0.65948791  0.98165043  1
  C  C140  1  0.06189021  0.44638274  0.97361965  1
  C  C141  1  0.56081310  0.44649909  0.96832706  1
  C  C142  1  0.13751752  0.82777438  0.96706241  1
  C  C143  1  0.65719705  0.86465835  0.97795461  1
  C  C144  1  0.26065442  0.87014780  0.47523272  1
  C  C145  1  0.76118276  0.86861201  0.47567905  1
  C  C146  1  0.13873742  0.45217237  0.46575345  1
  C  C147  1  0.63842651  0.45072724  0.46597249  1
  C  C148  1  0.06412982  0.67829938  0.47012059  1
  C  C149  1  0.56475719  0.67883037  0.47018580  1
  C  C150  1  0.06350006  0.62805530  0.36428102  1
  C  C151  1  0.56284115  0.62747486  0.36434725  1
  C  C152  1  0.25237207  0.86630536  0.35845230  1
  C  C153  1  0.75117898  0.86289911  0.35911111  1
  C  C154  1  0.18496775  0.50078406  0.35606394  1
  C  C155  1  0.68473570  0.49985115  0.35605572  1
  C  C156  1  0.06502617  0.49839336  0.86743245  1
  C  C157  1  0.55974173  0.48890715  0.86232126  1
  C  C158  1  0.18470066  0.87110229  0.85643938  1
  C  C159  1  0.68158868  0.86045415  0.86184739  1
  C  C160  1  0.25035876  0.64207657  0.86085853  1
  C  C161  1  0.75084682  0.64315354  0.86263348  1
  C  C162  1  0.00096888  0.78515186  0.40567955  1
  C  C163  1  0.50033386  0.78401527  0.40608576  1
  C  C164  1  0.40790311  0.00704262  0.41757252  1
  C  C165  1  0.90766308  0.00668882  0.41668272  1
  C  C166  1  0.09936366  0.18092622  0.41239277  1
  C  C167  1  0.59959130  0.18098768  0.41194419  1
  C  C168  1  0.00327435  0.21533076  0.90840735  1
  C  C169  1  0.49335013  0.20675979  0.90577780  1
  C  C170  1  0.09949155  0.01916253  0.91196065  1
  C  C171  1  0.59414170  0.00204583  0.91414814  1
  C  C172  1  0.40734732  0.81020982  0.91695270  1
  C  C173  1  0.90865151  0.80957535  0.91617242  1
  C  C174  1  0.48093689  0.13583610  0.59040445  1
  C  C175  1  0.98400128  0.13727747  0.58969683  1
  C  C176  1  0.09868301  0.04197019  0.58516737  1
  C  C177  1  0.59622503  0.03608587  0.58371244  1
  C  C178  1  0.42573234  0.80234728  0.58311726  1
  C  C179  1  0.92429571  0.80057205  0.58437893  1
  C  C180  1  0.48444934  0.82992696  0.09027353  1
  C  C181  1  0.98510298  0.82286444  0.08970079  1
  C  C182  1  0.42370447  0.04500665  0.08666525  1
  C  C183  1  0.92945639  0.04315994  0.09189202  1
  C  C184  1  0.09853267  0.15502386  0.08301618  1
  C  C185  1  0.59822105  0.15107933  0.08585951  1
  C  C186  1  0.32837419  0.11954842  0.73978598  1
  C  C187  1  0.81974879  0.10791443  0.74034869  1
  C  C188  1  0.23597464  0.31181600  0.74607570  1
  C  C189  1  0.74115701  0.33469006  0.74504263  1
  C  C190  1  0.43306944  0.51405356  0.74761880  1
  C  C191  1  0.92367799  0.52708867  0.74689297  1
  C  C192  1  0.32137655  0.53292536  0.24053479  1
  C  C193  1  0.82150893  0.53299922  0.24146770  1
  C  C194  1  0.42280385  0.32068122  0.24731150  1
  C  C195  1  0.92549756  0.32508626  0.24772408  1
  C  C196  1  0.23908551  0.15133939  0.24555843  1
  C  C197  1  0.73733816  0.15585655  0.24978575  1
  C  C198  1  0.31444818  0.47509207  0.92267949  1
  C  C199  1  0.81929634  0.47772938  0.92283265  1
  C  C200  1  0.43311393  0.38501507  0.91621955  1
  C  C201  1  0.93539461  0.38116532  0.91750222  1
  C  C202  1  0.26099371  0.14430560  0.93139045  1
  C  C203  1  0.76371637  0.15256539  0.92513953  1
  C  C204  1  0.31625696  0.15628136  0.42465594  1
  C  C205  1  0.81401978  0.15323889  0.42418018  1
  C  C206  1  0.26190862  0.37706237  0.42945757  1
  C  C207  1  0.76246362  0.37876336  0.42971156  1
  C  C208  1  0.43546025  0.48368422  0.41829811  1
  C  C209  1  0.93503120  0.48487429  0.41732705  1
  C  C210  1  0.16062277  0.45167651  0.07666719  1
  C  C211  1  0.66474509  0.45290916  0.07550202  1
  C  C212  1  0.07154923  0.64664384  0.08304341  1
  C  C213  1  0.57521952  0.68044160  0.08091680  1
  C  C214  1  0.27294005  0.87944386  0.07899600  1
  C  C215  1  0.76322305  0.84760190  0.07976464  1
  C  C216  1  0.16572719  0.87617026  0.57613712  1
  C  C217  1  0.66589197  0.87495734  0.57709486  1
  C  C218  1  0.27503174  0.67103249  0.57510421  1
  C  C219  1  0.77326903  0.66665521  0.57719729  1
  C  C220  1  0.07468796  0.47416222  0.58313585  1
  C  C221  1  0.57237148  0.47578102  0.58444098  1
  C  C222  1  0.15435752  0.81637812  0.25587010  1
  C  C223  1  0.65512397  0.81734810  0.25597935  1
  C  C224  1  0.26879502  0.72292139  0.24944509  1
  C  C225  1  0.76760162  0.72012966  0.25020085  1
  C  C226  1  0.09757575  0.48697334  0.25425840  1
  C  C227  1  0.59590195  0.48377347  0.25442184  1
  C  C228  1  0.15427079  0.49302865  0.75750480  1
  C  C229  1  0.64940793  0.48717914  0.75664774  1
  C  C230  1  0.09611782  0.70841497  0.75514352  1
  C  C231  1  0.59841744  0.71282537  0.75590306  1
  C  C232  1  0.26631306  0.82376433  0.75005904  1
  C  C233  1  0.76830632  0.81355122  0.75212394  1
