# generated using pymatgen
data_Cu2NiC18
_symmetry_space_group_name_H-M   'P 1'
_cell_length_a   9.15631536
_cell_length_b   9.15631503
_cell_length_c   22.05700262
_cell_angle_alpha   90.12432828
_cell_angle_beta   89.87567172
_cell_angle_gamma   119.83214739
_symmetry_Int_Tables_number   1
_chemical_formula_structural   Cu2NiC18
_chemical_formula_sum   'Cu12 Ni6 C108'
_cell_volume   1604.16601244
_cell_formula_units_Z   6
loop_
 _symmetry_equiv_pos_site_id
 _symmetry_equiv_pos_as_xyz
  1  'x, y, z'
loop_
 _atom_site_type_symbol
 _atom_site_label
 _atom_site_symmetry_multiplicity
 _atom_site_fract_x
 _atom_site_fract_y
 _atom_site_fract_z
 _atom_site_occupancy
  C  C0  1  0.64030050  0.00698573  0.25061617  1
  C  C1  1  0.37121680  0.36954250  0.24489100  1
  C  C2  1  0.98783838  0.62424597  0.24819301  1
  C  C3  1  0.63045750  0.62878320  0.74489100  1
  C  C4  1  0.99301427  0.35969950  0.75061617  1
  C  C5  1  0.37575403  0.01216162  0.74819301  1
  C  C6  1  0.30696750  0.34031873  0.58394917  1
  C  C7  1  0.03788380  0.70287550  0.57822400  1
  C  C8  1  0.65450538  0.95757897  0.58152601  1
  C  C9  1  0.29712450  0.96211620  0.07822400  1
  C  C10  1  0.65968127  0.69303250  0.08394917  1
  C  C11  1  0.04242103  0.34549462  0.08152601  1
  C  C12  1  0.97363350  0.67365273  0.91728317  1
  C  C13  1  0.70454980  0.03620950  0.91155800  1
  C  C14  1  0.32117138  0.29091297  0.91486001  1
  C  C15  1  0.96379050  0.29545020  0.41155800  1
  C  C16  1  0.32634727  0.02636650  0.41728317  1
  C  C17  1  0.70908703  0.67882862  0.41486001  1
  C  C18  1  0.99320265  0.99224312  0.49876348  1
  C  C19  1  0.00775688  0.00679735  0.99876348  1
  C  C20  1  0.65986965  0.32557612  0.83209648  1
  C  C21  1  0.67442388  0.34013035  0.33209648  1
  C  C22  1  0.32653565  0.65891012  0.16543048  1
  C  C23  1  0.34108988  0.67346435  0.66543048  1
  C  C24  1  0.99850980  0.00201498  0.64789654  1
  C  C25  1  0.99798502  0.00149020  0.14789654  1
  C  C26  1  0.66517680  0.33534798  0.98122954  1
  C  C27  1  0.66465202  0.33482320  0.48122954  1
  C  C28  1  0.33184280  0.66868198  0.31456354  1
  C  C29  1  0.33131802  0.66815720  0.81456354  1
  Ni  Ni30  1  0.99482146  0.99659363  0.34898919  1
  Ni  Ni31  1  0.00340637  0.00517854  0.84898919  1
  Ni  Ni32  1  0.66148846  0.32992663  0.68232219  1
  Ni  Ni33  1  0.67007337  0.33851154  0.18232219  1
  Ni  Ni34  1  0.32815446  0.66326063  0.01565619  1
  Ni  Ni35  1  0.33673937  0.67184554  0.51565619  1
  Cu  Cu36  1  0.69986860  0.70466388  0.25090592  1
  Cu  Cu37  1  0.00498421  0.29922043  0.25070553  1
  Cu  Cu38  1  0.29533612  0.30013140  0.75090592  1
  Cu  Cu39  1  0.70077957  0.99501579  0.75070553  1
  Cu  Cu40  1  0.36653560  0.03799688  0.58423892  1
  Cu  Cu41  1  0.67165121  0.63255343  0.58403853  1
  Cu  Cu42  1  0.96200312  0.63346440  0.08423892  1
  Cu  Cu43  1  0.36744657  0.32834879  0.08403853  1
  Cu  Cu44  1  0.03320160  0.37133088  0.91757292  1
  Cu  Cu45  1  0.33831721  0.96588743  0.91737253  1
  Cu  Cu46  1  0.62866912  0.96679840  0.41757292  1
  Cu  Cu47  1  0.03411257  0.66168279  0.41737253  1
  C  C48  1  0.29054909  0.99354584  0.24942610  1
  C  C49  1  0.00645416  0.70945091  0.74942610  1
  C  C50  1  0.95721609  0.32687884  0.58275910  1
  C  C51  1  0.67312116  0.04278391  0.08275910  1
  C  C52  1  0.62388209  0.66021284  0.91609310  1
  C  C53  1  0.33978716  0.37611791  0.41609310  1
  C  C54  1  0.22168725  0.02723321  0.30811496  1
  C  C55  1  0.81178612  0.77478770  0.31159427  1
  C  C56  1  0.97700416  0.19325550  0.31206821  1
  C  C57  1  0.22521230  0.18821388  0.81159427  1
  C  C58  1  0.97276679  0.77831275  0.80811496  1
  C  C59  1  0.80674450  0.02299584  0.81206821  1
  C  C60  1  0.80733036  0.97362608  0.69235630  1
  C  C61  1  0.16635946  0.19174348  0.69291403  1
  C  C62  1  0.02538957  0.82566578  0.69406969  1
  C  C63  1  0.80825652  0.83364054  0.19291403  1
  C  C64  1  0.02637392  0.19266964  0.19235630  1
  C  C65  1  0.17433422  0.97461043  0.19406969  1
  C  C66  1  0.88835425  0.36056621  0.64144796  1
  C  C67  1  0.47845312  0.10812070  0.64492727  1
  C  C68  1  0.64367116  0.52658850  0.64540121  1
  C  C69  1  0.89187930  0.52154688  0.14492727  1
  C  C70  1  0.63943379  0.11164575  0.14144796  1
  C  C71  1  0.47341150  0.35632884  0.14540121  1
  C  C72  1  0.47399736  0.30695908  0.02568930  1
  C  C73  1  0.83302646  0.52507648  0.02624703  1
  C  C74  1  0.69205657  0.15899878  0.02740269  1
  C  C75  1  0.47492352  0.16697354  0.52624703  1
  C  C76  1  0.69304092  0.52600264  0.52568930  1
  C  C77  1  0.84100122  0.30794343  0.52740269  1
  C  C78  1  0.55502025  0.69390021  0.97478196  1
  C  C79  1  0.14511912  0.44145470  0.97826127  1
  C  C80  1  0.31033716  0.85992250  0.97873521  1
  C  C81  1  0.55854530  0.85488088  0.47826127  1
  C  C82  1  0.30609979  0.44497975  0.47478196  1
  C  C83  1  0.14007750  0.68966284  0.47873521  1
  C  C84  1  0.14066336  0.64029308  0.35902330  1
  C  C85  1  0.49969246  0.85841048  0.35958103  1
  C  C86  1  0.35872257  0.49233278  0.36073669  1
  C  C87  1  0.14158952  0.50030754  0.85958103  1
  C  C88  1  0.35970692  0.85933664  0.85902330  1
  C  C89  1  0.50766722  0.64127743  0.86073669  1
  C  C90  1  0.01612137  0.83035599  0.41378850  1
  C  C91  1  0.82077978  0.99987878  0.41368276  1
  C  C92  1  0.19236063  0.19456837  0.41016216  1
  C  C93  1  0.00012122  0.17922022  0.91368276  1
  C  C94  1  0.16964401  0.98387863  0.91378850  1
  C  C95  1  0.80543163  0.80763937  0.91016216  1
  C  C96  1  0.96037203  0.15754418  0.58581481  1
  C  C97  1  0.18411434  0.03552293  0.58793239  1
  C  C98  1  0.84673128  0.81808976  0.58711499  1
  C  C99  1  0.96447707  0.81588566  0.08793239  1
  C  C100  1  0.84245582  0.03962797  0.08581481  1
  C  C101  1  0.18191024  0.15326872  0.08711499  1
  C  C102  1  0.68278837  0.16368899  0.74712150  1
  C  C103  1  0.48744678  0.33321178  0.74701576  1
  C  C104  1  0.85902763  0.52790137  0.74349516  1
  C  C105  1  0.66678822  0.51255322  0.24701576  1
  C  C106  1  0.83631101  0.31721163  0.24712150  1
  C  C107  1  0.47209863  0.14097237  0.24349516  1
  C  C108  1  0.62703903  0.49087718  0.91914781  1
  C  C109  1  0.85078134  0.36885593  0.92126539  1
  C  C110  1  0.51339828  0.15142276  0.92044799  1
  C  C111  1  0.63114407  0.14921866  0.42126539  1
  C  C112  1  0.50912282  0.37296097  0.41914781  1
  C  C113  1  0.84857724  0.48660172  0.42044799  1
  C  C114  1  0.34945437  0.49702299  0.08045550  1
  C  C115  1  0.15411278  0.66654578  0.08034976  1
  C  C116  1  0.52569363  0.86123537  0.07682916  1
  C  C117  1  0.33345422  0.84588722  0.58034976  1
  C  C118  1  0.50297701  0.65054563  0.58045550  1
  C  C119  1  0.13876463  0.47430637  0.57682916  1
  C  C120  1  0.29370503  0.82421118  0.25248181  1
  C  C121  1  0.51744734  0.70218993  0.25459939  1
  C  C122  1  0.18006428  0.48475676  0.25378199  1
  C  C123  1  0.29781007  0.48255266  0.75459939  1
  C  C124  1  0.17578882  0.70629497  0.75248181  1
  C  C125  1  0.51524324  0.81993572  0.75378199  1
