# generated using pymatgen
data_Cu(NiC2)6
_symmetry_space_group_name_H-M   'P 1'
_cell_length_a   8.13331800
_cell_length_b   8.13331800
_cell_length_c   7.13059200
_cell_angle_alpha   90.00000000
_cell_angle_beta   90.00000000
_cell_angle_gamma   119.99999996
_symmetry_Int_Tables_number   1
_chemical_formula_structural   Cu(NiC2)6
_chemical_formula_sum   'Cu2 Ni12 C24'
_cell_volume   408.49968380
_cell_formula_units_Z   2
loop_
 _symmetry_equiv_pos_site_id
 _symmetry_equiv_pos_as_xyz
  1  'x, y, z'
loop_
 _atom_site_type_symbol
 _atom_site_label
 _atom_site_symmetry_multiplicity
 _atom_site_fract_x
 _atom_site_fract_y
 _atom_site_fract_z
 _atom_site_occupancy
  Ni  Ni0  1  0.73775000  0.00000000  0.50000000  1
  Ni  Ni1  1  0.26225000  0.26225000  0.00000000  1
  Ni  Ni2  1  0.00000000  0.73775000  0.00000000  1
  Ni  Ni3  1  0.00000000  0.73775000  0.50000000  1
  Ni  Ni4  1  0.26225000  0.26225000  0.50000000  1
  Ni  Ni5  1  0.73775000  0.00000000  0.00000000  1
  Ni  Ni6  1  0.04866200  0.42285900  0.75000000  1
  Ni  Ni7  1  0.57714100  0.62580300  0.75000000  1
  Ni  Ni8  1  0.37419700  0.95133800  0.75000000  1
  Ni  Ni9  1  0.95133800  0.37419700  0.25000000  1
  Ni  Ni10  1  0.62580300  0.57714100  0.25000000  1
  Ni  Ni11  1  0.42285900  0.04866200  0.25000000  1
  C  C12  1  0.66666700  0.33333300  0.55245300  1
  C  C13  1  0.66666700  0.33333300  0.94754700  1
  C  C14  1  0.33333300  0.66666700  0.44754700  1
  C  C15  1  0.33333300  0.66666700  0.05245300  1
  Cu  Cu16  1  0.00000000  0.00000000  0.75000000  1
  Cu  Cu17  1  0.00000000  0.00000000  0.25000000  1
  C  C18  1  0.00000000  0.00000000  0.50000000  1
  C  C19  1  0.00000000  0.00000000  0.00000000  1
  C  C20  1  0.27874000  0.00000000  0.50000000  1
  C  C21  1  0.72126000  0.72126000  0.00000000  1
  C  C22  1  0.00000000  0.27874000  0.00000000  1
  C  C23  1  0.00000000  0.27874000  0.50000000  1
  C  C24  1  0.72126000  0.72126000  0.50000000  1
  C  C25  1  0.27874000  0.00000000  0.00000000  1
  C  C26  1  0.29480800  0.41010900  0.75000000  1
  C  C27  1  0.58989100  0.88469900  0.75000000  1
  C  C28  1  0.11530100  0.70519200  0.75000000  1
  C  C29  1  0.70519200  0.11530100  0.25000000  1
  C  C30  1  0.88469900  0.58989100  0.25000000  1
  C  C31  1  0.41010900  0.29480800  0.25000000  1
  C  C32  1  0.23471600  0.11554900  0.75000000  1
  C  C33  1  0.88445100  0.11916700  0.75000000  1
  C  C34  1  0.88083300  0.76528400  0.75000000  1
  C  C35  1  0.76528400  0.88083300  0.25000000  1
  C  C36  1  0.11554900  0.23471600  0.25000000  1
  C  C37  1  0.11916700  0.88445100  0.25000000  1
