# generated using pymatgen
data_Cu5Ni9C46
_symmetry_space_group_name_H-M   'P 1'
_cell_length_a   9.41162954
_cell_length_b   9.36278992
_cell_length_c   23.44866185
_cell_angle_alpha   89.62052145
_cell_angle_beta   90.00000000
_cell_angle_gamma   120.17270611
_symmetry_Int_Tables_number   1
_chemical_formula_structural   Cu5Ni9C46
_chemical_formula_sum   'Cu10 Ni18 C92'
_cell_volume   1786.27210659
_cell_formula_units_Z   2
loop_
 _symmetry_equiv_pos_site_id
 _symmetry_equiv_pos_as_xyz
  1  'x, y, z'
loop_
 _atom_site_type_symbol
 _atom_site_label
 _atom_site_symmetry_multiplicity
 _atom_site_fract_x
 _atom_site_fract_y
 _atom_site_fract_z
 _atom_site_occupancy
  Ni  Ni0  1  0.64913029  -0.00216048  0.23737462  1
  Ni  Ni1  1  0.37281336  0.33371034  0.25140123  1
  Ni  Ni2  1  0.99185491  0.66638743  0.24453692  1
  Ni  Ni3  1  0.67453252  0.66638743  0.74453692  1
  Ni  Ni4  1  0.96089698  0.33371034  0.75140123  1
  Ni  Ni5  1  0.34870923  -0.00216048  0.73737462  1
  Ni  Ni6  1  0.30631542  0.33751058  0.56897715  1
  Ni  Ni7  1  0.03119617  0.33751058  0.06897715  1
  Ni  Ni8  1  0.95843761  0.65637043  0.90410219  1
  Ni  Ni9  1  0.72350558  0.05449594  0.90354311  1
  Ni  Ni10  1  0.33098935  0.05449594  0.40354311  1
  Ni  Ni11  1  0.69793182  0.65637043  0.40410219  1
  Ni  Ni12  1  0.01134791  0.03356550  0.50002696  1
  Ni  Ni13  1  0.02221759  0.03356550  0.00002696  1
  Ni  Ni14  1  0.69046581  0.33337422  0.82716639  1
  Ni  Ni15  1  0.64290941  0.33337422  0.32716639  1
  Ni  Ni16  1  0.35754381  0.69899528  0.15604133  1
  Ni  Ni17  1  0.34145047  0.69899528  0.65604133  1
  Cu  Cu18  1  0.00960556  0.00940033  0.34777384  1
  Cu  Cu19  1  -0.00020523  0.00940033  0.84777384  1
  Cu  Cu20  1  0.98137070  0.97702881  0.65485293  1
  Cu  Cu21  1  0.99565810  0.97702881  0.15485293  1
  Cu  Cu22  1  0.67600029  0.33284592  0.67942282  1
  Cu  Cu23  1  0.65684663  0.33284592  0.17942282  1
  Cu  Cu24  1  0.66224222  0.33451393  0.98073930  1
  Cu  Cu25  1  0.67227271  0.33451393  0.48073930  1
  Cu  Cu26  1  0.33371556  0.66107725  0.01726028  1
  Cu  Cu27  1  0.32736069  0.66107725  0.51726028  1
  C  C28  1  0.33466360  0.65501091  0.31748230  1
  C  C29  1  0.32034632  0.65501091  0.81748230  1
  C  C30  1  0.30756807  0.99254420  0.25633488  1
  C  C31  1  0.69506785  0.69761454  0.25818613  1
  C  C32  1  0.00254669  0.69761454  0.75818613  1
  C  C33  1  0.68497613  0.99254420  0.75633488  1
  C  C34  1  0.03252965  0.36296142  0.92297578  1
  C  C35  1  0.33043077  0.36296142  0.42297578  1
  C  C36  1  0.01085552  0.31600057  0.24995013  1
  C  C37  1  0.30514505  0.31600057  0.74995013  1
  C  C38  1  0.97799263  0.33030610  0.58674736  1
  C  C39  1  0.35684037  0.03367176  0.58275961  1
  C  C40  1  0.66612695  0.63824431  0.58249511  1
  C  C41  1  0.97211836  0.63824431  0.08249511  1
  C  C42  1  0.67683239  0.03367176  0.08275961  1
  C  C43  1  0.35231447  0.33030610  0.08674736  1
  C  C44  1  0.62325160  0.66331290  0.91313351  1
  C  C45  1  0.33647580  0.95327889  0.91351713  1
  C  C46  1  0.61680208  0.95327889  0.41351713  1
  C  C47  1  0.04006030  0.66331290  0.41313351  1
  C  C48  1  0.24835413  0.05107126  0.31222412  1
  C  C49  1  0.79569200  0.76570505  0.31700054  1
  C  C50  1  0.97764726  0.20797570  0.29958087  1
  C  C51  1  0.23032844  0.20797570  0.79958087  1
  C  C52  1  0.97001304  0.76570505  0.81700054  1
  C  C53  1  0.80271713  0.05107126  0.81222412  1
  C  C54  1  0.76299056  0.93319024  0.70627939  1
  C  C55  1  0.20257237  0.25400338  0.69844594  1
  C  C56  1  0.07192502  0.83616145  0.70753191  1
  C  C57  1  0.76423643  0.83616145  0.20753191  1
  C  C58  1  0.05143101  0.25400338  0.19844594  1
  C  C59  1  0.17019968  0.93319024  0.20627939  1
  C  C60  1  0.89637716  0.32407973  0.64157404  1
  C  C61  1  0.44503888  0.11604571  0.63607778  1
  C  C62  1  0.66423866  0.54841857  0.63540719  1
  C  C63  1  0.88418091  0.54841857  0.13540719  1
  C  C64  1  0.67100783  0.11604571  0.13607778  1
  C  C65  1  0.42770357  0.32407973  0.14157404  1
  C  C66  1  0.45054759  0.33148372  0.03750743  1
  C  C67  1  0.87895579  0.54504332  0.03136517  1
  C  C68  1  0.67399178  0.12786698  0.03171086  1
  C  C69  1  0.45387620  0.12786698  0.53171086  1
  C  C70  1  0.66608853  0.54504332  0.53136517  1
  C  C71  1  0.88093712  0.33148372  0.53750743  1
  C  C72  1  0.53943054  0.67500302  0.96397248  1
  C  C73  1  0.11719873  0.45088163  0.98207127  1
  C  C74  1  0.32693483  0.86296580  0.96582201  1
  C  C75  1  0.53602996  0.86296580  0.46582201  1
  C  C76  1  0.33368190  0.45088163  0.48207127  1
  C  C77  1  0.13557148  0.67500302  0.46397248  1
  C  C78  1  0.13274623  0.65996689  0.36049775  1
  C  C79  1  0.51059196  0.85233597  0.36261167  1
  C  C80  1  0.32515726  0.49116740  0.36893063  1
  C  C81  1  0.16600914  0.49116740  0.86893063  1
  C  C82  1  0.34174302  0.85233597  0.86261167  1
  C  C83  1  0.52721966  0.65996689  0.86049775  1
  C  C84  1  0.02167898  0.81119710  0.41059926  1
  C  C85  1  0.77936550  0.97028944  0.40827116  1
  C  C86  1  0.17198087  0.17735824  0.41960051  1
  C  C87  1  0.00537737  0.17735824  0.91960051  1
  C  C88  1  0.19092394  0.97028944  0.90827116  1
  C  C89  1  0.78951812  0.81119710  0.91059926  1
  C  C90  1  0.00298351  0.18494655  0.58284954  1
  C  C91  1  0.19823690  0.03372923  0.58118765  1
  C  C92  1  0.81279357  0.80544695  0.58050278  1
  C  C93  1  0.99265338  0.80544695  0.08050278  1
  C  C94  1  0.83549233  0.03372923  0.08118765  1
  C  C95  1  0.18196304  0.18494655  0.08284954  1
  C  C96  1  0.63937712  0.13697432  0.74347756  1
  C  C97  1  0.47425526  0.34883572  0.74159321  1
  C  C98  1  0.84619369  0.51365487  0.74550421  1
  C  C99  1  0.66746218  0.51365487  0.24550421  1
  C  C100  1  0.87458147  0.34883572  0.24159321  1
  C  C101  1  0.49759820  0.13697432  0.24347756  1
  C  C102  1  0.63710372  0.51252318  0.91278124  1
  C  C103  1  0.85827119  0.36291423  0.91084794  1
  C  C104  1  0.49255971  0.11349758  0.91004243  1
  C  C105  1  0.62093887  0.11349758  0.41004243  1
  C  C106  1  0.50464404  0.36291423  0.41084794  1
  C  C107  1  0.87542045  0.51252318  0.41278124  1
  C  C108  1  0.33732633  0.48257594  0.08741144  1
  C  C109  1  0.13619301  0.64776990  0.08419750  1
  C  C110  1  0.53374902  0.86324531  0.08247200  1
  C  C111  1  0.32949529  0.86324531  0.58247200  1
  C  C112  1  0.51157589  0.64776990  0.58419750  1
  C  C113  1  0.14524861  0.48257594  0.58741144  1
  C  C114  1  0.32148305  0.81886665  0.26935348  1
  C  C115  1  0.49623697  0.65920597  0.26879461  1
  C  C116  1  0.16347719  0.48550895  0.26176842  1
  C  C117  1  0.32203077  0.48550895  0.76176842  1
  C  C118  1  0.16296800  0.65920597  0.76879461  1
  C  C119  1  0.49738259  0.81886665  0.76935348  1
