# generated using pymatgen
data_CuNi5C13
_symmetry_space_group_name_H-M   'P 1'
_cell_length_a   5.11738499
_cell_length_b   5.10429667
_cell_length_c   10.08335076
_cell_angle_alpha   83.57952486
_cell_angle_beta   91.55786333
_cell_angle_gamma   121.01335834
_symmetry_Int_Tables_number   1
_chemical_formula_structural   CuNi5C13
_chemical_formula_sum   'Cu1 Ni5 C13'
_cell_volume   224.17324008
_cell_formula_units_Z   1
loop_
 _symmetry_equiv_pos_site_id
 _symmetry_equiv_pos_as_xyz
  1  'x, y, z'
loop_
 _atom_site_type_symbol
 _atom_site_label
 _atom_site_symmetry_multiplicity
 _atom_site_fract_x
 _atom_site_fract_y
 _atom_site_fract_z
 _atom_site_occupancy
  C  C0  1  0.68849574  0.09519790  0.75884238  1
  Ni  Ni1  1  0.17608382  0.81471610  0.49873987  1
  Ni  Ni2  1  0.32341131  0.69585662  0.00636733  1
  Ni  Ni3  1  0.50385144  0.47751717  0.49485441  1
  Ni  Ni4  1  0.65466522  0.35891639  0.00634008  1
  Ni  Ni5  1  0.84007933  0.14673786  0.48595039  1
  Cu  Cu6  1  0.99034684  0.02779045  0.00565603  1
  C  C7  1  0.98344041  0.67433170  0.09637822  1
  C  C8  1  0.36856216  0.05517770  0.89461682  1
  C  C9  1  0.17913487  0.51399668  0.39976245  1
  C  C10  1  0.50683904  0.82600513  0.60640999  1
  C  C11  1  0.31364980  0.33479942  0.09659154  1
  C  C12  1  0.15831325  0.12029947  0.59349382  1
  C  C13  1  0.67144472  0.73805200  0.90423644  1
  C  C14  1  0.85133566  0.83432510  0.40086286  1
  C  C15  1  0.51005865  0.13851315  0.39319334  1
  C  C16  1  0.83152880  0.43598106  0.59919316  1
  C  C17  1  0.98829848  0.37089925  0.90420954  1
  C  C18  1  0.62296047  0.00338685  0.10430132  1
