# generated using pymatgen
data_CuNiC
_symmetry_space_group_name_H-M   'P 1'
_cell_length_a   4.24933100
_cell_length_b   6.88491400
_cell_length_c   7.41922200
_cell_angle_alpha   90.00000000
_cell_angle_beta   90.00000000
_cell_angle_gamma   90.00000000
_symmetry_Int_Tables_number   1
_chemical_formula_structural   CuNiC
_chemical_formula_sum   'Cu4 Ni4 C4'
_cell_volume   217.05882503
_cell_formula_units_Z   4
loop_
 _symmetry_equiv_pos_site_id
 _symmetry_equiv_pos_as_xyz
  1  'x, y, z'
loop_
 _atom_site_type_symbol
 _atom_site_label
 _atom_site_symmetry_multiplicity
 _atom_site_fract_x
 _atom_site_fract_y
 _atom_site_fract_z
 _atom_site_occupancy
  C  C0  1  0.75000000  0.50028100  0.81296800  1
  C  C1  1  0.25000000  0.99971900  0.31296800  1
  C  C2  1  0.75000000  0.00028100  0.68703200  1
  C  C3  1  0.25000000  0.49971900  0.18703200  1
  Ni  Ni4  1  0.25000000  0.79851500  0.89184500  1
  Ni  Ni5  1  0.25000000  0.29851500  0.60815500  1
  Ni  Ni6  1  0.75000000  0.20148500  0.10815500  1
  Ni  Ni7  1  0.75000000  0.70148500  0.39184500  1
  Cu  Cu8  1  0.25000000  0.65683200  0.56957800  1
  Cu  Cu9  1  0.25000000  0.15683200  0.93042200  1
  Cu  Cu10  1  0.75000000  0.84316800  0.06957800  1
  Cu  Cu11  1  0.75000000  0.34316800  0.43042200  1
