# generated using pymatgen
data_Cu4NiC8
_symmetry_space_group_name_H-M   'P 1'
_cell_length_a   5.48565758
_cell_length_b   5.24948689
_cell_length_c   6.47673861
_cell_angle_alpha   85.98763911
_cell_angle_beta   91.82007218
_cell_angle_gamma   101.62606160
_symmetry_Int_Tables_number   1
_chemical_formula_structural   Cu4NiC8
_chemical_formula_sum   'Cu4 Ni1 C8'
_cell_volume   182.20588801
_cell_formula_units_Z   1
loop_
 _symmetry_equiv_pos_site_id
 _symmetry_equiv_pos_as_xyz
  1  'x, y, z'
loop_
 _atom_site_type_symbol
 _atom_site_label
 _atom_site_symmetry_multiplicity
 _atom_site_fract_x
 _atom_site_fract_y
 _atom_site_fract_z
 _atom_site_occupancy
  Ni  Ni0  1  0.56626625  0.86920522  0.11858928  1
  Cu  Cu1  1  0.25858415  0.48017659  0.66271947  1
  Cu  Cu2  1  0.10940146  0.13019662  0.17171937  1
  Cu  Cu3  1  0.84624816  0.00360449  0.68133697  1
  Cu  Cu4  1  0.79705007  0.51292991  0.39671769  1
  C  C5  1  0.08434123  0.21168012  0.88400934  1
  C  C6  1  0.02044461  0.25081487  0.42912267  1
  C  C7  1  0.97312740  0.69685285  0.60883870  1
  C  C8  1  0.89613793  0.79059241  0.17398857  1
  C  C9  1  0.50107272  0.77368583  0.84189792  1
  C  C10  1  0.44964435  0.67935647  0.37256813  1
  C  C11  1  0.57268996  0.26675613  0.61765514  1
  C  C12  1  0.51249172  0.20914849  0.17625376  1
