# generated using pymatgen
data_Cu2NiC17
_symmetry_space_group_name_H-M   'P 1'
_cell_length_a   3.95848031
_cell_length_b   3.95848031
_cell_length_c   17.49930227
_cell_angle_alpha   90.00000000
_cell_angle_beta   90.00000000
_cell_angle_gamma   90.00000000
_symmetry_Int_Tables_number   1
_chemical_formula_structural   Cu2NiC17
_chemical_formula_sum   'Cu2 Ni1 C17'
_cell_volume   274.20647825
_cell_formula_units_Z   1
loop_
 _symmetry_equiv_pos_site_id
 _symmetry_equiv_pos_as_xyz
  1  'x, y, z'
loop_
 _atom_site_type_symbol
 _atom_site_label
 _atom_site_symmetry_multiplicity
 _atom_site_fract_x
 _atom_site_fract_y
 _atom_site_fract_z
 _atom_site_occupancy
  C  C0  1  0.50000000  0.50000000  0.21667838  1
  C  C1  1  0.50000000  0.50000000  0.82323407  1
  C  C2  1  0.50000000  0.50000000  0.01833424  1
  C  C3  1  0.50000000  0.50000000  0.45538121  1
  Ni  Ni4  1  0.50000000  0.50000000  0.63981404  1
  C  C5  1  0.00000000  -0.00000000  0.36475048  1
  C  C6  1  0.00000000  0.00000000  0.60750951  1
  Cu  Cu7  1  -0.00000000  0.00000000  0.09483266  1
  Cu  Cu8  1  0.00000000  0.00000000  0.93332240  1
  C  C9  1  -0.00000000  0.00000000  0.48860017  1
  C  C10  1  -0.00000000  0.50000000  0.38218836  1
  C  C11  1  0.50000000  -0.00000000  0.38218836  1
  C  C12  1  -0.00000000  0.50000000  0.60255103  1
  C  C13  1  0.50000000  0.00000000  0.60255103  1
  C  C14  1  0.00000000  -0.00000000  0.26092354  1
  C  C15  1  -0.00000000  0.00000000  0.71678587  1
  C  C16  1  0.00000000  0.50000000  0.09698463  1
  C  C17  1  0.50000000  -0.00000000  0.09698463  1
  C  C18  1  0.00000000  0.50000000  0.92694269  1
  C  C19  1  0.50000000  0.00000000  0.92694269  1
