# generated using pymatgen
data_Cu3Ni8C31
_symmetry_space_group_name_H-M   'P 1'
_cell_length_a   9.41291443
_cell_length_b   9.41291408
_cell_length_c   23.05407814
_cell_angle_alpha   90.00000000
_cell_angle_beta   90.00000000
_cell_angle_gamma   120.00000119
_symmetry_Int_Tables_number   1
_chemical_formula_structural   Cu3Ni8C31
_chemical_formula_sum   'Cu9 Ni24 C93'
_cell_volume   1768.99494767
_cell_formula_units_Z   3
loop_
 _symmetry_equiv_pos_site_id
 _symmetry_equiv_pos_as_xyz
  1  'x, y, z'
loop_
 _atom_site_type_symbol
 _atom_site_label
 _atom_site_symmetry_multiplicity
 _atom_site_fract_x
 _atom_site_fract_y
 _atom_site_fract_z
 _atom_site_occupancy
  Ni  Ni0  1  0.63441016  0.99920059  0.25252309  1
  Ni  Ni1  1  0.36479043  0.36558984  0.25252309  1
  Ni  Ni2  1  0.00079941  0.63520957  0.25252309  1
  Ni  Ni3  1  0.64601975  0.63462090  0.74260346  1
  Ni  Ni4  1  0.98860114  0.35398025  0.74260346  1
  Ni  Ni5  1  0.36537910  0.01139886  0.74260346  1
  Ni  Ni6  1  0.29697794  0.33597880  0.57903655  1
  Ni  Ni7  1  0.03900186  0.70302206  0.57903655  1
  Ni  Ni8  1  0.66402120  0.96099814  0.57903655  1
  Ni  Ni9  1  0.29618614  0.96237354  0.09208313  1
  Ni  Ni10  1  0.66618840  0.70381386  0.09208313  1
  Ni  Ni11  1  0.03762646  0.33381160  0.09208313  1
  Ni  Ni12  1  0.97344744  0.67869824  0.91450725  1
  Ni  Ni13  1  0.70524980  0.02655256  0.91450725  1
  Ni  Ni14  1  0.32130176  0.29475020  0.91450725  1
  Ni  Ni15  1  0.98027074  0.30086971  0.40867694  1
  Ni  Ni16  1  0.32059797  0.01972926  0.40867694  1
  Ni  Ni17  1  0.69913029  0.67940203  0.40867694  1
  Ni  Ni18  1  0.00000000  0.00000000  0.49610762  1
  Ni  Ni19  1  0.00000000  0.00000000  0.00672938  1
  Ni  Ni20  1  0.66666700  0.33333300  0.82733486  1
  Ni  Ni21  1  0.66666700  0.33333300  0.32378781  1
  Ni  Ni22  1  0.33333300  0.66666700  0.17672318  1
  Ni  Ni23  1  0.33333300  0.66666700  0.65607107  1
  Cu  Cu24  1  0.00000000  0.00000000  0.34591419  1
  Cu  Cu25  1  0.00000000  0.00000000  0.84657800  1
  Cu  Cu26  1  0.00000000  0.00000000  0.65123273  1
  Cu  Cu27  1  0.00000000  0.00000000  0.15267005  1
  Cu  Cu28  1  0.66666700  0.33333300  0.68087893  1
  Cu  Cu29  1  0.66666700  0.33333300  0.18201002  1
  Cu  Cu30  1  0.33333300  0.66666700  0.01612713  1
  Cu  Cu31  1  0.33333300  0.66666700  0.51198121  1
  Cu  Cu32  1  0.33333300  0.66666700  0.32209592  1
  C  C33  1  0.66666700  0.33333300  0.98280422  1
  C  C34  1  0.66666700  0.33333300  0.48502753  1
  C  C35  1  0.33333300  0.66666700  0.81891503  1
  C  C36  1  0.30615923  0.99795418  0.24951370  1
  C  C37  1  0.69179495  0.69384077  0.24951370  1
  C  C38  1  0.00204582  0.30820505  0.24951370  1
  C  C39  1  0.30524776  0.31185078  0.75331371  1
  C  C40  1  0.00660302  0.69475224  0.75331371  1
  C  C41  1  0.68814922  0.99339698  0.75331371  1
  C  C42  1  0.96567796  0.33375928  0.58427978  1
  C  C43  1  0.36808232  0.03432204  0.58427978  1
  C  C44  1  0.66624072  0.63191768  0.58427978  1
  C  C45  1  0.96218298  0.63011685  0.08098363  1
  C  C46  1  0.66793487  0.03781702  0.08098363  1
  C  C47  1  0.36988315  0.33206513  0.08098363  1
  C  C48  1  0.63047202  0.66101099  0.91732297  1
  C  C49  1  0.03053798  0.36952798  0.91732297  1
  C  C50  1  0.33898901  0.96946202  0.91732297  1
  C  C51  1  0.64060391  0.97920911  0.42004024  1
  C  C52  1  0.33860420  0.35939609  0.42004024  1
  C  C53  1  0.02079089  0.66139580  0.42004024  1
  C  C54  1  0.22023146  0.01437607  0.30415052  1
  C  C55  1  0.79414461  0.77976854  0.30415052  1
  C  C56  1  0.98562393  0.20585539  0.30415052  1
  C  C57  1  0.22570162  0.20843940  0.80763963  1
  C  C58  1  0.98273778  0.77429838  0.80763963  1
  C  C59  1  0.79156060  0.01726222  0.80763963  1
  C  C60  1  0.76161696  0.96005240  0.69871861  1
  C  C61  1  0.19843544  0.23838304  0.69871861  1
  C  C62  1  0.03994760  0.80156456  0.69871861  1
  C  C63  1  0.77447983  0.79393649  0.19363565  1
  C  C64  1  0.01945666  0.22552017  0.19363565  1
  C  C65  1  0.20606351  0.98054334  0.19363565  1
  C  C66  1  0.89045150  0.35128691  0.64099112  1
  C  C67  1  0.46083641  0.10954850  0.64099112  1
  C  C68  1  0.64871309  0.53916359  0.64099112  1
  C  C69  1  0.88265719  0.53219189  0.13560061  1
  C  C70  1  0.64953570  0.11734281  0.13560061  1
  C  C71  1  0.46780811  0.35046430  0.13560061  1
  C  C72  1  0.47308601  0.32345058  0.02622791  1
  C  C73  1  0.85036557  0.52691399  0.02622791  1
  C  C74  1  0.67654942  0.14963443  0.02622791  1
  C  C75  1  0.47306135  0.14740067  0.53220948  1
  C  C76  1  0.67434032  0.52693865  0.53220948  1
  C  C77  1  0.85259933  0.32565968  0.53220948  1
  C  C78  1  0.55329927  0.68469595  0.97164831  1
  C  C79  1  0.13139568  0.44670073  0.97164831  1
  C  C80  1  0.31530405  0.86860432  0.97164831  1
  C  C81  1  0.56024101  0.87517297  0.47428555  1
  C  C82  1  0.31493095  0.43975899  0.47428555  1
  C  C83  1  0.12482703  0.68506905  0.47428555  1
  C  C84  1  0.09394817  0.62749339  0.36555474  1
  C  C85  1  0.53354422  0.90605183  0.36555474  1
  C  C86  1  0.37250661  0.46645578  0.36555474  1
  C  C87  1  0.12444271  0.48396036  0.86378432  1
  C  C88  1  0.35951665  0.87555729  0.86378432  1
  C  C89  1  0.51603964  0.64048335  0.86378432  1
  C  C90  1  0.99562761  0.81115060  0.41522833  1
  C  C91  1  0.81552300  0.00437239  0.41522833  1
  C  C92  1  0.18884940  0.18447700  0.41522833  1
  C  C93  1  0.00370571  0.19550491  0.90997652  1
  C  C94  1  0.19179920  0.99629429  0.90997652  1
  C  C95  1  0.80449509  0.80820080  0.90997652  1
  C  C96  1  0.97266851  0.17247587  0.58160681  1
  C  C97  1  0.19980736  0.02733149  0.58160681  1
  C  C98  1  0.82752413  0.80019264  0.58160681  1
  C  C99  1  0.96832230  0.79731260  0.07786732  1
  C  C100  1  0.82899030  0.03167770  0.07786732  1
  C  C101  1  0.20268740  0.17100970  0.07786732  1
  C  C102  1  0.66201261  0.14308746  0.74885662  1
  C  C103  1  0.48107585  0.33798739  0.74885662  1
  C  C104  1  0.85691254  0.51892415  0.74885662  1
  C  C105  1  0.67453440  0.52041447  0.24836793  1
  C  C106  1  0.84588107  0.32546560  0.24836793  1
  C  C107  1  0.47958553  0.15411893  0.24836793  1
  C  C108  1  0.63839421  0.49673688  0.91895872  1
  C  C109  1  0.85834367  0.36160579  0.91895872  1
  C  C110  1  0.50326312  0.14165633  0.91895872  1
  C  C111  1  0.65829280  0.15545672  0.42738158  1
  C  C112  1  0.49716492  0.34170720  0.42738158  1
  C  C113  1  0.84454328  0.50283508  0.42738158  1
  C  C114  1  0.34954374  0.48401535  0.07591854  1
  C  C115  1  0.13447062  0.65045626  0.07591854  1
  C  C116  1  0.51598465  0.86552938  0.07591854  1
  C  C117  1  0.34870593  0.86149459  0.57896329  1
  C  C118  1  0.51278766  0.65129407  0.57896329  1
  C  C119  1  0.13850541  0.48721234  0.57896329  1
  C  C120  1  0.32296641  0.84146326  0.25231409  1
  C  C121  1  0.51849585  0.67703359  0.25231409  1
  C  C122  1  0.15853674  0.48150415  0.25231409  1
  C  C123  1  0.32241112  0.48841385  0.76089973  1
  C  C124  1  0.16600173  0.67758888  0.76089973  1
  C  C125  1  0.51158615  0.83399827  0.76089973  1
