# generated using pymatgen
data_Cu3NiC9
_symmetry_space_group_name_H-M   'P 1'
_cell_length_a   6.23596992
_cell_length_b   5.86806333
_cell_length_c   5.86865230
_cell_angle_alpha   59.98285159
_cell_angle_beta   61.54603937
_cell_angle_gamma   89.79666308
_symmetry_Int_Tables_number   1
_chemical_formula_structural   Cu3NiC9
_chemical_formula_sum   'Cu3 Ni1 C9'
_cell_volume   155.51557930
_cell_formula_units_Z   1
loop_
 _symmetry_equiv_pos_site_id
 _symmetry_equiv_pos_as_xyz
  1  'x, y, z'
loop_
 _atom_site_type_symbol
 _atom_site_label
 _atom_site_symmetry_multiplicity
 _atom_site_fract_x
 _atom_site_fract_y
 _atom_site_fract_z
 _atom_site_occupancy
  C  C0  1  0.44613200  0.14838600  0.69904800  1
  Ni  Ni1  1  0.90694100  0.96842200  0.06297700  1
  Cu  Cu2  1  0.02286100  0.00420400  0.48657400  1
  Cu  Cu3  1  0.02441900  0.50885600  0.98148400  1
  Cu  Cu4  1  0.02205000  0.50831900  0.48721400  1
  C  C5  1  0.19841000  0.22154700  0.02247600  1
  C  C6  1  0.19696500  0.22116400  0.55576700  1
  C  C7  1  0.19802500  0.75381700  0.02280700  1
  C  C8  1  0.20497500  0.73376700  0.53087100  1
  C  C9  1  0.82182000  0.27411300  0.45174700  1
  C  C10  1  0.79459500  0.27654400  0.96699200  1
  C  C11  1  0.79530400  0.75869300  0.48409200  1
  C  C12  1  0.79458400  0.75758600  0.96670100  1
