# generated using pymatgen
data_Cu2NiC10
_symmetry_space_group_name_H-M   'P 1'
_cell_length_a   5.13770607
_cell_length_b   5.32443600
_cell_length_c   7.93024752
_cell_angle_alpha   105.73494333
_cell_angle_beta   104.67324004
_cell_angle_gamma   101.92640053
_symmetry_Int_Tables_number   1
_chemical_formula_structural   Cu2NiC10
_chemical_formula_sum   'Cu2 Ni1 C10'
_cell_volume   192.96185327
_cell_formula_units_Z   1
loop_
 _symmetry_equiv_pos_site_id
 _symmetry_equiv_pos_as_xyz
  1  'x, y, z'
loop_
 _atom_site_type_symbol
 _atom_site_label
 _atom_site_symmetry_multiplicity
 _atom_site_fract_x
 _atom_site_fract_y
 _atom_site_fract_z
 _atom_site_occupancy
  C  C0  1  0.59923205  0.85079540  0.19976378  1
  C  C1  1  0.41957612  0.16908302  0.83829531  1
  Ni  Ni2  1  0.26919189  0.51745918  0.53589615  1
  Cu  Cu3  1  0.06844184  0.31949163  0.13744202  1
  Cu  Cu4  1  0.93621628  0.68590701  0.87191497  1
  C  C5  1  0.37394329  0.63733134  0.34002421  1
  C  C6  1  0.96597606  0.20397072  0.33937234  1
  C  C7  1  0.20563871  0.47974349  0.94880168  1
  C  C8  1  0.74312289  0.96910924  0.94843585  1
  C  C9  1  0.57613153  0.40975216  0.68348753  1
  C  C10  1  0.10888757  0.77213152  0.68417144  1
  C  C11  1  0.79144556  0.52804039  0.07125180  1
  C  C12  1  0.27969620  0.04468489  0.07114290  1
