# generated using pymatgen
data_Cu3Ni2C37
_symmetry_space_group_name_H-M   'P 1'
_cell_length_a   9.42618888
_cell_length_b   9.22995069
_cell_length_c   22.44660954
_cell_angle_alpha   94.54356612
_cell_angle_beta   89.62884936
_cell_angle_gamma   120.71534641
_symmetry_Int_Tables_number   1
_chemical_formula_structural   Cu3Ni2C37
_chemical_formula_sum   'Cu9 Ni6 C111'
_cell_volume   1672.36986190
_cell_formula_units_Z   3
loop_
 _symmetry_equiv_pos_site_id
 _symmetry_equiv_pos_as_xyz
  1  'x, y, z'
loop_
 _atom_site_type_symbol
 _atom_site_label
 _atom_site_symmetry_multiplicity
 _atom_site_fract_x
 _atom_site_fract_y
 _atom_site_fract_z
 _atom_site_occupancy
  C  C0  1  0.64782804  0.02312371  0.26083699  1
  C  C1  1  0.35216144  0.34371396  0.25730019  1
  C  C2  1  0.00156966  0.62991853  0.24048827  1
  C  C3  1  0.62539088  0.63502087  0.73598597  1
  C  C4  1  0.98959076  0.34266770  0.73876498  1
  C  C5  1  0.37195826  0.03079520  0.74830508  1
  C  C6  1  0.31045548  0.35144009  0.59208789  1
  C  C7  1  0.01820676  0.67857960  0.58953357  1
  C  C8  1  0.66732075  0.96205688  0.57619887  1
  C  C9  1  0.28431120  0.95574147  0.08167080  1
  C  C10  1  0.67611814  0.69830885  0.07907780  1
  C  C11  1  0.02769300  0.34621438  0.09319104  1
  C  C12  1  0.99542323  0.68633848  0.91549444  1
  C  C13  1  0.67815394  0.02114488  0.90100014  1
  C  C14  1  0.33678095  0.29013584  0.90488666  1
  C  C15  1  0.95100496  0.28592378  0.41675680  1
  C  C16  1  0.34078840  0.03651574  0.40649574  1
  C  C17  1  0.68683873  0.67721270  0.43082807  1
  C  C18  1  0.97894698  0.99429654  0.50498675  1
  C  C19  1  0.01520872  0.99419271  0.99954231  1
  C  C20  1  0.64778806  0.32378756  0.82607657  1
  C  C21  1  0.66284227  0.31285038  0.33657173  1
  C  C22  1  0.30927858  0.65911209  0.16981606  1
  C  C23  1  0.34190706  0.65162628  0.66200586  1
  C  C24  1  0.99905519  0.00668146  0.34886509  1
  C  C25  1  0.00233540  0.00730364  0.84536982  1
  C  C26  1  0.66913483  0.33731549  0.68308898  1
  C  C27  1  0.67119807  0.32992667  0.18433524  1
  C  C28  1  0.32689499  0.67184500  0.01289065  1
  C  C29  1  0.33843343  0.66560370  0.51703524  1
  Ni  Ni30  1  0.96399520  0.02906697  0.64804805  1
  Ni  Ni31  1  0.01101702  0.97731816  0.16497994  1
  Ni  Ni32  1  0.66868323  0.33894319  0.98119681  1
  Ni  Ni33  1  0.67570979  0.30978838  0.49781888  1
  Ni  Ni34  1  0.31452893  0.69502575  0.31074873  1
  Ni  Ni35  1  0.35060567  0.70178609  0.80048424  1
  Cu  Cu36  1  0.29964366  0.99336019  0.25313616  1
  Cu  Cu37  1  0.01672842  0.30178293  0.25211130  1
  Cu  Cu38  1  0.28681470  0.30665822  0.75305634  1
  Cu  Cu39  1  0.69129125  0.99515883  0.75157971  1
  Cu  Cu40  1  0.96723675  0.32976808  0.58586813  1
  Cu  Cu41  1  0.68495291  0.63569336  0.58519246  1
  Cu  Cu42  1  0.95482455  0.63713902  0.08622343  1
  Cu  Cu43  1  0.34561992  0.97234567  0.91983398  1
  Cu  Cu44  1  0.61970221  0.96878919  0.41905126  1
  C  C45  1  0.69433657  0.71208343  0.24609917  1
  C  C46  1  0.01917032  0.70048042  0.75415067  1
  C  C47  1  0.36184459  0.04604698  0.57936501  1
  C  C48  1  0.68125565  0.04247871  0.07719335  1
  C  C49  1  0.37450118  0.32998731  0.07882872  1
  C  C50  1  0.63363614  0.65248044  0.91856454  1
  C  C51  1  0.00839763  0.36027761  0.92131560  1
  C  C52  1  0.34719900  0.36972702  0.41293972  1
  C  C53  1  0.03531501  0.66019091  0.41190906  1
  C  C54  1  0.22197491  0.01846480  0.31374660  1
  C  C55  1  0.78625744  0.77932890  0.30347479  1
  C  C56  1  0.97261927  0.19861573  0.31059954  1
  C  C57  1  0.22491423  0.20249631  0.81160891  1
  C  C58  1  0.00717374  0.77888593  0.81214775  1
  C  C59  1  0.78522376  0.00648282  0.81277309  1
  C  C60  1  0.79160072  0.97580501  0.69329268  1
  C  C61  1  0.15001029  0.19428214  0.69410487  1
  C  C62  1  0.03431747  0.79827911  0.70346363  1
  C  C63  1  0.79835517  0.81656919  0.19633783  1
  C  C64  1  0.03753945  0.18249654  0.19308854  1
  C  C65  1  0.17698592  0.96474805  0.19444761  1
  C  C66  1  0.89530391  0.36373778  0.64655243  1
  C  C67  1  0.45073178  0.11317714  0.63753198  1
  C  C68  1  0.64555322  0.53142571  0.64306791  1
  C  C69  1  0.88118276  0.53570676  0.14422952  1
  C  C70  1  0.65494754  0.10938548  0.13512064  1
  C  C71  1  0.46244863  0.34800903  0.13525047  1
  C  C72  1  0.47062445  0.32008247  0.02611154  1
  C  C73  1  0.82160755  0.52968341  0.02675926  1
  C  C74  1  0.68201271  0.14429913  0.02804596  1
  C  C75  1  0.46933020  0.14963793  0.53034109  1
  C  C76  1  0.70378005  0.51677422  0.52549702  1
  C  C77  1  0.84395344  0.29976000  0.52718509  1
  C  C78  1  0.56131532  0.67311336  0.97501718  1
  C  C79  1  0.10664799  0.43754397  0.97788557  1
  C  C80  1  0.31811288  0.87570056  0.97953584  1
  C  C81  1  0.54792039  0.86841607  0.47729259  1
  C  C82  1  0.33773593  0.45457739  0.46959126  1
  C  C83  1  0.12897298  0.67823138  0.46663708  1
  C  C84  1  0.12996185  0.65423471  0.35760969  1
  C  C85  1  0.48742418  0.86204816  0.35828907  1
  C  C86  1  0.34781513  0.46063931  0.36113210  1
  C  C87  1  0.08973445  0.45837950  0.87043564  1
  C  C88  1  0.36981554  0.85749379  0.86095957  1
  C  C89  1  0.53085861  0.63578220  0.86629164  1
  C  C90  1  0.00985076  0.80664883  0.41195024  1
  C  C91  1  0.80330077  0.99219741  0.41248588  1
  C  C92  1  0.20123971  0.19540278  0.41334593  1
  C  C93  1  0.97658352  0.18505527  0.91611178  1
  C  C94  1  0.18725710  0.99848976  0.91400754  1
  C  C95  1  0.80607355  0.79825190  0.91699074  1
  C  C96  1  0.96776364  0.14937523  0.58729843  1
  C  C97  1  0.20888869  0.05244529  0.57631139  1
  C  C98  1  0.86723148  0.82396048  0.59417240  1
  C  C99  1  0.96837582  0.83115353  0.09517607  1
  C  C100  1  0.84074456  0.04564694  0.07727955  1
  C  C101  1  0.20899601  0.17328308  0.07515446  1
  C  C102  1  0.66198458  0.15341900  0.74982954  1
  C  C103  1  0.47345140  0.34197640  0.74431669  1
  C  C104  1  0.87481440  0.52725548  0.75019765  1
  C  C105  1  0.65304400  0.53505165  0.23750088  1
  C  C106  1  0.86741439  0.33849433  0.24215386  1
  C  C107  1  0.48610151  0.15334033  0.24836503  1
  C  C108  1  0.64014474  0.49030729  0.91841237  1
  C  C109  1  0.84367022  0.35399317  0.92616247  1
  C  C110  1  0.52343806  0.16317348  0.92677890  1
  C  C111  1  0.63435889  0.16228366  0.42799988  1
  C  C112  1  0.50238554  0.36280784  0.41267068  1
  C  C113  1  0.87346543  0.50032452  0.40756235  1
  C  C114  1  0.35421531  0.48052940  0.07709213  1
  C  C115  1  0.14014227  0.66266331  0.08008958  1
  C  C116  1  0.54448185  0.86272854  0.07109782  1
  C  C117  1  0.32115719  0.86854024  0.57167240  1
  C  C118  1  0.53309137  0.67052903  0.57683454  1
  C  C119  1  0.15445028  0.48739139  0.57998132  1
  C  C120  1  0.30241653  0.81351864  0.25272006  1
  C  C121  1  0.54035068  0.71871739  0.24453297  1
  C  C122  1  0.19906843  0.49063829  0.26054032  1
  C  C123  1  0.29198634  0.49279333  0.76429380  1
  C  C124  1  0.17594745  0.69166246  0.75558028  1
  C  C125  1  0.50572120  0.81588529  0.74869122  1
