# generated using pymatgen
data_Cu(NiC7)5
_symmetry_space_group_name_H-M   'P 1'
_cell_length_a   9.01286289
_cell_length_b   9.01479467
_cell_length_c   22.18504394
_cell_angle_alpha   89.69345983
_cell_angle_beta   90.03259093
_cell_angle_gamma   119.88126494
_symmetry_Int_Tables_number   1
_chemical_formula_structural   Cu(NiC7)5
_chemical_formula_sum   'Cu3 Ni15 C105'
_cell_volume   1562.86121478
_cell_formula_units_Z   3
loop_
 _symmetry_equiv_pos_site_id
 _symmetry_equiv_pos_as_xyz
  1  'x, y, z'
loop_
 _atom_site_type_symbol
 _atom_site_label
 _atom_site_symmetry_multiplicity
 _atom_site_fract_x
 _atom_site_fract_y
 _atom_site_fract_z
 _atom_site_occupancy
  C  C0  1  0.64026786  0.01059309  0.24911740  1
  C  C1  1  0.37222596  0.36267877  0.24728002  1
  C  C2  1  0.98881672  0.62607987  0.24788960  1
  C  C3  1  0.63669341  0.62626134  0.74780511  1
  C  C4  1  0.98864895  0.36093237  0.74822045  1
  C  C5  1  0.37421487  0.01239663  0.74780370  1
  C  C6  1  0.30504864  0.34229675  0.58170262  1
  C  C7  1  0.03948689  0.69710426  0.58109759  1
  C  C8  1  0.65684305  0.96002913  0.58136167  1
  C  C9  1  0.30085329  0.96208939  0.08013261  1
  C  C10  1  0.04151874  0.34534967  0.08203297  1
  C  C11  1  0.97265226  0.67754691  0.91502362  1
  C  C12  1  0.32233266  0.29233267  0.91515419  1
  C  C13  1  0.32274544  0.02836966  0.41504984  1
  C  C14  1  0.70664215  0.67614564  0.41516552  1
  C  C15  1  0.99750970  0.00487322  0.49390471  1
  C  C16  1  0.98868609  0.99638828  0.99479570  1
  C  C17  1  0.66724961  0.32512912  0.82907020  1
  C  C18  1  0.67440960  0.33258425  0.32953949  1
  C  C19  1  0.33918732  0.66331064  0.16049388  1
  C  C20  1  0.33453298  0.66695989  0.66170117  1
  C  C21  1  0.99932118  0.99934235  0.64657914  1
  C  C22  1  0.00050214  0.99727681  0.14604849  1
  C  C23  1  0.66625708  0.33081285  0.97959618  1
  C  C24  1  0.67397095  0.33202688  0.47954633  1
  C  C25  1  0.32958949  0.66871410  0.31295612  1
  C  C26  1  0.33063293  0.66966922  0.81331788  1
  C  C27  1  0.99305291  0.99787438  0.35049016  1
  C  C28  1  0.00231114  0.00640833  0.85077659  1
  C  C29  1  0.66612326  0.33304175  0.68446551  1
  C  C30  1  0.66822238  0.34109243  0.18533219  1
  C  C31  1  0.32696941  0.65817241  0.01743410  1
  C  C32  1  0.33582061  0.67255191  0.51831734  1
  Ni  Ni33  1  0.29351252  0.00670819  0.25242912  1
  Ni  Ni34  1  0.71089738  0.70640009  0.25214206  1
  Ni  Ni35  1  0.99465853  0.28626247  0.25089851  1
  Ni  Ni36  1  0.29521890  0.28988312  0.75168648  1
  Ni  Ni37  1  0.99374559  0.70698143  0.75294986  1
  Ni  Ni38  1  0.71227558  0.00478197  0.75211215  1
  Ni  Ni39  1  0.96273577  0.33912789  0.58596842  1
  Ni  Ni40  1  0.37887569  0.04168921  0.58483640  1
  Ni  Ni41  1  0.66120335  0.62079299  0.58434620  1
  Ni  Ni42  1  0.95776489  0.62286542  0.08475877  1
  Ni  Ni43  1  0.38130142  0.34510915  0.08499689  1
  Ni  Ni44  1  0.04013460  0.36660552  0.91833274  1
  Ni  Ni45  1  0.33070341  0.95563919  0.91960242  1
  Ni  Ni46  1  0.63099824  0.95787475  0.41823659  1
  Ni  Ni47  1  0.04326869  0.67068880  0.41889166  1
  Cu  Cu48  1  0.66238871  0.03923418  0.08507799  1
  Cu  Cu49  1  0.62321895  0.67291520  0.91907622  1
  Cu  Cu50  1  0.32698010  0.37358011  0.41868859  1
  C  C51  1  0.20715534  0.03874571  0.31088421  1
  C  C52  1  0.82984476  0.78837998  0.31078049  1
  C  C53  1  0.96032270  0.16136690  0.30740951  1
  C  C54  1  0.21055855  0.16951758  0.81020987  1
  C  C55  1  0.96334889  0.79482200  0.81128380  1
  C  C56  1  0.83880722  0.03874672  0.80764225  1
  C  C57  1  0.79704002  0.96386685  0.69114306  1
  C  C58  1  0.16578061  0.20245814  0.69207048  1
  C  C59  1  0.03617962  0.83413942  0.69249554  1
  C  C60  1  0.80273864  0.83986240  0.19397072  1
  C  C61  1  0.03546652  0.20241618  0.19024291  1
  C  C62  1  0.16520417  0.96382104  0.19259100  1
  C  C63  1  0.87708523  0.37359795  0.64412551  1
  C  C64  1  0.49743000  0.12643890  0.64340439  1
  C  C65  1  0.62889327  0.50342914  0.64365162  1
  C  C66  1  0.87374528  0.50050014  0.14316566  1
  C  C67  1  0.63240696  0.11973740  0.14139483  1
  C  C68  1  0.48955979  0.35941269  0.14476570  1
  C  C69  1  0.46798663  0.30101520  0.02576791  1
  C  C70  1  0.83485746  0.52889882  0.02486430  1
  C  C71  1  0.69662528  0.16403186  0.02927932  1
  C  C72  1  0.46552565  0.16875529  0.52483062  1
  C  C73  1  0.70098158  0.53299371  0.52492883  1
  C  C74  1  0.82905764  0.29788092  0.52751468  1
  C  C75  1  0.53519899  0.69436577  0.97295426  1
  C  C76  1  0.16021919  0.45546391  0.97630331  1
  C  C77  1  0.30071499  0.83481863  0.97750680  1
  C  C78  1  0.54161545  0.83729062  0.47683578  1
  C  C79  1  0.30628098  0.45866820  0.47496236  1
  C  C80  1  0.16336728  0.70131509  0.47691788  1
  C  C81  1  0.13323292  0.63630412  0.35852555  1
  C  C82  1  0.50003216  0.86418912  0.35897652  1
  C  C83  1  0.36154205  0.49285887  0.36150725  1
  C  C84  1  0.13395675  0.49913551  0.85902246  1
  C  C85  1  0.36419963  0.86591410  0.85880078  1
  C  C86  1  0.50811113  0.63590057  0.86073661  1
  C  C87  1  0.02573000  0.84067213  0.41168514  1
  C  C88  1  0.81535401  0.97223430  0.41104223  1
  C  C89  1  0.17624648  0.19335161  0.41206137  1
  C  C90  1  0.02699346  0.18277166  0.91079897  1
  C  C91  1  0.16078687  0.97380637  0.91217019  1
  C  C92  1  0.80641808  0.82237564  0.91204125  1
  C  C93  1  0.97288485  0.16071554  0.58804701  1
  C  C94  1  0.18787163  0.02775776  0.58837131  1
  C  C95  1  0.83851866  0.81137705  0.58823921  1
  C  C96  1  0.97730596  0.81603288  0.08821000  1
  C  C97  1  0.83301800  0.03442267  0.08764711  1
  C  C98  1  0.18815810  0.16486940  0.08851194  1
  C  C99  1  0.68721190  0.16931523  0.74469333  1
  C  C100  1  0.48387472  0.31266520  0.74452330  1
  C  C101  1  0.83086819  0.51793696  0.74550927  1
  C  C102  1  0.68744091  0.51718496  0.24506213  1
  C  C103  1  0.82883022  0.31046036  0.24344968  1
  C  C104  1  0.48431901  0.16741484  0.24376538  1
  C  C105  1  0.63559725  0.50207562  0.92269792  1
  C  C106  1  0.85538514  0.36547220  0.92211567  1
  C  C107  1  0.50172516  0.15021876  0.92271719  1
  C  C108  1  0.63061337  0.14227468  0.42141273  1
  C  C109  1  0.49768953  0.36366897  0.42118881  1
  C  C110  1  0.84872529  0.49915885  0.42141842  1
  C  C111  1  0.35031295  0.50586977  0.07744101  1
  C  C112  1  0.14981940  0.64927290  0.07852983  1
  C  C113  1  0.50388707  0.86497154  0.07613497  1
  C  C114  1  0.35461134  0.85166124  0.57860866  1
  C  C115  1  0.49457890  0.64357103  0.57718932  1
  C  C116  1  0.15128859  0.50276300  0.57662932  1
  C  C117  1  0.30556197  0.82761072  0.25540318  1
  C  C118  1  0.51962788  0.69075707  0.25635426  1
  C  C119  1  0.17230048  0.47691757  0.25601682  1
  C  C120  1  0.30925293  0.48047693  0.75630724  1
  C  C121  1  0.17296093  0.69474340  0.75561837  1
  C  C122  1  0.52260247  0.82655007  0.75602046  1
