# generated using pymatgen
data_Cu(NiC2)2
_symmetry_space_group_name_H-M   'P 1'
_cell_length_a   8.40780400
_cell_length_b   7.59770900
_cell_length_c   9.83220063
_cell_angle_alpha   71.98355423
_cell_angle_beta   90.00000000
_cell_angle_gamma   90.00000000
_symmetry_Int_Tables_number   1
_chemical_formula_structural   Cu(NiC2)2
_chemical_formula_sum   'Cu8 Ni16 C32'
_cell_volume   597.28522122
_cell_formula_units_Z   8
loop_
 _symmetry_equiv_pos_site_id
 _symmetry_equiv_pos_as_xyz
  1  'x, y, z'
loop_
 _atom_site_type_symbol
 _atom_site_label
 _atom_site_symmetry_multiplicity
 _atom_site_fract_x
 _atom_site_fract_y
 _atom_site_fract_z
 _atom_site_occupancy
  C  C0  1  0.09995500  0.10723400  0.71941000  1
  C  C1  1  0.59995500  0.89276600  0.28059000  1
  Ni  Ni2  1  0.12764500  0.58755800  0.47722900  1
  Ni  Ni3  1  0.72411400  0.12590800  0.71836200  1
  Ni  Ni4  1  0.76402600  0.03398400  0.98130800  1
  Ni  Ni5  1  0.26402600  0.96601600  0.01869200  1
  Ni  Ni6  1  0.22411400  0.87409200  0.28163800  1
  Ni  Ni7  1  0.62764500  0.41244200  0.52277100  1
  Ni  Ni8  1  0.52098600  0.61590100  0.84935700  1
  Ni  Ni9  1  0.02098600  0.38409900  0.15064300  1
  Ni  Ni10  1  0.61475200  0.40381300  0.27059800  1
  Ni  Ni11  1  0.11475200  0.59618700  0.72940200  1
  Ni  Ni12  1  0.51385600  0.91590300  0.90379500  1
  Ni  Ni13  1  0.01385600  0.08409700  0.09620500  1
  Ni  Ni14  1  0.51630800  0.91033900  0.64264700  1
  Ni  Ni15  1  0.01630800  0.08966100  0.35735300  1
  Ni  Ni16  1  0.77421300  0.01497500  0.51256800  1
  Ni  Ni17  1  0.27421300  0.98502500  0.48743200  1
  Cu  Cu18  1  0.07095000  0.62579700  0.17705700  1
  Cu  Cu19  1  0.57095000  0.37420300  0.82294300  1
  Cu  Cu20  1  0.07208400  0.67154700  0.90624100  1
  Cu  Cu21  1  0.57208400  0.32845300  0.09375900  1
  Cu  Cu22  1  0.08270100  0.36679300  0.89646100  1
  Cu  Cu23  1  0.58270100  0.63320700  0.10353900  1
  Cu  Cu24  1  0.05524600  0.36847200  0.42493100  1
  Cu  Cu25  1  0.55524600  0.63152800  0.57506900  1
  C  C26  1  0.08755100  0.01419800  0.24433400  1
  C  C27  1  0.83331300  0.08015000  0.61849000  1
  C  C28  1  0.58619000  0.27570100  0.19884700  1
  C  C29  1  0.82079900  0.10956000  0.84505300  1
  C  C30  1  0.85183200  0.01435400  0.10218500  1
  C  C31  1  0.35183200  0.98564600  0.89781500  1
  C  C32  1  0.33331300  0.91985000  0.38151000  1
  C  C33  1  0.08619000  0.72429900  0.80115300  1
  C  C34  1  0.15618600  0.68714800  0.33715500  1
  C  C35  1  0.65618600  0.31285200  0.66284500  1
  C  C36  1  0.86096100  0.00415400  0.39771600  1
  C  C37  1  0.36096100  0.99584600  0.60228400  1
  C  C38  1  0.50350300  0.70611400  0.70621500  1
  C  C39  1  0.00350300  0.29388600  0.29378500  1
  C  C40  1  0.51622100  0.71071200  0.94733600  1
  C  C41  1  0.01622100  0.28928800  0.05266400  1
  C  C42  1  0.14251000  0.66855900  0.58455600  1
  C  C43  1  0.64251000  0.33144100  0.41544400  1
  C  C44  1  0.57993300  0.59464600  0.48751100  1
  C  C45  1  0.07993300  0.40535400  0.51248900  1
  C  C46  1  0.54587500  0.42711200  0.90056800  1
  C  C47  1  0.04587500  0.57288800  0.09943200  1
  C  C48  1  0.61797700  0.59241000  0.20703200  1
  C  C49  1  0.11797700  0.40759000  0.79296800  1
  C  C50  1  0.12276800  0.05605200  0.47957200  1
  C  C51  1  0.62276800  0.94394800  0.52042800  1
  C  C52  1  0.10950600  0.02756000  0.99322500  1
  C  C53  1  0.60950600  0.97244000  0.00677500  1
  C  C54  1  0.32079900  0.89044000  0.15494700  1
  C  C55  1  0.58755100  0.98580200  0.75566600  1
