# generated using pymatgen
data_Cu2NiC10
_symmetry_space_group_name_H-M   'P 1'
_cell_length_a   4.83763732
_cell_length_b   5.68474809
_cell_length_c   4.96802258
_cell_angle_alpha   89.98450711
_cell_angle_beta   87.48422064
_cell_angle_gamma   89.98802024
_symmetry_Int_Tables_number   1
_chemical_formula_structural   Cu2NiC10
_chemical_formula_sum   'Cu2 Ni1 C10'
_cell_volume   136.49265411
_cell_formula_units_Z   1
loop_
 _symmetry_equiv_pos_site_id
 _symmetry_equiv_pos_as_xyz
  1  'x, y, z'
loop_
 _atom_site_type_symbol
 _atom_site_label
 _atom_site_symmetry_multiplicity
 _atom_site_fract_x
 _atom_site_fract_y
 _atom_site_fract_z
 _atom_site_occupancy
  Ni  Ni0  1  0.49997200  0.09817900  0.25013200  1
  Cu  Cu1  1  0.99999300  0.85950900  0.74998200  1
  Cu  Cu2  1  0.99995900  0.14205200  0.24996000  1
  C  C3  1  0.50022100  0.38464200  0.75005700  1
  C  C4  1  0.49983700  0.62728400  0.24993500  1
  C  C5  1  0.21880300  0.11550400  0.56462000  1
  C  C6  1  0.22284900  0.88876300  0.07785100  1
  C  C7  1  0.26946800  0.63117800  0.58540300  1
  C  C8  1  0.27904700  0.36235100  0.09124000  1
  C  C9  1  0.73064700  0.63115300  0.91466300  1
  C  C10  1  0.72093200  0.36234200  0.40868800  1
  C  C11  1  0.78100200  0.11549000  0.93533900  1
  C  C12  1  0.77726900  0.88869700  0.42213100  1
