# generated using pymatgen
data_Cu2NiC14
_symmetry_space_group_name_H-M   'P 1'
_cell_length_a   8.44214729
_cell_length_b   8.44508988
_cell_length_c   21.88218203
_cell_angle_alpha   89.91235209
_cell_angle_beta   90.00000000
_cell_angle_gamma   119.98847447
_symmetry_Int_Tables_number   1
_chemical_formula_structural   Cu2NiC14
_chemical_formula_sum   'Cu12 Ni6 C84'
_cell_volume   1351.22667020
_cell_formula_units_Z   6
loop_
 _symmetry_equiv_pos_site_id
 _symmetry_equiv_pos_as_xyz
  1  'x, y, z'
loop_
 _atom_site_type_symbol
 _atom_site_label
 _atom_site_symmetry_multiplicity
 _atom_site_fract_x
 _atom_site_fract_y
 _atom_site_fract_z
 _atom_site_occupancy
  C  C0  1  0.00105014  0.99953144  0.64274778  1
  C  C1  1  0.99848130  0.99953144  0.14274778  1
  C  C2  1  0.66176487  0.33168929  0.97616011  1
  C  C3  1  0.66992542  0.33168929  0.47616011  1
  C  C4  1  0.34367798  0.65798009  0.30949988  1
  C  C5  1  0.31430111  0.65798009  0.80949988  1
  C  C6  1  0.00069235  0.99799208  0.35482333  1
  C  C7  1  0.99729973  0.99799208  0.85482333  1
  C  C8  1  0.67960831  0.34015913  0.68864833  1
  C  C9  1  0.66055181  0.34015913  0.18864833  1
  C  C10  1  0.32896540  0.65352930  0.02142071  1
  C  C11  1  0.32456290  0.65352930  0.52142071  1
  Ni  Ni12  1  0.72355373  0.71262012  0.25125664  1
  Ni  Ni13  1  0.98906639  0.71262012  0.75125664  1
  Ni  Ni14  1  0.95680847  0.34021089  0.58439842  1
  Ni  Ni15  1  0.38340342  0.34021089  0.08439842  1
  Ni  Ni16  1  0.04666652  0.37081679  0.91811621  1
  Ni  Ni17  1  0.32414927  0.37081679  0.41811621  1
  Cu  Cu18  1  0.29095280  0.00399390  0.25073399  1
  Cu  Cu19  1  0.99101399  0.28407299  0.25012298  1
  Cu  Cu20  1  0.29305900  0.28407299  0.75012298  1
  Cu  Cu21  1  0.71304110  0.00399390  0.75073399  1
  Cu  Cu22  1  0.38406233  0.04234375  0.58389233  1
  Cu  Cu23  1  0.65948951  0.61724545  0.58378025  1
  Cu  Cu24  1  0.95775695  0.61724545  0.08378025  1
  Cu  Cu25  1  0.65828243  0.04234375  0.08389233  1
  Cu  Cu26  1  0.62334842  0.67422621  0.91671798  1
  Cu  Cu27  1  0.32619178  0.94912877  0.91745255  1
  Cu  Cu28  1  0.62293599  0.94912877  0.41745255  1
  Cu  Cu29  1  0.05087679  0.67422621  0.41671798  1
  C  C30  1  0.20858607  0.03762468  0.30485778  1
  C  C31  1  0.83791229  0.80465797  0.30768949  1
  C  C32  1  0.96304068  0.17228506  0.30475834  1
  C  C33  1  0.20924439  0.17228506  0.80475834  1
  C  C34  1  0.96674568  0.80465797  0.80768949  1
  C  C35  1  0.82903861  0.03762468  0.80485778  1
  C  C36  1  0.79407910  0.96865204  0.69571406  1
  C  C37  1  0.17492089  0.20819693  0.69527336  1
  C  C38  1  0.03067421  0.83542585  0.69397001  1
  C  C39  1  0.80475164  0.83542585  0.19397001  1
  C  C40  1  0.03327604  0.20819693  0.19527336  1
  C  C41  1  0.17457294  0.96865204  0.19571406  1
  C  C42  1  0.86462544  0.36669777  0.64007197  1
  C  C43  1  0.49474687  0.12716108  0.63871353  1
  C  C44  1  0.62719691  0.50322016  0.63836688  1
  C  C45  1  0.87602425  0.50322016  0.13836688  1
  C  C46  1  0.63241521  0.12716108  0.13871353  1
  C  C47  1  0.50207333  0.36669777  0.14007197  1
  C  C48  1  0.46827815  0.30106878  0.02718510  1
  C  C49  1  0.84113816  0.53923455  0.02903634  1
  C  C50  1  0.69885501  0.15962874  0.02876702  1
  C  C51  1  0.46077473  0.15962874  0.52876702  1
  C  C52  1  0.69809740  0.53923455  0.52903634  1
  C  C53  1  0.83279163  0.30106878  0.52718510  1
  C  C54  1  0.54138509  0.70500528  0.97177738  1
  C  C55  1  0.16795182  0.46571646  0.97303680  1
  C  C56  1  0.29997379  0.83753848  0.97238579  1
  C  C57  1  0.53756368  0.83753848  0.47238579  1
  C  C58  1  0.29776364  0.46571646  0.47303680  1
  C  C59  1  0.16361919  0.70500528  0.47177738  1
  C  C60  1  0.12859453  0.63625314  0.36204167  1
  C  C61  1  0.50605751  0.87277933  0.36238608  1
  C  C62  1  0.36542782  0.49763995  0.36065997  1
  C  C63  1  0.13221113  0.49763995  0.86065997  1
  C  C64  1  0.36672082  0.87277933  0.86238608  1
  C  C65  1  0.50765762  0.63625314  0.86204167  1
  C  C66  1  0.02817108  0.83332184  0.40833713  1
  C  C67  1  0.80389102  0.97143024  0.40840892  1
  C  C68  1  0.16026864  0.18616130  0.40440557  1
  C  C69  1  0.02589266  0.18616130  0.90440557  1
  C  C70  1  0.16753922  0.97143024  0.90840892  1
  C  C71  1  0.80515076  0.83332184  0.90833713  1
  C  C72  1  0.97517264  0.16780465  0.59401079  1
  C  C73  1  0.20056675  0.02525233  0.59121994  1
  C  C74  1  0.82547415  0.80016923  0.59136773  1
  C  C75  1  0.97469508  0.80016923  0.09136773  1
  C  C76  1  0.82468558  0.02525233  0.09121994  1
  C  C77  1  0.19263201  0.16780465  0.09401079  1
  C  C78  1  0.69070099  0.16365912  0.74111587  1
  C  C79  1  0.47294443  0.30312613  0.73966477  1
  C  C80  1  0.82710616  0.52395128  0.74060858  1
  C  C81  1  0.69684612  0.52395128  0.24060858  1
  C  C82  1  0.83018270  0.30312613  0.23966477  1
  C  C83  1  0.47295913  0.16365912  0.24111587  1
  C  C84  1  0.64220544  0.50889631  0.92490072  1
  C  C85  1  0.85815929  0.35642282  0.92757653  1
  C  C86  1  0.49274556  0.13258456  0.92445071  1
  C  C87  1  0.63984000  0.13258456  0.42445071  1
  C  C88  1  0.49826453  0.35642282  0.42757653  1
  C  C89  1  0.86669187  0.50889631  0.42490072  1
  C  C90  1  0.36208123  0.50564161  0.07336627  1
  C  C91  1  0.14063192  0.64230454  0.07435273  1
  C  C92  1  0.49827314  0.86192982  0.07361271  1
  C  C93  1  0.36365568  0.86192982  0.57361271  1
  C  C94  1  0.50167162  0.64230454  0.57435273  1
  C  C95  1  0.14355937  0.50564161  0.57336627  1
  C  C96  1  0.30630869  0.83841952  0.25910272  1
  C  C97  1  0.53142407  0.69592610  0.25910857  1
  C  C98  1  0.15539554  0.46867213  0.25792668  1
  C  C99  1  0.31327559  0.46867213  0.75792668  1
  C  C100  1  0.16450104  0.69592610  0.75910857  1
  C  C101  1  0.53210983  0.83841952  0.75910272  1
