# generated using pymatgen
data_Cu4Ni2C9
_symmetry_space_group_name_H-M   'P 1'
_cell_length_a   7.21631050
_cell_length_b   7.06077300
_cell_length_c   7.06293368
_cell_angle_alpha   119.98988550
_cell_angle_beta   119.26738226
_cell_angle_gamma   90.00000000
_symmetry_Int_Tables_number   1
_chemical_formula_structural   Cu4Ni2C9
_chemical_formula_sum   'Cu4 Ni2 C9'
_cell_volume   257.29063555
_cell_formula_units_Z   1
loop_
 _symmetry_equiv_pos_site_id
 _symmetry_equiv_pos_as_xyz
  1  'x, y, z'
loop_
 _atom_site_type_symbol
 _atom_site_label
 _atom_site_symmetry_multiplicity
 _atom_site_fract_x
 _atom_site_fract_y
 _atom_site_fract_z
 _atom_site_occupancy
  C  C0  1  0.37500000  0.12500000  0.25000000  1
  Ni  Ni1  1  0.79477900  0.26502300  0.53004500  1
  Ni  Ni2  1  0.95522100  0.98497700  0.96995500  1
  Cu  Cu3  1  0.87500000  0.62500000  0.25000000  1
  Cu  Cu4  1  0.37500000  0.62500000  0.25000000  1
  Cu  Cu5  1  0.37500000  0.62500000  0.75000000  1
  Cu  Cu6  1  0.37500000  0.12500000  0.75000000  1
  C  C7  1  0.13718000  0.86167800  0.72335700  1
  C  C8  1  0.57948500  0.85973200  0.71946500  1
  C  C9  1  0.17051500  0.39026800  0.78053500  1
  C  C10  1  0.61282000  0.38832200  0.77664300  1
  C  C11  1  0.13744600  0.41397300  0.27586300  1
  C  C12  1  0.13744600  0.86189000  0.27586300  1
  C  C13  1  0.61255400  0.38811000  0.22413700  1
  C  C14  1  0.61255400  0.83602700  0.22413700  1
