# generated using pymatgen
data_Cu2NiC10
_symmetry_space_group_name_H-M   'P 1'
_cell_length_a   5.37271376
_cell_length_b   5.37271422
_cell_length_c   6.62296400
_cell_angle_alpha   90.00000000
_cell_angle_beta   90.00000000
_cell_angle_gamma   113.11241037
_symmetry_Int_Tables_number   1
_chemical_formula_structural   Cu2NiC10
_chemical_formula_sum   'Cu2 Ni1 C10'
_cell_volume   175.83416286
_cell_formula_units_Z   1
loop_
 _symmetry_equiv_pos_site_id
 _symmetry_equiv_pos_as_xyz
  1  'x, y, z'
loop_
 _atom_site_type_symbol
 _atom_site_label
 _atom_site_symmetry_multiplicity
 _atom_site_fract_x
 _atom_site_fract_y
 _atom_site_fract_z
 _atom_site_occupancy
  Ni  Ni0  1  0.65869300  0.34130700  0.75000000  1
  C  C1  1  0.64330200  0.35669800  0.25000000  1
  C  C2  1  0.33970700  0.66029300  0.75000000  1
  Cu  Cu3  1  0.00134400  0.99865600  0.49738700  1
  Cu  Cu4  1  0.00134400  0.99865600  0.00261300  1
  C  C5  1  0.23933600  0.76066400  0.52911600  1
  C  C6  1  0.75847700  0.24152300  0.01773200  1
  C  C7  1  0.75847700  0.24152300  0.48226800  1
  C  C8  1  0.23933600  0.76066400  0.97088400  1
  C  C9  1  0.73289900  0.74500200  0.75000000  1
  C  C10  1  0.27414000  0.21455300  0.25000000  1
  C  C11  1  0.78544700  0.72586000  0.25000000  1
  C  C12  1  0.25499800  0.26710100  0.75000000  1
