# generated using pymatgen
data_Cu2NiC
_symmetry_space_group_name_H-M   'P 1'
_cell_length_a   4.13690800
_cell_length_b   5.27073900
_cell_length_c   7.16672600
_cell_angle_alpha   90.00000000
_cell_angle_beta   90.00000000
_cell_angle_gamma   90.00000000
_symmetry_Int_Tables_number   1
_chemical_formula_structural   Cu2NiC
_chemical_formula_sum   'Cu4 Ni2 C2'
_cell_volume   156.26732380
_cell_formula_units_Z   2
loop_
 _symmetry_equiv_pos_site_id
 _symmetry_equiv_pos_as_xyz
  1  'x, y, z'
loop_
 _atom_site_type_symbol
 _atom_site_label
 _atom_site_symmetry_multiplicity
 _atom_site_fract_x
 _atom_site_fract_y
 _atom_site_fract_z
 _atom_site_occupancy
  C  C0  1  0.00000000  0.25000000  0.72800700  1
  C  C1  1  0.00000000  0.75000000  0.27199300  1
  Ni  Ni2  1  0.50000000  0.75000000  0.65877600  1
  Ni  Ni3  1  0.50000000  0.25000000  0.34122400  1
  Cu  Cu4  1  0.00000000  0.75000000  0.89177400  1
  Cu  Cu5  1  0.00000000  0.25000000  0.10822600  1
  Cu  Cu6  1  0.50000000  0.50000000  0.00000000  1
  Cu  Cu7  1  0.50000000  0.00000000  0.00000000  1
