# generated using pymatgen
data_Cu(NiC8)2
_symmetry_space_group_name_H-M   'P 1'
_cell_length_a   9.17585022
_cell_length_b   9.15280135
_cell_length_c   23.35819829
_cell_angle_alpha   90.32838903
_cell_angle_beta   90.00000000
_cell_angle_gamma   120.08333745
_symmetry_Int_Tables_number   1
_chemical_formula_structural   Cu(NiC8)2
_chemical_formula_sum   'Cu6 Ni12 C96'
_cell_volume   1697.44409748
_cell_formula_units_Z   6
loop_
 _symmetry_equiv_pos_site_id
 _symmetry_equiv_pos_as_xyz
  1  'x, y, z'
loop_
 _atom_site_type_symbol
 _atom_site_label
 _atom_site_symmetry_multiplicity
 _atom_site_fract_x
 _atom_site_fract_y
 _atom_site_fract_z
 _atom_site_occupancy
  Ni  Ni0  1  0.00183702  0.64082573  0.24366268  1
  Ni  Ni1  1  0.63898872  0.64082573  0.74366268  1
  Ni  Ni2  1  0.66219825  0.95994809  0.58013587  1
  Ni  Ni3  1  0.29775083  0.95994809  0.08013587  1
  Ni  Ni4  1  0.69163175  0.02666866  0.91080511  1
  Ni  Ni5  1  0.33503591  0.02666866  0.41080511  1
  Ni  Ni6  1  0.97987692  0.98882654  0.49876719  1
  Ni  Ni7  1  0.00894962  0.98882654  0.99876719  1
  Ni  Ni8  1  0.65933617  0.31338098  0.83199191  1
  Ni  Ni9  1  0.65404582  0.31338098  0.33199191  1
  Ni  Ni10  1  0.33243942  0.65977397  0.16575917  1
  Ni  Ni11  1  0.32733355  0.65977397  0.66575917  1
  Cu  Cu12  1  0.99163280  0.00400312  0.35169019  1
  Cu  Cu13  1  0.01237031  0.00400312  0.85169019  1
  Cu  Cu14  1  0.66574522  0.32724568  0.68451012  1
  Cu  Cu15  1  0.66150146  0.32724568  0.18451012  1
  Cu  Cu16  1  0.32453019  0.66022031  0.01764183  1
  Cu  Cu17  1  0.33568913  0.66022031  0.51764183  1
  C  C18  1  0.99504715  0.99375903  0.65243352  1
  C  C19  1  0.99871188  0.99375903  0.15243352  1
  C  C20  1  0.67116437  0.34429112  0.98567934  1
  C  C21  1  0.67312775  0.34429112  0.48567934  1
  C  C22  1  0.34716718  0.68091699  0.31868376  1
  C  C23  1  0.33374880  0.68091699  0.81868376  1
  C  C24  1  0.29595393  0.99195551  0.25278472  1
  C  C25  1  0.69600158  0.99195551  0.75278472  1
  C  C26  1  0.67454277  0.63693884  0.58656505  1
  C  C27  1  0.96239707  0.63693884  0.08656505  1
  C  C28  1  0.34532015  0.97651406  0.92181284  1
  C  C29  1  0.63119291  0.97651406  0.42181284  1
  C  C30  1  0.69779925  0.70471618  0.25007157  1
  C  C31  1  0.00944414  0.30464329  0.24965768  1
  C  C32  1  0.29519915  0.30464329  0.74965768  1
  C  C33  1  0.00691693  0.70471618  0.75007157  1
  C  C34  1  0.96195594  0.32618962  0.58417049  1
  C  C35  1  0.36118380  0.03752417  0.58214128  1
  C  C36  1  0.67634136  0.03752417  0.08214128  1
  C  C37  1  0.36423467  0.32618962  0.08417049  1
  C  C38  1  0.62638193  0.66013362  0.91539043  1
  C  C39  1  0.03007253  0.37134897  0.91546560  1
  C  C40  1  0.34127544  0.37134897  0.41546560  1
  C  C41  1  0.03375069  0.66013362  0.41539043  1
  C  C42  1  0.20932718  0.00532221  0.30672858  1
  C  C43  1  0.79996467  0.78777993  0.30065597  1
  C  C44  1  0.98719744  0.20414527  0.30028590  1
  C  C45  1  0.21694784  0.20414527  0.80028590  1
  C  C46  1  0.98781526  0.78777993  0.80065597  1
  C  C47  1  0.79599503  0.00532221  0.80672858  1
  C  C48  1  0.77882243  0.96297785  0.69721499  1
  C  C49  1  0.19599874  0.22216618  0.69642680  1
  C  C50  1  0.03558796  0.80825418  0.69738418  1
  C  C51  1  0.77266622  0.80825418  0.19738418  1
  C  C52  1  0.02616744  0.22216618  0.19642680  1
  C  C53  1  0.18415542  0.96297785  0.19721499  1
  C  C54  1  0.88125015  0.34492460  0.63514750  1
  C  C55  1  0.47180189  0.12234452  0.63100772  1
  C  C56  1  0.66063382  0.54357420  0.64180818  1
  C  C57  1  0.88294137  0.54357420  0.14180818  1
  C  C58  1  0.65054363  0.12234452  0.13100772  1
  C  C59  1  0.46367545  0.34492460  0.13514750  1
  C  C60  1  0.44125840  0.29529502  0.03169077  1
  C  C61  1  0.85384841  0.54809203  0.03204000  1
  C  C62  1  0.69866213  0.13448403  0.02783557  1
  C  C63  1  0.43582289  0.13448403  0.52783557  1
  C  C64  1  0.69424463  0.54809203  0.53204000  1
  C  C65  1  0.85403761  0.29529502  0.53169077  1
  C  C66  1  0.53965196  0.67901515  0.96492460  1
  C  C67  1  0.12869683  0.44966107  0.96687358  1
  C  C68  1  0.32862110  0.87840349  0.97637425  1
  C  C69  1  0.54978139  0.87840349  0.47637425  1
  C  C70  1  0.32096323  0.44966107  0.46687358  1
  C  C71  1  0.13936219  0.67901515  0.46492460  1
  C  C72  1  0.10762300  0.63508338  0.36104283  1
  C  C73  1  0.51253704  0.89156475  0.36806900  1
  C  C74  1  0.35737902  0.47089747  0.36288800  1
  C  C75  1  0.11351744  0.47089747  0.86288800  1
  C  C76  1  0.37902671  0.89156475  0.86806900  1
  C  C77  1  0.52745938  0.63508338  0.86104283  1
  C  C78  1  0.02420480  0.81710385  0.41188168  1
  C  C79  1  0.80650881  0.00006455  0.41490485  1
  C  C80  1  0.19667474  0.19666052  0.41146506  1
  C  C81  1  -0.00001422  0.19666052  0.91146506  1
  C  C82  1  0.19355574  0.00006455  0.91490485  1
  C  C83  1  0.79289905  0.81710385  0.91188168  1
  C  C84  1  0.97149635  0.16572313  0.58776125  1
  C  C85  1  0.19245897  0.02342262  0.58860801  1
  C  C86  1  0.83678083  0.82126395  0.58664307  1
  C  C87  1  0.98448312  0.82126395  0.08664307  1
  C  C88  1  0.83096364  0.02342262  0.08860801  1
  C  C89  1  0.19422678  0.16572313  0.08776125  1
  C  C90  1  0.67007382  0.14330477  0.74772494  1
  C  C91  1  0.46947684  0.33395663  0.74535965  1
  C  C92  1  0.85053746  0.53922817  0.74495390  1
  C  C93  1  0.68869171  0.53922817  0.24495390  1
  C  C94  1  0.86448080  0.33395663  0.24535965  1
  C  C95  1  0.47323195  0.14330477  0.24772494  1
  C  C96  1  0.64752174  0.50896265  0.91972226  1
  C  C97  1  0.85820819  0.35572256  0.91849956  1
  C  C98  1  0.51772013  0.15300043  0.92396398  1
  C  C99  1  0.63528130  0.15300043  0.42396398  1
  C  C100  1  0.49751537  0.35572256  0.41849956  1
  C  C101  1  0.86144192  0.50896265  0.41972226  1
  C  C102  1  0.34379846  0.47382016  0.07850271  1
  C  C103  1  0.14299763  0.66516380  0.08166157  1
  C  C104  1  0.52413281  0.86753940  0.07814283  1
  C  C105  1  0.34340559  0.86753940  0.57814283  1
  C  C106  1  0.52216517  0.66516380  0.58166157  1
  C  C107  1  0.13002070  0.47382016  0.57850271  1
  C  C108  1  0.29874523  0.81855692  0.25399400  1
  C  C109  1  0.52422357  0.68085334  0.25432922  1
  C  C110  1  0.16618270  0.47654277  0.25366269  1
  C  C111  1  0.31035907  0.47654277  0.75366269  1
  C  C112  1  0.15662877  0.68085334  0.75432922  1
  C  C113  1  0.51981069  0.81855692  0.75399400  1
