# generated using pymatgen
data_CuNiC5
_symmetry_space_group_name_H-M   'P 1'
_cell_length_a   3.00038818
_cell_length_b   5.62288475
_cell_length_c   6.72067754
_cell_angle_alpha   122.91422415
_cell_angle_beta   102.81762456
_cell_angle_gamma   89.95408885
_symmetry_Int_Tables_number   1
_chemical_formula_structural   CuNiC5
_chemical_formula_sum   'Cu1 Ni1 C5'
_cell_volume   91.81335890
_cell_formula_units_Z   1
loop_
 _symmetry_equiv_pos_site_id
 _symmetry_equiv_pos_as_xyz
  1  'x, y, z'
loop_
 _atom_site_type_symbol
 _atom_site_label
 _atom_site_symmetry_multiplicity
 _atom_site_fract_x
 _atom_site_fract_y
 _atom_site_fract_z
 _atom_site_occupancy
  C  C0  1  0.58001429  0.52598796  0.15860198  1
  C  C1  1  0.29589669  0.48468062  0.58648263  1
  Ni  Ni2  1  0.84046988  0.06660541  0.67567447  1
  Cu  Cu3  1  0.03677798  0.92814650  0.07204041  1
  C  C4  1  0.66301150  0.04570938  0.32566939  1
  C  C5  1  0.45122906  0.02662587  0.89932166  1
  C  C6  1  0.94510060  0.53161926  0.88637646  1
