# generated using pymatgen
data_Cu2NiC
_symmetry_space_group_name_H-M   'P 1'
_cell_length_a   12.26691399
_cell_length_b   12.26691399
_cell_length_c   12.26691399
_cell_angle_alpha   93.37341101
_cell_angle_beta   93.37341101
_cell_angle_gamma   151.92274333
_symmetry_Int_Tables_number   1
_chemical_formula_structural   Cu2NiC
_chemical_formula_sum   'Cu16 Ni8 C8'
_cell_volume   842.84132121
_cell_formula_units_Z   8
loop_
 _symmetry_equiv_pos_site_id
 _symmetry_equiv_pos_as_xyz
  1  'x, y, z'
loop_
 _atom_site_type_symbol
 _atom_site_label
 _atom_site_symmetry_multiplicity
 _atom_site_fract_x
 _atom_site_fract_y
 _atom_site_fract_z
 _atom_site_occupancy
  Ni  Ni0  1  0.02100400  0.01103300  0.26708200  1
  Ni  Ni1  1  0.26103300  0.49395100  0.49003000  1
  Ni  Ni2  1  0.00392100  0.77100400  0.50997000  1
  Ni  Ni3  1  0.74395100  0.75392100  0.73291800  1
  Ni  Ni4  1  0.22899600  0.73896700  0.23291800  1
  Ni  Ni5  1  0.98896700  0.25604900  0.00997000  1
  Ni  Ni6  1  0.24607900  0.97899600  0.99003000  1
  Ni  Ni7  1  0.50604900  0.99607900  0.76708200  1
  Cu  Cu8  1  0.84030000  0.77478900  0.15403800  1
  Cu  Cu9  1  0.02478900  0.37075100  0.43448900  1
  Cu  Cu10  1  0.93626200  0.59030000  0.56551100  1
  Cu  Cu11  1  0.62075100  0.68626200  0.84596200  1
  Cu  Cu12  1  0.40970000  0.97521100  0.34596200  1
  Cu  Cu13  1  0.22521100  0.37924900  0.06551100  1
  Cu  Cu14  1  0.31373800  0.15970000  0.93448900  1
  Cu  Cu15  1  0.62924900  0.06373800  0.65403800  1
  Cu  Cu16  1  0.31184300  0.22180500  0.29919800  1
  Cu  Cu17  1  0.47180500  0.67260700  0.40996300  1
  Cu  Cu18  1  0.26264500  0.06184300  0.59003700  1
  Cu  Cu19  1  0.92260700  0.01264500  0.70080200  1
  Cu  Cu20  1  0.93815700  0.52819500  0.20080200  1
  Cu  Cu21  1  0.77819500  0.07739300  0.09003700  1
  Cu  Cu22  1  0.98735500  0.68815700  0.90996300  1
  Cu  Cu23  1  0.32739300  0.73735500  0.79919800  1
  C  C24  1  0.95043400  0.02456400  0.31542000  1
  C  C25  1  0.27456400  0.45914400  0.57413000  1
  C  C26  1  0.88501400  0.70043400  0.42587000  1
  C  C27  1  0.70914400  0.63501400  0.68458000  1
  C  C28  1  0.29956600  0.72543600  0.18458000  1
  C  C29  1  0.97543600  0.29085600  0.92587000  1
  C  C30  1  0.36498600  0.04956600  0.07413000  1
  C  C31  1  0.54085600  0.11498600  0.81542000  1
