# generated using pymatgen
data_Cu4Ni2C7
_symmetry_space_group_name_H-M   'P 1'
_cell_length_a   8.98363400
_cell_length_b   16.83373700
_cell_length_c   23.44742100
_cell_angle_alpha   90.00000000
_cell_angle_beta   90.00000000
_cell_angle_gamma   90.00000000
_symmetry_Int_Tables_number   1
_chemical_formula_structural   Cu4Ni2C7
_chemical_formula_sum   'Cu32 Ni16 C56'
_cell_volume   3545.90967946
_cell_formula_units_Z   8
loop_
 _symmetry_equiv_pos_site_id
 _symmetry_equiv_pos_as_xyz
  1  'x, y, z'
loop_
 _atom_site_type_symbol
 _atom_site_label
 _atom_site_symmetry_multiplicity
 _atom_site_fract_x
 _atom_site_fract_y
 _atom_site_fract_z
 _atom_site_occupancy
  Ni  Ni0  1  0.66542800  0.62442800  0.01585500  1
  Ni  Ni1  1  0.16542800  0.87557200  0.98414500  1
  Ni  Ni2  1  0.33457200  0.12442800  0.48414500  1
  Ni  Ni3  1  0.83457200  0.37557200  0.51585500  1
  Ni  Ni4  1  0.14108900  0.60975100  0.93915100  1
  Ni  Ni5  1  0.64108900  0.89024900  0.06084900  1
  Ni  Ni6  1  0.85891100  0.10975100  0.56084900  1
  Ni  Ni7  1  0.35891100  0.39024900  0.43915100  1
  Ni  Ni8  1  0.32601200  0.40635800  0.05747400  1
  Ni  Ni9  1  0.82601200  0.09364200  0.94252600  1
  Ni  Ni10  1  0.67398800  0.90635800  0.44252600  1
  Ni  Ni11  1  0.17398800  0.59364200  0.55747400  1
  Ni  Ni12  1  0.80839700  0.37586700  0.96894800  1
  Ni  Ni13  1  0.30839700  0.12413300  0.03105200  1
  Ni  Ni14  1  0.19160300  0.87586700  0.53105200  1
  Ni  Ni15  1  0.69160300  0.62413300  0.46894800  1
  Cu  Cu16  1  0.61821600  0.93651300  0.79784700  1
  Cu  Cu17  1  0.11821600  0.56348700  0.20215300  1
  Cu  Cu18  1  0.38178400  0.43651300  0.70215300  1
  Cu  Cu19  1  0.88178400  0.06348700  0.29784700  1
  Cu  Cu20  1  0.87277400  0.89125800  0.73125800  1
  Cu  Cu21  1  0.37277400  0.60874200  0.26874200  1
  Cu  Cu22  1  0.12722600  0.39125800  0.76874200  1
  Cu  Cu23  1  0.62722600  0.10874200  0.23125800  1
  Cu  Cu24  1  0.91148200  0.74369600  0.77516200  1
  Cu  Cu25  1  0.41148200  0.75630400  0.22483800  1
  Cu  Cu26  1  0.08851800  0.24369600  0.72483800  1
  Cu  Cu27  1  0.58851800  0.25630400  0.27516200  1
  Cu  Cu28  1  0.76195100  0.67766300  0.68244000  1
  Cu  Cu29  1  0.26195100  0.82233700  0.31756000  1
  Cu  Cu30  1  0.23804900  0.17766300  0.81756000  1
  Cu  Cu31  1  0.73804900  0.32233700  0.18244000  1
  Cu  Cu32  1  0.46648800  0.72178800  0.71328300  1
  Cu  Cu33  1  0.96648800  0.77821200  0.28671700  1
  Cu  Cu34  1  0.53351200  0.22178800  0.78671700  1
  Cu  Cu35  1  0.03351200  0.27821200  0.21328300  1
  Cu  Cu36  1  0.50329800  0.78117800  0.81862400  1
  Cu  Cu37  1  0.00329800  0.71882200  0.18137600  1
  Cu  Cu38  1  0.49670200  0.28117800  0.68137600  1
  Cu  Cu39  1  0.99670200  0.21882200  0.31862400  1
  Cu  Cu40  1  0.80028200  0.51647000  0.72327400  1
  Cu  Cu41  1  0.30028200  0.98353000  0.27672600  1
  Cu  Cu42  1  0.19971800  0.01647000  0.77672600  1
  Cu  Cu43  1  0.69971800  0.48353000  0.22327400  1
  Cu  Cu44  1  0.56446900  0.49144100  0.79130900  1
  Cu  Cu45  1  0.06446900  0.00855900  0.20869100  1
  Cu  Cu46  1  0.43553100  0.99144100  0.70869100  1
  Cu  Cu47  1  0.93553100  0.50855900  0.29130900  1
  C  C48  1  0.73239300  0.75464200  0.96673900  1
  C  C49  1  0.23239300  0.74535800  0.03326100  1
  C  C50  1  0.26760700  0.25464200  0.53326100  1
  C  C51  1  0.76760700  0.24535800  0.46673900  1
  C  C52  1  0.59652100  0.72732200  0.10474700  1
  C  C53  1  0.09652100  0.77267800  0.89525300  1
  C  C54  1  0.40347900  0.22732200  0.39525300  1
  C  C55  1  0.90347900  0.27267800  0.60474700  1
  C  C56  1  0.92682000  0.61254700  0.05885600  1
  C  C57  1  0.42682000  0.88745300  0.94114400  1
  C  C58  1  0.07318000  0.11254700  0.44114400  1
  C  C59  1  0.57318000  0.38745300  0.55885600  1
  C  C60  1  0.16858800  0.45221500  0.94941500  1
  C  C61  1  0.66858800  0.04778500  0.05058500  1
  C  C62  1  0.83141200  0.95221500  0.55058500  1
  C  C63  1  0.33141200  0.54778500  0.44941500  1
  C  C64  1  0.12076300  0.58298300  0.83217500  1
  C  C65  1  0.62076300  0.91701700  0.16782500  1
  C  C66  1  0.87923700  0.08298300  0.66782500  1
  C  C67  1  0.37923700  0.41701700  0.33217500  1
  C  C68  1  0.42495700  0.62395700  0.92068700  1
  C  C69  1  0.92495700  0.87604300  0.07931300  1
  C  C70  1  0.57504300  0.12395700  0.57931300  1
  C  C71  1  0.07504300  0.37604300  0.42068700  1
  C  C72  1  0.30922200  0.55864200  0.06432000  1
  C  C73  1  0.80922200  0.94135800  0.93568000  1
  C  C74  1  0.69077800  0.05864200  0.43568000  1
  C  C75  1  0.19077800  0.44135800  0.56432000  1
  C  C76  1  0.38288100  0.40777700  0.16692200  1
  C  C77  1  0.88288100  0.09222300  0.83307800  1
  C  C78  1  0.61711900  0.90777700  0.33307800  1
  C  C79  1  0.11711900  0.59222300  0.66692200  1
  C  C80  1  0.05038200  0.38506800  0.08750300  1
  C  C81  1  0.55038200  0.11493200  0.91249700  1
  C  C82  1  0.94961800  0.88506800  0.41249700  1
  C  C83  1  0.44961800  0.61493200  0.58750300  1
  C  C84  1  0.75268400  0.24598000  0.02165300  1
  C  C85  1  0.25268400  0.25402000  0.97834700  1
  C  C86  1  0.24731600  0.74598000  0.47834700  1
  C  C87  1  0.74731600  0.75402000  0.52165300  1
  C  C88  1  0.55021600  0.38154000  0.92736200  1
  C  C89  1  0.05021600  0.11846000  0.07263800  1
  C  C90  1  0.44978400  0.88154000  0.57263800  1
  C  C91  1  0.94978400  0.61846000  0.42736200  1
  C  C92  1  0.89721300  0.29470200  0.88136000  1
  C  C93  1  0.39721300  0.20529800  0.11864000  1
  C  C94  1  0.10278700  0.79470200  0.61864000  1
  C  C95  1  0.60278700  0.70529800  0.38136000  1
  C  C96  1  0.64786900  0.45417500  0.06077100  1
  C  C97  1  0.14786900  0.04582500  0.93922900  1
  C  C98  1  0.35213100  0.95417500  0.43922900  1
  C  C99  1  0.85213100  0.54582500  0.56077100  1
  C  C100  1  0.81058000  0.55345200  0.92549100  1
  C  C101  1  0.31058000  0.94654800  0.07450900  1
  C  C102  1  0.18942000  0.05345200  0.57450900  1
  C  C103  1  0.68942000  0.44654800  0.42549100  1
