# generated using pymatgen
data_Cu2Ni10C7
_symmetry_space_group_name_H-M   'P 1'
_cell_length_a   4.85743107
_cell_length_b   14.43582313
_cell_length_c   2.85814918
_cell_angle_alpha   89.98580990
_cell_angle_beta   90.00797128
_cell_angle_gamma   98.31690461
_symmetry_Int_Tables_number   1
_chemical_formula_structural   Cu2Ni10C7
_chemical_formula_sum   'Cu2 Ni10 C7'
_cell_volume   198.30856941
_cell_formula_units_Z   1
loop_
 _symmetry_equiv_pos_site_id
 _symmetry_equiv_pos_as_xyz
  1  'x, y, z'
loop_
 _atom_site_type_symbol
 _atom_site_label
 _atom_site_symmetry_multiplicity
 _atom_site_fract_x
 _atom_site_fract_y
 _atom_site_fract_z
 _atom_site_occupancy
  C  C0  1  0.47401308  0.99654355  0.98789840  1
  C  C1  1  0.97590064  0.99597660  0.98783876  1
  C  C2  1  0.96497612  0.36275153  0.98823658  1
  C  C3  1  0.09560370  0.64302790  0.98782877  1
  C  C4  1  0.31320357  0.19580622  0.48767633  1
  C  C5  1  0.53464887  0.50524387  0.48802444  1
  C  C6  1  0.59776958  0.79822931  0.48794597  1
  Ni  Ni7  1  0.07553988  0.29290451  0.48825530  1
  Ni  Ni8  1  0.17622652  0.94893285  0.48797484  1
  Ni  Ni9  1  0.24227682  0.58284587  0.48796626  1
  Ni  Ni10  1  0.41151548  0.73364671  0.98786807  1
  Ni  Ni11  1  0.23932723  0.10368998  0.98780600  1
  Ni  Ni12  1  0.33906062  0.44327152  0.98810881  1
  Ni  Ni13  1  0.73103188  0.56923556  0.98786974  1
  Ni  Ni14  1  0.69653925  0.88616965  0.98783420  1
  Ni  Ni15  1  0.77042198  0.04067742  0.48783059  1
  Ni  Ni16  1  0.80925864  0.42096764  0.48823524  1
  Cu  Cu17  1  0.57373031  0.25820683  0.98811321  1
  Cu  Cu18  1  0.93728784  0.72187349  0.48752148  1
