# generated using pymatgen
data_Cu2NiC6
_symmetry_space_group_name_H-M   'P 1'
_cell_length_a   5.14827700
_cell_length_b   5.89677400
_cell_length_c   14.65101600
_cell_angle_alpha   90.00000000
_cell_angle_beta   90.00000000
_cell_angle_gamma   90.00000000
_symmetry_Int_Tables_number   1
_chemical_formula_structural   Cu2NiC6
_chemical_formula_sum   'Cu8 Ni4 C24'
_cell_volume   444.77885425
_cell_formula_units_Z   4
loop_
 _symmetry_equiv_pos_site_id
 _symmetry_equiv_pos_as_xyz
  1  'x, y, z'
loop_
 _atom_site_type_symbol
 _atom_site_label
 _atom_site_symmetry_multiplicity
 _atom_site_fract_x
 _atom_site_fract_y
 _atom_site_fract_z
 _atom_site_occupancy
  Ni  Ni0  1  0.75000000  0.67643900  0.00000000  1
  Ni  Ni1  1  0.25000000  0.82356100  0.50000000  1
  Ni  Ni2  1  0.25000000  0.32356100  0.00000000  1
  Ni  Ni3  1  0.75000000  0.17643900  0.50000000  1
  Cu  Cu4  1  0.24096700  0.81857600  0.83779700  1
  Cu  Cu5  1  0.74096700  0.68142400  0.66220300  1
  Cu  Cu6  1  0.25903300  0.81857600  0.16220300  1
  Cu  Cu7  1  0.75903300  0.68142400  0.33779700  1
  Cu  Cu8  1  0.24096700  0.31857600  0.66220300  1
  Cu  Cu9  1  0.74096700  0.18142400  0.83779700  1
  Cu  Cu10  1  0.25903300  0.31857600  0.33779700  1
  Cu  Cu11  1  0.75903300  0.18142400  0.16220300  1
  C  C12  1  0.91240800  0.37114300  0.74462000  1
  C  C13  1  0.41240800  0.12885700  0.75538000  1
  C  C14  1  0.58759200  0.37114300  0.25538000  1
  C  C15  1  0.08759200  0.12885700  0.24462000  1
  C  C16  1  0.08759200  0.62885700  0.25538000  1
  C  C17  1  0.58759200  0.87114300  0.24462000  1
  C  C18  1  0.41240800  0.62885700  0.74462000  1
  C  C19  1  0.91240800  0.87114300  0.75538000  1
  C  C20  1  0.90444800  0.38197700  0.08122900  1
  C  C21  1  0.40444800  0.11802300  0.41877100  1
  C  C22  1  0.59555200  0.38197700  0.91877100  1
  C  C23  1  0.09555200  0.11802300  0.58122900  1
  C  C24  1  0.93911200  0.89986600  0.09903600  1
  C  C25  1  0.43911200  0.60013400  0.40096400  1
  C  C26  1  0.56088800  0.89986600  0.90096400  1
  C  C27  1  0.06088800  0.60013400  0.59903600  1
  C  C28  1  0.06088800  0.10013400  0.90096400  1
  C  C29  1  0.56088800  0.39986600  0.59903600  1
  C  C30  1  0.43911200  0.10013400  0.09903600  1
  C  C31  1  0.93911200  0.39986600  0.40096400  1
  C  C32  1  0.90444800  0.88197700  0.41877100  1
  C  C33  1  0.40444800  0.61802300  0.08122900  1
  C  C34  1  0.59555200  0.88197700  0.58122900  1
  C  C35  1  0.09555200  0.61802300  0.91877100  1
