# generated using pymatgen
data_Cu6Ni2C
_symmetry_space_group_name_H-M   'P 1'
_cell_length_a   5.63974300
_cell_length_b   6.17602200
_cell_length_c   17.05650400
_cell_angle_alpha   90.00000000
_cell_angle_beta   90.00000000
_cell_angle_gamma   90.00000000
_symmetry_Int_Tables_number   1
_chemical_formula_structural   Cu6Ni2C
_chemical_formula_sum   'Cu24 Ni8 C4'
_cell_volume   594.09810714
_cell_formula_units_Z   4
loop_
 _symmetry_equiv_pos_site_id
 _symmetry_equiv_pos_as_xyz
  1  'x, y, z'
loop_
 _atom_site_type_symbol
 _atom_site_label
 _atom_site_symmetry_multiplicity
 _atom_site_fract_x
 _atom_site_fract_y
 _atom_site_fract_z
 _atom_site_occupancy
  C  C0  1  0.76178800  0.25000000  0.50000000  1
  C  C1  1  0.73821200  0.75000000  0.00000000  1
  C  C2  1  0.23821200  0.75000000  0.50000000  1
  C  C3  1  0.26178800  0.25000000  0.00000000  1
  Ni  Ni4  1  0.75487700  0.70130900  0.33841600  1
  Ni  Ni5  1  0.75487700  0.79869100  0.66158400  1
  Ni  Ni6  1  0.74512300  0.20130900  0.16158400  1
  Ni  Ni7  1  0.74512300  0.29869100  0.83841600  1
  Ni  Ni8  1  0.24512300  0.29869100  0.66158400  1
  Ni  Ni9  1  0.24512300  0.20130900  0.33841600  1
  Ni  Ni10  1  0.25487700  0.79869100  0.83841600  1
  Ni  Ni11  1  0.25487700  0.70130900  0.16158400  1
  Cu  Cu12  1  0.59054800  0.92312700  0.38714700  1
  Cu  Cu13  1  0.59054800  0.57687300  0.61285300  1
  Cu  Cu14  1  0.90945200  0.42312700  0.11285300  1
  Cu  Cu15  1  0.90945200  0.07687300  0.88714700  1
  Cu  Cu16  1  0.40945200  0.07687300  0.61285300  1
  Cu  Cu17  1  0.40945200  0.42312700  0.38714700  1
  Cu  Cu18  1  0.09054800  0.57687300  0.88714700  1
  Cu  Cu19  1  0.09054800  0.92312700  0.11285300  1
  Cu  Cu20  1  0.00075000  0.84814500  0.29152100  1
  Cu  Cu21  1  0.00075000  0.65185500  0.70847900  1
  Cu  Cu22  1  0.49925000  0.34814500  0.20847900  1
  Cu  Cu23  1  0.49925000  0.15185500  0.79152100  1
  Cu  Cu24  1  0.39695000  0.60206700  0.06963800  1
  Cu  Cu25  1  0.39695000  0.89793300  0.93036200  1
  Cu  Cu26  1  0.10305000  0.10206700  0.43036200  1
  Cu  Cu27  1  0.10305000  0.39793300  0.56963800  1
  Cu  Cu28  1  0.60305000  0.39793300  0.93036200  1
  Cu  Cu29  1  0.60305000  0.10206700  0.06963800  1
  Cu  Cu30  1  0.89695000  0.89793300  0.56963800  1
  Cu  Cu31  1  0.89695000  0.60206700  0.43036200  1
  Cu  Cu32  1  0.50075000  0.84814500  0.20847900  1
  Cu  Cu33  1  0.50075000  0.65185500  0.79152100  1
  Cu  Cu34  1  0.99925000  0.34814500  0.29152100  1
  Cu  Cu35  1  0.99925000  0.15185500  0.70847900  1
