# generated using pymatgen
data_Cu2Ni4C3
_symmetry_space_group_name_H-M   'P 1'
_cell_length_a   8.05082700
_cell_length_b   8.05825200
_cell_length_c   10.02807200
_cell_angle_alpha   90.00000000
_cell_angle_beta   90.00000000
_cell_angle_gamma   90.00000000
_symmetry_Int_Tables_number   1
_chemical_formula_structural   Cu2Ni4C3
_chemical_formula_sum   'Cu16 Ni32 C24'
_cell_volume   650.57711538
_cell_formula_units_Z   8
loop_
 _symmetry_equiv_pos_site_id
 _symmetry_equiv_pos_as_xyz
  1  'x, y, z'
loop_
 _atom_site_type_symbol
 _atom_site_label
 _atom_site_symmetry_multiplicity
 _atom_site_fract_x
 _atom_site_fract_y
 _atom_site_fract_z
 _atom_site_occupancy
  Ni  Ni0  1  0.56035000  0.54298000  0.32012400  1
  Ni  Ni1  1  0.55474700  0.05675700  0.32083200  1
  Ni  Ni2  1  0.94525300  0.44324300  0.32083200  1
  Ni  Ni3  1  0.05474700  0.94324300  0.17916800  1
  Ni  Ni4  1  0.55474700  0.44324300  0.82083200  1
  Ni  Ni5  1  0.44525300  0.94324300  0.67916800  1
  Ni  Ni6  1  0.05474700  0.55675700  0.67916800  1
  Ni  Ni7  1  0.94525300  0.05675700  0.82083200  1
  Ni  Ni8  1  0.08008700  0.89600100  0.79865100  1
  Ni  Ni9  1  0.91991300  0.39600100  0.70134900  1
  Ni  Ni10  1  0.58008700  0.10399900  0.70134900  1
  Ni  Ni11  1  0.44525300  0.55675700  0.17916800  1
  Ni  Ni12  1  0.41991300  0.60399900  0.79865100  1
  Ni  Ni13  1  0.91991300  0.10399900  0.20134900  1
  Ni  Ni14  1  0.08008700  0.60399900  0.29865100  1
  Ni  Ni15  1  0.41991300  0.89600100  0.29865100  1
  Ni  Ni16  1  0.43965000  0.04298000  0.17987600  1
  Ni  Ni17  1  0.06035000  0.45702000  0.17987600  1
  Ni  Ni18  1  0.93965000  0.95702000  0.32012400  1
  Ni  Ni19  1  0.43965000  0.45702000  0.67987600  1
  Ni  Ni20  1  0.56035000  0.95702000  0.82012400  1
  Ni  Ni21  1  0.93965000  0.54298000  0.82012400  1
  Ni  Ni22  1  0.06035000  0.04298000  0.67987600  1
  Ni  Ni23  1  0.58008700  0.39600100  0.20134900  1
  Ni  Ni24  1  0.59680200  0.90615500  0.20712100  1
  Ni  Ni25  1  0.90319800  0.59384500  0.20712100  1
  Ni  Ni26  1  0.09680200  0.09384500  0.29287900  1
  Ni  Ni27  1  0.59680200  0.59384500  0.70712100  1
  Ni  Ni28  1  0.40319800  0.09384500  0.79287900  1
  Ni  Ni29  1  0.09680200  0.40615500  0.79287900  1
  Ni  Ni30  1  0.90319800  0.90615500  0.70712100  1
  Ni  Ni31  1  0.40319800  0.40615500  0.29287900  1
  Cu  Cu32  1  0.49687700  0.47620200  0.24819700  1
  Cu  Cu33  1  0.50312300  0.97620200  0.25180300  1
  Cu  Cu34  1  0.99687700  0.52379800  0.25180300  1
  Cu  Cu35  1  0.00312300  0.02379800  0.24819700  1
  Cu  Cu36  1  0.50312300  0.52379800  0.75180300  1
  Cu  Cu37  1  0.49687700  0.02379800  0.74819700  1
  Cu  Cu38  1  0.00312300  0.47620200  0.74819700  1
  Cu  Cu39  1  0.99687700  0.97620200  0.75180300  1
  Cu  Cu40  1  0.25000000  0.75000000  0.48811700  1
  Cu  Cu41  1  0.75000000  0.25000000  0.01188300  1
  Cu  Cu42  1  0.75000000  0.25000000  0.51188300  1
  Cu  Cu43  1  0.25000000  0.75000000  0.98811700  1
  Cu  Cu44  1  0.25000000  0.25000000  0.48569400  1
  Cu  Cu45  1  0.75000000  0.75000000  0.01430600  1
  Cu  Cu46  1  0.75000000  0.75000000  0.51430600  1
  Cu  Cu47  1  0.25000000  0.25000000  0.98569400  1
  C  C48  1  0.61737200  0.28355100  0.95116100  1
  C  C49  1  0.38262800  0.78355100  0.54883900  1
  C  C50  1  0.11737200  0.71644900  0.54883900  1
  C  C51  1  0.38262800  0.71644900  0.04883900  1
  C  C52  1  0.61737200  0.21644900  0.45116100  1
  C  C53  1  0.88262800  0.28355100  0.45116100  1
  C  C54  1  0.11737200  0.78355100  0.04883900  1
  C  C55  1  0.25000000  0.75000000  0.35977500  1
  C  C56  1  0.75000000  0.25000000  0.14022500  1
  C  C57  1  0.75000000  0.25000000  0.64022500  1
  C  C58  1  0.25000000  0.75000000  0.85977500  1
  C  C59  1  0.78706300  0.61836400  0.95371500  1
  C  C60  1  0.21293700  0.11836400  0.54628500  1
  C  C61  1  0.28706300  0.38163600  0.54628500  1
  C  C62  1  0.71293700  0.88163600  0.95371500  1
  C  C63  1  0.21293700  0.38163600  0.04628500  1
  C  C64  1  0.78706300  0.88163600  0.45371500  1
  C  C65  1  0.71293700  0.61836400  0.45371500  1
  C  C66  1  0.28706300  0.11836400  0.04628500  1
  C  C67  1  0.25000000  0.25000000  0.35724000  1
  C  C68  1  0.75000000  0.75000000  0.14276000  1
  C  C69  1  0.75000000  0.75000000  0.64276000  1
  C  C70  1  0.25000000  0.25000000  0.85724000  1
  C  C71  1  0.88262800  0.21644900  0.95116100  1
