# generated using pymatgen
data_CuNi3C8
_symmetry_space_group_name_H-M   'P 1'
_cell_length_a   5.10103300
_cell_length_b   7.66205700
_cell_length_c   15.56287317
_cell_angle_alpha   72.83151422
_cell_angle_beta   90.00000000
_cell_angle_gamma   90.00000000
_symmetry_Int_Tables_number   1
_chemical_formula_structural   CuNi3C8
_chemical_formula_sum   'Cu4 Ni12 C32'
_cell_volume   581.16185612
_cell_formula_units_Z   4
loop_
 _symmetry_equiv_pos_site_id
 _symmetry_equiv_pos_as_xyz
  1  'x, y, z'
loop_
 _atom_site_type_symbol
 _atom_site_label
 _atom_site_symmetry_multiplicity
 _atom_site_fract_x
 _atom_site_fract_y
 _atom_site_fract_z
 _atom_site_occupancy
  Ni  Ni0  1  0.74036100  0.51712500  0.83507600  1
  Ni  Ni1  1  0.24036100  0.48287500  0.66492400  1
  Ni  Ni2  1  0.25963900  0.48287500  0.16492400  1
  Ni  Ni3  1  0.75963900  0.51712500  0.33507600  1
  Ni  Ni4  1  0.24583900  0.25141100  0.92410300  1
  Ni  Ni5  1  0.74583900  0.74858900  0.57589700  1
  Ni  Ni6  1  0.75416100  0.74858900  0.07589700  1
  Ni  Ni7  1  0.25416100  0.25141100  0.42410300  1
  Ni  Ni8  1  0.73545000  0.00796100  0.83267700  1
  Ni  Ni9  1  0.23545000  0.99203900  0.66732300  1
  Ni  Ni10  1  0.26455000  0.99203900  0.16732300  1
  Ni  Ni11  1  0.76455000  0.00796100  0.33267700  1
  Cu  Cu12  1  0.74184900  0.26607400  0.57776000  1
  Cu  Cu13  1  0.24184900  0.73392600  0.92224000  1
  Cu  Cu14  1  0.25815100  0.73392600  0.42224000  1
  Cu  Cu15  1  0.75815100  0.26607400  0.07776000  1
  C  C16  1  0.91958600  0.21967600  0.84526500  1
  C  C17  1  0.41958600  0.78032400  0.65473500  1
  C  C18  1  0.08041400  0.78032400  0.15473500  1
  C  C19  1  0.58041400  0.21967600  0.34526500  1
  C  C20  1  0.42507900  0.04223200  0.89996100  1
  C  C21  1  0.92507900  0.95776800  0.60003900  1
  C  C22  1  0.57492100  0.95776800  0.10003900  1
  C  C23  1  0.07492100  0.04223200  0.39996100  1
  C  C24  1  0.57220200  0.35163700  0.95222100  1
  C  C25  1  0.07220200  0.64836300  0.54777900  1
  C  C26  1  0.42779800  0.64836300  0.04777900  1
  C  C27  1  0.92779800  0.35163700  0.45222100  1
  C  C28  1  0.06701400  0.50274000  0.90073300  1
  C  C29  1  0.56701400  0.49726000  0.59926700  1
  C  C30  1  0.93298600  0.49726000  0.09926700  1
  C  C31  1  0.43298600  0.50274000  0.40073300  1
  C  C32  1  0.93051200  0.08350500  0.21919300  1
  C  C33  1  0.43051200  0.91649500  0.28080700  1
  C  C34  1  0.06948800  0.91649500  0.78080700  1
  C  C35  1  0.56948800  0.08350500  0.71919300  1
  C  C36  1  0.90219700  0.73375300  0.34665000  1
  C  C37  1  0.40219700  0.26624700  0.15335000  1
  C  C38  1  0.09780300  0.26624700  0.65335000  1
  C  C39  1  0.59780300  0.73375300  0.84665000  1
  C  C40  1  0.08496000  0.41560900  0.28401900  1
  C  C41  1  0.58496000  0.58439100  0.21598100  1
  C  C42  1  0.91504000  0.58439100  0.71598100  1
  C  C43  1  0.41504000  0.41560900  0.78401900  1
  C  C44  1  0.59958800  0.84795800  0.46111900  1
  C  C45  1  0.09958800  0.15204200  0.03888100  1
  C  C46  1  0.40041200  0.15204200  0.53888100  1
  C  C47  1  0.90041200  0.84795800  0.96111900  1
