# generated using pymatgen
data_Cu2NiC11
_symmetry_space_group_name_H-M   'P 1'
_cell_length_a   5.01231900
_cell_length_b   6.67661700
_cell_length_c   10.18209033
_cell_angle_alpha   89.75600199
_cell_angle_beta   90.00000000
_cell_angle_gamma   90.00000000
_symmetry_Int_Tables_number   1
_chemical_formula_structural   Cu2NiC11
_chemical_formula_sum   'Cu4 Ni2 C22'
_cell_volume   340.74396635
_cell_formula_units_Z   2
loop_
 _symmetry_equiv_pos_site_id
 _symmetry_equiv_pos_as_xyz
  1  'x, y, z'
loop_
 _atom_site_type_symbol
 _atom_site_label
 _atom_site_symmetry_multiplicity
 _atom_site_fract_x
 _atom_site_fract_y
 _atom_site_fract_z
 _atom_site_occupancy
  C  C0  1  0.57018700  0.50101600  0.15477900  1
  C  C1  1  0.43308000  0.99849000  0.65305000  1
  C  C2  1  0.56692000  0.99849000  0.15305000  1
  C  C3  1  0.42981300  0.50101600  0.65477900  1
  C  C4  1  0.07328000  0.49848300  0.34022000  1
  C  C5  1  0.92672000  0.49848300  0.84022000  1
  Ni  Ni6  1  0.06901100  0.99749000  0.34718700  1
  Ni  Ni7  1  0.93098900  0.99749000  0.84718700  1
  Cu  Cu8  1  0.07732100  0.74763100  0.09536900  1
  Cu  Cu9  1  0.55963500  0.25446700  0.41011700  1
  Cu  Cu10  1  0.44036500  0.25446700  0.91011700  1
  Cu  Cu11  1  0.92267900  0.74763100  0.59536900  1
  C  C12  1  0.12778500  0.24039900  0.89293500  1
  C  C13  1  0.61890700  0.75359000  0.60297200  1
  C  C14  1  0.04156700  0.55824000  0.65702200  1
  C  C15  1  0.45929200  0.44183600  0.33892600  1
  C  C16  1  0.04184100  0.93777100  0.66598600  1
  C  C17  1  0.87221500  0.24039900  0.39293500  1
  C  C18  1  0.48428200  0.24814000  0.55517400  1
  C  C19  1  0.54070800  0.44183600  0.83892600  1
  C  C20  1  0.02091500  0.75855100  0.44761500  1
  C  C21  1  0.38109300  0.75359000  0.10297200  1
  C  C22  1  0.55276500  0.06225800  0.83817500  1
  C  C23  1  0.95843300  0.55824000  0.15702200  1
  C  C24  1  0.95815900  0.93777100  0.16598600  1
  C  C25  1  0.51571800  0.24814000  0.05517400  1
  C  C26  1  0.97908500  0.75855100  0.94761500  1
  C  C27  1  0.44723500  0.06225800  0.33817500  1
