# generated using pymatgen
data_Cu3Ni3C31
_symmetry_space_group_name_H-M   'P 1'
_cell_length_a   9.01988828
_cell_length_b   9.01762516
_cell_length_c   22.95257059
_cell_angle_alpha   90.01207359
_cell_angle_beta   90.02721147
_cell_angle_gamma   119.73823118
_symmetry_Int_Tables_number   1
_chemical_formula_structural   Cu3Ni3C31
_chemical_formula_sum   'Cu9 Ni9 C93'
_cell_volume   1621.04370653
_cell_formula_units_Z   3
loop_
 _symmetry_equiv_pos_site_id
 _symmetry_equiv_pos_as_xyz
  1  'x, y, z'
loop_
 _atom_site_type_symbol
 _atom_site_label
 _atom_site_symmetry_multiplicity
 _atom_site_fract_x
 _atom_site_fract_y
 _atom_site_fract_z
 _atom_site_occupancy
  C  C0  1  0.64742195  0.00743638  0.24745895  1
  C  C1  1  0.36309066  0.35257069  0.24596577  1
  C  C2  1  0.70692956  0.67645681  0.41584629  1
  C  C3  1  0.01013252  0.01064141  0.49861759  1
  C  C4  1  0.00092891  0.00138051  0.00044235  1
  C  C5  1  0.66780188  0.33274109  0.83215251  1
  C  C6  1  0.68252304  0.34583103  0.33179114  1
  C  C7  1  0.32317004  0.65935191  0.16291522  1
  C  C8  1  0.34043181  0.66492247  0.66548601  1
  C  C9  1  0.01038480  0.00373972  0.35919326  1
  C  C10  1  0.66439405  0.33581566  0.68807534  1
  C  C11  1  0.67159195  0.34983790  0.16865476  1
  C  C12  1  0.00082135  0.00149296  0.85921584  1
  C  C13  1  0.99792710  0.99768649  0.64494654  1
  C  C14  1  0.99722945  0.99554039  0.14491351  1
  C  C15  1  0.66079827  0.33188261  0.97889327  1
  C  C16  1  0.66806053  0.33353079  0.48027488  1
  C  C17  1  0.33571357  0.66527079  0.01306583  1
  C  C18  1  0.33430510  0.66826268  0.52063010  1
  C  C19  1  0.33211425  0.66764153  0.31557692  1
  C  C20  1  0.33314232  0.66621050  0.81353783  1
  Ni  Ni21  1  0.69706000  0.70162002  0.25263126  1
  Ni  Ni22  1  0.66548539  0.63206172  0.58307308  1
  Ni  Ni23  1  0.35721723  0.33347926  0.08255525  1
  Ni  Ni24  1  0.62187121  0.66307499  0.91428049  1
  Ni  Ni25  1  0.04078413  0.38084490  0.91472044  1
  Ni  Ni26  1  0.33851781  0.95795367  0.91467089  1
  Ni  Ni27  1  0.60886913  0.96073115  0.41930852  1
  Ni  Ni28  1  0.34520441  0.38562259  0.42040033  1
  Ni  Ni29  1  0.03833592  0.64816805  0.42057035  1
  Cu  Cu30  1  0.29171675  0.98735767  0.24567193  1
  Cu  Cu31  1  0.00764923  0.29996535  0.24719599  1
  Cu  Cu32  1  0.27063936  0.28742316  0.75342164  1
  Cu  Cu33  1  0.01827231  0.73020125  0.75335446  1
  Cu  Cu34  1  0.71218699  0.98304044  0.75344839  1
  Cu  Cu35  1  0.96503130  0.33182210  0.58270292  1
  Cu  Cu36  1  0.36696942  0.03613920  0.58263230  1
  Cu  Cu37  1  0.97644254  0.64083025  0.07869823  1
  Cu  Cu38  1  0.66548828  0.02787136  0.08127024  1
  C  C39  1  0.23061076  0.03578634  0.29991335  1
  C  C40  1  0.78835116  0.77665535  0.31345521  1
  C  C41  1  0.98014329  0.19834918  0.30240404  1
  C  C42  1  0.16777028  0.18142730  0.80686327  1
  C  C43  1  0.01279687  0.83172896  0.80676378  1
  C  C44  1  0.81886835  0.98789010  0.80689913  1
  C  C45  1  0.80781947  0.97517421  0.69693459  1
  C  C46  1  0.16882965  0.19537727  0.69698426  1
  C  C47  1  0.02833081  0.83454775  0.69685251  1
  C  C48  1  0.81268310  0.83373088  0.19600342  1
  C  C49  1  0.02815523  0.19703645  0.19351841  1
  C  C50  1  0.17338322  0.97492638  0.19214992  1
  C  C51  1  0.90471023  0.37160929  0.63869458  1
  C  C52  1  0.46813017  0.09190088  0.63853106  1
  C  C53  1  0.62253574  0.52550641  0.64167265  1
  C  C54  1  0.93682369  0.55216035  0.13724113  1
  C  C55  1  0.62841433  0.07618360  0.14071373  1
  C  C56  1  0.44238894  0.37645599  0.14601270  1
  C  C57  1  0.48065602  0.31187086  0.03243632  1
  C  C58  1  0.84291720  0.53474533  0.03068968  1
  C  C59  1  0.69392903  0.16198569  0.03296382  1
  C  C60  1  0.46415589  0.16012355  0.53099064  1
  C  C61  1  0.69554957  0.53077677  0.52726430  1
  C  C62  1  0.83882640  0.30079364  0.53095872  1
  C  C63  1  0.52969332  0.69448749  0.96954532  1
  C  C64  1  0.16771511  0.47508688  0.96909308  1
  C  C65  1  0.30907840  0.83598900  0.96957003  1
  C  C66  1  0.49723277  0.84394930  0.47307555  1
  C  C67  1  0.34778933  0.50234646  0.47380856  1
  C  C68  1  0.15156403  0.65635594  0.47529076  1
  C  C69  1  0.13783078  0.63862842  0.35991324  1
  C  C70  1  0.49850182  0.86574161  0.35745042  1
  C  C71  1  0.36268227  0.49825507  0.35855559  1
  C  C72  1  0.13628099  0.50416166  0.85773728  1
  C  C73  1  0.36734486  0.86365176  0.85768348  1
  C  C74  1  0.49719262  0.63265482  0.85771098  1
  C  C75  1  0.00034924  0.80284302  0.42445154  1
  C  C76  1  0.78741019  0.96480489  0.42235514  1
  C  C77  1  0.18365528  0.20200060  0.42628455  1
  C  C78  1  0.01640040  0.18830465  0.90745745  1
  C  C79  1  0.17285924  0.98596838  0.90710517  1
  C  C80  1  0.81399185  0.82905001  0.90726583  1
  C  C81  1  0.97714367  0.16377198  0.59076477  1
  C  C82  1  0.18976123  0.03010965  0.59113710  1
  C  C83  1  0.84474805  0.82106033  0.59304561  1
  C  C84  1  0.97799362  0.81558755  0.08605845  1
  C  C85  1  0.83314818  0.01511151  0.08676103  1
  C  C86  1  0.17123769  0.15442776  0.08803422  1
  C  C87  1  0.69421937  0.14141566  0.75531940  1
  C  C88  1  0.44614717  0.30328152  0.75661815  1
  C  C89  1  0.86053848  0.55443230  0.75502216  1
  C  C90  1  0.65429359  0.50591144  0.24657472  1
  C  C91  1  0.85166223  0.32055271  0.23926725  1
  C  C92  1  0.47607453  0.13006718  0.23620666  1
  C  C93  1  0.64072201  0.49324491  0.92696828  1
  C  C94  1  0.85234939  0.35930727  0.92807295  1
  C  C95  1  0.50749462  0.14676132  0.92722247  1
  C  C96  1  0.62127936  0.14641166  0.42569246  1
  C  C97  1  0.52695971  0.38270770  0.42449209  1
  C  C98  1  0.85196801  0.47047358  0.42539504  1
  C  C99  1  0.33077469  0.49551115  0.06681873  1
  C  C100  1  0.15768683  0.67795330  0.06370147  1
  C  C101  1  0.51480015  0.85019496  0.06615771  1
  C  C102  1  0.32365931  0.85031132  0.57064015  1
  C  C103  1  0.51189183  0.67607507  0.57284580  1
  C  C104  1  0.14814674  0.47832959  0.57080537  1
  C  C105  1  0.28785070  0.81322193  0.25162060  1
  C  C106  1  0.51131539  0.70432947  0.25322236  1
  C  C107  1  0.18032362  0.47240545  0.25083278  1
  C  C108  1  0.28440138  0.46773640  0.75631801  1
  C  C109  1  0.18513357  0.71747041  0.75572727  1
  C  C110  1  0.53390145  0.81631795  0.75579810  1
