# generated using pymatgen
data_Cu4(Ni3C14)7
_symmetry_space_group_name_H-M   'P 1'
_cell_length_a   9.24526156
_cell_length_b   9.26828705
_cell_length_c   22.45695767
_cell_angle_alpha   90.09511682
_cell_angle_beta   90.11803858
_cell_angle_gamma   120.02062841
_symmetry_Int_Tables_number   1
_chemical_formula_structural   Cu4(Ni3C14)7
_chemical_formula_sum   'Cu4 Ni21 C98'
_cell_volume   1666.12238434
_cell_formula_units_Z   1
loop_
 _symmetry_equiv_pos_site_id
 _symmetry_equiv_pos_as_xyz
  1  'x, y, z'
loop_
 _atom_site_type_symbol
 _atom_site_label
 _atom_site_symmetry_multiplicity
 _atom_site_fract_x
 _atom_site_fract_y
 _atom_site_fract_z
 _atom_site_occupancy
  Ni  Ni0  1  0.64290097  0.01741016  0.23816836  1
  Ni  Ni1  1  0.37322964  0.35085589  0.24179905  1
  Ni  Ni2  1  0.98710928  0.63108661  0.23911791  1
  Ni  Ni3  1  0.64151009  0.62592833  0.74124382  1
  Ni  Ni4  1  0.97741576  0.35187606  0.74451244  1
  Ni  Ni5  1  0.37880565  0.02635539  0.74481228  1
  Ni  Ni6  1  0.31761010  0.33957577  0.58823732  1
  Ni  Ni7  1  0.66081034  0.97587995  0.58790079  1
  Ni  Ni8  1  0.32151143  0.97671033  0.08541097  1
  Ni  Ni9  1  0.96705553  0.68359629  0.91386254  1
  Ni  Ni10  1  0.71832485  0.03476027  0.90943603  1
  Ni  Ni11  1  0.31622589  0.27784136  0.91010590  1
  Ni  Ni12  1  0.96392774  0.28000351  0.41284459  1
  Ni  Ni13  1  0.31630145  0.03746245  0.40906873  1
  Ni  Ni14  1  0.71621568  0.68346078  0.41227700  1
  Ni  Ni15  1  0.00174016  0.99072561  0.49810466  1
  Ni  Ni16  1  0.99135566  0.00221578  0.99580055  1
  Ni  Ni17  1  0.65708352  0.32421253  0.82518173  1
  Ni  Ni18  1  0.65776754  0.32455968  0.32542676  1
  Ni  Ni19  1  0.33389692  0.65009349  0.16086865  1
  Ni  Ni20  1  0.31663001  0.66683111  0.66747723  1
  Cu  Cu21  1  0.00076324  0.00106200  0.35311976  1
  Cu  Cu22  1  0.00122722  0.00078562  0.85400160  1
  Cu  Cu23  1  0.66813213  0.33453362  0.67717890  1
  Cu  Cu24  1  0.66789784  0.33523952  0.17529595  1
  C  C25  1  0.99819887  0.00210934  0.64805516  1
  C  C26  1  0.00286108  0.99813325  0.14365134  1
  C  C27  1  0.66808428  0.33210155  0.98379042  1
  C  C28  1  0.66606835  0.33424611  0.48252599  1
  C  C29  1  0.33324503  0.66360436  0.02025171  1
  C  C30  1  0.33048255  0.66614856  0.51973126  1
  C  C31  1  0.33186684  0.66961980  0.31273826  1
  C  C32  1  0.33708662  0.66522239  0.81333291  1
  C  C33  1  0.29807071  0.99643780  0.25307526  1
  C  C34  1  0.29657903  0.30287273  0.75342147  1
  C  C35  1  0.69680188  0.99498155  0.75356659  1
  C  C36  1  0.96916462  0.33281179  0.58532807  1
  C  C37  1  0.36169994  0.03041346  0.58419053  1
  C  C38  1  0.67003572  0.63780357  0.58363642  1
  C  C39  1  0.96877540  0.63458485  0.08546605  1
  C  C40  1  0.66838690  0.03093877  0.08488513  1
  C  C41  1  0.36447858  0.33424107  0.08565528  1
  C  C42  1  0.61770874  0.65253136  0.91858741  1
  C  C43  1  0.03616602  0.38407618  0.91717146  1
  C  C44  1  0.34586520  0.96172397  0.91843645  1
  C  C45  1  0.61687553  0.96306286  0.41816664  1
  C  C46  1  0.34625275  0.38389651  0.41704372  1
  C  C47  1  0.03472037  0.65217168  0.41692028  1
  C  C48  1  0.70068756  0.70939015  0.25221535  1
  C  C49  1  0.00920098  0.29891839  0.25203235  1
  C  C50  1  0.00998639  0.71207425  0.75191946  1
  C  C51  1  0.22077633  0.01418540  0.31416429  1
  C  C52  1  0.78544764  0.77916282  0.31198336  1
  C  C53  1  0.98597257  0.21167986  0.31167992  1
  C  C54  1  0.22455643  0.20089173  0.81336997  1
  C  C55  1  0.98747632  0.77754867  0.81065366  1
  C  C56  1  0.79368065  0.01172571  0.81390677  1
  C  C57  1  0.80663413  0.97760927  0.69447586  1
  C  C58  1  0.16866476  0.19098465  0.69461918  1
  C  C59  1  0.02158934  0.83217221  0.69871772  1
  C  C60  1  0.80469248  0.82960423  0.19990427  1
  C  C61  1  0.02404891  0.19307898  0.19998779  1
  C  C62  1  0.16979419  0.97687937  0.19538469  1
  C  C63  1  0.91278142  0.36825694  0.64721093  1
  C  C64  1  0.47332001  0.08485248  0.64294175  1
  C  C65  1  0.60934373  0.52493208  0.64150300  1
  C  C66  1  0.91224228  0.54282556  0.14730399  1
  C  C67  1  0.61205652  0.08583469  0.14350729  1
  C  C68  1  0.45534145  0.36670456  0.14811305  1
  C  C69  1  0.47253162  0.30166576  0.03144064  1
  C  C70  1  0.83531605  0.52502692  0.02986087  1
  C  C71  1  0.69376541  0.16464609  0.02900410  1
  C  C72  1  0.47150644  0.16793197  0.52865608  1
  C  C73  1  0.69136949  0.52833482  0.52694946  1
  C  C74  1  0.83237781  0.30548178  0.52971726  1
  C  C75  1  0.50518649  0.66314233  0.97165655  1
  C  C76  1  0.15380027  0.49939493  0.97152567  1
  C  C77  1  0.34006312  0.84946061  0.97458683  1
  C  C78  1  0.51097252  0.84784623  0.47398635  1
  C  C79  1  0.34427338  0.49345755  0.47360772  1
  C  C80  1  0.15515400  0.65814141  0.47105428  1
  C  C81  1  0.13358409  0.63505076  0.35615763  1
  C  C82  1  0.49794713  0.86117394  0.35792767  1
  C  C83  1  0.36282096  0.49983580  0.35701951  1
  C  C84  1  0.13262418  0.49811140  0.85601280  1
  C  C85  1  0.36249621  0.86129774  0.85780893  1
  C  C86  1  0.50103869  0.63445333  0.85685424  1
  C  C87  1  0.01337805  0.81311137  0.42004678  1
  C  C88  1  0.79967656  0.98402239  0.41985389  1
  C  C89  1  0.18222940  0.20263868  0.42087200  1
  C  C90  1  0.01807875  0.20312743  0.92113199  1
  C  C91  1  0.18249996  0.98009626  0.92124088  1
  C  C92  1  0.80049338  0.81278342  0.92067128  1
  C  C93  1  0.97265581  0.15409679  0.58715660  1
  C  C94  1  0.18516979  0.03242558  0.58850451  1
  C  C95  1  0.84044838  0.82156239  0.58852537  1
  C  C96  1  0.97865226  0.82077771  0.08946661  1
  C  C97  1  0.84199047  0.02317411  0.09210758  1
  C  C98  1  0.18252713  0.15309087  0.08909074  1
  C  C99  1  0.66977221  0.15278488  0.74723676  1
  C  C100  1  0.48454579  0.33909565  0.74544603  1
  C  C101  1  0.86154776  0.53561365  0.74263230  1
  C  C102  1  0.67452778  0.53286279  0.24574497  1
  C  C103  1  0.86379567  0.33248161  0.24424164  1
  C  C104  1  0.48641011  0.15102681  0.24792934  1
  C  C105  1  0.62014733  0.47590803  0.92332139  1
  C  C106  1  0.85315738  0.37643341  0.92176933  1
  C  C107  1  0.52116098  0.14488303  0.92174477  1
  C  C108  1  0.62213490  0.14398457  0.42154401  1
  C  C109  1  0.52108609  0.37466624  0.42045980  1
  C  C110  1  0.85454432  0.47564984  0.42140002  1
  C  C111  1  0.32657623  0.48488618  0.07132347  1
  C  C112  1  0.16284412  0.68192106  0.07282009  1
  C  C113  1  0.51125010  0.84343316  0.07087587  1
  C  C114  1  0.33023486  0.84280021  0.56967815  1
  C  C115  1  0.51599572  0.67692526  0.57086662  1
  C  C116  1  0.16330711  0.48004720  0.57197032  1
  C  C117  1  0.29755654  0.81160595  0.25280914  1
  C  C118  1  0.52504838  0.70350940  0.25123613  1
  C  C119  1  0.18255667  0.47076593  0.25180734  1
  C  C120  1  0.28718376  0.48011522  0.75238350  1
  C  C121  1  0.18169694  0.71436802  0.74996220  1
  C  C122  1  0.51447272  0.81216488  0.75182707  1
