# generated using pymatgen
data_Cu4Ni
_symmetry_space_group_name_H-M   'P 1'
_cell_length_a   12.92582600
_cell_length_b   12.92582600
_cell_length_c   12.92582600
_cell_angle_alpha   90.00000000
_cell_angle_beta   90.00000000
_cell_angle_gamma   90.00000000
_symmetry_Int_Tables_number   1
_chemical_formula_structural   Cu4Ni
_chemical_formula_sum   'Cu32 Ni8'
_cell_volume   2159.60794342
_cell_formula_units_Z   8
loop_
 _symmetry_equiv_pos_site_id
 _symmetry_equiv_pos_as_xyz
  1  'x, y, z'
loop_
 _atom_site_type_symbol
 _atom_site_label
 _atom_site_symmetry_multiplicity
 _atom_site_fract_x
 _atom_site_fract_y
 _atom_site_fract_z
 _atom_site_occupancy
  Ni  Ni0  1  0.13074300  0.13074300  0.13074300  1
  Ni  Ni1  1  0.36925700  0.86925700  0.63074300  1
  Ni  Ni2  1  0.63074300  0.36925700  0.86925700  1
  Ni  Ni3  1  0.86925700  0.63074300  0.36925700  1
  Ni  Ni4  1  0.86925700  0.86925700  0.86925700  1
  Ni  Ni5  1  0.63074300  0.13074300  0.36925700  1
  Ni  Ni6  1  0.36925700  0.63074300  0.13074300  1
  Ni  Ni7  1  0.13074300  0.36925700  0.63074300  1
  Cu  Cu8  1  0.24413900  0.24413900  0.24413900  1
  Cu  Cu9  1  0.25586100  0.75586100  0.74413900  1
  Cu  Cu10  1  0.74413900  0.25586100  0.75586100  1
  Cu  Cu11  1  0.75586100  0.74413900  0.25586100  1
  Cu  Cu12  1  0.75586100  0.75586100  0.75586100  1
  Cu  Cu13  1  0.74413900  0.24413900  0.25586100  1
  Cu  Cu14  1  0.25586100  0.74413900  0.24413900  1
  Cu  Cu15  1  0.24413900  0.25586100  0.74413900  1
  Cu  Cu16  1  0.02420300  0.01055200  0.24471900  1
  Cu  Cu17  1  0.24471900  0.02420300  0.01055200  1
  Cu  Cu18  1  0.01055200  0.24471900  0.02420300  1
  Cu  Cu19  1  0.48944800  0.75528100  0.52420300  1
  Cu  Cu20  1  0.74471900  0.47579700  0.98944800  1
  Cu  Cu21  1  0.98944800  0.74471900  0.47579700  1
  Cu  Cu22  1  0.25528100  0.97579700  0.51055200  1
  Cu  Cu23  1  0.75528100  0.52420300  0.48944800  1
  Cu  Cu24  1  0.51055200  0.25528100  0.97579700  1
  Cu  Cu25  1  0.52420300  0.48944800  0.75528100  1
  Cu  Cu26  1  0.97579700  0.51055200  0.25528100  1
  Cu  Cu27  1  0.47579700  0.98944800  0.74471900  1
  Cu  Cu28  1  0.97579700  0.98944800  0.75528100  1
  Cu  Cu29  1  0.75528100  0.97579700  0.98944800  1
  Cu  Cu30  1  0.98944800  0.75528100  0.97579700  1
  Cu  Cu31  1  0.51055200  0.24471900  0.47579700  1
  Cu  Cu32  1  0.25528100  0.52420300  0.01055200  1
  Cu  Cu33  1  0.01055200  0.25528100  0.52420300  1
  Cu  Cu34  1  0.74471900  0.02420300  0.48944800  1
  Cu  Cu35  1  0.24471900  0.47579700  0.51055200  1
  Cu  Cu36  1  0.48944800  0.74471900  0.02420300  1
  Cu  Cu37  1  0.47579700  0.51055200  0.24471900  1
  Cu  Cu38  1  0.02420300  0.48944800  0.74471900  1
  Cu  Cu39  1  0.52420300  0.01055200  0.25528100  1
