# generated using pymatgen
data_CuNi5C54
_symmetry_space_group_name_H-M   'P 1'
_cell_length_a   15.77675281
_cell_length_b   27.16791264
_cell_length_c   9.05996202
_cell_angle_alpha   89.76731636
_cell_angle_beta   125.05930027
_cell_angle_gamma   90.18975727
_symmetry_Int_Tables_number   1
_chemical_formula_structural   CuNi5C54
_chemical_formula_sum   'Cu4 Ni20 C216'
_cell_volume   3178.67272744
_cell_formula_units_Z   4
loop_
 _symmetry_equiv_pos_site_id
 _symmetry_equiv_pos_as_xyz
  1  'x, y, z'
loop_
 _atom_site_type_symbol
 _atom_site_label
 _atom_site_symmetry_multiplicity
 _atom_site_fract_x
 _atom_site_fract_y
 _atom_site_fract_z
 _atom_site_occupancy
  C  C0  1  0.25635820  0.25387982  0.01788233  1
  C  C1  1  0.25988556  0.58880610  0.02140632  1
  C  C2  1  0.24724949  0.91473126  0.99780925  1
  C  C3  1  0.74820975  0.25572267  0.50280691  1
  C  C4  1  0.74231627  0.57705929  0.49720412  1
  C  C5  1  0.75155523  0.91450734  0.50669635  1
  C  C6  1  0.75988556  0.08880610  0.02140632  1
  C  C7  1  0.74724949  0.41473126  0.99780925  1
  C  C8  1  0.75635820  0.75387982  0.01788233  1
  C  C9  1  0.24231627  0.07705929  0.49720412  1
  C  C10  1  0.25155523  0.41450734  0.50669635  1
  C  C11  1  0.24820975  0.75572267  0.50280691  1
  C  C12  1  0.50275439  0.03636366  0.75528575  1
  C  C13  1  0.48847565  0.36168589  0.71956178  1
  C  C14  1  0.48871395  0.69662927  0.72528782  1
  C  C15  1  0.49818849  0.29042838  0.26711846  1
  C  C16  1  0.49835600  0.62560579  0.27225177  1
  C  C17  1  0.49894499  0.96520931  0.25203794  1
  C  C18  1  0.98871395  0.19662927  0.72528782  1
  C  C19  1  0.00275439  0.53636366  0.75528575  1
  C  C20  1  0.98847565  0.86168589  0.71956178  1
  C  C21  1  0.99835600  0.12560579  0.27225177  1
  C  C22  1  0.99894499  0.46520931  0.25203794  1
  C  C23  1  0.99818849  0.79042838  0.26711846  1
  C  C24  1  0.80996821  0.65290596  0.24124474  1
  C  C25  1  0.81863506  0.98533260  0.24952465  1
  C  C26  1  0.20541121  0.30659535  0.29114417  1
  C  C27  1  0.20795552  0.64334741  0.28640938  1
  C  C28  1  0.81666067  0.02591456  0.68417776  1
  C  C29  1  0.81327350  0.69189348  0.68082314  1
  C  C30  1  0.30996821  0.15290596  0.24124474  1
  C  C31  1  0.31863506  0.48533260  0.24952465  1
  C  C32  1  0.70795552  0.14334741  0.28640938  1
  C  C33  1  0.70541121  0.80659535  0.29114417  1
  C  C34  1  0.31327350  0.19189348  0.68082314  1
  C  C35  1  0.31666067  0.52591456  0.68417776  1
  Ni  Ni36  1  0.10731735  0.25037681  0.57453270  1
  Ni  Ni37  1  0.10797028  0.58446671  0.57227306  1
  Ni  Ni38  1  0.10807228  0.91718327  0.57028565  1
  Ni  Ni39  1  0.89006186  0.25188329  0.93236038  1
  Ni  Ni40  1  0.89344691  0.58199602  0.93295408  1
  Ni  Ni41  1  0.89678756  0.91752488  0.93558921  1
  Ni  Ni42  1  0.89178373  0.41517282  0.43186325  1
  Ni  Ni43  1  0.10261904  0.08138007  0.05948023  1
  Ni  Ni44  1  0.10601234  0.41550659  0.06810646  1
  Ni  Ni45  1  0.10736761  0.75051511  0.06193129  1
  Ni  Ni46  1  0.60797028  0.08446671  0.57227306  1
  Ni  Ni47  1  0.60807228  0.41718327  0.57028565  1
  Ni  Ni48  1  0.60731735  0.75037681  0.57453270  1
  Ni  Ni49  1  0.39344691  0.08199602  0.93295408  1
  Ni  Ni50  1  0.39678756  0.41752488  0.93558921  1
  Ni  Ni51  1  0.39006186  0.75188329  0.93236038  1
  Ni  Ni52  1  0.39178373  0.91517282  0.43186325  1
  Ni  Ni53  1  0.60736761  0.25051511  0.06193129  1
  Ni  Ni54  1  0.60261904  0.58138007  0.05948023  1
  Ni  Ni55  1  0.60601234  0.91550659  0.06810646  1
  Cu  Cu56  1  0.90299699  0.08267283  0.44594947  1
  Cu  Cu57  1  0.90183550  0.74891452  0.44610033  1
  Cu  Cu58  1  0.40183550  0.24891452  0.44610033  1
  Cu  Cu59  1  0.40299699  0.58267283  0.44594947  1
  C  C60  1  0.00065659  0.31937583  0.75179077  1
  C  C61  1  0.00086551  0.65285580  0.74542724  1
  C  C62  1  0.99842335  0.98546672  0.73690931  1
  C  C63  1  0.00288275  0.01375376  0.24842513  1
  C  C64  1  0.00077863  0.34629803  0.25178030  1
  C  C65  1  0.00253586  0.67958520  0.24765183  1
  C  C66  1  0.50086551  0.15285580  0.74542724  1
  C  C67  1  0.49842335  0.48546672  0.73690931  1
  C  C68  1  0.50065659  0.81937583  0.75179077  1
  C  C69  1  0.50253586  0.17958520  0.24765183  1
  C  C70  1  0.50288275  0.51375376  0.24842513  1
  C  C71  1  0.50077863  0.84629803  0.25178030  1
  C  C72  1  0.35436277  0.29804596  0.75353253  1
  C  C73  1  0.35223287  0.63206368  0.74904400  1
  C  C74  1  0.35517091  0.96351771  0.75325147  1
  C  C75  1  0.64264266  0.29802880  0.73483869  1
  C  C76  1  0.64588402  0.63074396  0.74376963  1
  C  C77  1  0.64562557  0.96346801  0.74501955  1
  C  C78  1  0.64367977  0.03388502  0.24556214  1
  C  C79  1  0.64320756  0.36826368  0.24733716  1
  C  C80  1  0.63973260  0.70093443  0.24164424  1
  C  C81  1  0.35434610  0.03588238  0.25530432  1
  C  C82  1  0.35596420  0.36975560  0.25533516  1
  C  C83  1  0.35493843  0.70445366  0.25621537  1
  C  C84  1  0.85223287  0.13206368  0.74904400  1
  C  C85  1  0.85517091  0.46351771  0.75325147  1
  C  C86  1  0.85436277  0.79804596  0.75353253  1
  C  C87  1  0.14588402  0.13074396  0.74376963  1
  C  C88  1  0.14562557  0.46346801  0.74501955  1
  C  C89  1  0.14264266  0.79802880  0.73483869  1
  C  C90  1  0.13973260  0.20093443  0.24164424  1
  C  C91  1  0.14367977  0.53388502  0.24556214  1
  C  C92  1  0.14320756  0.86826368  0.24733716  1
  C  C93  1  0.85493843  0.20445366  0.25621537  1
  C  C94  1  0.85434610  0.53588238  0.25530432  1
  C  C95  1  0.85596420  0.86975560  0.25533516  1
  C  C96  1  0.15241453  0.19204558  0.74323381  1
  C  C97  1  0.14707198  0.52385890  0.73561761  1
  C  C98  1  0.14864160  0.85908139  0.74137247  1
  C  C99  1  0.84638996  0.19147993  0.77174751  1
  C  C100  1  0.84903102  0.52376648  0.75794037  1
  C  C101  1  0.84875671  0.85766512  0.77612621  1
  C  C102  1  0.84430738  0.14565951  0.24809682  1
  C  C103  1  0.85097932  0.47557302  0.26486990  1
  C  C104  1  0.84204109  0.81133143  0.24356381  1
  C  C105  1  0.14403310  0.14015945  0.23606528  1
  C  C106  1  0.15037055  0.47274891  0.24594297  1
  C  C107  1  0.14491518  0.80806436  0.23513599  1
  C  C108  1  0.64707198  0.02385890  0.73561761  1
  C  C109  1  0.64864160  0.35908139  0.74137247  1
  C  C110  1  0.65241453  0.69204558  0.74323381  1
  C  C111  1  0.34903102  0.02376648  0.75794037  1
  C  C112  1  0.34875671  0.35766512  0.77612621  1
  C  C113  1  0.34638996  0.69147993  0.77174751  1
  C  C114  1  0.34204109  0.31133143  0.24356381  1
  C  C115  1  0.34430738  0.64565951  0.24809682  1
  C  C116  1  0.35097932  0.97557302  0.26486990  1
  C  C117  1  0.64491518  0.30806436  0.23513599  1
  C  C118  1  0.64403310  0.64015945  0.23606528  1
  C  C119  1  0.65037055  0.97274891  0.24594297  1
  C  C120  1  0.41771491  0.18209183  0.56445282  1
  C  C121  1  0.41640538  0.51488167  0.55514581  1
  C  C122  1  0.43512289  0.85663563  0.57797249  1
  C  C123  1  0.56829080  0.18905698  0.92372550  1
  C  C124  1  0.56264478  0.52385450  0.91125903  1
  C  C125  1  0.56864233  0.85501713  0.93152883  1
  C  C126  1  0.57011646  0.14209195  0.42493390  1
  C  C127  1  0.56655306  0.47628404  0.42419270  1
  C  C128  1  0.56985317  0.80957562  0.42584880  1
  C  C129  1  0.44349039  0.14045606  0.07767699  1
  C  C130  1  0.44177746  0.47807224  0.06923279  1
  C  C131  1  0.43632736  0.81310775  0.07113074  1
  C  C132  1  0.91640538  0.01488167  0.55514581  1
  C  C133  1  0.93512289  0.35663563  0.57797249  1
  C  C134  1  0.91771491  0.68209183  0.56445282  1
  C  C135  1  0.06264478  0.02385450  0.91125903  1
  C  C136  1  0.06864233  0.35501713  0.93152883  1
  C  C137  1  0.06829080  0.68905698  0.92372550  1
  C  C138  1  0.06985317  0.30957562  0.42584880  1
  C  C139  1  0.07011646  0.64209195  0.42493390  1
  C  C140  1  0.06655306  0.97628404  0.42419270  1
  C  C141  1  0.93632736  0.31310775  0.07113074  1
  C  C142  1  0.94349039  0.64045606  0.07767699  1
  C  C143  1  0.94177746  0.97807224  0.06923279  1
  C  C144  1  0.25827651  0.26985765  0.74258624  1
  C  C145  1  0.25800066  0.60245020  0.74298394  1
  C  C146  1  0.25729300  0.93787983  0.73705453  1
  C  C147  1  0.74771697  0.27630687  0.76340804  1
  C  C148  1  0.75218863  0.61066494  0.76784422  1
  C  C149  1  0.74682977  0.94309497  0.75794307  1
  C  C150  1  0.73153285  0.05954622  0.23581870  1
  C  C151  1  0.74528107  0.39294167  0.26895364  1
  C  C152  1  0.73205447  0.72603967  0.24140077  1
  C  C153  1  0.25812895  0.06410947  0.23851832  1
  C  C154  1  0.25729628  0.39686795  0.24320268  1
  C  C155  1  0.25601096  0.73041293  0.24280630  1
  C  C156  1  0.75800066  0.10245020  0.74298394  1
  C  C157  1  0.75729300  0.43787983  0.73705453  1
  C  C158  1  0.75827651  0.76985765  0.74258624  1
  C  C159  1  0.25218863  0.11066494  0.76784422  1
  C  C160  1  0.24682977  0.44309497  0.75794307  1
  C  C161  1  0.24771697  0.77630687  0.76340804  1
  C  C162  1  0.23205447  0.22603967  0.24140077  1
  C  C163  1  0.23153285  0.55954622  0.23581870  1
  C  C164  1  0.24528107  0.89294167  0.26895364  1
  C  C165  1  0.75601096  0.23041293  0.24280630  1
  C  C166  1  0.75812895  0.56410947  0.23851832  1
  C  C167  1  0.75729628  0.89686795  0.24320268  1
  C  C168  1  0.35190640  0.29058995  0.57514912  1
  C  C169  1  0.34938357  0.62296650  0.57158085  1
  C  C170  1  0.36390003  0.95159296  0.58444920  1
  C  C171  1  0.63599884  0.28440851  0.90891281  1
  C  C172  1  0.64469587  0.61905184  0.92321632  1
  C  C173  1  0.64342246  0.95096753  0.92268986  1
  C  C174  1  0.64465263  0.04624583  0.42656372  1
  C  C175  1  0.63716551  0.38064268  0.41838279  1
  C  C176  1  0.64279951  0.71390187  0.42528590  1
  C  C177  1  0.35665145  0.04848488  0.08014268  1
  C  C178  1  0.36009686  0.39052057  0.08872340  1
  C  C179  1  0.35717238  0.72331912  0.08621103  1
  C  C180  1  0.84938357  0.12296650  0.57158085  1
  C  C181  1  0.86390003  0.45159296  0.58444920  1
  C  C182  1  0.85190640  0.79058995  0.57514912  1
  C  C183  1  0.14469587  0.11905184  0.92321632  1
  C  C184  1  0.14342246  0.45096753  0.92268986  1
  C  C185  1  0.13599884  0.78440851  0.90891281  1
  C  C186  1  0.14279951  0.21390187  0.42528590  1
  C  C187  1  0.14465263  0.54624583  0.42656372  1
  C  C188  1  0.13716551  0.88064268  0.41838279  1
  C  C189  1  0.85717238  0.22331912  0.08621103  1
  C  C190  1  0.85665145  0.54848488  0.08014268  1
  C  C191  1  0.86009686  0.89052057  0.08872340  1
  C  C192  1  0.46212111  0.27471782  0.93347065  1
  C  C193  1  0.46173520  0.60853468  0.92748802  1
  C  C194  1  0.46447194  0.94292684  0.93661108  1
  C  C195  1  0.54249543  0.27838136  0.55149466  1
  C  C196  1  0.54622492  0.61074266  0.56080173  1
  C  C197  1  0.53786670  0.94219793  0.56597765  1
  C  C198  1  0.52881125  0.04886556  0.06880537  1
  C  C199  1  0.53698287  0.38889740  0.06413835  1
  C  C200  1  0.52928873  0.72177889  0.06888739  1
  C  C201  1  0.46346464  0.05668534  0.43571689  1
  C  C202  1  0.46178595  0.39148076  0.44020366  1
  C  C203  1  0.46443795  0.72445858  0.44087138  1
  C  C204  1  0.96173520  0.10853468  0.92748802  1
  C  C205  1  0.96447194  0.44292684  0.93661108  1
  C  C206  1  0.96212111  0.77471782  0.93347065  1
  C  C207  1  0.04622492  0.11074266  0.56080173  1
  C  C208  1  0.03786670  0.44219793  0.56597765  1
  C  C209  1  0.04249543  0.77838136  0.55149466  1
  C  C210  1  0.02928873  0.22177889  0.06888739  1
  C  C211  1  0.02881125  0.54886556  0.06880537  1
  C  C212  1  0.03698287  0.88889740  0.06413835  1
  C  C213  1  0.96443795  0.22445858  0.44087138  1
  C  C214  1  0.96346464  0.55668534  0.43571689  1
  C  C215  1  0.96178595  0.89148076  0.44020366  1
  C  C216  1  0.08177303  0.28502534  0.73996074  1
  C  C217  1  0.08350217  0.61671876  0.74107621  1
  C  C218  1  0.08476085  0.95019561  0.74373863  1
  C  C219  1  0.92129444  0.28265603  0.75873110  1
  C  C220  1  0.92940149  0.61386606  0.77409603  1
  C  C221  1  0.92284620  0.94833987  0.76179683  1
  C  C222  1  0.91751168  0.04777423  0.24126968  1
  C  C223  1  0.92324778  0.38387546  0.26301516  1
  C  C224  1  0.91635221  0.71243474  0.24037956  1
  C  C225  1  0.08749830  0.04738066  0.24052125  1
  C  C226  1  0.08610136  0.38035176  0.24543642  1
  C  C227  1  0.08856298  0.71236632  0.24193269  1
  C  C228  1  0.58350217  0.11671876  0.74107621  1
  C  C229  1  0.58476085  0.45019561  0.74373863  1
  C  C230  1  0.58177303  0.78502534  0.73996074  1
  C  C231  1  0.42940149  0.11386606  0.77409603  1
  C  C232  1  0.42284620  0.44833987  0.76179683  1
  C  C233  1  0.42129444  0.78265603  0.75873110  1
  C  C234  1  0.41635221  0.21243474  0.24037956  1
  C  C235  1  0.41751168  0.54777423  0.24126968  1
  C  C236  1  0.42324778  0.88387546  0.26301516  1
  C  C237  1  0.58856298  0.21236632  0.24193269  1
  C  C238  1  0.58749830  0.54738066  0.24052125  1
  C  C239  1  0.58610136  0.88035176  0.24543642  1
