# generated using pymatgen
data_Cu4NiC12
_symmetry_space_group_name_H-M   'P 1'
_cell_length_a   5.14861874
_cell_length_b   5.60424652
_cell_length_c   9.10546601
_cell_angle_alpha   73.42762775
_cell_angle_beta   90.98314150
_cell_angle_gamma   60.25820640
_symmetry_Int_Tables_number   1
_chemical_formula_structural   Cu4NiC12
_chemical_formula_sum   'Cu4 Ni1 C12'
_cell_volume   214.63447694
_cell_formula_units_Z   1
loop_
 _symmetry_equiv_pos_site_id
 _symmetry_equiv_pos_as_xyz
  1  'x, y, z'
loop_
 _atom_site_type_symbol
 _atom_site_label
 _atom_site_symmetry_multiplicity
 _atom_site_fract_x
 _atom_site_fract_y
 _atom_site_fract_z
 _atom_site_occupancy
  Ni  Ni0  1  0.30824600  0.40140300  0.09715300  1
  Cu  Cu1  1  0.71083900  0.53413200  0.26566200  1
  Cu  Cu2  1  0.46784400  0.98561400  0.50821400  1
  Cu  Cu3  1  0.28823000  0.49558200  0.75001200  1
  Cu  Cu4  1  0.00029000  0.02698500  0.98817700  1
  C  C5  1  0.54597300  0.73192000  0.38221100  1
  C  C6  1  0.41586500  0.71418900  0.08631800  1
  C  C7  1  0.41995300  0.72525700  0.67415800  1
  C  C8  1  0.55843100  0.24952500  0.94222300  1
  C  C9  1  0.10026800  0.23003600  0.41691000  1
  C  C10  1  0.91422300  0.75248100  0.57559800  1
  C  C11  1  0.93544100  0.72561500  0.17126900  1
  C  C12  1  0.02015700  0.26062500  0.12244800  1
  C  C13  1  0.57849100  0.23513600  0.31103900  1
  C  C14  1  0.48640900  0.22165700  0.63375000  1
  C  C15  1  0.03129700  0.72654200  0.88266800  1
  C  C16  1  0.06804300  0.27079900  0.81361600  1
