# generated using pymatgen
data_Cu2NiC8
_symmetry_space_group_name_H-M   'P 1'
_cell_length_a   5.89992759
_cell_length_b   7.51851607
_cell_length_c   2.90948568
_cell_angle_alpha   90.00000000
_cell_angle_beta   90.00000000
_cell_angle_gamma   78.44765019
_symmetry_Int_Tables_number   1
_chemical_formula_structural   Cu2NiC8
_chemical_formula_sum   'Cu2 Ni1 C8'
_cell_volume   126.44650351
_cell_formula_units_Z   1
loop_
 _symmetry_equiv_pos_site_id
 _symmetry_equiv_pos_as_xyz
  1  'x, y, z'
loop_
 _atom_site_type_symbol
 _atom_site_label
 _atom_site_symmetry_multiplicity
 _atom_site_fract_x
 _atom_site_fract_y
 _atom_site_fract_z
 _atom_site_occupancy
  Ni  Ni0  1  -0.00000000  0.75000000  0.00000000  1
  Cu  Cu1  1  0.07528181  0.06444880  0.50000000  1
  Cu  Cu2  1  0.92471819  0.43555120  0.50000000  1
  C  C3  1  0.50000000  0.25000000  0.00000000  1
  C  C4  1  0.50000000  0.75000000  0.00000000  1
  C  C5  1  0.29485239  0.32358841  0.50000000  1
  C  C6  1  0.25873726  0.73690635  0.50000000  1
  C  C7  1  0.40211253  0.00005443  0.00000000  1
  C  C8  1  0.59788747  0.49994557  0.00000000  1
  C  C9  1  0.70514761  0.17641159  0.50000000  1
  C  C10  1  0.74126274  0.76309365  0.50000000  1
