# generated using pymatgen
data_Cu2Ni2C15
_symmetry_space_group_name_H-M   'P 1'
_cell_length_a   3.82131140
_cell_length_b   10.08299451
_cell_length_c   7.91542549
_cell_angle_alpha   94.99222762
_cell_angle_beta   90.00000000
_cell_angle_gamma   90.00000000
_symmetry_Int_Tables_number   1
_chemical_formula_structural   Cu2Ni2C15
_chemical_formula_sum   'Cu2 Ni2 C15'
_cell_volume   303.82646598
_cell_formula_units_Z   1
loop_
 _symmetry_equiv_pos_site_id
 _symmetry_equiv_pos_as_xyz
  1  'x, y, z'
loop_
 _atom_site_type_symbol
 _atom_site_label
 _atom_site_symmetry_multiplicity
 _atom_site_fract_x
 _atom_site_fract_y
 _atom_site_fract_z
 _atom_site_occupancy
  Ni  Ni0  1  0.00000000  0.06652956  0.00641482  1
  Ni  Ni1  1  0.00000000  0.00479286  0.51162120  1
  Cu  Cu2  1  0.00000000  0.41755446  0.00480176  1
  Cu  Cu3  1  0.00000000  0.52810967  0.49453510  1
  C  C4  1  0.00000000  0.73111792  -0.00109145  1
  C  C5  1  0.50000000  0.26678665  0.32375426  1
  C  C6  1  0.50000000  0.27015440  0.70786381  1
  C  C7  1  0.50000000  0.70374939  0.25154041  1
  C  C8  1  0.50000000  0.75648315  0.74382554  1
  C  C9  1  0.00000000  0.62460698  0.78510271  1
  C  C10  1  0.50000000  0.29984443  0.97667900  1
  C  C11  1  0.00000000  0.62155075  0.19716604  1
  C  C12  1  0.00000000  0.22653924  0.72819364  1
  C  C13  1  0.50000000  0.07285497  0.26762338  1
  C  C14  1  0.00000000  0.33393743  0.26614667  1
  C  C15  1  0.50000000  0.78754356  0.03194219  1
  C  C16  1  0.50000000  0.68692106  0.48866788  1
  C  C17  1  0.50000000  0.94936753  0.74059575  1
  C  C18  1  0.50000000  0.40155600  0.53621929  1
