# generated using pymatgen
data_Cu6Ni2C3
_symmetry_space_group_name_H-M   'P 1'
_cell_length_a   5.78541656
_cell_length_b   5.78541682
_cell_length_c   5.13990604
_cell_angle_alpha   90.01550931
_cell_angle_beta   89.98449857
_cell_angle_gamma   114.98273804
_symmetry_Int_Tables_number   1
_chemical_formula_structural   Cu6Ni2C3
_chemical_formula_sum   'Cu6 Ni2 C3'
_cell_volume   155.94129875
_cell_formula_units_Z   1
loop_
 _symmetry_equiv_pos_site_id
 _symmetry_equiv_pos_as_xyz
  1  'x, y, z'
loop_
 _atom_site_type_symbol
 _atom_site_label
 _atom_site_symmetry_multiplicity
 _atom_site_fract_x
 _atom_site_fract_y
 _atom_site_fract_z
 _atom_site_occupancy
  C  C0  1  0.10661900  0.10661900  0.75000000  1
  C  C1  1  0.36944700  0.36944700  0.25000000  1
  C  C2  1  0.61374300  0.61374300  0.75000000  1
  Ni  Ni3  1  0.30422900  0.49044100  0.93631800  1
  Ni  Ni4  1  0.49044100  0.30422900  0.56368200  1
  Cu  Cu5  1  0.25484000  0.04715200  0.07994600  1
  Cu  Cu6  1  0.49150000  0.71264500  0.43017500  1
  Cu  Cu7  1  0.74272000  0.96059500  0.86607900  1
  Cu  Cu8  1  0.71264500  0.49150000  0.06982500  1
  Cu  Cu9  1  0.96059500  0.74272000  0.63392100  1
  Cu  Cu10  1  0.04715200  0.25484000  0.42005400  1
