# generated using pymatgen
data_Cu2NiC10
_symmetry_space_group_name_H-M   'P 1'
_cell_length_a   6.24998556
_cell_length_b   6.50724430
_cell_length_c   6.50724430
_cell_angle_alpha   60.77822274
_cell_angle_beta   89.96213073
_cell_angle_gamma   57.75529600
_symmetry_Int_Tables_number   1
_chemical_formula_structural   Cu2NiC10
_chemical_formula_sum   'Cu2 Ni1 C10'
_cell_volume   182.84900748
_cell_formula_units_Z   1
loop_
 _symmetry_equiv_pos_site_id
 _symmetry_equiv_pos_as_xyz
  1  'x, y, z'
loop_
 _atom_site_type_symbol
 _atom_site_label
 _atom_site_symmetry_multiplicity
 _atom_site_fract_x
 _atom_site_fract_y
 _atom_site_fract_z
 _atom_site_occupancy
  Ni  Ni0  1  0.21880839  0.49805456  0.71686295  1
  C  C1  1  0.14223844  0.25796320  0.40020165  1
  C  C2  1  0.01308582  0.99475705  0.00784287  1
  Cu  Cu3  1  0.72038706  0.76345233  0.48383939  1
  Cu  Cu4  1  0.51222123  0.50131245  0.01353269  1
  C  C5  1  0.61058609  0.25333416  0.86392125  1
  C  C6  1  0.10230697  0.75601264  0.85831961  1
  C  C7  1  0.48781556  0.81343522  0.68754438  1
  C  C8  1  0.02974163  0.31136060  0.71524043  1
  C  C9  1  0.48781556  0.19972882  0.30125178  1
  C  C10  1  0.02974163  0.68549979  0.34110124  1
  C  C11  1  0.41530868  0.73848760  0.15379528  1
  C  C12  1  0.93232594  0.22660056  0.15892749  1
