# generated using pymatgen
data_Cu2Ni2C15
_symmetry_space_group_name_H-M   'P 1'
_cell_length_a   5.71619577
_cell_length_b   5.71619577
_cell_length_c   9.40403974
_cell_angle_alpha   90.00000000
_cell_angle_beta   90.00000000
_cell_angle_gamma   90.00000000
_symmetry_Int_Tables_number   1
_chemical_formula_structural   Cu2Ni2C15
_chemical_formula_sum   'Cu2 Ni2 C15'
_cell_volume   307.27600244
_cell_formula_units_Z   1
loop_
 _symmetry_equiv_pos_site_id
 _symmetry_equiv_pos_as_xyz
  1  'x, y, z'
loop_
 _atom_site_type_symbol
 _atom_site_label
 _atom_site_symmetry_multiplicity
 _atom_site_fract_x
 _atom_site_fract_y
 _atom_site_fract_z
 _atom_site_occupancy
  Ni  Ni0  1  0.25000000  0.75000000  0.04971907  1
  Ni  Ni1  1  0.75000000  0.25000000  0.04971907  1
  Cu  Cu2  1  0.75000000  0.75000000  0.22738692  1
  Cu  Cu3  1  0.25000000  0.25000000  0.84217833  1
  C  C4  1  0.75000000  0.25000000  0.47199916  1
  C  C5  1  0.25000000  0.75000000  0.47199916  1
  C  C6  1  0.25000000  0.25000000  0.59508119  1
  C  C7  1  0.75000000  0.75000000  0.72187933  1
  C  C8  1  0.25000000  0.25000000  0.27211272  1
  C  C9  1  0.75000000  0.75000000  0.92162031  1
  C  C10  1  0.25000000  0.25000000  0.06295320  1
  C  C11  1  0.51156371  0.98843629  0.65513156  1
  C  C12  1  0.98843629  0.51156371  0.65513156  1
  C  C13  1  0.49237108  0.00762892  0.31187832  1
  C  C14  1  0.98843629  0.98843629  0.65513156  1
  C  C15  1  0.51156371  0.51156371  0.65513156  1
  C  C16  1  0.49237108  0.49237108  0.31187832  1
  C  C17  1  0.00762892  0.49237108  0.31187832  1
  C  C18  1  0.00762892  0.00762892  0.31187832  1
