# generated using pymatgen
data_Cu2Ni2C17
_symmetry_space_group_name_H-M   'P 1'
_cell_length_a   8.10989000
_cell_length_b   8.10989000
_cell_length_c   8.29563000
_cell_angle_alpha   90.00000000
_cell_angle_beta   90.00000000
_cell_angle_gamma   90.00000000
_symmetry_Int_Tables_number   1
_chemical_formula_structural   Cu2Ni2C17
_chemical_formula_sum   'Cu4 Ni4 C34'
_cell_volume   545.60620496
_cell_formula_units_Z   2
loop_
 _symmetry_equiv_pos_site_id
 _symmetry_equiv_pos_as_xyz
  1  'x, y, z'
loop_
 _atom_site_type_symbol
 _atom_site_label
 _atom_site_symmetry_multiplicity
 _atom_site_fract_x
 _atom_site_fract_y
 _atom_site_fract_z
 _atom_site_occupancy
  C  C0  1  0.50000000  0.50000000  0.50000000  1
  C  C1  1  0.00000000  0.00000000  0.00000000  1
  C  C2  1  0.92965500  0.92965500  0.69376600  1
  C  C3  1  0.07034500  0.07034500  0.69376600  1
  C  C4  1  0.92965500  0.92965500  0.30623400  1
  C  C5  1  0.42965500  0.57034500  0.19376600  1
  C  C6  1  0.57034500  0.42965500  0.19376600  1
  C  C7  1  0.57034500  0.42965500  0.80623400  1
  C  C8  1  0.42965500  0.57034500  0.80623400  1
  C  C9  1  0.07034500  0.07034500  0.30623400  1
  C  C10  1  0.07120100  0.42322600  0.32187700  1
  C  C11  1  0.92879900  0.57677400  0.32187700  1
  C  C12  1  0.42322600  0.07120100  0.67812300  1
  C  C13  1  0.92322600  0.42879900  0.82187700  1
  C  C14  1  0.07677400  0.57120100  0.82187700  1
  C  C15  1  0.42879900  0.92322600  0.17812300  1
  C  C16  1  0.57120100  0.07677400  0.17812300  1
  C  C17  1  0.57677400  0.92879900  0.67812300  1
  C  C18  1  0.92879900  0.57677400  0.67812300  1
  C  C19  1  0.07120100  0.42322600  0.67812300  1
  C  C20  1  0.42322600  0.07120100  0.32187700  1
  C  C21  1  0.42879900  0.92322600  0.82187700  1
  C  C22  1  0.57120100  0.07677400  0.82187700  1
  C  C23  1  0.92322600  0.42879900  0.17812300  1
  C  C24  1  0.07677400  0.57120100  0.17812300  1
  C  C25  1  0.57677400  0.92879900  0.32187700  1
  C  C26  1  0.21492600  0.21492600  0.50000000  1
  C  C27  1  0.71492600  0.28507400  0.00000000  1
  C  C28  1  0.78831400  0.78831400  0.00000000  1
  C  C29  1  0.71168600  0.28831400  0.50000000  1
  C  C30  1  0.28831400  0.71168600  0.50000000  1
  C  C31  1  0.21168600  0.21168600  0.00000000  1
  C  C32  1  0.28507400  0.71492600  0.00000000  1
  C  C33  1  0.78507400  0.78507400  0.50000000  1
  Ni  Ni34  1  0.00000000  0.50000000  0.75000000  1
  Ni  Ni35  1  0.00000000  0.50000000  0.25000000  1
  Ni  Ni36  1  0.50000000  0.00000000  0.75000000  1
  Ni  Ni37  1  0.50000000  0.00000000  0.25000000  1
  Cu  Cu38  1  0.00000000  0.00000000  0.76292900  1
  Cu  Cu39  1  0.50000000  0.50000000  0.26292900  1
  Cu  Cu40  1  0.50000000  0.50000000  0.73707100  1
  Cu  Cu41  1  0.00000000  0.00000000  0.23707100  1
