# generated using pymatgen
data_Cu12Ni3C4
_symmetry_space_group_name_H-M   'P 1'
_cell_length_a   10.06846400
_cell_length_b   10.06846400
_cell_length_c   10.06846400
_cell_angle_alpha   90.00000000
_cell_angle_beta   90.00000000
_cell_angle_gamma   90.00000000
_symmetry_Int_Tables_number   1
_chemical_formula_structural   Cu12Ni3C4
_chemical_formula_sum   'Cu48 Ni12 C16'
_cell_volume   1020.68014049
_cell_formula_units_Z   4
loop_
 _symmetry_equiv_pos_site_id
 _symmetry_equiv_pos_as_xyz
  1  'x, y, z'
loop_
 _atom_site_type_symbol
 _atom_site_label
 _atom_site_symmetry_multiplicity
 _atom_site_fract_x
 _atom_site_fract_y
 _atom_site_fract_z
 _atom_site_occupancy
  C  C0  1  0.68464600  0.18464600  0.31535400  1
  C  C1  1  0.31535400  0.68464600  0.18464600  1
  C  C2  1  0.94937400  0.55062600  0.44937400  1
  C  C3  1  0.18464600  0.31535400  0.68464600  1
  C  C4  1  0.05062600  0.05062600  0.05062600  1
  C  C5  1  0.44937400  0.94937400  0.55062600  1
  C  C6  1  0.55062600  0.44937400  0.94937400  1
  C  C7  1  0.81535400  0.81535400  0.81535400  1
  C  C8  1  0.33467700  0.33467700  0.33467700  1
  C  C9  1  0.16532300  0.66532300  0.83467700  1
  C  C10  1  0.83467700  0.16532300  0.66532300  1
  C  C11  1  0.66532300  0.83467700  0.16532300  1
  C  C12  1  0.59301200  0.59301200  0.59301200  1
  C  C13  1  0.09301200  0.90698800  0.40698800  1
  C  C14  1  0.40698800  0.09301200  0.90698800  1
  C  C15  1  0.90698800  0.40698800  0.09301200  1
  Ni  Ni16  1  0.28096100  0.62342800  0.51923500  1
  Ni  Ni17  1  0.78096100  0.87657200  0.48076500  1
  Ni  Ni18  1  0.71903900  0.12342800  0.98076500  1
  Ni  Ni19  1  0.87657200  0.48076500  0.78096100  1
  Ni  Ni20  1  0.98076500  0.71903900  0.12342800  1
  Ni  Ni21  1  0.48076500  0.78096100  0.87657200  1
  Ni  Ni22  1  0.62342800  0.51923500  0.28096100  1
  Ni  Ni23  1  0.51923500  0.28096100  0.62342800  1
  Ni  Ni24  1  0.12342800  0.98076500  0.71903900  1
  Ni  Ni25  1  0.21903900  0.37657200  0.01923500  1
  Ni  Ni26  1  0.01923500  0.21903900  0.37657200  1
  Ni  Ni27  1  0.37657200  0.01923500  0.21903900  1
  Cu  Cu28  1  0.25214200  0.59454500  0.66058200  1
  Cu  Cu29  1  0.75214200  0.90545500  0.33941800  1
  Cu  Cu30  1  0.74785800  0.09454500  0.83941800  1
  Cu  Cu31  1  0.90545500  0.33941800  0.75214200  1
  Cu  Cu32  1  0.83941800  0.74785800  0.09454500  1
  Cu  Cu33  1  0.33941800  0.75214200  0.90545500  1
  Cu  Cu34  1  0.59454500  0.66058200  0.25214200  1
  Cu  Cu35  1  0.66058200  0.25214200  0.59454500  1
  Cu  Cu36  1  0.09454500  0.83941800  0.74785800  1
  Cu  Cu37  1  0.40545500  0.16058200  0.24785800  1
  Cu  Cu38  1  0.16058200  0.24785800  0.40545500  1
  Cu  Cu39  1  0.24785800  0.40545500  0.16058200  1
  Cu  Cu40  1  0.25936500  0.49915100  0.44186100  1
  Cu  Cu41  1  0.75936500  0.00084900  0.55813900  1
  Cu  Cu42  1  0.74063500  0.99915100  0.05813900  1
  Cu  Cu43  1  0.00084900  0.55813900  0.75936500  1
  Cu  Cu44  1  0.05813900  0.74063500  0.99915100  1
  Cu  Cu45  1  0.55813900  0.75936500  0.00084900  1
  Cu  Cu46  1  0.99611800  0.57896400  0.17122300  1
  Cu  Cu47  1  0.44186100  0.25936500  0.49915100  1
  Cu  Cu48  1  0.99915100  0.05813900  0.74063500  1
  Cu  Cu49  1  0.50084900  0.94186100  0.24063500  1
  Cu  Cu50  1  0.94186100  0.24063500  0.50084900  1
  Cu  Cu51  1  0.24063500  0.50084900  0.94186100  1
  Cu  Cu52  1  0.42103600  0.67122300  0.50388200  1
  Cu  Cu53  1  0.92103600  0.82877700  0.49611800  1
  Cu  Cu54  1  0.57896400  0.17122300  0.99611800  1
  Cu  Cu55  1  0.82877700  0.49611800  0.92103600  1
  Cu  Cu56  1  0.31010400  0.27497400  0.96340800  1
  Cu  Cu57  1  0.96340800  0.31010400  0.27497400  1
  Cu  Cu58  1  0.27497400  0.96340800  0.31010400  1
  Cu  Cu59  1  0.22502600  0.03659200  0.81010400  1
  Cu  Cu60  1  0.46340800  0.18989600  0.72502600  1
  Cu  Cu61  1  0.72502600  0.46340800  0.18989600  1
  Cu  Cu62  1  0.53659200  0.68989600  0.77497400  1
  Cu  Cu63  1  0.03659200  0.81010400  0.22502600  1
  Cu  Cu64  1  0.77497400  0.53659200  0.68989600  1
  Cu  Cu65  1  0.81010400  0.22502600  0.03659200  1
  Cu  Cu66  1  0.68989600  0.77497400  0.53659200  1
  Cu  Cu67  1  0.18989600  0.72502600  0.46340800  1
  Cu  Cu68  1  0.07896400  0.32877700  0.00388200  1
  Cu  Cu69  1  0.00388200  0.07896400  0.32877700  1
  Cu  Cu70  1  0.32877700  0.00388200  0.07896400  1
  Cu  Cu71  1  0.17122300  0.99611800  0.57896400  1
  Cu  Cu72  1  0.50388200  0.42103600  0.67122300  1
  Cu  Cu73  1  0.67122300  0.50388200  0.42103600  1
  Cu  Cu74  1  0.49611800  0.92103600  0.82877700  1
  Cu  Cu75  1  0.49915100  0.44186100  0.25936500  1
