# generated using pymatgen
data_Cu5(NiC10)7
_symmetry_space_group_name_H-M   'P 1'
_cell_length_a   18.31152010
_cell_length_b   9.10684405
_cell_length_c   22.34329885
_cell_angle_alpha   89.94886928
_cell_angle_beta   90.08083676
_cell_angle_gamma   119.91337274
_symmetry_Int_Tables_number   1
_chemical_formula_structural   Cu5(NiC10)7
_chemical_formula_sum   'Cu15 Ni21 C210'
_cell_volume   3229.59616983
_cell_formula_units_Z   3
loop_
 _symmetry_equiv_pos_site_id
 _symmetry_equiv_pos_as_xyz
  1  'x, y, z'
loop_
 _atom_site_type_symbol
 _atom_site_label
 _atom_site_symmetry_multiplicity
 _atom_site_fract_x
 _atom_site_fract_y
 _atom_site_fract_z
 _atom_site_occupancy
  C  C0  1  0.32075555  0.02837847  0.24693891  1
  C  C1  1  0.82499046  0.01632882  0.24851036  1
  C  C2  1  0.98911040  0.63330431  0.25123868  1
  C  C3  1  0.32434249  0.62880931  0.74400871  1
  C  C4  1  0.82222349  0.61678954  0.74331941  1
  C  C5  1  0.48787408  0.34774637  0.74848270  1
  C  C6  1  0.15930215  0.35463598  0.58019306  1
  C  C7  1  0.66006437  0.35018395  0.58719226  1
  C  C8  1  0.01719723  0.67522078  0.58367706  1
  C  C9  1  0.51004527  0.68221401  0.57033326  1
  C  C10  1  0.32047486  0.95339912  0.57942126  1
  C  C11  1  0.83081858  0.97154407  0.57154063  1
  C  C12  1  0.15993433  0.96918595  0.08578039  1
  C  C13  1  0.65690325  0.95502871  0.08398649  1
  C  C14  1  0.32867292  0.68541286  0.07000020  1
  C  C15  1  0.82633349  0.70230117  0.07503248  1
  C  C16  1  0.01277951  0.33838905  0.07039087  1
  C  C17  1  0.50666404  0.34899655  0.08274527  1
  C  C18  1  0.47356618  0.66779116  0.91480926  1
  C  C19  1  0.97400073  0.65992106  0.90682546  1
  C  C20  1  0.35393059  0.02666278  0.91682248  1
  C  C21  1  0.85814525  0.04189025  0.92256539  1
  C  C22  1  0.16785885  0.30903195  0.91694293  1
  C  C23  1  0.66900487  0.29310270  0.90773531  1
  C  C24  1  0.47052533  0.28862836  0.41111365  1
  C  C25  1  0.97450887  0.28033687  0.41836340  1
  C  C26  1  0.17210428  0.05070792  0.41809415  1
  C  C27  1  0.66734488  0.02319006  0.42051072  1
  C  C28  1  0.35634445  0.67077218  0.42767238  1
  C  C29  1  0.85373519  0.68131295  0.42045532  1
  C  C30  1  0.99434253  0.00558085  0.49361979  1
  C  C31  1  0.49156248  0.97904305  0.49353452  1
  C  C32  1  0.99452571  0.00544204  0.99154517  1
  C  C33  1  0.48951942  0.97728786  0.99171599  1
  C  C34  1  0.33264402  0.33081403  0.82640584  1
  C  C35  1  0.83870570  0.34091562  0.82614078  1
  C  C36  1  0.33794778  0.33322458  0.33071776  1
  C  C37  1  0.83302400  0.33422997  0.33076424  1
  C  C38  1  0.17076779  0.66895155  0.16094752  1
  C  C39  1  0.66136132  0.66102646  0.16401043  1
  C  C40  1  0.16268648  0.67414180  0.65907141  1
  C  C41  1  0.67081640  0.67235016  0.65878069  1
  C  C42  1  0.00221333  0.98947736  0.64269365  1
  C  C43  1  0.49569649  0.98884825  0.65523102  1
  C  C44  1  0.99665373  0.00444001  0.15501187  1
  C  C45  1  0.49668831  0.00410242  0.14672968  1
  C  C46  1  0.16766347  0.67788703  0.31114808  1
  C  C47  1  0.66465138  0.66631732  0.31330644  1
  C  C48  1  0.16523391  0.66202170  0.81162482  1
  C  C49  1  0.66887341  0.65882405  0.81012315  1
  C  C50  1  0.99078666  0.99229389  0.33996335  1
  C  C51  1  0.49234679  0.99336361  0.35515292  1
  C  C52  1  0.99174241  0.99155256  0.85330272  1
  C  C53  1  0.49096087  0.98628920  0.83865395  1
  C  C54  1  0.32970118  0.32496853  0.68132836  1
  C  C55  1  0.84399593  0.36727726  0.68354154  1
  C  C56  1  0.34384658  0.32167906  0.18426991  1
  C  C57  1  0.83650574  0.33198083  0.18593161  1
  C  C58  1  0.34250053  0.35693884  0.98960334  1
  C  C59  1  0.84524418  0.33665942  0.97648156  1
  C  C60  1  0.33214868  0.33745564  0.48359403  1
  C  C61  1  0.84210313  0.32973921  0.49282763  1
  C  C62  1  0.17439279  0.66456906  0.00669502  1
  C  C63  1  0.67274898  0.68632488  0.02076071  1
  C  C64  1  0.17334664  0.67469683  0.52534709  1
  C  C65  1  0.67391692  0.68410601  0.50850648  1
  Ni  Ni66  1  0.14854668  0.01514124  0.25410425  1
  Ni  Ni67  1  0.84712989  0.69098571  0.25292615  1
  Ni  Ni68  1  0.00160782  0.30252600  0.25476129  1
  Ni  Ni69  1  0.50255982  0.29581559  0.25567476  1
  Ni  Ni70  1  0.64859435  0.28086277  0.75409961  1
  Ni  Ni71  1  0.00131555  0.70970439  0.75597727  1
  Ni  Ni72  1  0.50015357  0.69840840  0.75482146  1
  Ni  Ni73  1  0.34831213  0.00468484  0.75495562  1
  Ni  Ni74  1  0.98027490  0.33269754  0.58391730  1
  Ni  Ni75  1  0.19032733  0.04632805  0.58011834  1
  Ni  Ni76  1  0.33733813  0.62881123  0.58607934  1
  Ni  Ni77  1  0.82726712  0.62247685  0.58075359  1
  Ni  Ni78  1  0.48217101  0.62901608  0.08346081  1
  Ni  Ni79  1  0.32785845  0.03236431  0.08075230  1
  Ni  Ni80  1  0.83520599  0.04554467  0.08544198  1
  Ni  Ni81  1  0.31763858  0.66554193  0.91662822  1
  Ni  Ni82  1  0.81204931  0.66230142  0.92254942  1
  Ni  Ni83  1  0.02154121  0.37167285  0.91860267  1
  Ni  Ni84  1  0.31368798  0.96066500  0.42052085  1
  Ni  Ni85  1  0.81822516  0.96971675  0.41635493  1
  Ni  Ni86  1  0.51921077  0.66803566  0.41937857  1
  Cu  Cu87  1  0.64387862  0.99669992  0.25245315  1
  Cu  Cu88  1  0.35232990  0.70543363  0.25083424  1
  Cu  Cu89  1  0.14301350  0.29039199  0.75294452  1
  Cu  Cu90  1  0.85236306  0.00055071  0.75131969  1
  Cu  Cu91  1  0.48393906  0.32798939  0.58430155  1
  Cu  Cu92  1  0.68307761  0.04069913  0.58571823  1
  Cu  Cu93  1  0.98200594  0.63849467  0.08412067  1
  Cu  Cu94  1  0.18324117  0.32552911  0.08563483  1
  Cu  Cu95  1  0.68410419  0.32579996  0.08405361  1
  Cu  Cu96  1  0.52366323  0.37902083  0.91762975  1
  Cu  Cu97  1  0.16809689  0.95818516  0.91718010  1
  Cu  Cu98  1  0.66539594  0.95489808  0.91672286  1
  Cu  Cu99  1  0.16517520  0.37928481  0.41602874  1
  Cu  Cu100  1  0.66788734  0.37710142  0.41680388  1
  Cu  Cu101  1  0.02216499  0.66768306  0.41652594  1
  C  C102  1  0.10036861  0.01455084  0.31353958  1
  C  C103  1  0.60330203  0.00968496  0.30622220  1
  C  C104  1  0.39969435  0.77940816  0.30544229  1
  C  C105  1  0.90536054  0.76305015  0.31163734  1
  C  C106  1  0.49079464  0.17681469  0.31177925  1
  C  C107  1  0.98245369  0.18618063  0.31225219  1
  C  C108  1  0.10257153  0.19672024  0.80731263  1
  C  C109  1  0.60108759  0.18604963  0.81423065  1
  C  C110  1  0.48383093  0.77652355  0.81356785  1
  C  C111  1  0.98957962  0.80030455  0.81398016  1
  C  C112  1  0.40519405  0.04096968  0.81402996  1
  C  C113  1  0.89814850  0.01946374  0.80722269  1
  C  C114  1  0.40183639  0.96947438  0.69747620  1
  C  C115  1  0.89223696  0.96536896  0.69896786  1
  C  C116  1  0.09180579  0.20770168  0.69815321  1
  C  C117  1  0.58359529  0.19778599  0.69404310  1
  C  C118  1  0.01118224  0.83191239  0.69517890  1
  C  C119  1  0.51520441  0.82968123  0.69590126  1
  C  C120  1  0.39738817  0.82407235  0.19736915  1
  C  C121  1  0.90153488  0.83435245  0.19574185  1
  C  C122  1  0.01461253  0.20122110  0.19488985  1
  C  C123  1  0.51293762  0.19209339  0.19359166  1
  C  C124  1  0.08277788  0.97034455  0.19367067  1
  C  C125  1  0.59206290  0.97732761  0.19709247  1
  C  C126  1  0.44645662  0.35211827  0.63870018  1
  C  C127  1  0.93394885  0.37019122  0.63723238  1
  C  C128  1  0.25154159  0.12759968  0.63596423  1
  C  C129  1  0.73689067  0.12558433  0.63672165  1
  C  C130  1  0.32729072  0.52367998  0.64674285  1
  C  C131  1  0.80772887  0.51205634  0.64107906  1
  C  C132  1  0.43530471  0.50327591  0.13790252  1
  C  C133  1  0.94251885  0.53836653  0.13819299  1
  C  C134  1  0.31070050  0.10542566  0.14135030  1
  C  C135  1  0.82036485  0.12937245  0.14491109  1
  C  C136  1  0.23658513  0.34740673  0.13687332  1
  C  C137  1  0.73690253  0.35106965  0.13602170  1
  C  C138  1  0.21678767  0.29896180  0.02852699  1
  C  C139  1  0.71562471  0.29204769  0.02850476  1
  C  C140  1  0.42664187  0.58019171  0.02159307  1
  C  C141  1  0.93021436  0.56543509  0.02982815  1
  C  C142  1  0.35467050  0.15787543  0.02211366  1
  C  C143  1  0.85532683  0.16063387  0.02457015  1
  C  C144  1  0.21958912  0.16138100  0.51927440  1
  C  C145  1  0.71674367  0.13419284  0.52826712  1
  C  C146  1  0.36173214  0.56011603  0.52563022  1
  C  C147  1  0.85155130  0.54903451  0.52136744  1
  C  C148  1  0.43275769  0.29781868  0.52996105  1
  C  C149  1  0.92438298  0.27019621  0.52164990  1
  C  C150  1  0.27968559  0.70010205  0.97713006  1
  C  C151  1  0.76713545  0.68975911  0.98021812  1
  C  C152  1  0.07448016  0.45492337  0.98014845  1
  C  C153  1  0.57177154  0.46515353  0.97137878  1
  C  C154  1  0.15393531  0.85856645  0.97275164  1
  C  C155  1  0.65355583  0.85952805  0.97282817  1
  C  C156  1  0.26845848  0.83788728  0.47626698  1
  C  C157  1  0.77885001  0.85704327  0.47610038  1
  C  C158  1  0.15496930  0.45477599  0.47093502  1
  C  C159  1  0.65439042  0.44985561  0.47170746  1
  C  C160  1  0.07020573  0.67471685  0.46929969  1
  C  C161  1  0.57588910  0.69655630  0.47927696  1
  C  C162  1  0.06910735  0.65422250  0.35965660  1
  C  C163  1  0.57620826  0.64786510  0.36197572  1
  C  C164  1  0.25268702  0.85059631  0.35853557  1
  C  C165  1  0.75272765  0.85636056  0.35802514  1
  C  C166  1  0.16803546  0.48940108  0.36226786  1
  C  C167  1  0.67677755  0.49098252  0.36350197  1
  C  C168  1  0.07740940  0.50430777  0.86254013  1
  C  C169  1  0.57034047  0.48693266  0.86185912  1
  C  C170  1  0.17703787  0.86301727  0.86460910  1
  C  C171  1  0.67156864  0.85492609  0.86458707  1
  C  C172  1  0.25156383  0.64652081  0.85954246  1
  C  C173  1  0.75049588  0.64880460  0.86163117  1
  C  C174  1  0.01632164  0.82257999  0.41299633  1
  C  C175  1  0.51538561  0.84292219  0.41030126  1
  C  C176  1  0.40723226  0.98036476  0.41614347  1
  C  C177  1  0.91109942  0.98417169  0.41118939  1
  C  C178  1  0.09199125  0.20736408  0.41081903  1
  C  C179  1  0.59443286  0.20643493  0.40980208  1
  C  C180  1  0.01463121  0.18594567  0.91097010  1
  C  C181  1  0.51713468  0.21173535  0.91438256  1
  C  C182  1  0.09465111  0.98263208  0.91069880  1
  C  C183  1  0.59209058  0.97952900  0.91159337  1
  C  C184  1  0.41066198  0.83573836  0.91127846  1
  C  C185  1  0.90515182  0.83001439  0.91718608  1
  C  C186  1  0.49298182  0.16949833  0.59021138  1
  C  C187  1  0.98947600  0.16008631  0.59977899  1
  C  C188  1  0.09250737  0.02931224  0.59291255  1
  C  C189  1  0.59645337  0.02921776  0.59098166  1
  C  C190  1  0.42519318  0.83010552  0.59184358  1
  C  C191  1  0.91666558  0.81822479  0.59204339  1
  C  C192  1  0.49707685  0.82686455  0.09797899  1
  C  C193  1  0.99106887  0.81484668  0.08928296  1
  C  C194  1  0.41785445  0.01337620  0.09243114  1
  C  C195  1  0.92418112  0.02521287  0.09149694  1
  C  C196  1  0.09593117  0.16321397  0.09074603  1
  C  C197  1  0.59599131  0.16058672  0.09250107  1
  C  C198  1  0.34064424  0.16897034  0.74321810  1
  C  C199  1  0.83498396  0.13687007  0.74245933  1
  C  C200  1  0.22934805  0.32193644  0.74864235  1
  C  C201  1  0.74328776  0.32066775  0.74682825  1
  C  C202  1  0.42191246  0.51165990  0.74423164  1
  C  C203  1  0.91908438  0.52567272  0.74964069  1
  C  C204  1  0.33674669  0.53612858  0.23990883  1
  C  C205  1  0.83732640  0.51030784  0.23748695  1
  C  C206  1  0.41980906  0.31243964  0.24867000  1
  C  C207  1  0.92253763  0.33222223  0.24496542  1
  C  C208  1  0.24283205  0.16607202  0.24579068  1
  C  C209  1  0.72964890  0.14084678  0.24693926  1
  C  C210  1  0.31811029  0.48410401  0.91677852  1
  C  C211  1  0.81484765  0.48460324  0.92159934  1
  C  C212  1  0.44022122  0.36625805  0.91439151  1
  C  C213  1  0.92934758  0.35920712  0.91416808  1
  C  C214  1  0.24685816  0.12342417  0.91785467  1
  C  C215  1  0.74494046  0.11963237  0.91594899  1
  C  C216  1  0.31705043  0.14266891  0.41689252  1
  C  C217  1  0.81812610  0.15078778  0.41543720  1
  C  C218  1  0.24541055  0.37843316  0.41216451  1
  C  C219  1  0.74667421  0.37049714  0.41655032  1
  C  C220  1  0.42734176  0.49693418  0.41688241  1
  C  C221  1  0.93874718  0.51322691  0.41228279  1
  C  C222  1  0.16790702  0.47111657  0.08310047  1
  C  C223  1  0.66566084  0.46589502  0.08028875  1
  C  C224  1  0.06753700  0.66039662  0.07953688  1
  C  C225  1  0.57696631  0.65227340  0.07737658  1
  C  C226  1  0.24786250  0.83763705  0.07616002  1
  C  C227  1  0.75474086  0.85172898  0.08429066  1
  C  C228  1  0.16491268  0.84809749  0.57745454  1
  C  C229  1  0.66756921  0.86420355  0.58309406  1
  C  C230  1  0.25578835  0.65537386  0.58367633  1
  C  C231  1  0.74754287  0.65794012  0.57592412  1
  C  C232  1  0.07584958  0.49032965  0.57686262  1
  C  C233  1  0.57016361  0.47684332  0.57894891  1
  C  C234  1  0.15430087  0.82853760  0.25663370  1
  C  C235  1  0.65122111  0.83582828  0.25294440  1
  C  C236  1  0.26844760  0.70639964  0.25216218  1
  C  C237  1  0.75901931  0.70104882  0.25513097  1
  C  C238  1  0.08997241  0.49148849  0.25612426  1
  C  C239  1  0.59082796  0.48379884  0.25737234  1
  C  C240  1  0.15002381  0.46675238  0.75406462  1
  C  C241  1  0.65487564  0.48046625  0.75781091  1
  C  C242  1  0.08983185  0.69829686  0.75948702  1
  C  C243  1  0.58952621  0.68776601  0.75870877  1
  C  C244  1  0.25933170  0.81820576  0.75682588  1
  C  C245  1  0.76563987  0.83043065  0.75573724  1
