# generated using pymatgen
data_Cu6NiC12
_symmetry_space_group_name_H-M   'P 1'
_cell_length_a   4.99860901
_cell_length_b   7.82316321
_cell_length_c   5.68768508
_cell_angle_alpha   96.19916626
_cell_angle_beta   92.20029425
_cell_angle_gamma   89.17260793
_symmetry_Int_Tables_number   1
_chemical_formula_structural   Cu6NiC12
_chemical_formula_sum   'Cu6 Ni1 C12'
_cell_volume   220.94108932
_cell_formula_units_Z   1
loop_
 _symmetry_equiv_pos_site_id
 _symmetry_equiv_pos_as_xyz
  1  'x, y, z'
loop_
 _atom_site_type_symbol
 _atom_site_label
 _atom_site_symmetry_multiplicity
 _atom_site_fract_x
 _atom_site_fract_y
 _atom_site_fract_z
 _atom_site_occupancy
  Ni  Ni0  1  0.49223200  0.50232400  0.49309700  1
  Cu  Cu1  1  0.47270300  0.01308800  0.48477900  1
  Cu  Cu2  1  0.52501500  0.69030400  0.10790100  1
  Cu  Cu3  1  0.49205900  0.33413100  0.87707300  1
  Cu  Cu4  1  0.01417800  0.68318100  0.68537900  1
  Cu  Cu5  1  0.96491900  0.31048900  0.38319200  1
  Cu  Cu6  1  0.01486900  0.99021800  0.01053400  1
  C  C7  1  0.83738400  0.45715900  0.65429300  1
  C  C8  1  0.83893300  0.77814200  0.96091100  1
  C  C9  1  0.82938200  0.07868300  0.29209800  1
  C  C10  1  0.65624500  0.43909600  0.17445000  1
  C  C11  1  0.34951100  0.56722300  0.83515900  1
  C  C12  1  0.32598500  0.26889800  0.54970700  1
  C  C13  1  0.31968500  0.90085300  0.17477000  1
  C  C14  1  0.17313100  0.90655200  0.70769900  1
  C  C15  1  0.69194700  0.10788700  0.81271300  1
  C  C16  1  0.64869400  0.74486200  0.45602000  1
  C  C17  1  0.16359800  0.59146800  0.36463000  1
  C  C18  1  0.17564100  0.22710500  0.04702200  1
