# generated using pymatgen
data_Cu5(NiC4)3
_symmetry_space_group_name_H-M   'P 1'
_cell_length_a   9.28991340
_cell_length_b   9.28991340
_cell_length_c   9.28991340
_cell_angle_alpha   109.47122063
_cell_angle_beta   109.47122063
_cell_angle_gamma   109.47122063
_symmetry_Int_Tables_number   1
_chemical_formula_structural   Cu5(NiC4)3
_chemical_formula_sum   'Cu10 Ni6 C24'
_cell_volume   617.18179236
_cell_formula_units_Z   2
loop_
 _symmetry_equiv_pos_site_id
 _symmetry_equiv_pos_as_xyz
  1  'x, y, z'
loop_
 _atom_site_type_symbol
 _atom_site_label
 _atom_site_symmetry_multiplicity
 _atom_site_fract_x
 _atom_site_fract_y
 _atom_site_fract_z
 _atom_site_occupancy
  Ni  Ni0  1  0.50000000  0.75000000  0.25000000  1
  Ni  Ni1  1  0.75000000  0.25000000  0.50000000  1
  Ni  Ni2  1  0.25000000  0.50000000  0.75000000  1
  Ni  Ni3  1  0.50000000  0.25000000  0.75000000  1
  Ni  Ni4  1  0.25000000  0.75000000  0.50000000  1
  Ni  Ni5  1  0.75000000  0.50000000  0.25000000  1
  Cu  Cu6  1  0.51738900  0.51738900  0.51738900  1
  Cu  Cu7  1  0.00000000  0.00000000  0.48261100  1
  Cu  Cu8  1  0.00000000  0.48261100  0.00000000  1
  Cu  Cu9  1  0.48261100  0.00000000  0.00000000  1
  Cu  Cu10  1  0.71683700  0.71683700  0.00000000  1
  Cu  Cu11  1  0.71683700  0.00000000  0.71683700  1
  Cu  Cu12  1  0.00000000  0.71683700  0.71683700  1
  Cu  Cu13  1  0.28316300  0.28316300  0.00000000  1
  Cu  Cu14  1  0.28316300  0.00000000  0.28316300  1
  Cu  Cu15  1  0.00000000  0.28316300  0.28316300  1
  C  C16  1  0.00000000  0.80069300  0.52703000  1
  C  C17  1  0.80069300  0.52703000  0.00000000  1
  C  C18  1  0.52703000  0.00000000  0.80069300  1
  C  C19  1  0.00000000  0.52703000  0.80069300  1
  C  C20  1  0.52703000  0.80069300  0.00000000  1
  C  C21  1  0.80069300  0.00000000  0.52703000  1
  C  C22  1  0.19930700  0.19930700  0.72633800  1
  C  C23  1  0.19930700  0.72633800  0.19930700  1
  C  C24  1  0.72633800  0.19930700  0.19930700  1
  C  C25  1  0.47297000  0.47297000  0.27366200  1
  C  C26  1  0.47297000  0.27366200  0.47297000  1
  C  C27  1  0.27366200  0.47297000  0.47297000  1
  C  C28  1  0.29737300  0.00000000  0.50728100  1
  C  C29  1  0.00000000  0.50728100  0.29737300  1
  C  C30  1  0.50728100  0.29737300  0.00000000  1
  C  C31  1  0.29737300  0.50728100  0.00000000  1
  C  C32  1  0.49271900  0.79009200  0.49271900  1
  C  C33  1  0.49271900  0.49271900  0.79009200  1
  C  C34  1  0.79009200  0.49271900  0.49271900  1
  C  C35  1  0.20990800  0.70262700  0.70262700  1
  C  C36  1  0.70262700  0.20990800  0.70262700  1
  C  C37  1  0.70262700  0.70262700  0.20990800  1
  C  C38  1  0.00000000  0.29737300  0.50728100  1
  C  C39  1  0.50728100  0.00000000  0.29737300  1
