# generated using pymatgen
data_CuNiC5
_symmetry_space_group_name_H-M   'P 1'
_cell_length_a   5.33354496
_cell_length_b   10.84177356
_cell_length_c   10.38953080
_cell_angle_alpha   16.60643058
_cell_angle_beta   31.75413270
_cell_angle_gamma   35.42728263
_symmetry_Int_Tables_number   1
_chemical_formula_structural   CuNiC5
_chemical_formula_sum   'Cu1 Ni1 C5'
_cell_volume   90.36103754
_cell_formula_units_Z   1
loop_
 _symmetry_equiv_pos_site_id
 _symmetry_equiv_pos_as_xyz
  1  'x, y, z'
loop_
 _atom_site_type_symbol
 _atom_site_label
 _atom_site_symmetry_multiplicity
 _atom_site_fract_x
 _atom_site_fract_y
 _atom_site_fract_z
 _atom_site_occupancy
  Ni  Ni0  1  0.99954492  0.99990804  0.00033244  1
  Cu  Cu1  1  0.49972510  0.50026455  0.49975995  1
  C  C2  1  0.50004341  0.99999790  0.50004153  1
  C  C3  1  0.31992803  0.99993069  0.19269941  1
  C  C4  1  0.20832490  0.49988604  0.27782821  1
  C  C5  1  0.68062917  0.00017536  0.80690761  1
  C  C6  1  0.79180448  0.49983643  0.72242986  1
