# generated using pymatgen
data_CuNiC17
_symmetry_space_group_name_H-M   'P 1'
_cell_length_a   9.04306918
_cell_length_b   9.04306887
_cell_length_c   23.02105434
_cell_angle_alpha   90.08605292
_cell_angle_beta   89.91394709
_cell_angle_gamma   119.70299720
_symmetry_Int_Tables_number   1
_chemical_formula_structural   CuNiC17
_chemical_formula_sum   'Cu6 Ni6 C102'
_cell_volume   1635.23008632
_cell_formula_units_Z   6
loop_
 _symmetry_equiv_pos_site_id
 _symmetry_equiv_pos_as_xyz
  1  'x, y, z'
loop_
 _atom_site_type_symbol
 _atom_site_label
 _atom_site_symmetry_multiplicity
 _atom_site_fract_x
 _atom_site_fract_y
 _atom_site_fract_z
 _atom_site_occupancy
  C  C0  1  0.99398639  0.63003370  0.25057496  1
  C  C1  1  0.36996630  0.00601361  0.75057496  1
  C  C2  1  0.66065339  0.96336670  0.58390796  1
  C  C3  1  0.03663330  0.33934661  0.08390796  1
  C  C4  1  0.32731939  0.29670070  0.91724196  1
  C  C5  1  0.70329930  0.67268061  0.41724196  1
  C  C6  1  0.01435450  0.00328925  0.49870221  1
  C  C7  1  0.99671075  0.98564550  0.99870221  1
  C  C8  1  0.68102150  0.33662225  0.83203521  1
  C  C9  1  0.66337775  0.31897850  0.33203521  1
  C  C10  1  0.34768750  0.66995625  0.16536921  1
  C  C11  1  0.33004375  0.65231250  0.66536921  1
  Ni  Ni12  1  0.99735625  0.00273747  0.35338258  1
  Ni  Ni13  1  0.99726253  0.00264375  0.85338258  1
  Ni  Ni14  1  0.66402325  0.33607047  0.68671558  1
  Ni  Ni15  1  0.66392953  0.33597675  0.18671558  1
  Ni  Ni16  1  0.33068925  0.66940447  0.02004958  1
  Ni  Ni17  1  0.33059553  0.66931075  0.52004958  1
  Cu  Cu18  1  0.00074555  0.99931555  0.64657595  1
  Cu  Cu19  1  0.00068445  0.99925445  0.14657595  1
  Cu  Cu20  1  0.66741255  0.33264855  0.97990895  1
  Cu  Cu21  1  0.66735145  0.33258745  0.47990895  1
  Cu  Cu22  1  0.33407855  0.66598255  0.31324295  1
  Cu  Cu23  1  0.33401745  0.66592145  0.81324295  1
  C  C24  1  0.70722877  0.71249247  0.25088209  1
  C  C25  1  0.00200079  0.29224979  0.24944957  1
  C  C26  1  0.28750753  0.29277123  0.75088209  1
  C  C27  1  0.70775021  0.99799921  0.74944957  1
  C  C28  1  0.37389577  0.04582547  0.58421509  1
  C  C29  1  0.66866779  0.62558279  0.58278257  1
  C  C30  1  0.95417453  0.62610423  0.08421509  1
  C  C31  1  0.37441721  0.33133221  0.08278257  1
  C  C32  1  0.04056177  0.37915947  0.91754909  1
  C  C33  1  0.33533379  0.95891679  0.91611657  1
  C  C34  1  0.62084053  0.95943823  0.41754909  1
  C  C35  1  0.04108321  0.66466621  0.41611657  1
  C  C36  1  0.28878637  -0.00148715  0.25039540  1
  C  C37  1  0.00148715  0.71121363  0.75039540  1
  C  C38  1  0.95545337  0.33184585  0.58372840  1
  C  C39  1  0.66815415  0.04454663  0.08372840  1
  C  C40  1  0.62211937  0.66517985  0.91706240  1
  C  C41  1  0.33482015  0.37788063  0.41706240  1
  C  C42  1  0.20635194  0.02337358  0.30439472  1
  C  C43  1  0.82584231  0.79276401  0.30806594  1
  C  C44  1  0.97767110  0.17618653  0.30530529  1
  C  C45  1  0.20723599  0.17415769  0.80806594  1
  C  C46  1  0.97662642  0.79364806  0.80439472  1
  C  C47  1  0.82381347  0.02232890  0.80530529  1
  C  C48  1  0.80025984  0.97101005  0.69075163  1
  C  C49  1  0.16308641  0.19035795  0.69418077  1
  C  C50  1  0.03090517  0.82887363  0.69595296  1
  C  C51  1  0.80964205  0.83691359  0.19418077  1
  C  C52  1  0.02898995  0.19974016  0.19075163  1
  C  C53  1  0.17112637  0.96909483  0.19595296  1
  C  C54  1  0.87301894  0.35670658  0.63772772  1
  C  C55  1  0.49250931  0.12609701  0.64139894  1
  C  C56  1  0.64433810  0.50951953  0.63863829  1
  C  C57  1  0.87390299  0.50749069  0.14139894  1
  C  C58  1  0.64329342  0.12698106  0.13772772  1
  C  C59  1  0.49048047  0.35566190  0.13863829  1
  C  C60  1  0.46692684  0.30434305  0.02408463  1
  C  C61  1  0.82975341  0.52369095  0.02751377  1
  C  C62  1  0.69757217  0.16220663  0.02928596  1
  C  C63  1  0.47630905  0.17024659  0.52751377  1
  C  C64  1  0.69565695  0.53307316  0.52408463  1
  C  C65  1  0.83779337  0.30242783  0.52928596  1
  C  C66  1  0.53968494  0.69004058  0.97106172  1
  C  C67  1  0.15917531  0.45943101  0.97473294  1
  C  C68  1  0.31100410  0.84285353  0.97197229  1
  C  C69  1  0.54056899  0.84082469  0.47473294  1
  C  C70  1  0.30995942  0.46031506  0.47106172  1
  C  C71  1  0.15714647  0.68899590  0.47197229  1
  C  C72  1  0.13359284  0.63767705  0.35741863  1
  C  C73  1  0.49641941  0.85702495  0.36084777  1
  C  C74  1  0.36423817  0.49554063  0.36261996  1
  C  C75  1  0.14297505  0.50358059  0.86084777  1
  C  C76  1  0.36232295  0.86640716  0.85741863  1
  C  C77  1  0.50445937  0.63576183  0.86261996  1
  C  C78  1  0.01131470  0.82701457  0.41127355  1
  C  C79  1  0.80706322  0.97432434  0.41039882  1
  C  C80  1  0.18292919  0.19970101  0.41011661  1
  C  C81  1  0.02567566  0.19293678  0.91039882  1
  C  C82  1  0.17298543  0.98868530  0.91127355  1
  C  C83  1  0.80029899  0.81707081  0.91011661  1
  C  C84  1  0.96246507  0.16245017  0.58858735  1
  C  C85  1  0.18505004  0.02869051  0.59070433  1
  C  C86  1  0.83934615  0.81806631  0.59030526  1
  C  C87  1  0.97130949  0.81494996  0.09070433  1
  C  C88  1  0.83754983  0.03753493  0.08858735  1
  C  C89  1  0.18193369  0.16065385  0.09030526  1
  C  C90  1  0.67798170  0.16034757  0.74460655  1
  C  C91  1  0.47373022  0.30765734  0.74373182  1
  C  C92  1  0.84959619  0.53303401  0.74344961  1
  C  C93  1  0.69234266  0.52626978  0.24373182  1
  C  C94  1  0.83965243  0.32201830  0.24460655  1
  C  C95  1  0.46696599  0.15040381  0.24344961  1
  C  C96  1  0.62913207  0.49578317  0.92192035  1
  C  C97  1  0.85171704  0.36202351  0.92403733  1
  C  C98  1  0.50601315  0.15139931  0.92363826  1
  C  C99  1  0.63797649  0.14828296  0.42403733  1
  C  C100  1  0.50421683  0.37086793  0.42192035  1
  C  C101  1  0.84860069  0.49398685  0.42363826  1
  C  C102  1  0.34464770  0.49368157  0.07794055  1
  C  C103  1  0.14039622  0.64099134  0.07706582  1
  C  C104  1  0.51626219  0.86636801  0.07678361  1
  C  C105  1  0.35900866  0.85960378  0.57706582  1
  C  C106  1  0.50631843  0.65535230  0.57794055  1
  C  C107  1  0.13363199  0.48373781  0.57678361  1
  C  C108  1  0.29579807  0.82911717  0.25525435  1
  C  C109  1  0.51838304  0.69535751  0.25737133  1
  C  C110  1  0.17267915  0.48473331  0.25697226  1
  C  C111  1  0.30464249  0.48161696  0.75737133  1
  C  C112  1  0.17088283  0.70420193  0.75525435  1
  C  C113  1  0.51526669  0.82732085  0.75697226  1
