# generated using pymatgen
data_Cu2(NiC5)3
_symmetry_space_group_name_H-M   'P 1'
_cell_length_a   9.40064337
_cell_length_b   9.41235270
_cell_length_c   23.24708381
_cell_angle_alpha   90.17120415
_cell_angle_beta   90.00000000
_cell_angle_gamma   119.95885609
_symmetry_Int_Tables_number   1
_chemical_formula_structural   Cu2(NiC5)3
_chemical_formula_sum   'Cu12 Ni18 C90'
_cell_volume   1782.10055867
_cell_formula_units_Z   6
loop_
 _symmetry_equiv_pos_site_id
 _symmetry_equiv_pos_as_xyz
  1  'x, y, z'
loop_
 _atom_site_type_symbol
 _atom_site_label
 _atom_site_symmetry_multiplicity
 _atom_site_fract_x
 _atom_site_fract_y
 _atom_site_fract_z
 _atom_site_occupancy
  Ni  Ni0  1  0.62411987  0.99408395  0.25664233  1
  Ni  Ni1  1  0.01247457  0.65024525  0.24231818  1
  Ni  Ni2  1  0.63777068  0.65024525  0.74231818  1
  Ni  Ni3  1  0.36996408  0.99408395  0.75664233  1
  Ni  Ni4  1  0.31849370  0.34495550  0.58490577  1
  Ni  Ni5  1  0.66004605  0.95511358  0.58316058  1
  Ni  Ni6  1  0.29506852  0.95511358  0.08316058  1
  Ni  Ni7  1  0.02646281  0.34495550  0.08490577  1
  Ni  Ni8  1  0.98329438  0.67701784  0.92494364  1
  Ni  Ni9  1  0.68345933  0.02656451  0.90716130  1
  Ni  Ni10  1  0.34310417  0.02656451  0.40716130  1
  Ni  Ni11  1  0.69372246  0.67701784  0.42494364  1
  Ni  Ni12  1  0.97493436  0.98720271  0.50002272  1
  Ni  Ni13  1  0.01226835  0.98720271  0.00002272  1
  Ni  Ni14  1  0.65669249  0.31013580  0.83336463  1
  Ni  Ni15  1  0.65344432  0.31013580  0.33336463  1
  Ni  Ni16  1  0.33384179  0.66245039  0.16670182  1
  Ni  Ni17  1  0.32860760  0.66245039  0.66670182  1
  Cu  Cu18  1  0.00717024  0.01359525  0.34786893  1
  Cu  Cu19  1  0.00642501  0.01359525  0.84786893  1
  Cu  Cu20  1  0.98915043  0.99098859  0.65181807  1
  Cu  Cu21  1  0.00183816  0.99098859  0.15181807  1
  Cu  Cu22  1  0.68178330  0.33863751  0.68149182  1
  Cu  Cu23  1  0.65685520  0.33863751  0.18149182  1
  Cu  Cu24  1  0.65852914  0.33894431  0.98537701  1
  Cu  Cu25  1  0.68041617  0.33894431  0.48537701  1
  Cu  Cu26  1  0.33716274  0.66787348  0.01422885  1
  Cu  Cu27  1  0.33070974  0.66787348  0.51422885  1
  Cu  Cu28  1  0.33113324  0.66177411  0.31924811  1
  Cu  Cu29  1  0.33063988  0.66177411  0.81924811  1
  C  C30  1  0.30873695  0.99563678  0.25122696  1
  C  C31  1  0.68689983  0.99563678  0.75122696  1
  C  C32  1  0.66136262  0.63847056  0.58298798  1
  C  C33  1  0.97710894  0.63847056  0.08298798  1
  C  C34  1  0.33330178  0.97085892  0.91659242  1
  C  C35  1  0.63755614  0.97085892  0.41659242  1
  C  C36  1  0.69990251  0.70016648  0.25314680  1
  C  C37  1  0.99598783  0.30573575  0.24589231  1
  C  C38  1  0.30974792  0.30573575  0.74589231  1
  C  C39  1  0.00026398  0.70016648  0.75314680  1
  C  C40  1  0.97623673  0.33032737  0.58376659  1
  C  C41  1  0.36565050  0.03493889  0.58325840  1
  C  C42  1  0.66928939  0.03493889  0.08325840  1
  C  C43  1  0.35409164  0.33032737  0.08376659  1
  C  C44  1  0.64334992  0.66975863  0.91384804  1
  C  C45  1  0.02394180  0.36043738  0.91951195  1
  C  C46  1  0.33649457  0.36043738  0.41951195  1
  C  C47  1  0.02640771  0.66975863  0.41384804  1
  C  C48  1  0.22439997  0.00600842  0.30702009  1
  C  C49  1  0.79223746  0.77877276  0.30688967  1
  C  C50  1  0.98180955  0.20115278  0.29542932  1
  C  C51  1  0.21934323  0.20115278  0.79542932  1
  C  C52  1  0.98653530  0.77877276  0.80688967  1
  C  C53  1  0.78160845  0.00600842  0.80702009  1
  C  C54  1  0.77726540  0.98320374  0.69738359  1
  C  C55  1  0.22162748  0.22998799  0.69140253  1
  C  C56  1  0.02177612  0.80721487  0.70329956  1
  C  C57  1  0.78543875  0.80721487  0.20329956  1
  C  C58  1  0.00836051  0.22998799  0.19140253  1
  C  C59  1  0.20593834  0.98320374  0.19738359  1
  C  C60  1  0.89652472  0.34409813  0.63605126  1
  C  C61  1  0.46706858  0.11707822  0.63512672  1
  C  C62  1  0.65219639  0.53955737  0.63757179  1
  C  C63  1  0.88736198  0.53955737  0.13757179  1
  C  C64  1  0.65001064  0.11707822  0.13512672  1
  C  C65  1  0.44757442  0.34409813  0.13605126  1
  C  C66  1  0.43710138  0.31302750  0.03235259  1
  C  C67  1  0.88238901  0.55105544  0.02760197  1
  C  C68  1  0.68281755  0.13197674  0.03095159  1
  C  C69  1  0.44916020  0.13197674  0.53095159  1
  C  C70  1  0.66866743  0.55105544  0.52760197  1
  C  C71  1  0.87592711  0.31302750  0.53235259  1
  C  C72  1  0.55000227  0.67750453  0.96372656  1
  C  C73  1  0.11382162  0.43489457  0.97383419  1
  C  C74  1  0.31700053  0.86714552  0.97091060  1
  C  C75  1  0.55014399  0.86714552  0.47091060  1
  C  C76  1  0.32107196  0.43489457  0.47383419  1
  C  C77  1  0.12750125  0.67750453  0.46372656  1
  C  C78  1  0.10024417  0.65328514  0.35971894  1
  C  C79  1  0.53423870  0.88343147  0.36189167  1
  C  C80  1  0.34343678  0.46069766  0.36988529  1
  C  C81  1  0.11725988  0.46069766  0.86988529  1
  C  C82  1  0.34919177  0.88343147  0.86189167  1
  C  C83  1  0.55303996  0.65328514  0.85971894  1
  C  C84  1  0.01964861  0.82616135  0.41422317  1
  C  C85  1  0.80831743  0.98141528  0.41447209  1
  C  C86  1  0.19674399  0.18906107  0.41580234  1
  C  C87  1  0.99231708  0.18906107  0.91580234  1
  C  C88  1  0.17309785  0.98141528  0.91447209  1
  C  C89  1  0.80651273  0.82616135  0.91422317  1
  C  C90  1  0.99299905  0.17943548  0.58539917  1
  C  C91  1  0.20358126  0.02610192  0.58705357  1
  C  C92  1  0.81001152  0.81741431  0.58334584  1
  C  C93  1  0.00740280  0.81741431  0.08334584  1
  C  C94  1  0.82252066  0.02610192  0.08705357  1
  C  C95  1  0.18643644  0.17943548  0.08539917  1
  C  C96  1  0.65614938  0.14387075  0.74942974  1
  C  C97  1  0.47635731  0.32035315  0.74619264  1
  C  C98  1  0.84596881  0.53981981  0.74784735  1
  C  C99  1  0.69385200  0.53981981  0.24784735  1
  C  C100  1  0.84399683  0.32035315  0.24619264  1
  C  C101  1  0.48772237  0.14387075  0.24942974  1
  C  C102  1  0.67600419  0.53086113  0.91763608  1
  C  C103  1  0.86020039  0.35259701  0.91916204  1
  C  C104  1  0.49433179  0.14053685  0.91882401  1
  C  C105  1  0.64620607  0.14053685  0.41882401  1
  C  C106  1  0.49239762  0.35259701  0.41916204  1
  C  C107  1  0.85485794  0.53086113  0.41763608  1
  C  C108  1  0.33001501  0.47477721  0.08027494  1
  C  C109  1  0.15107458  0.65059711  0.08366159  1
  C  C110  1  0.52076598  0.86895399  0.08017564  1
  C  C111  1  0.34818701  0.86895399  0.58017564  1
  C  C112  1  0.49952152  0.65059711  0.58366159  1
  C  C113  1  0.14476120  0.47477721  0.58027494  1
  C  C114  1  0.31995276  0.83346935  0.25051004  1
  C  C115  1  0.53258904  0.67957581  0.25466303  1
  C  C116  1  0.14047288  0.47369202  0.25079358  1
  C  C117  1  0.33321814  0.47369202  0.75079358  1
  C  C118  1  0.14698577  0.67957581  0.75466303  1
  C  C119  1  0.51351559  0.83346935  0.75051004  1
