# generated using pymatgen
data_Cu5NiC19
_symmetry_space_group_name_H-M   'P 1'
_cell_length_a   5.90833185
_cell_length_b   5.69767959
_cell_length_c   8.89130450
_cell_angle_alpha   89.75272953
_cell_angle_beta   93.52320307
_cell_angle_gamma   118.84868692
_symmetry_Int_Tables_number   1
_chemical_formula_structural   Cu5NiC19
_chemical_formula_sum   'Cu5 Ni1 C19'
_cell_volume   261.56364875
_cell_formula_units_Z   1
loop_
 _symmetry_equiv_pos_site_id
 _symmetry_equiv_pos_as_xyz
  1  'x, y, z'
loop_
 _atom_site_type_symbol
 _atom_site_label
 _atom_site_symmetry_multiplicity
 _atom_site_fract_x
 _atom_site_fract_y
 _atom_site_fract_z
 _atom_site_occupancy
  Ni  Ni0  1  0.34151900  0.68369800  0.89237100  1
  C  C1  1  0.66198200  0.83896800  0.23235000  1
  C  C2  1  0.84984600  0.68403500  0.70138100  1
  C  C3  1  0.85203500  0.18778400  0.70078900  1
  Cu  Cu4  1  0.15903800  0.83973700  0.22017200  1
  Cu  Cu5  1  0.34136500  0.67619300  0.48727400  1
  Cu  Cu6  1  0.15818000  0.33626700  0.21990700  1
  Cu  Cu7  1  0.35330500  0.18571500  0.70544000  1
  Cu  Cu8  1  0.68641600  0.35343300  0.99806000  1
  C  C9  1  0.20144700  0.85151400  0.60645800  1
  C  C10  1  0.04946700  0.53291900  0.34409800  1
  C  C11  1  0.31733900  0.66820600  0.11227800  1
  C  C12  1  0.01117400  0.01346500  0.32714400  1
  C  C13  1  0.03902700  0.01974500  0.80796600  1
  C  C14  1  0.19817500  0.36640400  0.60847900  1
  C  C15  1  0.45607500  0.95990100  0.35494600  1
  C  C16  1  0.45246400  0.50973100  0.35468200  1
  C  C17  1  0.29952800  0.15925900  0.12045400  1
  C  C18  1  0.66415900  0.83790500  0.59820700  1
  C  C19  1  0.52975900  0.48708100  0.84901800  1
  C  C20  1  0.53850600  0.06593600  0.84647200  1
  C  C21  1  0.65756600  0.34942300  0.59776500  1
  C  C22  1  0.82802400  0.66450500  0.11050100  1
  C  C23  1  0.97275500  0.50344100  0.84152700  1
  C  C24  1  0.82876700  0.18326700  0.10923100  1
