# generated using pymatgen
data_Cu3Ni2C31
_symmetry_space_group_name_H-M   'P 1'
_cell_length_a   8.89819032
_cell_length_b   8.90207526
_cell_length_c   23.30123262
_cell_angle_alpha   89.07335241
_cell_angle_beta   90.33337514
_cell_angle_gamma   119.84487530
_symmetry_Int_Tables_number   1
_chemical_formula_structural   Cu3Ni2C31
_chemical_formula_sum   'Cu9 Ni6 C93'
_cell_volume   1600.74069274
_cell_formula_units_Z   3
loop_
 _symmetry_equiv_pos_site_id
 _symmetry_equiv_pos_as_xyz
  1  'x, y, z'
loop_
 _atom_site_type_symbol
 _atom_site_label
 _atom_site_symmetry_multiplicity
 _atom_site_fract_x
 _atom_site_fract_y
 _atom_site_fract_z
 _atom_site_occupancy
  C  C0  1  0.96684532  0.97484863  0.50584880  1
  C  C1  1  0.04334825  0.03974714  0.99642687  1
  C  C2  1  0.66952702  0.30453760  0.83582004  1
  C  C3  1  0.65933598  0.30446119  0.33609048  1
  C  C4  1  0.33794516  0.65138946  0.16098555  1
  C  C5  1  0.37656166  0.68389361  0.67257160  1
  C  C6  1  0.97730220  0.98727951  0.64795048  1
  C  C7  1  0.01359886  0.01344052  0.13908065  1
  C  C8  1  0.34924887  0.68303308  0.31871321  1
  Ni  Ni9  1  0.69329012  0.99285122  0.75046888  1
  Ni  Ni10  1  0.66267900  0.61338139  0.58180482  1
  Ni  Ni11  1  0.38483216  0.35178795  0.07762105  1
  Ni  Ni12  1  0.03832859  0.37403477  0.91669858  1
  Ni  Ni13  1  0.32387662  0.95621057  0.91656975  1
  Ni  Ni14  1  0.63924544  0.97807386  0.41639859  1
  Cu  Cu15  1  0.99006553  0.99803589  0.35129522  1
  Cu  Cu16  1  0.99928598  0.01412793  0.85341376  1
  Cu  Cu17  1  0.66656776  0.33143634  0.68863746  1
  Cu  Cu18  1  0.65606371  0.33593189  0.18076307  1
  Cu  Cu19  1  0.65769515  0.32278317  0.97448341  1
  Cu  Cu20  1  0.66774225  0.33162387  0.48373417  1
  Cu  Cu21  1  0.32169698  0.65739104  0.01424424  1
  Cu  Cu22  1  0.35817645  0.67358984  0.51959623  1
  Cu  Cu23  1  0.32839448  0.67520269  0.81907571  1
  C  C24  1  0.29931690  0.01306965  0.25123119  1
  C  C25  1  0.71224573  0.69407460  0.24896029  1
  C  C26  1  0.98490948  0.29585207  0.24796656  1
  C  C27  1  0.30056200  0.30242739  0.75140576  1
  C  C28  1  0.99855482  0.69947671  0.75200767  1
  C  C29  1  0.97234677  0.34961232  0.58003768  1
  C  C30  1  0.37642397  0.03431565  0.58216536  1
  C  C31  1  0.95637148  0.61118615  0.08137527  1
  C  C32  1  0.65196257  0.03751900  0.08223836  1
  C  C33  1  0.62747255  0.66954739  0.91613126  1
  C  C34  1  0.32802208  0.35903378  0.41741943  1
  C  C35  1  0.03776420  0.66952785  0.41854021  1
  C  C36  1  0.21663639  0.03164585  0.30642170  1
  C  C37  1  0.81210184  0.77453046  0.30430483  1
  C  C38  1  0.96086156  0.19206918  0.30358521  1
  C  C39  1  0.22283767  0.19156126  0.80401868  1
  C  C40  1  0.98129709  0.78449849  0.80377333  1
  C  C41  1  0.81752681  0.02664430  0.80741514  1
  C  C42  1  0.75655270  0.96470391  0.69034147  1
  C  C43  1  0.20475282  0.22550897  0.69953852  1
  C  C44  1  0.02461794  0.79735528  0.69935799  1
  C  C45  1  0.80184719  0.79790690  0.19894041  1
  C  C46  1  0.00040792  0.20779531  0.19860241  1
  C  C47  1  0.20211103  0.01014867  0.20101418  1
  C  C48  1  0.88846233  0.36693360  0.63221235  1
  C  C49  1  0.48675059  0.11178079  0.63334737  1
  C  C50  1  0.63744464  0.49465986  0.64001181  1
  C  C51  1  0.88393293  0.50719557  0.13726786  1
  C  C52  1  0.63518111  0.11972653  0.13708910  1
  C  C53  1  0.48762823  0.38016913  0.14155111  1
  C  C54  1  0.49847413  0.34019294  0.02619084  1
  C  C55  1  0.85831392  0.51669226  0.03145734  1
  C  C56  1  0.68361386  0.14918467  0.03146866  1
  C  C57  1  0.46203823  0.12869284  0.52786362  1
  C  C58  1  0.67015131  0.51920509  0.52289589  1
  C  C59  1  0.86323377  0.31742169  0.52770221  1
  C  C60  1  0.55139539  0.69726660  0.96861640  1
  C  C61  1  0.15508877  0.44781263  0.97446307  1
  C  C62  1  0.30260148  0.84723935  0.97675915  1
  C  C63  1  0.55151257  0.85346835  0.47416152  1
  C  C64  1  0.29385859  0.43480332  0.46905399  1
  C  C65  1  0.14174854  0.68741727  0.47091444  1
  C  C66  1  0.10944567  0.64171292  0.36675770  1
  C  C67  1  0.53737330  0.91565537  0.35804112  1
  C  C68  1  0.34969317  0.45838120  0.36521245  1
  C  C69  1  0.12694669  0.48495522  0.85838327  1
  C  C70  1  0.36976971  0.87971485  0.86156819  1
  C  C71  1  0.51955870  0.63906407  0.86470726  1
  C  C72  1  0.02744260  0.83423815  0.41364900  1
  C  C73  1  0.83432067  0.99302819  0.41243064  1
  C  C74  1  0.17570411  0.17826463  0.41262015  1
  C  C75  1  0.00761045  0.17776099  0.91287812  1
  C  C76  1  0.14292932  0.96146962  0.90856248  1
  C  C77  1  0.80069617  0.82450114  0.91011034  1
  C  C78  1  0.01104861  0.20956282  0.58345435  1
  C  C79  1  0.21003732  0.02599857  0.58559047  1
  C  C80  1  0.82750849  0.80192142  0.57953419  1
  C  C81  1  0.96182748  0.77720539  0.08443316  1
  C  C82  1  0.79762884  0.00695185  0.08679728  1
  C  C83  1  0.19773523  0.18456314  0.07649183  1
  C  C84  1  0.67402159  0.17332634  0.74688092  1
  C  C85  1  0.48092284  0.32680935  0.74909160  1
  C  C86  1  0.83521070  0.52394939  0.74971436  1
  C  C87  1  0.70650884  0.52039877  0.24830749  1
  C  C88  1  0.81759125  0.30351012  0.24439027  1
  C  C89  1  0.47780131  0.17452573  0.25007406  1
  C  C90  1  0.64993371  0.51614290  0.92125261  1
  C  C91  1  0.85173315  0.37026496  0.92221244  1
  C  C92  1  0.49063443  0.15336238  0.91988330  1
  C  C93  1  0.67102602  0.17560155  0.42647652  1
  C  C94  1  0.48543852  0.34142891  0.42414865  1
  C  C95  1  0.85668203  0.52295675  0.42486307  1
  C  C96  1  0.38119666  0.53723722  0.07579532  1
  C  C97  1  0.13525265  0.63539167  0.08074814  1
  C  C98  1  0.48561758  0.87258116  0.07887239  1
  C  C99  1  0.35338118  0.85469560  0.57859616  1
  C  C100  1  0.47439278  0.61371668  0.58080594  1
  C  C101  1  0.13500374  0.52222637  0.57253319  1
  C  C102  1  0.31750940  0.85982278  0.25398162  1
  C  C103  1  0.53519334  0.66341748  0.25309745  1
  C  C104  1  0.13230747  0.47052291  0.25348563  1
  C  C105  1  0.31810493  0.47631700  0.75868438  1
  C  C106  1  0.14756292  0.66687714  0.75683083  1
  C  C107  1  0.49910896  0.82100053  0.75993939  1
