# generated using pymatgen
data_Cu16NiC3
_symmetry_space_group_name_H-M   'P 1'
_cell_length_a   11.88976435
_cell_length_b   11.88976435
_cell_length_c   11.88976435
_cell_angle_alpha   60.00000000
_cell_angle_beta   60.00000000
_cell_angle_gamma   60.00000000
_symmetry_Int_Tables_number   1
_chemical_formula_structural   Cu16NiC3
_chemical_formula_sum   'Cu32 Ni2 C6'
_cell_volume   1188.51520982
_cell_formula_units_Z   2
loop_
 _symmetry_equiv_pos_site_id
 _symmetry_equiv_pos_as_xyz
  1  'x, y, z'
loop_
 _atom_site_type_symbol
 _atom_site_label
 _atom_site_symmetry_multiplicity
 _atom_site_fract_x
 _atom_site_fract_y
 _atom_site_fract_z
 _atom_site_occupancy
  C  C0  1  0.25000000  0.25000000  0.25000000  1
  C  C1  1  0.62500000  0.62500000  0.12500000  1
  C  C2  1  0.12500000  0.62500000  0.62500000  1
  C  C3  1  0.62500000  0.12500000  0.62500000  1
  C  C4  1  0.62500000  0.62500000  0.62500000  1
  C  C5  1  0.00000000  0.00000000  0.00000000  1
  Ni  Ni6  1  0.50000000  0.50000000  0.50000000  1
  Ni  Ni7  1  0.75000000  0.75000000  0.75000000  1
  Cu  Cu8  1  0.57242900  0.15962600  0.31739800  1
  Cu  Cu9  1  0.31739900  0.15962600  0.95054700  1
  Cu  Cu10  1  0.15962600  0.57242900  0.95054700  1
  Cu  Cu11  1  0.15962600  0.31739900  0.57242900  1
  Cu  Cu12  1  0.95054700  0.31739800  0.15962600  1
  Cu  Cu13  1  0.31739900  0.57242900  0.15962600  1
  Cu  Cu14  1  0.95054700  0.15962600  0.57242900  1
  Cu  Cu15  1  0.15962600  0.95054700  0.31739900  1
  Cu  Cu16  1  0.67757100  0.93260100  0.29945300  1
  Cu  Cu17  1  0.29945300  0.67757100  0.93260100  1
  Cu  Cu18  1  0.93260100  0.29945300  0.67757100  1
  Cu  Cu19  1  0.67757100  0.09037400  0.93260200  1
  Cu  Cu20  1  0.57242900  0.95054700  0.15962600  1
  Cu  Cu21  1  0.93260100  0.09037400  0.29945300  1
  Cu  Cu22  1  0.09037400  0.67757100  0.29945300  1
  Cu  Cu23  1  0.09037400  0.93260100  0.67757100  1
  Cu  Cu24  1  0.29945300  0.93260100  0.09037400  1
  Cu  Cu25  1  0.93260100  0.67757100  0.09037400  1
  Cu  Cu26  1  0.29945300  0.09037400  0.67757100  1
  Cu  Cu27  1  0.09037400  0.29945300  0.93260100  1
  Cu  Cu28  1  0.42318500  0.42318500  0.73044600  1
  Cu  Cu29  1  0.73044600  0.42318500  0.42318500  1
  Cu  Cu30  1  0.42318500  0.73044600  0.42318500  1
  Cu  Cu31  1  0.42318500  0.42318500  0.42318500  1
  Cu  Cu32  1  0.82681500  0.82681500  0.51955400  1
  Cu  Cu33  1  0.51955400  0.82681500  0.82681500  1
  Cu  Cu34  1  0.82681500  0.51955400  0.82681500  1
  Cu  Cu35  1  0.82681500  0.82681500  0.82681500  1
  Cu  Cu36  1  0.31739800  0.95054700  0.57242900  1
  Cu  Cu37  1  0.95054700  0.57242900  0.31739800  1
  Cu  Cu38  1  0.57242900  0.31739900  0.95054700  1
  Cu  Cu39  1  0.67757100  0.29945300  0.09037400  1
