# generated using pymatgen
data_Cu3Ni3C7
_symmetry_space_group_name_H-M   'P 1'
_cell_length_a   6.27869333
_cell_length_b   6.27869333
_cell_length_c   6.27869250
_cell_angle_alpha   115.44566092
_cell_angle_beta   115.44566092
_cell_angle_gamma   115.44565118
_symmetry_Int_Tables_number   1
_chemical_formula_structural   Cu3Ni3C7
_chemical_formula_sum   'Cu3 Ni3 C7'
_cell_volume   132.73059876
_cell_formula_units_Z   1
loop_
 _symmetry_equiv_pos_site_id
 _symmetry_equiv_pos_as_xyz
  1  'x, y, z'
loop_
 _atom_site_type_symbol
 _atom_site_label
 _atom_site_symmetry_multiplicity
 _atom_site_fract_x
 _atom_site_fract_y
 _atom_site_fract_z
 _atom_site_occupancy
  C  C0  1  0.84100600  0.84100600  0.84100600  1
  Ni  Ni1  1  0.46638200  0.98250300  0.46638300  1
  Ni  Ni2  1  0.46638200  0.46638300  0.98250300  1
  Ni  Ni3  1  0.98250300  0.46638200  0.46638200  1
  Cu  Cu4  1  0.68798300  0.22766000  0.22766000  1
  Cu  Cu5  1  0.22766000  0.68798300  0.22766000  1
  Cu  Cu6  1  0.22766000  0.22766000  0.68798300  1
  C  C7  1  0.24940800  0.50325900  0.24940800  1
  C  C8  1  0.55612800  0.95449300  0.95449300  1
  C  C9  1  0.95449300  0.95449300  0.55612800  1
  C  C10  1  0.50325900  0.24940800  0.24940800  1
  C  C11  1  0.24940800  0.24940800  0.50325900  1
  C  C12  1  0.95449300  0.55612800  0.95449300  1
