# generated using pymatgen
data_CuNiC9
_symmetry_space_group_name_H-M   'P 1'
_cell_length_a   6.83195176
_cell_length_b   6.05173156
_cell_length_c   6.77575552
_cell_angle_alpha   129.73402082
_cell_angle_beta   133.12515333
_cell_angle_gamma   69.20494132
_symmetry_Int_Tables_number   1
_chemical_formula_structural   CuNiC9
_chemical_formula_sum   'Cu1 Ni1 C9'
_cell_volume   155.55441812
_cell_formula_units_Z   1
loop_
 _symmetry_equiv_pos_site_id
 _symmetry_equiv_pos_as_xyz
  1  'x, y, z'
loop_
 _atom_site_type_symbol
 _atom_site_label
 _atom_site_symmetry_multiplicity
 _atom_site_fract_x
 _atom_site_fract_y
 _atom_site_fract_z
 _atom_site_occupancy
  C  C0  1  0.80429297  0.29172175  0.49188433  1
  C  C1  1  0.22918903  0.67513990  0.52915678  1
  Ni  Ni2  1  0.47941501  0.98409942  0.47471996  1
  Cu  Cu3  1  0.97410521  0.99298232  0.97109402  1
  C  C4  1  0.49733624  0.49793909  -0.00192883  1
  C  C5  1  0.18309607  0.23692497  0.45475935  1
  C  C6  1  0.31625760  0.54565346  0.18225018  1
  C  C7  1  0.35545105  0.88923651  0.05867008  1
  C  C8  1  0.82163448  0.79467472  0.50976787  1
  C  C9  1  0.59989595  0.07261315  0.88550031  1
  C  C10  1  0.70361140  0.48330071  0.88162594  1
