# generated using pymatgen
data_CuNi2C3
_symmetry_space_group_name_H-M   'P 1'
_cell_length_a   8.63882800
_cell_length_b   8.79686100
_cell_length_c   22.64673000
_cell_angle_alpha   90.00000000
_cell_angle_beta   90.00000000
_cell_angle_gamma   90.00000000
_symmetry_Int_Tables_number   1
_chemical_formula_structural   CuNi2C3
_chemical_formula_sum   'Cu8 Ni16 C24'
_cell_volume   1721.02848830
_cell_formula_units_Z   8
loop_
 _symmetry_equiv_pos_site_id
 _symmetry_equiv_pos_as_xyz
  1  'x, y, z'
loop_
 _atom_site_type_symbol
 _atom_site_label
 _atom_site_symmetry_multiplicity
 _atom_site_fract_x
 _atom_site_fract_y
 _atom_site_fract_z
 _atom_site_occupancy
  Ni  Ni0  1  0.70062700  0.98843000  0.33167400  1
  Ni  Ni1  1  0.20062700  0.51157000  0.16832600  1
  Ni  Ni2  1  0.79937300  0.48843000  0.66832600  1
  Ni  Ni3  1  0.29937300  0.01157000  0.83167400  1
  Ni  Ni4  1  0.29937300  0.01157000  0.66832600  1
  Ni  Ni5  1  0.79937300  0.48843000  0.83167400  1
  Ni  Ni6  1  0.20062700  0.51157000  0.33167400  1
  Ni  Ni7  1  0.70062700  0.98843000  0.16832600  1
  Ni  Ni8  1  0.73647400  0.03377000  0.48985800  1
  Ni  Ni9  1  0.23647400  0.46623000  0.01014200  1
  Ni  Ni10  1  0.76352600  0.53377000  0.51014200  1
  Ni  Ni11  1  0.26352600  0.96623000  0.98985800  1
  Ni  Ni12  1  0.26352600  0.96623000  0.51014200  1
  Ni  Ni13  1  0.76352600  0.53377000  0.98985800  1
  Ni  Ni14  1  0.23647400  0.46623000  0.48985800  1
  Ni  Ni15  1  0.73647400  0.03377000  0.01014200  1
  Cu  Cu16  1  0.80319300  0.99453700  0.66517100  1
  Cu  Cu17  1  0.80319300  0.99453700  0.83482900  1
  Cu  Cu18  1  0.30319300  0.50546300  0.66517100  1
  Cu  Cu19  1  0.69680700  0.49453700  0.16517100  1
  Cu  Cu20  1  0.19680700  0.00546300  0.33482900  1
  Cu  Cu21  1  0.19680700  0.00546300  0.16517100  1
  Cu  Cu22  1  0.69680700  0.49453700  0.33482900  1
  Cu  Cu23  1  0.30319300  0.50546300  0.83482900  1
  C  C24  1  0.90233500  0.30977300  0.39698000  1
  C  C25  1  0.40233500  0.19022700  0.10302000  1
  C  C26  1  0.59766500  0.80977300  0.60302000  1
  C  C27  1  0.09766500  0.69022700  0.89698000  1
  C  C28  1  0.09766500  0.69022700  0.60302000  1
  C  C29  1  0.59766500  0.80977300  0.89698000  1
  C  C30  1  0.40233500  0.19022700  0.39698000  1
  C  C31  1  0.90233500  0.30977300  0.10302000  1
  C  C32  1  0.97976700  0.17932600  0.90967600  1
  C  C33  1  0.97976700  0.17932600  0.59032400  1
  C  C34  1  0.47976700  0.32067400  0.90967600  1
  C  C35  1  0.52023300  0.67932600  0.40967600  1
  C  C36  1  0.02023300  0.82067400  0.09032400  1
  C  C37  1  0.02023300  0.82067400  0.40967600  1
  C  C38  1  0.52023300  0.67932600  0.09032400  1
  C  C39  1  0.47976700  0.32067400  0.59032400  1
  C  C40  1  0.63279400  0.17046500  0.75000000  1
  C  C41  1  0.13279400  0.32953500  0.75000000  1
  C  C42  1  0.86720600  0.67046500  0.25000000  1
  C  C43  1  0.36720600  0.82953500  0.25000000  1
  C  C44  1  0.02216100  0.17453600  0.25000000  1
  C  C45  1  0.52216100  0.32546400  0.25000000  1
  C  C46  1  0.47783900  0.67453600  0.75000000  1
  C  C47  1  0.97783900  0.82546400  0.75000000  1
