# generated using pymatgen
data_Cu2Ni5C32
_symmetry_space_group_name_H-M   'P 1'
_cell_length_a   9.03983586
_cell_length_b   9.01758918
_cell_length_c   23.00076413
_cell_angle_alpha   89.98756561
_cell_angle_beta   89.99027018
_cell_angle_gamma   119.95910559
_symmetry_Int_Tables_number   1
_chemical_formula_structural   Cu2Ni5C32
_chemical_formula_sum   'Cu6 Ni15 C96'
_cell_volume   1624.43624432
_cell_formula_units_Z   3
loop_
 _symmetry_equiv_pos_site_id
 _symmetry_equiv_pos_as_xyz
  1  'x, y, z'
loop_
 _atom_site_type_symbol
 _atom_site_label
 _atom_site_symmetry_multiplicity
 _atom_site_fract_x
 _atom_site_fract_y
 _atom_site_fract_z
 _atom_site_occupancy
  Ni  Ni0  1  0.00524036  0.63919669  0.25177743  1
  Ni  Ni1  1  0.63130345  0.64098566  0.75158341  1
  Ni  Ni2  1  0.36731726  0.99567591  0.75220417  1
  Ni  Ni3  1  0.66459524  0.97023995  0.58446235  1
  Ni  Ni4  1  0.29646246  0.96961051  0.08357794  1
  Ni  Ni5  1  0.67615352  0.69896159  0.08250874  1
  Ni  Ni6  1  0.02705120  0.33082622  0.08465634  1
  Ni  Ni7  1  0.96704421  0.30037092  0.41577272  1
  Ni  Ni8  1  0.33617731  0.03471225  0.41752747  1
  Ni  Ni9  1  0.00375602  0.99043193  0.49988682  1
  Ni  Ni10  1  0.00009156  0.99523225  0.99718779  1
  Ni  Ni11  1  0.67682098  0.33102489  0.83950211  1
  Ni  Ni12  1  0.65747629  0.33474862  0.33542170  1
  Ni  Ni13  1  0.33987091  0.66668704  0.17256458  1
  Ni  Ni14  1  0.31951646  0.65571878  0.66886353  1
  C  C15  1  0.99513409  0.00271035  0.85450005  1
  C  C16  1  0.00573520  0.00091632  0.64763315  1
  C  C17  1  0.67038307  0.32728188  0.68437324  1
  C  C18  1  0.66622395  0.33035417  0.18653148  1
  C  C19  1  0.32917079  0.66681707  0.01411632  1
  C  C20  1  0.33045128  0.66578810  0.51902564  1
  Cu  Cu21  1  0.99376092  0.99518026  0.34965883  1
  Cu  Cu22  1  0.99941200  0.99741047  0.15245409  1
  Cu  Cu23  1  0.67127023  0.34066896  0.97928265  1
  Cu  Cu24  1  0.66057753  0.33904136  0.48308290  1
  Cu  Cu25  1  0.34237079  0.66642472  0.31533508  1
  Cu  Cu26  1  0.33155178  0.66538253  0.81709704  1
  C  C27  1  0.70391513  0.99846632  0.74948581  1
  C  C28  1  0.37104841  0.04005602  0.58088078  1
  C  C29  1  0.95966979  0.62812941  0.08344247  1
  C  C30  1  0.29221500  0.99789286  0.25140468  1
  C  C31  1  0.70522912  0.70786714  0.24910403  1
  C  C32  1  0.00231812  0.29544206  0.25051203  1
  C  C33  1  0.29206709  0.29437808  0.75064997  1
  C  C34  1  0.00097726  0.70891776  0.75131282  1
  C  C35  1  0.95886341  0.33323810  0.58068573  1
  C  C36  1  0.66701303  0.62661386  0.58385900  1
  C  C37  1  0.66785664  0.04274409  0.08205308  1
  C  C38  1  0.37547721  0.33229013  0.08240853  1
  C  C39  1  0.62644356  0.66343190  0.91557548  1
  C  C40  1  0.03726378  0.37308190  0.91602171  1
  C  C41  1  0.33624604  0.96589939  0.91490709  1
  C  C42  1  0.62827635  0.96076068  0.41666059  1
  C  C43  1  0.33320120  0.37290371  0.41517430  1
  C  C44  1  0.04038936  0.66612038  0.41416428  1
  C  C45  1  0.20727605  0.02206763  0.30583866  1
  C  C46  1  0.82467986  0.79400077  0.30123881  1
  C  C47  1  0.97845604  0.18668701  0.30495255  1
  C  C48  1  0.20905616  0.17499690  0.80324032  1
  C  C49  1  0.97198015  0.79633282  0.80415189  1
  C  C50  1  0.82835314  0.02394130  0.80440060  1
  C  C51  1  0.79041649  0.96807983  0.69126823  1
  C  C52  1  0.18215535  0.20521873  0.69643395  1
  C  C53  1  0.03133768  0.82386694  0.69704689  1
  C  C54  1  0.78668000  0.80989493  0.19263223  1
  C  C55  1  0.02087988  0.21088208  0.19470380  1
  C  C56  1  0.18297621  0.97261714  0.19593710  1
  C  C57  1  0.87346784  0.35994971  0.63518044  1
  C  C58  1  0.49131877  0.12652523  0.63929329  1
  C  C59  1  0.64456752  0.52331017  0.64012549  1
  C  C60  1  0.87582719  0.50752022  0.14187393  1
  C  C61  1  0.63163859  0.12261203  0.13646154  1
  C  C62  1  0.49008975  0.36310993  0.13671152  1
  C  C63  1  0.45556193  0.29723831  0.02995963  1
  C  C64  1  0.83218778  0.53463557  0.02988128  1
  C  C65  1  0.69665642  0.15622097  0.02972822  1
  C  C66  1  0.46207293  0.15116272  0.52317156  1
  C  C67  1  0.69273977  0.54018645  0.53100091  1
  C  C68  1  0.85016236  0.30485241  0.52619792  1
  C  C69  1  0.54129810  0.68802685  0.97163178  1
  C  C70  1  0.14494934  0.45615111  0.97296037  1
  C  C71  1  0.31159499  0.85289267  0.97085436  1
  C  C72  1  0.54413039  0.85308801  0.47248561  1
  C  C73  1  0.30540781  0.45982700  0.46919550  1
  C  C74  1  0.15845063  0.69354010  0.46783213  1
  C  C75  1  0.12320511  0.63837610  0.35961251  1
  C  C76  1  0.50905582  0.87053367  0.36497249  1
  C  C77  1  0.35517471  0.48446444  0.36214712  1
  C  C78  1  0.13082885  0.48532537  0.86399606  1
  C  C79  1  0.35407445  0.87524562  0.86102067  1
  C  C80  1  0.52040187  0.64687266  0.86130496  1
  C  C81  1  0.03177290  0.83300831  0.41037817  1
  C  C82  1  0.81000971  0.98592948  0.41069167  1
  C  C83  1  0.16921860  0.19284850  0.41055022  1
  C  C84  1  0.02704466  0.19605408  0.91248712  1
  C  C85  1  0.17099681  0.97685816  0.91130352  1
  C  C86  1  0.80563236  0.82722758  0.91200535  1
  C  C87  1  0.96752387  0.16716739  0.58924103  1
  C  C88  1  0.18189948  0.01715710  0.58768690  1
  C  C89  1  0.82248352  0.81114037  0.58870407  1
  C  C90  1  0.98476693  0.82061002  0.08993083  1
  C  C91  1  0.82733293  0.02322700  0.09061911  1
  C  C92  1  0.19315473  0.17742238  0.09095977  1
  C  C93  1  0.67801397  0.16657975  0.74626129  1
  C  C94  1  0.47296391  0.31345511  0.74325427  1
  C  C95  1  0.83420855  0.53578818  0.74371368  1
  C  C96  1  0.69529652  0.52941554  0.24386347  1
  C  C97  1  0.83956463  0.31611848  0.24543037  1
  C  C98  1  0.47114326  0.15836543  0.24432622  1
  C  C99  1  0.64214583  0.50299792  0.92111998  1
  C  C100  1  0.86011353  0.35301787  0.92217765  1
  C  C101  1  0.49564195  0.14033759  0.92250647  1
  C  C102  1  0.64655546  0.14163740  0.42154957  1
  C  C103  1  0.48927527  0.34704546  0.42037686  1
  C  C104  1  0.86640945  0.50221029  0.42241746  1
  C  C105  1  0.36062162  0.49753191  0.07670896  1
  C  C106  1  0.15153920  0.64659544  0.07745750  1
  C  C107  1  0.50743383  0.85954279  0.07663283  1
  C  C108  1  0.36562057  0.85438985  0.57694545  1
  C  C109  1  0.50807060  0.64917755  0.57683745  1
  C  C110  1  0.13902531  0.49079121  0.57637681  1
  C  C111  1  0.30222139  0.83178772  0.25625315  1
  C  C112  1  0.52773721  0.68758068  0.25571347  1
  C  C113  1  0.15629174  0.47952177  0.25533907  1
  C  C114  1  0.31736959  0.47466447  0.75625608  1
  C  C115  1  0.16200658  0.69433910  0.75674593  1
  C  C116  1  0.51442827  0.82833752  0.75550997  1
