# generated using pymatgen
data_Cu4NiC14
_symmetry_space_group_name_H-M   'P 1'
_cell_length_a   5.73585398
_cell_length_b   7.91578440
_cell_length_c   5.90999909
_cell_angle_alpha   68.88643617
_cell_angle_beta   89.97347025
_cell_angle_gamma   68.74679156
_symmetry_Int_Tables_number   1
_chemical_formula_structural   Cu4NiC14
_chemical_formula_sum   'Cu4 Ni1 C14'
_cell_volume   230.67011239
_cell_formula_units_Z   1
loop_
 _symmetry_equiv_pos_site_id
 _symmetry_equiv_pos_as_xyz
  1  'x, y, z'
loop_
 _atom_site_type_symbol
 _atom_site_label
 _atom_site_symmetry_multiplicity
 _atom_site_fract_x
 _atom_site_fract_y
 _atom_site_fract_z
 _atom_site_occupancy
  C  C0  1  0.56972032  0.58328597  0.38271365  1
  C  C1  1  0.90994651  0.19280339  0.43887032  1
  C  C2  1  0.15116015  0.41924509  0.61549789  1
  C  C3  1  0.10346804  0.80753025  0.56149296  1
  Ni  Ni4  1  0.54875834  0.00074909  0.99958098  1
  Cu  Cu5  1  0.03934337  -0.00014203  -0.00004687  1
  Cu  Cu6  1  0.18898493  0.50104678  0.11969823  1
  Cu  Cu7  1  0.53503359  -0.00040556  0.50031039  1
  Cu  Cu8  1  0.69054325  0.49860780  0.88041929  1
  C  C9  1  0.77953108  0.02506169  0.22703490  1
  C  C10  1  0.30044540  0.00479706  0.23900547  1
  C  C11  1  0.86273655  0.48980521  0.15847180  1
  C  C12  1  0.17395454  0.71218667  0.19889594  1
  C  C13  1  0.42240900  0.29058954  0.38666499  1
  C  C14  1  0.88713122  0.28726125  0.80145923  1
  C  C15  1  0.71455317  0.70881908  0.61353307  1
  C  C16  1  0.35272980  0.50997517  0.84174122  1
  C  C17  1  0.30563605  0.99393591  0.76181673  1
  C  C18  1  0.80441670  0.97484864  0.77283982  1
