# generated using pymatgen
data_CuNiC10
_symmetry_space_group_name_H-M   'P 1'
_cell_length_a   8.91098048
_cell_length_b   8.90639285
_cell_length_c   23.13576285
_cell_angle_alpha   90.63301253
_cell_angle_beta   90.10439103
_cell_angle_gamma   119.88771851
_symmetry_Int_Tables_number   1
_chemical_formula_structural   CuNiC10
_chemical_formula_sum   'Cu9 Ni9 C90'
_cell_volume   1591.80563396
_cell_formula_units_Z   9
loop_
 _symmetry_equiv_pos_site_id
 _symmetry_equiv_pos_as_xyz
  1  'x, y, z'
loop_
 _atom_site_type_symbol
 _atom_site_label
 _atom_site_symmetry_multiplicity
 _atom_site_fract_x
 _atom_site_fract_y
 _atom_site_fract_z
 _atom_site_occupancy
  C  C0  1  0.98924465  0.98676220  0.49245966  1
  C  C1  1  0.00718084  0.99347360  0.99803185  1
  C  C2  1  0.65504039  0.32023067  0.82602998  1
  C  C3  1  0.66694135  0.32108545  0.32874859  1
  C  C4  1  0.31974920  0.66147290  0.16845128  1
  C  C5  1  0.34347560  0.66308694  0.66026778  1
  C  C6  1  0.99985785  0.00421410  0.35428661  1
  C  C7  1  0.01273487  0.01109878  0.85095437  1
  C  C8  1  0.65265817  0.33297723  0.68730911  1
  C  C9  1  0.68211598  0.33499234  0.19003279  1
  C  C10  1  0.32090015  0.67500294  0.02036101  1
  C  C11  1  0.34779169  0.67942826  0.51744459  1
  C  C12  1  0.98872940  0.00434726  0.64549357  1
  C  C13  1  0.00726427  0.99431327  0.15169073  1
  C  C14  1  0.66689697  0.33596692  0.97988395  1
  C  C15  1  0.67587597  0.34624428  0.47455011  1
  C  C16  1  0.31811528  0.67635674  0.31278930  1
  C  C17  1  0.34598826  0.68209909  0.80774524  1
  Ni  Ni18  1  0.29857397  0.00963055  0.25374745  1
  Ni  Ni19  1  0.00415313  0.29142117  0.25240331  1
  Ni  Ni20  1  0.29011593  0.28813650  0.75106612  1
  Ni  Ni21  1  0.71991309  0.01327867  0.75241332  1
  Ni  Ni22  1  0.66113699  0.62065000  0.58495842  1
  Ni  Ni23  1  0.95845950  0.62743148  0.08545980  1
  Ni  Ni24  1  0.32746224  0.95654500  0.91784144  1
  Ni  Ni25  1  0.62601369  0.95518221  0.41770875  1
  Ni  Ni26  1  0.04937779  0.67766164  0.41996944  1
  Cu  Cu27  1  0.70855555  0.71070819  0.25030292  1
  Cu  Cu28  1  0.99993008  0.71157976  0.75000228  1
  Cu  Cu29  1  0.95516368  0.33574075  0.58375857  1
  Cu  Cu30  1  0.37495127  0.04402373  0.58349977  1
  Cu  Cu31  1  0.66882408  0.04426774  0.08279660  1
  Cu  Cu32  1  0.37723246  0.33370843  0.08349312  1
  Cu  Cu33  1  0.62121627  0.66647082  0.91760949  1
  Cu  Cu34  1  0.04346424  0.37799153  0.91723461  1
  Cu  Cu35  1  0.33353720  0.37907543  0.41708264  1
  C  C36  1  0.20084754  0.02564755  0.30770397  1
  C  C37  1  0.81406125  0.78810064  0.30149113  1
  C  C38  1  0.97161856  0.17140514  0.30627063  1
  C  C39  1  0.20444308  0.17442016  0.80712806  1
  C  C40  1  0.97541586  0.78802015  0.80276845  1
  C  C41  1  0.82278414  0.02032990  0.80909206  1
  C  C42  1  0.80323164  0.96888725  0.69324031  1
  C  C43  1  0.16428679  0.19261283  0.69312819  1
  C  C44  1  0.03244545  0.82024807  0.69816553  1
  C  C45  1  0.79486188  0.82189381  0.19665716  1
  C  C46  1  0.02590995  0.18921352  0.19196668  1
  C  C47  1  0.16716491  0.96620795  0.19316095  1
  C  C48  1  0.87422203  0.35395263  0.63581868  1
  C  C49  1  0.48001995  0.12190503  0.63592876  1
  C  C50  1  0.64832526  0.50996292  0.64050053  1
  C  C51  1  0.86072793  0.50771819  0.13837121  1
  C  C52  1  0.63807636  0.12090471  0.13397934  1
  C  C53  1  0.48061173  0.35615250  0.13454067  1
  C  C54  1  0.46075959  0.30410746  0.02948152  1
  C  C55  1  0.83057337  0.52333783  0.02611950  1
  C  C56  1  0.68976501  0.15503839  0.02997798  1
  C  C57  1  0.45539714  0.15009773  0.53179730  1
  C  C58  1  0.69150592  0.52354197  0.52697464  1
  C  C59  1  0.84585341  0.30211718  0.53078002  1
  C  C60  1  0.53875543  0.68542063  0.96933981  1
  C  C61  1  0.14759498  0.45684003  0.96961626  1
  C  C62  1  0.31217414  0.84284198  0.97290883  1
  C  C63  1  0.53835645  0.84146099  0.47357738  1
  C  C64  1  0.31199993  0.45781782  0.46976692  1
  C  C65  1  0.15658514  0.68637349  0.47572230  1
  C  C66  1  0.13124683  0.63395720  0.35991624  1
  C  C67  1  0.49720080  0.85759831  0.35979712  1
  C  C68  1  0.36566978  0.48539824  0.36489735  1
  C  C69  1  0.11941112  0.48363592  0.86549699  1
  C  C70  1  0.35959298  0.85878569  0.86024503  1
  C  C71  1  0.51152128  0.63410255  0.86422720  1
  C  C72  1  0.01701246  0.83507205  0.41090631  1
  C  C73  1  0.81871366  0.98896934  0.41076052  1
  C  C74  1  0.18531235  0.20478358  0.41163532  1
  C  C75  1  0.01533249  0.20143671  0.91222701  1
  C  C76  1  0.16109936  0.98008653  0.91226762  1
  C  C77  1  0.79479548  0.81460724  0.91090814  1
  C  C78  1  0.96994563  0.17057494  0.58854107  1
  C  C79  1  0.19908950  0.02868677  0.59038792  1
  C  C80  1  0.84675614  0.81635043  0.59259243  1
  C  C81  1  0.96954701  0.81992856  0.08905237  1
  C  C82  1  0.82909887  0.03323816  0.08639952  1
  C  C83  1  0.20183703  0.17312997  0.08654252  1
  C  C84  1  0.69033179  0.17208598  0.74227434  1
  C  C85  1  0.48354886  0.32219903  0.74489756  1
  C  C86  1  0.85379924  0.53626970  0.74287042  1
  C  C87  1  0.68762372  0.53821705  0.24115288  1
  C  C88  1  0.84131598  0.32133340  0.24343730  1
  C  C89  1  0.48259611  0.17248172  0.24010916  1
  C  C90  1  0.63502595  0.50207002  0.92310665  1
  C  C91  1  0.86429543  0.36117293  0.92466418  1
  C  C92  1  0.50951887  0.15111331  0.92699416  1
  C  C93  1  0.63302839  0.14641832  0.42773884  1
  C  C94  1  0.49496186  0.36037485  0.42343521  1
  C  C95  1  0.85353500  0.49185580  0.42510685  1
  C  C96  1  0.35890485  0.48628554  0.07384746  1
  C  C97  1  0.14849482  0.64805117  0.07748984  1
  C  C98  1  0.51922414  0.86915687  0.07449597  1
  C  C99  1  0.35007668  0.86795428  0.57857801  1
  C  C100  1  0.49657862  0.64765028  0.57935004  1
  C  C101  1  0.12934270  0.48272303  0.57752726  1
  C  C102  1  0.30911101  0.82690501  0.25553719  1
  C  C103  1  0.53679675  0.69803785  0.25325258  1
  C  C104  1  0.18704560  0.48010493  0.25715092  1
  C  C105  1  0.30030381  0.48102061  0.76157656  1
  C  C106  1  0.16223949  0.69515391  0.75662865  1
  C  C107  1  0.52210066  0.82778716  0.75812396  1
