# generated using pymatgen
data_Cu3Ni2C15
_symmetry_space_group_name_H-M   'P 1'
_cell_length_a   9.75635833
_cell_length_b   9.75635833
_cell_length_c   9.75635799
_cell_angle_alpha   54.45921640
_cell_angle_beta   54.45921640
_cell_angle_gamma   54.45921978
_symmetry_Int_Tables_number   1
_chemical_formula_structural   Cu3Ni2C15
_chemical_formula_sum   'Cu6 Ni4 C30'
_cell_volume   571.83283418
_cell_formula_units_Z   2
loop_
 _symmetry_equiv_pos_site_id
 _symmetry_equiv_pos_as_xyz
  1  'x, y, z'
loop_
 _atom_site_type_symbol
 _atom_site_label
 _atom_site_symmetry_multiplicity
 _atom_site_fract_x
 _atom_site_fract_y
 _atom_site_fract_z
 _atom_site_occupancy
  C  C0  1  0.33325900  0.06480200  0.73715500  1
  C  C1  1  0.66674100  0.93519800  0.26284500  1
  C  C2  1  0.26284500  0.66674100  0.93519800  1
  C  C3  1  0.93519800  0.26284600  0.66674100  1
  C  C4  1  0.06480200  0.73715500  0.33325900  1
  C  C5  1  0.73715500  0.33325900  0.06480200  1
  Ni  Ni6  1  0.65540100  0.65540100  0.65540100  1
  Ni  Ni7  1  0.15233800  0.15233800  0.15233800  1
  Ni  Ni8  1  0.84766200  0.84766200  0.84766200  1
  Ni  Ni9  1  0.34459900  0.34459900  0.34459900  1
  Cu  Cu10  1  0.95002000  0.56227900  0.25198200  1
  Cu  Cu11  1  0.43772100  0.74801800  0.04998000  1
  Cu  Cu12  1  0.56227900  0.25198200  0.95002000  1
  Cu  Cu13  1  0.04998000  0.43772100  0.74801800  1
  Cu  Cu14  1  0.74801800  0.04998000  0.43772100  1
  Cu  Cu15  1  0.25198200  0.95002000  0.56227900  1
  C  C16  1  0.85655000  0.49520500  0.46374400  1
  C  C17  1  0.46374400  0.85655000  0.49520500  1
  C  C18  1  0.16075700  0.82425700  0.74784800  1
  C  C19  1  0.20007000  0.12212600  0.58936000  1
  C  C20  1  0.79993000  0.87787400  0.41064000  1
  C  C21  1  0.83924300  0.17574300  0.25215200  1
  C  C22  1  0.53625600  0.14345000  0.50479500  1
  C  C23  1  0.87787400  0.41064000  0.79993000  1
  C  C24  1  0.01062300  0.42066300  0.18499700  1
  C  C25  1  0.41064000  0.79993000  0.87787400  1
  C  C26  1  0.81500300  0.98937700  0.57933700  1
  C  C27  1  0.98937700  0.57933700  0.81500300  1
  C  C28  1  0.50479500  0.53625600  0.14345000  1
  C  C29  1  0.25215200  0.83924300  0.17574300  1
  C  C30  1  0.17574300  0.25215200  0.83924300  1
  C  C31  1  0.57933700  0.81500300  0.98937700  1
  C  C32  1  0.42066300  0.18499700  0.01062300  1
  C  C33  1  0.14345000  0.50479500  0.53625600  1
  C  C34  1  0.74784800  0.16075700  0.82425700  1
  C  C35  1  0.49520500  0.46374400  0.85655000  1
  C  C36  1  0.82425700  0.74784800  0.16075700  1
  C  C37  1  0.18499700  0.01062300  0.42066300  1
  C  C38  1  0.58936000  0.20007000  0.12212600  1
  C  C39  1  0.12212600  0.58936000  0.20007000  1
