# generated using pymatgen
data_Cu(NiC18)2
_symmetry_space_group_name_H-M   'P 1'
_cell_length_a   8.92650783
_cell_length_b   8.91401432
_cell_length_c   22.46563534
_cell_angle_alpha   90.00248305
_cell_angle_beta   89.89134562
_cell_angle_gamma   119.89117856
_symmetry_Int_Tables_number   1
_chemical_formula_structural   Cu(NiC18)2
_chemical_formula_sum   'Cu3 Ni6 C108'
_cell_volume   1549.80987640
_cell_formula_units_Z   3
loop_
 _symmetry_equiv_pos_site_id
 _symmetry_equiv_pos_as_xyz
  1  'x, y, z'
loop_
 _atom_site_type_symbol
 _atom_site_label
 _atom_site_symmetry_multiplicity
 _atom_site_fract_x
 _atom_site_fract_y
 _atom_site_fract_z
 _atom_site_occupancy
  C  C0  1  0.00255249  0.63393759  0.25338071  1
  C  C1  1  0.63247695  0.64112425  0.75362774  1
  C  C2  1  0.36270695  0.99520038  0.75490854  1
  C  C3  1  0.66330088  0.96816964  0.58490270  1
  C  C4  1  0.29614104  0.96963532  0.08494321  1
  C  C5  1  0.67483680  0.70029075  0.08309133  1
  C  C6  1  0.02899683  0.33143553  0.08640338  1
  C  C7  1  0.96701126  0.29958985  0.41471319  1
  C  C8  1  0.33668687  0.03417247  0.41727300  1
  C  C9  1  0.00214118  0.98688426  0.49747502  1
  C  C10  1  0.00067288  0.99638134  0.99967487  1
  C  C11  1  0.67858422  0.33008225  0.84067972  1
  C  C12  1  0.65609926  0.33580233  0.33712945  1
  C  C13  1  0.34259518  0.66740596  0.17497578  1
  C  C14  1  0.31416774  0.65151060  0.67016825  1
  C  C15  1  0.99646947  0.00310003  0.85662814  1
  C  C16  1  0.00559181  0.00115744  0.64645789  1
  C  C17  1  0.66866646  0.32858665  0.68587169  1
  C  C18  1  0.66494617  0.32997830  0.19011388  1
  C  C19  1  0.33038530  0.66752038  0.01613071  1
  C  C20  1  0.33251741  0.66614182  0.51754110  1
  Ni  Ni21  1  0.99532942  0.99648286  0.34952681  1
  Ni  Ni22  1  0.99728179  0.99403811  0.15300025  1
  Ni  Ni23  1  0.67227710  0.34207294  0.97976056  1
  Ni  Ni24  1  0.66178453  0.33953216  0.48170953  1
  Ni  Ni25  1  0.34101985  0.66593278  0.31549327  1
  Ni  Ni26  1  0.33416691  0.66829499  0.81899751  1
  Cu  Cu27  1  0.69668359  0.99274820  0.75079024  1
  Cu  Cu28  1  0.37478443  0.04623681  0.57821843  1
  Cu  Cu29  1  0.95381157  0.62862435  0.08407428  1
  C  C30  1  0.28425575  0.99242433  0.25321391  1
  C  C31  1  0.70693360  0.71845623  0.25110774  1
  C  C32  1  0.00966512  0.28974969  0.25149726  1
  C  C33  1  0.29030984  0.30116850  0.75193423  1
  C  C34  1  0.00689423  0.70622319  0.75287350  1
  C  C35  1  0.95497687  0.33354262  0.57812135  1
  C  C36  1  0.66883982  0.62198566  0.58110296  1
  C  C37  1  0.67381721  0.04810327  0.08167359  1
  C  C38  1  0.37442467  0.32654276  0.08226228  1
  C  C39  1  0.62352212  0.65433574  0.91564984  1
  C  C40  1  0.03518700  0.38059894  0.91586535  1
  C  C41  1  0.34693539  0.97295235  0.91566341  1
  C  C42  1  0.63084368  0.96078351  0.41312817  1
  C  C43  1  0.33524526  0.37228080  0.41203557  1
  C  C44  1  0.03357543  0.66513342  0.41235027  1
  C  C45  1  0.20049314  0.01907487  0.30920018  1
  C  C46  1  0.83106762  0.80201366  0.30373837  1
  C  C47  1  0.98283240  0.18219234  0.30808186  1
  C  C48  1  0.21087333  0.17750495  0.80511110  1
  C  C49  1  0.97695080  0.79514508  0.80648316  1
  C  C50  1  0.82492506  0.02025786  0.80577726  1
  C  C51  1  0.78196659  0.96254378  0.68996906  1
  C  C52  1  0.18232422  0.21230383  0.69551728  1
  C  C53  1  0.03807817  0.82300513  0.69693243  1
  C  C54  1  0.78406359  0.81758030  0.19150518  1
  C  C55  1  0.02766925  0.20487709  0.19327278  1
  C  C56  1  0.17461717  0.96373683  0.19552417  1
  C  C57  1  0.87117563  0.35818858  0.63477356  1
  C  C58  1  0.48898921  0.12981402  0.63898909  1
  C  C59  1  0.64762989  0.52476053  0.64021676  1
  C  C60  1  0.87521958  0.50837623  0.14421900  1
  C  C61  1  0.63255623  0.12402762  0.13753979  1
  C  C62  1  0.48958965  0.36052909  0.13798292  1
  C  C63  1  0.45444466  0.28949413  0.02783795  1
  C  C64  1  0.82439635  0.53717830  0.02849825  1
  C  C65  1  0.70347023  0.16282160  0.02731069  1
  C  C66  1  0.46845254  0.15621658  0.51866075  1
  C  C67  1  0.69541542  0.53570505  0.52661442  1
  C  C68  1  0.84605370  0.30791442  0.52181510  1
  C  C69  1  0.53936563  0.68000570  0.97296805  1
  C  C70  1  0.13932518  0.45899101  0.97483911  1
  C  C71  1  0.31929383  0.85951724  0.97266295  1
  C  C72  1  0.55226011  0.85610687  0.47174273  1
  C  C73  1  0.30189538  0.45478093  0.46787445  1
  C  C74  1  0.15672007  0.69872646  0.46640990  1
  C  C75  1  0.11620862  0.62920672  0.35671036  1
  C  C76  1  0.50251293  0.86938745  0.36160281  1
  C  C77  1  0.35973030  0.48637354  0.35748091  1
  C  C78  1  0.13311139  0.49564219  0.86255430  1
  C  C79  1  0.36437554  0.88090382  0.85975495  1
  C  C80  1  0.51603518  0.63970269  0.85975693  1
  C  C81  1  0.02255161  0.83326553  0.40774604  1
  C  C82  1  0.81529444  0.98444470  0.40705263  1
  C  C83  1  0.16913599  0.18761884  0.40823854  1
  C  C84  1  0.02194373  0.19993098  0.91291138  1
  C  C85  1  0.18140589  0.98787849  0.91318239  1
  C  C86  1  0.80614009  0.81893386  0.91341215  1
  C  C87  1  0.96450603  0.16524607  0.58539105  1
  C  C88  1  0.18258515  0.02160701  0.58434877  1
  C  C89  1  0.82573770  0.80885900  0.58535574  1
  C  C90  1  0.97907104  0.82448303  0.09194195  1
  C  C91  1  0.83688263  0.02975137  0.09016564  1
  C  C92  1  0.18940291  0.16909068  0.09108101  1
  C  C93  1  0.67026349  0.16189953  0.74835319  1
  C  C94  1  0.47499429  0.32379796  0.74463873  1
  C  C95  1  0.83832252  0.53121067  0.74577792  1
  C  C96  1  0.69188735  0.53440423  0.24633640  1
  C  C97  1  0.84535730  0.31303217  0.24741750  1
  C  C98  1  0.46678071  0.15429509  0.24740788  1
  C  C99  1  0.63719336  0.48998603  0.92080556  1
  C  C100  1  0.85539161  0.36134883  0.92163310  1
  C  C101  1  0.51065663  0.14964711  0.92287543  1
  C  C102  1  0.65066436  0.14525999  0.41784822  1
  C  C103  1  0.49566826  0.34881896  0.41880731  1
  C  C104  1  0.85530512  0.49883778  0.42155420  1
  C  C105  1  0.35841320  0.49347861  0.07744832  1
  C  C106  1  0.14971767  0.65143318  0.07889766  1
  C  C107  1  0.51313398  0.86151526  0.07697438  1
  C  C108  1  0.36270800  0.85543130  0.57594638  1
  C  C109  1  0.50684836  0.64396376  0.57589657  1
  C  C110  1  0.13825132  0.49086848  0.57491980  1
  C  C111  1  0.30019844  0.82598692  0.25785813  1
  C  C112  1  0.52566166  0.69745431  0.25780032  1
  C  C113  1  0.16760472  0.47698069  0.25510402  1
  C  C114  1  0.31019949  0.48102288  0.75862887  1
  C  C115  1  0.16851072  0.68865600  0.75884988  1
  C  C116  1  0.50544328  0.81936880  0.75798974  1
