# generated using pymatgen
data_CuNi2C15
_symmetry_space_group_name_H-M   'P 1'
_cell_length_a   8.30027813
_cell_length_b   8.30049358
_cell_length_c   21.70995186
_cell_angle_alpha   89.99878290
_cell_angle_beta   89.99998854
_cell_angle_gamma   119.99915464
_symmetry_Int_Tables_number   1
_chemical_formula_structural   CuNi2C15
_chemical_formula_sum   'Cu6 Ni12 C90'
_cell_volume   1295.35783068
_cell_formula_units_Z   6
loop_
 _symmetry_equiv_pos_site_id
 _symmetry_equiv_pos_as_xyz
  1  'x, y, z'
loop_
 _atom_site_type_symbol
 _atom_site_label
 _atom_site_symmetry_multiplicity
 _atom_site_fract_x
 _atom_site_fract_y
 _atom_site_fract_z
 _atom_site_occupancy
  C  C0  1  0.99214788  0.99489779  0.49995913  1
  C  C1  1  0.00275006  0.99489680  0.99995927  1
  C  C2  1  0.66362953  0.32544110  0.83334428  1
  C  C3  1  0.66181260  0.32544132  0.33334421  1
  C  C4  1  0.32795456  0.66925961  0.16669230  1
  C  C5  1  0.34130432  0.66926006  0.66669226  1
  Ni  Ni6  1  0.00136225  0.00167285  0.35260144  1
  Ni  Ni7  1  0.00031045  0.00167286  0.85260146  1
  Ni  Ni8  1  0.98538803  0.99034638  0.64705937  1
  Ni  Ni9  1  0.00495843  0.99034641  0.14705937  1
  Ni  Ni10  1  0.66542640  0.33252481  0.68608872  1
  Ni  Ni11  1  0.66709943  0.33252478  0.18608871  1
  Ni  Ni12  1  0.66632263  0.33393728  0.98064363  1
  Ni  Ni13  1  0.66761551  0.33393721  0.48064366  1
  Ni  Ni14  1  0.32297344  0.67181246  0.01946199  1
  Ni  Ni15  1  0.34883815  0.67181245  0.51946200  1
  Ni  Ni16  1  0.33826802  0.68166427  0.31400402  1
  Ni  Ni17  1  0.34339532  0.68166433  0.81400404  1
  Cu  Cu18  1  0.28933716  0.00201180  0.25036909  1
  Cu  Cu19  1  0.71267442  0.00201131  0.75036917  1
  Cu  Cu20  1  0.66668633  0.61814496  0.58336203  1
  Cu  Cu21  1  0.95145862  0.61814517  0.08336208  1
  Cu  Cu22  1  0.33326367  0.95845787  0.91669340  1
  Cu  Cu23  1  0.62519363  0.95845714  0.41669339  1
  C  C24  1  0.71135532  0.71151595  0.24997185  1
  C  C25  1  0.00153427  0.28821114  0.24963002  1
  C  C26  1  0.28667738  0.28821126  0.74963000  1
  C  C27  1  0.00016045  0.71151621  0.74997186  1
  C  C28  1  0.95709942  0.33515228  0.58316472  1
  C  C29  1  0.37634973  0.04468209  0.58355223  1
  C  C30  1  0.66833230  0.04468183  0.08355219  1
  C  C31  1  0.37805345  0.33515282  0.08316466  1
  C  C32  1  0.61962622  0.66639801  0.91719518  1
  C  C33  1  0.04708028  0.38006649  0.91617587  1
  C  C34  1  0.33298665  0.38006685  0.41617588  1
  C  C35  1  0.04677150  0.66639832  0.41719512  1
  C  C36  1  0.20199383  0.03538625  0.30798161  1
  C  C37  1  0.82597538  0.79230868  0.30561942  1
  C  C38  1  0.96544087  0.17318268  0.30548266  1
  C  C39  1  0.20774186  0.17318255  0.80548267  1
  C  C40  1  0.96633334  0.79230883  0.80561949  1
  C  C41  1  0.83339254  0.03538634  0.80798171  1
  C  C42  1  0.79759419  0.96690596  0.69288487  1
  C  C43  1  0.17364990  0.20570174  0.69388235  1
  C  C44  1  0.03772381  0.82777582  0.69456097  1
  C  C45  1  0.79005177  0.82777571  0.19456104  1
  C  C46  1  0.03205173  0.20570178  0.19388238  1
  C  C47  1  0.16931195  0.96690610  0.19288487  1
  C  C48  1  0.87582671  0.36765017  0.63888508  1
  C  C49  1  0.49291746  0.12383141  0.63894406  1
  C  C50  1  0.63339880  0.49849263  0.64113692  1
  C  C51  1  0.86509470  0.49849246  0.14113703  1
  C  C52  1  0.63091502  0.12383135  0.13894397  1
  C  C53  1  0.49182416  0.36765014  0.13888491  1
  C  C54  1  0.45727060  0.29765842  0.02774593  1
  C  C55  1  0.83186310  0.53188148  0.02548911  1
  C  C56  1  0.70106245  0.15856365  0.02778176  1
  C  C57  1  0.45750216  0.15856377  0.52778167  1
  C  C58  1  0.70001920  0.53188159  0.52548920  1
  C  C59  1  0.84038824  0.29765825  0.52774572  1
  C  C60  1  0.53764306  0.69804763  0.97281032  1
  C  C61  1  0.16171139  0.45843704  0.97199620  1
  C  C62  1  0.29816145  0.83741116  0.97395817  1
  C  C63  1  0.53924899  0.83741149  0.47395804  1
  C  C64  1  0.29672481  0.45843722  0.47199622  1
  C  C65  1  0.16040369  0.69804770  0.47281036  1
  C  C66  1  0.12508378  0.63001591  0.36130009  1
  C  C67  1  0.50408442  0.87248228  0.35943657  1
  C  C68  1  0.36471666  0.49376183  0.36047413  1
  C  C69  1  0.12904428  0.49376195  0.86047416  1
  C  C70  1  0.36839708  0.87248218  0.85943645  1
  C  C71  1  0.50493118  0.63001588  0.86130007  1
  C  C72  1  0.02751033  0.83335187  0.40957075  1
  C  C73  1  0.81859214  0.97777345  0.40729095  1
  C  C74  1  0.16683279  0.19285669  0.40951185  1
  C  C75  1  0.02602398  0.19285700  0.90951188  1
  C  C76  1  0.15918062  0.97777375  0.90729087  1
  C  C77  1  0.80584159  0.83335202  0.90957079  1
  C  C78  1  0.97920824  0.16994580  0.59067861  1
  C  C79  1  0.19189937  0.02820399  0.59185664  1
  C  C80  1  0.84079454  0.81263565  0.59061219  1
  C  C81  1  0.97184094  0.81263551  0.09061225  1
  C  C82  1  0.83630476  0.02820377  0.09185657  1
  C  C83  1  0.19073800  0.16994610  0.09067861  1
  C  C84  1  0.69100490  0.17485608  0.74110795  1
  C  C85  1  0.47360437  0.30823779  0.74281810  1
  C  C86  1  0.83262054  0.52615853  0.74256944  1
  C  C87  1  0.69353892  0.52615911  0.24256946  1
  C  C88  1  0.83463393  0.30823785  0.24281805  1
  C  C89  1  0.48385173  0.17485578  0.24110792  1
  C  C90  1  0.64067867  0.50018910  0.92385379  1
  C  C91  1  0.86086726  0.36081418  0.92367496  1
  C  C92  1  0.50750151  0.15185038  0.92606176  1
  C  C93  1  0.64434968  0.15185049  0.42606180  1
  C  C94  1  0.49994689  0.36081428  0.42367489  1
  C  C95  1  0.85951079  0.50018863  0.42385379  1
  C  C96  1  0.36152032  0.50298309  0.07482608  1
  C  C97  1  0.14590023  0.63848578  0.07609800  1
  C  C98  1  0.50328986  0.85743956  0.07591963  1
  C  C99  1  0.35414877  0.85743897  0.57591962  1
  C  C100  1  0.49258543  0.63848551  0.57609804  1
  C  C101  1  0.14146307  0.50298414  0.57482599  1
  C  C102  1  0.30723945  0.82663668  0.25771057  1
  C  C103  1  0.52382031  0.68845346  0.25743635  1
  C  C104  1  0.16877954  0.47343510  0.25806304  1
  C  C105  1  0.30465475  0.47343516  0.75806300  1
  C  C106  1  0.16463293  0.68845347  0.75743642  1
  C  C107  1  0.51939647  0.82663699  0.75771055  1
