# generated using pymatgen
data_Cu2NiC4
_symmetry_space_group_name_H-M   'P 1'
_cell_length_a   10.23261330
_cell_length_b   3.27220617
_cell_length_c   11.03263187
_cell_angle_alpha   63.60783841
_cell_angle_beta   29.98311624
_cell_angle_gamma   89.95310957
_symmetry_Int_Tables_number   1
_chemical_formula_structural   Cu2NiC4
_chemical_formula_sum   'Cu2 Ni1 C4'
_cell_volume   84.86975526
_cell_formula_units_Z   1
loop_
 _symmetry_equiv_pos_site_id
 _symmetry_equiv_pos_as_xyz
  1  'x, y, z'
loop_
 _atom_site_type_symbol
 _atom_site_label
 _atom_site_symmetry_multiplicity
 _atom_site_fract_x
 _atom_site_fract_y
 _atom_site_fract_z
 _atom_site_occupancy
  Ni  Ni0  1  0.05164414  0.89789194  0.73401361  1
  Cu  Cu1  1  0.33156708  0.40134764  0.72723011  1
  Cu  Cu2  1  0.50003324  0.53327486  0.98024310  1
  C  C3  1  0.62233172  0.26410432  0.48073031  1
  C  C4  1  0.88644997  0.74087611  0.50868133  1
  C  C5  1  0.13593786  0.32334214  0.45282472  1
  C  C6  1  0.35818099  0.74621097  0.50139783  1
