# generated using pymatgen
data_Cu2Ni2C13
_symmetry_space_group_name_H-M   'P 1'
_cell_length_a   8.30452947
_cell_length_b   8.32092566
_cell_length_c   21.58925747
_cell_angle_alpha   89.78848918
_cell_angle_beta   90.00000000
_cell_angle_gamma   119.93483857
_symmetry_Int_Tables_number   1
_chemical_formula_structural   Cu2Ni2C13
_chemical_formula_sum   'Cu12 Ni12 C78'
_cell_volume   1292.81343713
_cell_formula_units_Z   6
loop_
 _symmetry_equiv_pos_site_id
 _symmetry_equiv_pos_as_xyz
  1  'x, y, z'
loop_
 _atom_site_type_symbol
 _atom_site_label
 _atom_site_symmetry_multiplicity
 _atom_site_fract_x
 _atom_site_fract_y
 _atom_site_fract_z
 _atom_site_occupancy
  Ni  Ni0  1  0.99909027  0.00112314  0.35449063  1
  Ni  Ni1  1  0.00203287  0.00112314  0.85449063  1
  Ni  Ni2  1  0.99078450  0.00515067  0.64544916  1
  Ni  Ni3  1  0.01436617  0.00515067  0.14544916  1
  Ni  Ni4  1  0.66575727  0.33445614  0.68782363  1
  Ni  Ni5  1  0.66869987  0.33445614  0.18782363  1
  Ni  Ni6  1  0.65745150  0.33848367  0.97878216  1
  Ni  Ni7  1  0.68103317  0.33848367  0.47878216  1
  Ni  Ni8  1  0.33242327  0.66779014  0.02115763  1
  Ni  Ni9  1  0.33536587  0.66779014  0.52115763  1
  Ni  Ni10  1  0.32411750  0.67181767  0.31211616  1
  Ni  Ni11  1  0.34769917  0.67181767  0.81211616  1
  Cu  Cu12  1  0.29045591  0.00279828  0.25046214  1
  Cu  Cu13  1  0.00086267  0.28870843  0.24991843  1
  Cu  Cu14  1  0.28784576  0.28870843  0.74991843  1
  Cu  Cu15  1  0.71234237  0.00279828  0.75046214  1
  Cu  Cu16  1  0.95712291  0.33613128  0.58379514  1
  Cu  Cu17  1  0.66752967  0.62204143  0.58325143  1
  Cu  Cu18  1  0.95451276  0.62204143  0.08325143  1
  Cu  Cu19  1  0.37900937  0.33613128  0.08379514  1
  Cu  Cu20  1  0.62378891  0.66946528  0.91712914  1
  Cu  Cu21  1  0.33419567  0.95537543  0.91658543  1
  Cu  Cu22  1  0.62117876  0.95537543  0.41658543  1
  Cu  Cu23  1  0.04567537  0.66946528  0.41712914  1
  C  C24  1  0.70955193  0.71096520  0.24974760  1
  C  C25  1  0.00141327  0.71096520  0.74974760  1
  C  C26  1  0.37621893  0.04429820  0.58308060  1
  C  C27  1  0.66808027  0.04429820  0.08308060  1
  C  C28  1  0.04288493  0.37763220  0.91641460  1
  C  C29  1  0.33474627  0.37763220  0.41641460  1
  C  C30  1  0.20503583  0.03944887  0.30809703  1
  C  C31  1  0.82644027  0.78753024  0.30564073  1
  C  C32  1  0.96054596  0.16546329  0.30792401  1
  C  C33  1  0.20491733  0.16546329  0.80792401  1
  C  C34  1  0.96108997  0.78753024  0.80564073  1
  C  C35  1  0.83441304  0.03944887  0.80809703  1
  C  C36  1  0.79153335  0.95806677  0.69283257  1
  C  C37  1  0.16667673  0.20284972  0.69192618  1
  C  C38  1  0.03955529  0.82771662  0.69386264  1
  C  C39  1  0.78816133  0.82771662  0.19386264  1
  C  C40  1  0.03617299  0.20284972  0.19192618  1
  C  C41  1  0.16653342  0.95806677  0.19283257  1
  C  C42  1  0.87170283  0.37278187  0.64143003  1
  C  C43  1  0.49310727  0.12086324  0.63897373  1
  C  C44  1  0.62721296  0.49879629  0.64125701  1
  C  C45  1  0.87158433  0.49879629  0.14125701  1
  C  C46  1  0.62775697  0.12086324  0.13897373  1
  C  C47  1  0.50108004  0.37278187  0.14143003  1
  C  C48  1  0.45820035  0.29139977  0.02616557  1
  C  C49  1  0.83334373  0.53618272  0.02525918  1
  C  C50  1  0.70622229  0.16104962  0.02719564  1
  C  C51  1  0.45482833  0.16104962  0.52719564  1
  C  C52  1  0.70283999  0.53618272  0.52525918  1
  C  C53  1  0.83320042  0.29139977  0.52616557  1
  C  C54  1  0.53836883  0.70611587  0.97476403  1
  C  C55  1  0.15977327  0.45419724  0.97230773  1
  C  C56  1  0.29387896  0.83213029  0.97459101  1
  C  C57  1  0.53825033  0.83213029  0.47459101  1
  C  C58  1  0.29442297  0.45419724  0.47230773  1
  C  C59  1  0.16774604  0.70611587  0.47476403  1
  C  C60  1  0.12486635  0.62473377  0.35949957  1
  C  C61  1  0.50000973  0.86951672  0.35859318  1
  C  C62  1  0.37288829  0.49438362  0.36052964  1
  C  C63  1  0.12149433  0.49438362  0.86052964  1
  C  C64  1  0.36950599  0.86951672  0.85859318  1
  C  C65  1  0.49986642  0.62473377  0.85949957  1
  C  C66  1  0.02610557  0.84088123  0.40730068  1
  C  C67  1  0.81319508  0.97466480  0.40763428  1
  C  C68  1  0.16766445  0.19410674  0.40976084  1
  C  C69  1  0.02644229  0.19410674  0.90976084  1
  C  C70  1  0.16146972  0.97466480  0.90763428  1
  C  C71  1  0.81477567  0.84088123  0.90730068  1
  C  C72  1  0.97671843  0.16367383  0.59110045  1
  C  C73  1  0.19184933  0.02469934  0.59126197  1
  C  C74  1  0.84163512  0.81215284  0.59259069  1
  C  C75  1  0.97051772  0.81215284  0.09259069  1
  C  C76  1  0.83285001  0.02469934  0.09126197  1
  C  C77  1  0.18695540  0.16367383  0.09110045  1
  C  C78  1  0.69277257  0.17421423  0.74063368  1
  C  C79  1  0.47986208  0.30799780  0.74096728  1
  C  C80  1  0.83433145  0.52743974  0.74309384  1
  C  C81  1  0.69310929  0.52743974  0.24309384  1
  C  C82  1  0.82813672  0.30799780  0.24096728  1
  C  C83  1  0.48144267  0.17421423  0.24063368  1
  C  C84  1  0.64338543  0.49700683  0.92443345  1
  C  C85  1  0.85851633  0.35803234  0.92459497  1
  C  C86  1  0.50830212  0.14548584  0.92592369  1
  C  C87  1  0.63718472  0.14548584  0.42592369  1
  C  C88  1  0.49951701  0.35803234  0.42459497  1
  C  C89  1  0.85362240  0.49700683  0.42443345  1
  C  C90  1  0.35943857  0.50754823  0.07396768  1
  C  C91  1  0.14652808  0.64133180  0.07430128  1
  C  C92  1  0.50099745  0.86077374  0.07642784  1
  C  C93  1  0.35977529  0.86077374  0.57642784  1
  C  C94  1  0.49480272  0.64133180  0.57430128  1
  C  C95  1  0.14810867  0.50754823  0.57396768  1
  C  C96  1  0.31005143  0.83034083  0.25776745  1
  C  C97  1  0.52518233  0.69136634  0.25792897  1
  C  C98  1  0.17496812  0.47881984  0.25925769  1
  C  C99  1  0.30385072  0.47881984  0.75925769  1
  C  C100  1  0.16618301  0.69136634  0.75792897  1
  C  C101  1  0.52028840  0.83034083  0.75776745  1
