# generated using pymatgen
data_Cu(NiC8)2
_symmetry_space_group_name_H-M   'P 1'
_cell_length_a   9.03241011
_cell_length_b   9.03240981
_cell_length_c   22.92468228
_cell_angle_alpha   89.97336531
_cell_angle_beta   90.02663468
_cell_angle_gamma   119.62777686
_symmetry_Int_Tables_number   1
_chemical_formula_structural   Cu(NiC8)2
_chemical_formula_sum   'Cu6 Ni12 C96'
_cell_volume   1625.76557937
_cell_formula_units_Z   6
loop_
 _symmetry_equiv_pos_site_id
 _symmetry_equiv_pos_as_xyz
  1  'x, y, z'
loop_
 _atom_site_type_symbol
 _atom_site_label
 _atom_site_symmetry_multiplicity
 _atom_site_fract_x
 _atom_site_fract_y
 _atom_site_fract_z
 _atom_site_occupancy
  C  C0  1  0.98308122  0.62276794  0.24940544  1
  C  C1  1  0.37723206  0.01691878  0.74940544  1
  C  C2  1  0.64974822  0.95610094  0.58273844  1
  C  C3  1  0.04389906  0.35025178  0.08273844  1
  C  C4  1  0.31641422  0.28943494  0.91607244  1
  C  C5  1  0.71056506  0.68358578  0.41607244  1
  C  C6  1  0.00668084  0.99124061  0.49558127  1
  C  C7  1  0.00875939  0.99331916  0.99558127  1
  C  C8  1  0.67334784  0.32457361  0.82891427  1
  C  C9  1  0.67542639  0.32665216  0.32891427  1
  C  C10  1  0.34001384  0.65790761  0.16224827  1
  C  C11  1  0.34209239  0.65998616  0.66224827  1
  C  C12  1  -0.00071041  0.00298253  0.64581956  1
  C  C13  1  0.99701747  0.00071041  0.14581956  1
  C  C14  1  0.66595659  0.33631553  0.97915256  1
  C  C15  1  0.66368447  0.33404341  0.47915256  1
  C  C16  1  0.33262259  0.66964953  0.31248656  1
  C  C17  1  0.33035047  0.66737741  0.81248656  1
  C  C18  1  0.98869100  0.99745162  0.35120742  1
  C  C19  1  0.00254838  0.01130900  0.85120742  1
  C  C20  1  0.65535800  0.33078462  0.68454042  1
  C  C21  1  0.66921538  0.34464200  0.18454042  1
  C  C22  1  0.32202400  0.66411862  0.01787442  1
  C  C23  1  0.33588138  0.67797600  0.51787442  1
  Ni  Ni24  1  0.70415097  0.70733871  0.25150606  1
  Ni  Ni25  1  0.99869939  0.29175628  0.25023999  1
  Ni  Ni26  1  0.29266129  0.29584903  0.75150606  1
  Ni  Ni27  1  0.70824372  0.00130061  0.75023999  1
  Ni  Ni28  1  0.37081797  0.04067171  0.58483906  1
  Ni  Ni29  1  0.66536639  0.62508928  0.58357299  1
  Ni  Ni30  1  0.95932829  0.62918203  0.08483906  1
  Ni  Ni31  1  0.37491072  0.33463361  0.08357299  1
  Ni  Ni32  1  0.03748397  0.37400571  0.91817306  1
  Ni  Ni33  1  0.33203239  0.95842328  0.91690699  1
  Ni  Ni34  1  0.62599429  0.96251603  0.41817306  1
  Ni  Ni35  1  0.04157672  0.66796761  0.41690699  1
  Cu  Cu36  1  0.29088616  0.00073823  0.25001984  1
  Cu  Cu37  1  0.99926177  0.70911384  0.75001984  1
  Cu  Cu38  1  0.95755316  0.33407123  0.58335284  1
  Cu  Cu39  1  0.66592877  0.04244684  0.08335284  1
  Cu  Cu40  1  0.62421916  0.66740523  0.91668684  1
  Cu  Cu41  1  0.33259477  0.37578084  0.41668684  1
  C  C42  1  0.21800019  0.02563370  0.30324163  1
  C  C43  1  0.82086199  0.77815613  0.30878747  1
  C  C44  1  0.98360540  0.18732387  0.30731415  1
  C  C45  1  0.22184387  0.17913801  0.80878747  1
  C  C46  1  0.97436630  0.78199981  0.80324163  1
  C  C47  1  0.81267613  0.01639460  0.80731415  1
  C  C48  1  0.80205158  0.97289871  0.69083687  1
  C  C49  1  0.16233317  0.18795143  0.69496825  1
  C  C50  1  0.02885141  0.82131962  0.69777218  1
  C  C51  1  0.81204857  0.83766683  0.19496825  1
  C  C52  1  0.02710129  0.19794842  0.19083687  1
  C  C53  1  0.17868038  0.97114859  0.19777218  1
  C  C54  1  0.88466719  0.35896670  0.63657463  1
  C  C55  1  0.48752899  0.11148913  0.64212047  1
  C  C56  1  0.65027240  0.52065687  0.64064715  1
  C  C57  1  0.88851087  0.51247101  0.14212047  1
  C  C58  1  0.64103330  0.11533281  0.13657463  1
  C  C59  1  0.47934313  0.34972760  0.14064715  1
  C  C60  1  0.46871858  0.30623171  0.02416987  1
  C  C61  1  0.82900017  0.52128443  0.02830125  1
  C  C62  1  0.69551841  0.15465262  0.03110518  1
  C  C63  1  0.47871557  0.17099983  0.52830125  1
  C  C64  1  0.69376829  0.53128142  0.52416987  1
  C  C65  1  0.84534738  0.30448159  0.53110518  1
  C  C66  1  0.55133319  0.69230070  0.96990863  1
  C  C67  1  0.15419499  0.44482313  0.97545447  1
  C  C68  1  0.31693840  0.85399087  0.97398115  1
  C  C69  1  0.55517687  0.84580501  0.47545447  1
  C  C70  1  0.30769930  0.44866681  0.46990863  1
  C  C71  1  0.14600913  0.68306160  0.47398115  1
  C  C72  1  0.13538458  0.63956571  0.35750387  1
  C  C73  1  0.49566617  0.85461843  0.36163525  1
  C  C74  1  0.36218441  0.48798662  0.36443918  1
  C  C75  1  0.14538157  0.50433383  0.86163525  1
  C  C76  1  0.36043429  0.86461542  0.85750387  1
  C  C77  1  0.51201338  0.63781559  0.86443918  1
  C  C78  1  0.01431803  0.83126107  0.41127057  1
  C  C79  1  0.81360148  0.98424984  0.41318794  1
  C  C80  1  0.19232245  0.20332537  0.40937503  1
  C  C81  1  0.01575016  0.18639852  0.91318794  1
  C  C82  1  0.16873893  0.98568197  0.91127057  1
  C  C83  1  0.79667463  0.80767755  0.90937503  1
  C  C84  1  0.96157896  0.16741486  0.58709290  1
  C  C85  1  0.18279410  0.03063766  0.59159183  1
  C  C86  1  0.83931468  0.82136441  0.59078159  1
  C  C87  1  0.96936234  0.81720590  0.09159183  1
  C  C88  1  0.83258514  0.03842104  0.08709290  1
  C  C89  1  0.17863559  0.16068532  0.09078159  1
  C  C90  1  0.68098503  0.16459407  0.74460357  1
  C  C91  1  0.48026848  0.31758284  0.74652094  1
  C  C92  1  0.85898945  0.53665837  0.74270803  1
  C  C93  1  0.68241716  0.51973152  0.24652094  1
  C  C94  1  0.83540593  0.31901497  0.24460357  1
  C  C95  1  0.46334163  0.14101055  0.24270803  1
  C  C96  1  0.62824596  0.50074786  0.92042590  1
  C  C97  1  0.84946110  0.36397066  0.92492483  1
  C  C98  1  0.50598168  0.15469741  0.92411459  1
  C  C99  1  0.63602934  0.15053890  0.42492483  1
  C  C100  1  0.49925214  0.37175404  0.42042590  1
  C  C101  1  0.84530259  0.49401832  0.42411459  1
  C  C102  1  0.34765103  0.49792807  0.07793757  1
  C  C103  1  0.14693448  0.65091684  0.07985494  1
  C  C104  1  0.52565545  0.86999237  0.07604203  1
  C  C105  1  0.34908316  0.85306552  0.57985494  1
  C  C106  1  0.50207193  0.65234897  0.57793757  1
  C  C107  1  0.13000763  0.47434455  0.57604203  1
  C  C108  1  0.29491196  0.83408186  0.25375990  1
  C  C109  1  0.51612710  0.69730466  0.25825883  1
  C  C110  1  0.17264768  0.48803141  0.25744859  1
  C  C111  1  0.30269534  0.48387290  0.75825883  1
  C  C112  1  0.16591814  0.70508804  0.75375990  1
  C  C113  1  0.51196859  0.82735232  0.75744859  1
