# generated using pymatgen
data_CuNi7C66
_symmetry_space_group_name_H-M   'P 1'
_cell_length_a   17.51779303
_cell_length_b   8.75788920
_cell_length_c   22.70152361
_cell_angle_alpha   89.98025740
_cell_angle_beta   89.98943344
_cell_angle_gamma   120.01312598
_symmetry_Int_Tables_number   1
_chemical_formula_structural   CuNi7C66
_chemical_formula_sum   'Cu3 Ni21 C198'
_cell_volume   3015.83067724
_cell_formula_units_Z   3
loop_
 _symmetry_equiv_pos_site_id
 _symmetry_equiv_pos_as_xyz
  1  'x, y, z'
loop_
 _atom_site_type_symbol
 _atom_site_label
 _atom_site_symmetry_multiplicity
 _atom_site_fract_x
 _atom_site_fract_y
 _atom_site_fract_z
 _atom_site_occupancy
  C  C0  1  0.32007754  0.63953498  0.74966410  1
  C  C1  1  0.64940267  0.33159852  0.58419834  1
  C  C2  1  0.98579852  0.66681991  0.91718548  1
  C  C3  1  0.66585676  0.30160535  0.91523418  1
  C  C4  1  0.16708727  0.03052006  0.41707488  1
  C  C5  1  0.66642022  0.03020564  0.41705048  1
  C  C6  1  0.99498494  0.00210555  0.49579742  1
  C  C7  1  0.48606992  0.98305649  0.50099670  1
  C  C8  1  0.00271976  0.01594398  0.99727942  1
  C  C9  1  0.49142116  0.98560336  0.99542683  1
  C  C10  1  0.33705104  0.32536135  0.83612602  1
  C  C11  1  0.83121704  0.31829723  0.82937458  1
  C  C12  1  0.33956667  0.34477715  0.33282471  1
  C  C13  1  0.84026781  0.34547536  0.33250218  1
  C  C14  1  0.16763182  0.66687090  0.16672020  1
  C  C15  1  0.66603434  0.66611996  0.16686912  1
  C  C16  1  0.16504723  0.67143284  0.66384132  1
  C  C17  1  0.66336405  0.67489180  0.66951690  1
  Ni  Ni18  1  0.99582644  0.99932422  0.35000257  1
  Ni  Ni19  1  0.49452608  0.99845319  0.35022601  1
  Ni  Ni20  1  0.00109230  0.00922117  0.85009190  1
  Ni  Ni21  1  0.49610139  0.99475095  0.84796773  1
  Ni  Ni22  1  0.49641270  0.99201571  0.65185703  1
  Ni  Ni23  1  0.33800166  0.33175613  0.67996199  1
  Ni  Ni24  1  0.83066971  0.32795658  0.68405697  1
  Ni  Ni25  1  0.33341715  0.33317487  0.18225047  1
  Ni  Ni26  1  0.83343344  0.33313855  0.18311562  1
  Ni  Ni27  1  0.33367282  0.33714425  0.98341992  1
  Ni  Ni28  1  0.83311325  0.32066480  0.98654887  1
  Ni  Ni29  1  0.33810317  0.34461052  0.48547726  1
  Ni  Ni30  1  0.84015061  0.33965781  0.48429498  1
  Ni  Ni31  1  0.17041412  0.66828582  0.01538476  1
  Ni  Ni32  1  0.66411739  0.66841411  0.01541987  1
  Ni  Ni33  1  0.16919075  0.66206123  0.51580353  1
  Ni  Ni34  1  0.66471386  0.67137406  0.51402171  1
  Ni  Ni35  1  0.16683064  0.66332657  0.31835192  1
  Ni  Ni36  1  0.66657395  0.66310582  0.31741157  1
  Ni  Ni37  1  0.16805510  0.67421313  0.82031117  1
  Ni  Ni38  1  0.66351066  0.66388320  0.81667408  1
  Cu  Cu39  1  0.00054384  0.00182230  0.65029451  1
  Cu  Cu40  1  0.00050749  0.00069049  0.15045987  1
  Cu  Cu41  1  0.49930576  0.99967998  0.15005454  1
  C  C42  1  0.14882942  0.00001934  0.25178096  1
  C  C43  1  0.64843881  0.00039379  0.25168871  1
  C  C44  1  0.35129341  0.70239466  0.25081429  1
  C  C45  1  0.85177086  0.70368658  0.25072441  1
  C  C46  1  0.00006587  0.29712985  0.25082155  1
  C  C47  1  0.50006295  0.29648993  0.25071471  1
  C  C48  1  0.14842695  0.29646424  0.75097610  1
  C  C49  1  0.64882160  0.29745915  0.74997178  1
  C  C50  1  -0.00000384  0.70318672  0.75167286  1
  C  C51  1  0.50109355  0.70513403  0.74967835  1
  C  C52  1  0.35156159  0.00210320  0.75013120  1
  C  C53  1  0.85206918  0.99932439  0.75095277  1
  C  C54  1  0.48172117  0.33341009  0.58268699  1
  C  C55  1  0.98090929  0.33493603  0.58486311  1
  C  C56  1  0.18507092  0.03636626  0.58347599  1
  C  C57  1  0.68646988  0.03732782  0.58231917  1
  C  C58  1  0.33260834  0.62922159  0.58485862  1
  C  C59  1  0.83423688  0.62845067  0.58395099  1
  C  C60  1  0.48100711  0.62748529  0.08437072  1
  C  C61  1  0.98157536  0.62845175  0.08326362  1
  C  C62  1  0.33256214  0.03914625  0.08394141  1
  C  C63  1  0.83259531  0.03594850  0.08478150  1
  C  C64  1  0.18649997  0.33437956  0.08414461  1
  C  C65  1  0.68577085  0.33453064  0.08345072  1
  C  C66  1  0.31506525  0.66551706  0.91572705  1
  C  C67  1  0.81400091  0.66954584  0.91732004  1
  C  C68  1  0.01987485  0.37215315  0.91718548  1
  C  C69  1  0.51856120  0.37251039  0.91697634  1
  C  C70  1  0.16742571  0.96371722  0.91719876  1
  C  C71  1  0.66689162  0.96120684  0.91656224  1
  C  C72  1  0.31415226  0.96127191  0.41706836  1
  C  C73  1  0.81411154  0.95959446  0.41679332  1
  C  C74  1  0.16672337  0.37106328  0.41654473  1
  C  C75  1  0.66708812  0.37127486  0.41760480  1
  C  C76  1  0.01952403  0.66452707  0.41673319  1
  C  C77  1  0.51832408  0.66519436  0.41532741  1
  C  C78  1  0.10686553  0.02465391  0.30451181  1
  C  C79  1  0.60686635  0.02487026  0.30457422  1
  C  C80  1  0.40770575  0.78792662  0.30205270  1
  C  C81  1  0.90797121  0.78895429  0.30197049  1
  C  C82  1  0.48768153  0.18528569  0.30208714  1
  C  C83  1  0.98704758  0.18501481  0.30205597  1
  C  C84  1  0.10562772  0.18478442  0.80209972  1
  C  C85  1  0.60774307  0.19171449  0.80410491  1
  C  C86  1  0.48478538  0.78456243  0.80245895  1
  C  C87  1  0.98776018  0.78659809  0.80466314  1
  C  C88  1  0.40434283  0.02781207  0.80377499  1
  C  C89  1  0.90825743  0.02508783  0.80219005  1
  C  C90  1  0.39122190  0.96861744  0.69743929  1
  C  C91  1  0.89180348  0.96831371  0.69506884  1
  C  C92  1  0.09374025  0.21873616  0.69539983  1
  C  C93  1  0.59650759  0.21527074  0.69558489  1
  C  C94  1  0.01508383  0.81720549  0.69681540  1
  C  C95  1  0.51347550  0.81046609  0.69603634  1
  C  C96  1  0.39074225  0.81351098  0.19498839  1
  C  C97  1  0.89129336  0.81436541  0.19491013  1
  C  C98  1  0.01542099  0.21796005  0.19488119  1
  C  C99  1  0.51587597  0.21744740  0.19489682  1
  C  C100  1  0.09182285  0.96885940  0.19687450  1
  C  C101  1  0.59185567  0.97046825  0.19686971  1
  C  C102  1  0.44317977  0.36015352  0.63652440  1
  C  C103  1  0.93974250  0.35407554  0.63831629  1
  C  C104  1  0.23633441  0.12204423  0.63653576  1
  C  C105  1  0.74101948  0.12225824  0.63481270  1
  C  C106  1  0.32057070  0.52665813  0.63999726  1
  C  C107  1  0.82200635  0.52287492  0.63718349  1
  C  C108  1  0.44065453  0.52743098  0.13834876  1
  C  C109  1  0.93845909  0.52370681  0.13596620  1
  C  C110  1  0.32302438  0.11899671  0.13819635  1
  C  C111  1  0.82288630  0.11903860  0.13815607  1
  C  C112  1  0.23608350  0.35334335  0.13831771  1
  C  C113  1  0.73814330  0.35292511  0.13615998  1
  C  C114  1  0.22386809  0.30174653  0.03117465  1
  C  C115  1  0.72195541  0.30365339  0.02864509  1
  C  C116  1  0.42769085  0.55329204  0.03115438  1
  C  C117  1  0.92956631  0.55674171  0.02849872  1
  C  C118  1  0.34789555  0.14592188  0.03093685  1
  C  C119  1  0.84960608  0.14235785  0.03108136  1
  C  C120  1  0.22073425  0.13856229  0.52876525  1
  C  C121  1  0.72564446  0.14703829  0.52801125  1
  C  C122  1  0.34453051  0.54404062  0.53220964  1
  C  C123  1  0.84972382  0.55371045  0.53041483  1
  C  C124  1  0.42836780  0.30739079  0.52959704  1
  C  C125  1  0.92782578  0.30075098  0.53116088  1
  C  C126  1  0.27250327  0.69133792  0.96790240  1
  C  C127  1  0.77415710  0.69330388  0.97085285  1
  C  C128  1  0.07210810  0.45269148  0.97064212  1
  C  C129  1  0.57525356  0.45154529  0.96972626  1
  C  C130  1  0.15011716  0.84884524  0.96931479  1
  C  C131  1  0.65539380  0.85913833  0.97063330  1
  C  C132  1  0.27386227  0.85545844  0.47048859  1
  C  C133  1  0.77406421  0.85397071  0.47044597  1
  C  C134  1  0.15326338  0.44967297  0.46984248  1
  C  C135  1  0.65555509  0.44874481  0.47282421  1
  C  C136  1  0.07534711  0.69606312  0.46945427  1
  C  C137  1  0.57391804  0.69911605  0.46857682  1
  C  C138  1  0.05917640  0.63970846  0.36274958  1
  C  C139  1  0.55943220  0.64059613  0.36218783  1
  C  C140  1  0.25848361  0.88224156  0.36386325  1
  C  C141  1  0.75817830  0.88030119  0.36391852  1
  C  C142  1  0.17921513  0.47533232  0.36272951  1
  C  C143  1  0.67896101  0.47949736  0.36516085  1
  C  C144  1  0.05920608  0.48286787  0.86385221  1
  C  C145  1  0.55892441  0.47832403  0.86345498  1
  C  C146  1  0.17928880  0.88462779  0.86291349  1
  C  C147  1  0.68046876  0.88180339  0.86330746  1
  C  C148  1  0.26384942  0.63988010  0.86021035  1
  C  C149  1  0.75924245  0.63876128  0.86427781  1
  C  C150  1  0.01272299  0.82891441  0.41135812  1
  C  C151  1  0.51202355  0.82975359  0.40999643  1
  C  C152  1  0.40283883  0.98128571  0.41110969  1
  C  C153  1  0.90283724  0.98040888  0.41099407  1
  C  C154  1  0.08764533  0.18877390  0.41146571  1
  C  C155  1  0.58800582  0.19045468  0.41226173  1
  C  C156  1  0.00869518  0.19390917  0.91108208  1
  C  C157  1  0.51239583  0.19542064  0.91134859  1
  C  C158  1  0.08453981  0.97559921  0.91168989  1
  C  C159  1  0.58849890  0.98554333  0.91139825  1
  C  C160  1  0.40364319  0.82605390  0.91103822  1
  C  C161  1  0.90492492  0.82319953  0.91148124  1
  C  C162  1  0.49346750  0.17583507  0.58788359  1
  C  C163  1  0.98920683  0.16709282  0.58937361  1
  C  C164  1  0.09302901  0.02032332  0.58870359  1
  C  C165  1  0.59852410  0.02565771  0.58810216  1
  C  C166  1  0.41300184  0.80683036  0.58889124  1
  C  C167  1  0.91575769  0.81133627  0.58934128  1
  C  C168  1  0.48985113  0.81222051  0.08908310  1
  C  C169  1  0.98943930  0.81147007  0.08873616  1
  C  C170  1  0.41648229  0.02236366  0.08844941  1
  C  C171  1  0.91638569  0.02056573  0.08938916  1
  C  C172  1  0.09406786  0.16639140  0.08879890  1
  C  C173  1  0.59453236  0.16711497  0.08875241  1
  C  C174  1  0.34056055  0.15752049  0.74351853  1
  C  C175  1  0.84621329  0.16028423  0.74377421  1
  C  C176  1  0.23663473  0.31578613  0.74380917  1
  C  C177  1  0.73767698  0.31360066  0.74542987  1
  C  C178  1  0.41849321  0.52776408  0.74446689  1
  C  C179  1  0.91989843  0.53079061  0.74360198  1
  C  C180  1  0.34449916  0.52899214  0.24329994  1
  C  C181  1  0.84489919  0.52993347  0.24315346  1
  C  C182  1  0.42015698  0.30988080  0.24337315  1
  C  C183  1  0.91985164  0.31047237  0.24347520  1
  C  C184  1  0.23502067  0.16054443  0.24369040  1
  C  C185  1  0.73506719  0.16123373  0.24374984  1
  C  C186  1  0.32336115  0.50545960  0.92174169  1
  C  C187  1  0.82329329  0.50656984  0.92236209  1
  C  C188  1  0.43010737  0.35209946  0.92356617  1
  C  C189  1  0.93090811  0.35952156  0.92230009  1
  C  C190  1  0.24554250  0.14026447  0.92351430  1
  C  C191  1  0.74630712  0.14459175  0.92151715  1
  C  C192  1  0.32083975  0.13864860  0.42260747  1
  C  C193  1  0.82071454  0.13709374  0.42216699  1
  C  C194  1  0.24544518  0.34700266  0.42171530  1
  C  C195  1  0.74606424  0.34768193  0.42171805  1
  C  C196  1  0.42987440  0.50834874  0.42160369  1
  C  C197  1  0.93029398  0.50783821  0.42262016  1
  C  C198  1  0.17322667  0.48709545  0.07869440  1
  C  C199  1  0.67347285  0.48809506  0.07870057  1
  C  C200  1  0.07060550  0.65306449  0.07838256  1
  C  C201  1  0.57045741  0.65290843  0.07911441  1
  C  C202  1  0.25603814  0.85955559  0.07876384  1
  C  C203  1  0.75587287  0.85831064  0.07910071  1
  C  C204  1  0.17194573  0.85726476  0.57911104  1
  C  C205  1  0.67660775  0.86023372  0.57693434  1
  C  C206  1  0.25263825  0.64658470  0.57932028  1
  C  C207  1  0.75492763  0.64673921  0.57850719  1
  C  C208  1  0.06986606  0.48803549  0.57916278  1
  C  C209  1  0.57271242  0.49170456  0.57742578  1
  C  C210  1  0.15629722  0.84018648  0.25496555  1
  C  C211  1  0.65632030  0.84082358  0.25469357  1
  C  C212  1  0.26414485  0.68834396  0.25501106  1
  C  C213  1  0.76450986  0.68914007  0.25477540  1
  C  C214  1  0.07985000  0.47172910  0.25472428  1
  C  C215  1  0.58031779  0.47144293  0.25450026  1
  C  C216  1  0.15792724  0.47414894  0.75504961  1
  C  C217  1  0.65807276  0.47516059  0.75472296  1
  C  C218  1  0.07996654  0.68857364  0.75475285  1
  C  C219  1  0.57951189  0.68512286  0.75555998  1
  C  C220  1  0.26312653  0.83586496  0.75562081  1
  C  C221  1  0.76490922  0.84043784  0.75487955  1
