# generated using pymatgen
data_Cu8Ni6C67
_symmetry_space_group_name_H-M   'P 1'
_cell_length_a   9.36903741
_cell_length_b   9.37412186
_cell_length_c   10.22767800
_cell_angle_alpha   89.99771958
_cell_angle_beta   90.00162590
_cell_angle_gamma   120.01570098
_symmetry_Int_Tables_number   1
_chemical_formula_structural   Cu8Ni6C67
_chemical_formula_sum   'Cu8 Ni6 C67'
_cell_volume   777.79386410
_cell_formula_units_Z   1
loop_
 _symmetry_equiv_pos_site_id
 _symmetry_equiv_pos_as_xyz
  1  'x, y, z'
loop_
 _atom_site_type_symbol
 _atom_site_label
 _atom_site_symmetry_multiplicity
 _atom_site_fract_x
 _atom_site_fract_y
 _atom_site_fract_z
 _atom_site_occupancy
  Ni  Ni0  1  0.33556000  0.00057400  0.16470600  1
  Ni  Ni1  1  0.66544500  0.00024200  0.50191200  1
  Ni  Ni2  1  0.00034500  0.33464100  0.50279500  1
  Ni  Ni3  1  0.66634100  0.33230300  0.83318800  1
  Ni  Ni4  1  0.66556600  0.66603200  0.83316100  1
  Ni  Ni5  1  0.00025200  0.00029400  0.83310500  1
  Cu  Cu6  1  0.33484700  0.66794100  0.16362400  1
  Cu  Cu7  1  0.33504500  0.33432800  0.16490500  1
  Cu  Cu8  1  0.99854900  0.99945600  0.16451100  1
  Cu  Cu9  1  0.66524000  0.66481900  0.50173500  1
  Cu  Cu10  1  0.00057200  0.00014900  0.50245100  1
  Cu  Cu11  1  0.33433100  0.00039700  0.50293000  1
  Cu  Cu12  1  0.99906400  0.66568100  0.16498100  1
  Cu  Cu13  1  0.99846900  0.33303100  0.16451600  1
  C  C14  1  0.00026000  0.33460300  0.83238400  1
  C  C15  1  0.66652500  0.33264600  0.16378000  1
  C  C16  1  0.66652100  0.33360500  0.50265800  1
  C  C17  1  0.00002500  0.66543600  0.50246200  1
  C  C18  1  0.33261400  0.66621900  0.50376400  1
  C  C19  1  0.66533600  0.00011900  0.83380300  1
  C  C20  1  0.33427400  0.99969900  0.83226900  1
  C  C21  1  0.00082600  0.66609900  0.83264700  1
  C  C22  1  0.33385600  0.33362600  0.83294600  1
  C  C23  1  0.66599900  0.00008200  0.16416200  1
  C  C24  1  0.33471000  0.33456600  0.50223700  1
  C  C25  1  0.66587100  0.66606100  0.16530300  1
  C  C26  1  0.33301100  0.66697600  0.83270700  1
  C  C27  1  0.11151800  0.55630900  0.33725500  1
  C  C28  1  0.11305500  0.88868800  0.99267500  1
  C  C29  1  0.44733300  0.22333900  0.33388800  1
  C  C30  1  0.11163300  0.22319300  0.33535600  1
  C  C31  1  0.77525300  0.88980500  0.99691000  1
  C  C32  1  0.44691700  0.89168800  0.99490600  1
  C  C33  1  0.11052800  0.55631400  0.99312700  1
  C  C34  1  0.77769200  0.55513500  0.99580800  1
  C  C35  1  0.44450200  0.55492300  0.99458600  1
  C  C36  1  0.77524100  0.21894300  0.99696400  1
  C  C37  1  0.44413300  0.22081500  0.99404900  1
  C  C38  1  0.11210600  0.22307300  0.99340100  1
  C  C39  1  0.77558800  0.22153500  0.33293900  1
  C  C40  1  0.89057500  0.77608200  0.67088000  1
  C  C41  1  0.55417000  0.77881900  0.67048000  1
  C  C42  1  0.77690900  0.55342200  0.33443000  1
  C  C43  1  0.88885200  0.77677900  0.99474600  1
  C  C44  1  0.22366600  0.11211800  0.33397800  1
  C  C45  1  0.55775500  0.11227400  0.33143600  1
  C  C46  1  0.88598800  0.11058100  0.33312700  1
  C  C47  1  0.22312900  0.44542300  0.33686100  1
  C  C48  1  0.55679700  0.44352000  0.33372400  1
  C  C49  1  0.88662100  0.44330700  0.33605700  1
  C  C50  1  0.22261000  0.77719000  0.33571700  1
  C  C51  1  0.55612600  0.77942300  0.33246900  1
  C  C52  1  0.88797200  0.77641200  0.33436800  1
  C  C53  1  0.22479000  0.11290600  0.67333100  1
  C  C54  1  0.55511000  0.11021100  0.67224500  1
  C  C55  1  0.88753000  0.11186800  0.67099600  1
  C  C56  1  0.22293800  0.44456300  0.67008700  1
  C  C57  1  0.55331700  0.44208800  0.67020300  1
  C  C58  1  0.88967300  0.44592000  0.66950100  1
  C  C59  1  0.22147700  0.77755400  0.67196400  1
  C  C60  1  0.55730400  0.78139500  0.99690400  1
  C  C61  1  0.22298000  0.77976900  0.99222200  1
  C  C62  1  0.88850500  0.44459900  0.99450200  1
  C  C63  1  0.44235100  0.55385000  0.67036400  1
  C  C64  1  0.11131100  0.88767400  0.33463900  1
  C  C65  1  0.44650100  0.88963200  0.33279500  1
  C  C66  1  0.77534900  0.88896500  0.33178600  1
  C  C67  1  0.11332200  0.22431200  0.67131100  1
  C  C68  1  0.44355400  0.22198800  0.67245600  1
  C  C69  1  0.77723500  0.22157400  0.67017300  1
  C  C70  1  0.11094200  0.55679400  0.66982500  1
  C  C71  1  0.77986100  0.55540600  0.66987100  1
  C  C72  1  0.55507700  0.44336000  0.99572300  1
  C  C73  1  0.11182300  0.88681400  0.67286900  1
  C  C74  1  0.44438200  0.88919900  0.67244100  1
  C  C75  1  0.77625400  0.88994900  0.67124400  1
  C  C76  1  0.22456400  0.11136300  0.99272400  1
  C  C77  1  0.55578600  0.10947700  0.99599000  1
  C  C78  1  0.88512900  0.11001700  0.99577200  1
  C  C79  1  0.22255300  0.44394800  0.99318000  1
  C  C80  1  0.44436500  0.55618000  0.33515500  1
