# generated using pymatgen
data_CuNiC15
_symmetry_space_group_name_H-M   'P 1'
_cell_length_a   9.33780021
_cell_length_b   9.38770096
_cell_length_c   24.05295985
_cell_angle_alpha   90.17406877
_cell_angle_beta   90.04845172
_cell_angle_gamma   119.83200766
_symmetry_Int_Tables_number   1
_chemical_formula_structural   CuNiC15
_chemical_formula_sum   'Cu6 Ni6 C90'
_cell_volume   1829.07731560
_cell_formula_units_Z   6
loop_
 _symmetry_equiv_pos_site_id
 _symmetry_equiv_pos_as_xyz
  1  'x, y, z'
loop_
 _atom_site_type_symbol
 _atom_site_label
 _atom_site_symmetry_multiplicity
 _atom_site_fract_x
 _atom_site_fract_y
 _atom_site_fract_z
 _atom_site_occupancy
  Ni  Ni0  1  0.99318886  0.00264796  0.36502021  1
  Ni  Ni1  1  0.00163692  0.00167484  0.86122742  1
  Ni  Ni2  1  0.67904896  0.33681295  0.68188917  1
  Ni  Ni3  1  0.65653498  0.33555260  0.18387379  1
  Ni  Ni4  1  0.65387768  0.32986171  0.98566581  1
  Ni  Ni5  1  0.33140948  0.66477216  0.80469257  1
  Cu  Cu6  1  0.00018140  0.00839612  0.63971229  1
  Cu  Cu7  1  0.00884787  0.00968409  0.14776728  1
  Cu  Cu8  1  0.67833379  0.32278100  0.47805157  1
  Cu  Cu9  1  0.33282323  0.66033155  0.02303188  1
  Cu  Cu10  1  0.33703709  0.66777031  0.52255746  1
  Cu  Cu11  1  0.34106451  0.67521938  0.31414863  1
  C  C12  1  0.96562602  0.33517197  0.58010164  1
  C  C13  1  0.35915197  0.33283510  0.08378449  1
  C  C14  1  0.60221141  0.94928181  0.41945228  1
  C  C15  1  0.27971407  0.98266683  0.25082652  1
  C  C16  1  0.70373660  0.71850459  0.25085528  1
  C  C17  1  0.01358995  0.29614139  0.24978183  1
  C  C18  1  0.27899709  0.27766233  0.74543678  1
  C  C19  1  0.99959580  0.72325591  0.74604139  1
  C  C20  1  0.72093708  0.99853447  0.74599599  1
  C  C21  1  0.36725319  0.03632190  0.57993035  1
  C  C22  1  0.66993524  0.63307517  0.58048289  1
  C  C23  1  0.97833218  0.64726129  0.08403153  1
  C  C24  1  0.66864099  0.02153133  0.08388655  1
  C  C25  1  0.61380142  0.66779636  0.91975037  1
  C  C26  1  0.05180854  0.38748148  0.92025353  1
  C  C27  1  0.33445195  0.94551904  0.91972012  1
  C  C28  1  0.35212473  0.40131158  0.41914793  1
  C  C29  1  0.05025749  0.65119311  0.41895832  1
  C  C30  1  0.20569502  0.01074928  0.30034195  1
  C  C31  1  0.80552351  0.79452022  0.30063445  1
  C  C32  1  0.98597473  0.19403324  0.29930432  1
  C  C33  1  0.20300946  0.18710730  0.79734298  1
  C  C34  1  0.98662663  0.80023644  0.79844804  1
  C  C35  1  0.81351476  0.01573397  0.79793707  1
  C  C36  1  0.81511784  0.98847326  0.69690625  1
  C  C37  1  0.17310934  0.18326472  0.69640820  1
  C  C38  1  0.00997892  0.82484465  0.69697350  1
  C  C39  1  0.78285169  0.82138134  0.20080521  1
  C  C40  1  0.03319165  0.20646332  0.20017859  1
  C  C41  1  0.17332033  0.96250267  0.20070504  1
  C  C42  1  0.89317669  0.37352193  0.63524034  1
  C  C43  1  0.46702271  0.09818299  0.63080996  1
  C  C44  1  0.63035331  0.53319432  0.63118034  1
  C  C45  1  0.91011912  0.53644606  0.13213016  1
  C  C46  1  0.62936280  0.09214382  0.13234243  1
  C  C47  1  0.47923430  0.37317436  0.13724156  1
  C  C48  1  0.43426064  0.28983990  0.02987005  1
  C  C49  1  0.87093327  0.57791548  0.03490393  1
  C  C50  1  0.71048072  0.12978991  0.03516138  1
  C  C51  1  0.45007163  0.15052887  0.53265711  1
  C  C52  1  0.69943021  0.55098413  0.53274165  1
  C  C53  1  0.83252809  0.30341265  0.52805729  1
  C  C54  1  0.51978344  0.67813983  0.96855774  1
  C  C55  1  0.15753370  0.48220849  0.96892026  1
  C  C56  1  0.32398603  0.84404448  0.96867921  1
  C  C57  1  0.50183796  0.83329749  0.47126306  1
  C  C58  1  0.32581577  0.48126237  0.46816382  1
  C  C59  1  0.15312939  0.67073707  0.46793721  1
  C  C60  1  0.12706903  0.62712217  0.36734604  1
  C  C61  1  0.48799570  0.85374561  0.36251120  1
  C  C62  1  0.36738891  0.49974637  0.36769776  1
  C  C63  1  0.12846384  0.47848898  0.86849642  1
  C  C64  1  0.34704629  0.86740289  0.86764173  1
  C  C65  1  0.52064912  0.65075752  0.86800678  1
  C  C66  1  0.03304024  0.79750946  0.41314426  1
  C  C67  1  0.78371533  0.97245561  0.41253340  1
  C  C68  1  0.20592134  0.23722917  0.41274936  1
  C  C69  1  0.04421327  0.22621005  0.91867809  1
  C  C70  1  0.18277761  0.95880907  0.91823155  1
  C  C71  1  0.77548989  0.82088957  0.91863657  1
  C  C72  1  0.98378830  0.16990194  0.59410778  1
  C  C73  1  0.19984778  0.01826608  0.59007639  1
  C  C74  1  0.81825852  0.79946362  0.59130915  1
  C  C75  1  0.99819549  0.81195332  0.09818933  1
  C  C76  1  0.81117184  0.99594422  0.09785155  1
  C  C77  1  0.17576279  0.17372154  0.10143005  1
  C  C78  1  0.69801548  0.14156174  0.74050157  1
  C  C79  1  0.44360791  0.29758363  0.73853314  1
  C  C80  1  0.85280058  0.55882683  0.74180581  1
  C  C81  1  0.67959704  0.55222750  0.24294886  1
  C  C82  1  0.87219198  0.31991160  0.23861456  1
  C  C83  1  0.44769377  0.11959628  0.24108465  1
  C  C84  1  0.63640738  0.52450692  0.92580737  1
  C  C85  1  0.88717370  0.36750359  0.92773669  1
  C  C86  1  0.48193330  0.10950235  0.92452878  1
  C  C87  1  0.61818117  0.13226584  0.43082203  1
  C  C88  1  0.50255921  0.38873509  0.42794123  1
  C  C89  1  0.88303711  0.50326807  0.42697994  1
  C  C90  1  0.33246205  0.48946660  0.06761091  1
  C  C91  1  0.14690496  0.67392371  0.07073767  1
  C  C92  1  0.52419244  0.85645341  0.07043456  1
  C  C93  1  0.33941481  0.86881728  0.56748589  1
  C  C94  1  0.52817063  0.66040231  0.56862120  1
  C  C95  1  0.14561495  0.48431902  0.56202973  1
  C  C96  1  0.28900861  0.82741141  0.25863081  1
  C  C97  1  0.53484741  0.70170515  0.25992978  1
  C  C98  1  0.16664039  0.45865662  0.25783764  1
  C  C99  1  0.28719770  0.43915655  0.74738535  1
  C  C100  1  0.15130492  0.70979933  0.74801332  1
  C  C101  1  0.55912307  0.84559708  0.74742211  1
