# generated using pymatgen
data_Cu2NiC4
_symmetry_space_group_name_H-M   'P 1'
_cell_length_a   5.93867001
_cell_length_b   5.28275200
_cell_length_c   6.42096741
_cell_angle_alpha   115.96211420
_cell_angle_beta   117.54488715
_cell_angle_gamma   89.99998898
_symmetry_Int_Tables_number   1
_chemical_formula_structural   Cu2NiC4
_chemical_formula_sum   'Cu2 Ni1 C4'
_cell_volume   155.31914112
_cell_formula_units_Z   1
loop_
 _symmetry_equiv_pos_site_id
 _symmetry_equiv_pos_as_xyz
  1  'x, y, z'
loop_
 _atom_site_type_symbol
 _atom_site_label
 _atom_site_symmetry_multiplicity
 _atom_site_fract_x
 _atom_site_fract_y
 _atom_site_fract_z
 _atom_site_occupancy
  Ni  Ni0  1  0.50960500  0.87500000  0.25000000  1
  Cu  Cu1  1  0.24451000  0.74235600  0.52140800  1
  Cu  Cu2  1  0.97310200  0.00764400  0.97859200  1
  C  C3  1  0.92269600  0.87500000  0.25000000  1
  C  C4  1  0.60341500  0.10360800  0.72710700  1
  C  C5  1  0.34536500  0.37500000  0.25000000  1
  C  C6  1  0.12630700  0.64639200  0.77289300  1
