# generated using pymatgen
data_Cu(NiC3)2
_symmetry_space_group_name_H-M   'P 1'
_cell_length_a   8.48019000
_cell_length_b   9.21882600
_cell_length_c   15.49374600
_cell_angle_alpha   90.00000000
_cell_angle_beta   90.00000000
_cell_angle_gamma   90.00000000
_symmetry_Int_Tables_number   1
_chemical_formula_structural   Cu(NiC3)2
_chemical_formula_sum   'Cu8 Ni16 C48'
_cell_volume   1211.26071745
_cell_formula_units_Z   8
loop_
 _symmetry_equiv_pos_site_id
 _symmetry_equiv_pos_as_xyz
  1  'x, y, z'
loop_
 _atom_site_type_symbol
 _atom_site_label
 _atom_site_symmetry_multiplicity
 _atom_site_fract_x
 _atom_site_fract_y
 _atom_site_fract_z
 _atom_site_occupancy
  Ni  Ni0  1  0.74235000  0.89442100  0.03594600  1
  Ni  Ni1  1  0.24235000  0.10557900  0.46405400  1
  Ni  Ni2  1  0.75765000  0.39442100  0.46405400  1
  Ni  Ni3  1  0.25765000  0.60557900  0.03594600  1
  Ni  Ni4  1  0.25765000  0.10557900  0.96405400  1
  Ni  Ni5  1  0.75765000  0.89442100  0.53594600  1
  Ni  Ni6  1  0.24235000  0.60557900  0.53594600  1
  Ni  Ni7  1  0.74235000  0.39442100  0.96405400  1
  Ni  Ni8  1  0.90242700  0.01698100  0.21575400  1
  Ni  Ni9  1  0.40242700  0.98301900  0.28424600  1
  Ni  Ni10  1  0.59757300  0.51698100  0.28424600  1
  Ni  Ni11  1  0.09757300  0.48301900  0.21575400  1
  Ni  Ni12  1  0.09757300  0.98301900  0.78424600  1
  Ni  Ni13  1  0.59757300  0.01698100  0.71575400  1
  Ni  Ni14  1  0.40242700  0.48301900  0.71575400  1
  Ni  Ni15  1  0.90242700  0.51698100  0.78424600  1
  C  C16  1  0.90624300  0.88106400  0.00211400  1
  C  C17  1  0.40624300  0.11893600  0.49788600  1
  C  C18  1  0.59375700  0.38106400  0.49788600  1
  C  C19  1  0.09375700  0.61893600  0.00211400  1
  C  C20  1  0.09375700  0.11893600  0.99788600  1
  C  C21  1  0.59375700  0.88106400  0.50211400  1
  C  C22  1  0.40624300  0.61893600  0.50211400  1
  C  C23  1  0.90624300  0.38106400  0.99788600  1
  C  C24  1  0.69751300  0.75783900  0.08131700  1
  C  C25  1  0.19751300  0.24216100  0.41868300  1
  C  C26  1  0.80248700  0.25783900  0.41868300  1
  C  C27  1  0.30248700  0.74216100  0.08131700  1
  C  C28  1  0.30248700  0.24216100  0.91868300  1
  C  C29  1  0.80248700  0.75783900  0.58131700  1
  C  C30  1  0.19751300  0.74216100  0.58131700  1
  C  C31  1  0.69751300  0.25783900  0.91868300  1
  C  C32  1  0.62917200  0.92608000  0.96500600  1
  C  C33  1  0.12917200  0.07392000  0.53499400  1
  C  C34  1  0.87082800  0.42608000  0.53499400  1
  C  C35  1  0.37082800  0.57392000  0.96500600  1
  C  C36  1  0.37082800  0.07392000  0.03499400  1
  C  C37  1  0.87082800  0.92608000  0.46500600  1
  C  C38  1  0.12917200  0.57392000  0.46500600  1
  C  C39  1  0.62917200  0.42608000  0.03499400  1
  C  C40  1  0.06213800  0.02046000  0.17546600  1
  C  C41  1  0.56213800  0.97954000  0.32453400  1
  C  C42  1  0.43786200  0.52046000  0.32453400  1
  C  C43  1  0.93786200  0.47954000  0.17546600  1
  C  C44  1  0.93786200  0.97954000  0.82453400  1
  C  C45  1  0.43786200  0.02046000  0.67546600  1
  C  C46  1  0.56213800  0.47954000  0.67546600  1
  C  C47  1  0.06213800  0.52046000  0.82453400  1
  C  C48  1  0.86965300  0.86900300  0.25006400  1
  C  C49  1  0.36965300  0.13099700  0.24993600  1
  C  C50  1  0.63034700  0.36900300  0.24993600  1
  C  C51  1  0.13034700  0.63099700  0.25006400  1
  C  C52  1  0.13034700  0.13099700  0.74993600  1
  C  C53  1  0.63034700  0.86900300  0.75006400  1
  C  C54  1  0.36965300  0.63099700  0.75006400  1
  C  C55  1  0.86965300  0.36900300  0.74993600  1
  C  C56  1  0.89047800  0.12831700  0.28499200  1
  C  C57  1  0.39047800  0.87168300  0.21500800  1
  C  C58  1  0.60952200  0.62831700  0.21500800  1
  C  C59  1  0.10952200  0.37168300  0.28499200  1
  C  C60  1  0.10952200  0.87168300  0.71500800  1
  C  C61  1  0.60952200  0.12831700  0.78499200  1
  C  C62  1  0.39047800  0.37168300  0.78499200  1
  C  C63  1  0.89047800  0.62831700  0.71500800  1
  Cu  Cu64  1  0.72437800  0.07689800  0.12269900  1
  Cu  Cu65  1  0.22437800  0.92310200  0.37730100  1
  Cu  Cu66  1  0.77562200  0.57689800  0.37730100  1
  Cu  Cu67  1  0.27562200  0.42310200  0.12269900  1
  Cu  Cu68  1  0.27562200  0.92310200  0.87730100  1
  Cu  Cu69  1  0.77562200  0.07689800  0.62269900  1
  Cu  Cu70  1  0.22437800  0.42310200  0.62269900  1
  Cu  Cu71  1  0.72437800  0.57689800  0.87730100  1
