# generated using pymatgen
data_Cu8Ni8C9
_symmetry_space_group_name_H-M   'P 1'
_cell_length_a   9.86034274
_cell_length_b   9.87807647
_cell_length_c   3.15347300
_cell_angle_alpha   90.00000000
_cell_angle_beta   90.00000000
_cell_angle_gamma   82.76524387
_symmetry_Int_Tables_number   1
_chemical_formula_structural   Cu8Ni8C9
_chemical_formula_sum   'Cu8 Ni8 C9'
_cell_volume   304.70672153
_cell_formula_units_Z   1
loop_
 _symmetry_equiv_pos_site_id
 _symmetry_equiv_pos_as_xyz
  1  'x, y, z'
loop_
 _atom_site_type_symbol
 _atom_site_label
 _atom_site_symmetry_multiplicity
 _atom_site_fract_x
 _atom_site_fract_y
 _atom_site_fract_z
 _atom_site_occupancy
  C  C0  1  0.48896100  0.25916000  0.50000000  1
  C  C1  1  0.99157100  0.97825300  0.00000000  1
  C  C2  1  0.03500600  0.51721600  0.00000000  1
  C  C3  1  0.13153200  0.22174000  0.50000000  1
  C  C4  1  0.22028600  0.73970000  0.50000000  1
  C  C5  1  0.55116500  0.52174500  0.00000000  1
  C  C6  1  0.47632200  0.97385000  0.00000000  1
  C  C7  1  0.81571300  0.31349500  0.50000000  1
  C  C8  1  0.76207600  0.72818300  0.50000000  1
  Ni  Ni9  1  0.12114500  0.41390600  0.50000000  1
  Ni  Ni10  1  0.06633500  0.88474400  0.50000000  1
  Ni  Ni11  1  0.10194000  0.11819600  0.00000000  1
  Ni  Ni12  1  0.17218500  0.64712200  0.00000000  1
  Ni  Ni13  1  0.62726500  0.39990800  0.50000000  1
  Ni  Ni14  1  0.67033600  0.65302700  0.00000000  1
  Ni  Ni15  1  0.88874000  0.37105400  0.00000000  1
  Ni  Ni16  1  0.92391300  0.61312000  0.50000000  1
  Cu  Cu17  1  0.41133600  0.37066300  0.00000000  1
  Cu  Cu18  1  0.32815800  0.83902600  0.00000000  1
  Cu  Cu19  1  0.37969000  0.09858400  0.50000000  1
  Cu  Cu20  1  0.43162500  0.60817200  0.50000000  1
  Cu  Cu21  1  0.58817600  0.88302000  0.50000000  1
  Cu  Cu22  1  0.58155500  0.15300000  0.00000000  1
  Cu  Cu23  1  0.82409300  0.85974700  0.00000000  1
  Cu  Cu24  1  0.85532200  0.11114500  0.50000000  1
