# generated using pymatgen
data_Cu2(NiC3)3
_symmetry_space_group_name_H-M   'P 1'
_cell_length_a   7.06166947
_cell_length_b   7.06166947
_cell_length_c   10.15684700
_cell_angle_alpha   90.00000000
_cell_angle_beta   90.00000000
_cell_angle_gamma   119.99999503
_symmetry_Int_Tables_number   1
_chemical_formula_structural   Cu2(NiC3)3
_chemical_formula_sum   'Cu4 Ni6 C18'
_cell_volume   438.63606395
_cell_formula_units_Z   2
loop_
 _symmetry_equiv_pos_site_id
 _symmetry_equiv_pos_as_xyz
  1  'x, y, z'
loop_
 _atom_site_type_symbol
 _atom_site_label
 _atom_site_symmetry_multiplicity
 _atom_site_fract_x
 _atom_site_fract_y
 _atom_site_fract_z
 _atom_site_occupancy
  Ni  Ni0  1  0.70989000  0.92996000  0.75000000  1
  Ni  Ni1  1  0.77993000  0.70989000  0.25000000  1
  Ni  Ni2  1  0.92996000  0.22007000  0.25000000  1
  Ni  Ni3  1  0.07004000  0.77993000  0.75000000  1
  Ni  Ni4  1  0.22007000  0.29011000  0.75000000  1
  Ni  Ni5  1  0.29011000  0.07004000  0.25000000  1
  Cu  Cu6  1  0.33333300  0.66666700  0.47824200  1
  Cu  Cu7  1  0.66666700  0.33333300  0.97824200  1
  Cu  Cu8  1  0.66666700  0.33333300  0.52175800  1
  Cu  Cu9  1  0.33333300  0.66666700  0.02175800  1
  C  C10  1  0.42559100  0.07166400  0.39539700  1
  C  C11  1  0.35392700  0.42559100  0.89539700  1
  C  C12  1  0.07166400  0.64607300  0.89539700  1
  C  C13  1  0.92833600  0.35392700  0.39539700  1
  C  C14  1  0.64607300  0.57440900  0.39539700  1
  C  C15  1  0.57440900  0.92833600  0.89539700  1
  C  C16  1  0.57440900  0.92833600  0.60460300  1
  C  C17  1  0.64607300  0.57440900  0.10460300  1
  C  C18  1  0.92833600  0.35392700  0.10460300  1
  C  C19  1  0.07166400  0.64607300  0.60460300  1
  C  C20  1  0.20433000  0.26720100  0.25000000  1
  C  C21  1  0.93712900  0.20433000  0.75000000  1
  C  C22  1  0.26720100  0.06287100  0.75000000  1
  C  C23  1  0.73279900  0.93712900  0.25000000  1
  C  C24  1  0.06287100  0.79567000  0.25000000  1
  C  C25  1  0.79567000  0.73279900  0.75000000  1
  C  C26  1  0.42559100  0.07166400  0.10460300  1
  C  C27  1  0.35392700  0.42559100  0.60460300  1
