# generated using pymatgen
data_Cu24Ni6C5
_symmetry_space_group_name_H-M   'P 1'
_cell_length_a   9.34800895
_cell_length_b   9.34800861
_cell_length_c   24.71823234
_cell_angle_alpha   90.00000000
_cell_angle_beta   90.00000000
_cell_angle_gamma   120.00000124
_symmetry_Int_Tables_number   1
_chemical_formula_structural   Cu24Ni6C5
_chemical_formula_sum   'Cu72 Ni18 C15'
_cell_volume   1870.62295590
_cell_formula_units_Z   3
loop_
 _symmetry_equiv_pos_site_id
 _symmetry_equiv_pos_as_xyz
  1  'x, y, z'
loop_
 _atom_site_type_symbol
 _atom_site_label
 _atom_site_symmetry_multiplicity
 _atom_site_fract_x
 _atom_site_fract_y
 _atom_site_fract_z
 _atom_site_occupancy
  C  C0  1  0.00000000  0.00000000  0.98909828  1
  C  C1  1  0.66666700  0.33333300  0.84454672  1
  C  C2  1  0.66666700  0.33333300  0.33295990  1
  C  C3  1  0.00000000  0.00000000  0.64761415  1
  C  C4  1  0.00000000  0.00000000  0.14584392  1
  C  C5  1  0.66666700  0.33333300  0.68919044  1
  C  C6  1  0.66666700  0.33333300  0.18612210  1
  C  C7  1  0.66666700  0.33333300  0.47918239  1
  C  C8  1  0.33333300  0.66666700  0.01518712  1
  C  C9  1  0.33333300  0.66666700  0.51402900  1
  C  C10  1  0.33333300  0.66666700  0.31154126  1
  C  C11  1  0.33333300  0.66666700  0.81811016  1
  C  C12  1  0.00000000  0.00000000  0.35292659  1
  C  C13  1  0.00000000  0.00000000  0.84824594  1
  C  C14  1  0.66666700  0.33333300  0.98454215  1
  Ni  Ni15  1  0.28682561  0.00881095  0.25528568  1
  Ni  Ni16  1  0.72198533  0.71317439  0.25528568  1
  Ni  Ni17  1  0.99118905  0.27801467  0.25528568  1
  Ni  Ni18  1  0.28640563  0.28170105  0.75608460  1
  Ni  Ni19  1  0.99529542  0.71359437  0.75608460  1
  Ni  Ni20  1  0.71829895  0.00470458  0.75608460  1
  Ni  Ni21  1  0.96286181  0.33628872  0.58322071  1
  Ni  Ni22  1  0.37342792  0.03713819  0.58322071  1
  Ni  Ni23  1  0.66371128  0.62657208  0.58322071  1
  Ni  Ni24  1  0.94783504  0.61958876  0.07751434  1
  Ni  Ni25  1  0.67175472  0.05216496  0.07751434  1
  Ni  Ni26  1  0.38041124  0.32824528  0.07751434  1
  Ni  Ni27  1  0.64845001  0.66656864  0.91669233  1
  Ni  Ni28  1  0.01811763  0.35154999  0.91669233  1
  Ni  Ni29  1  0.33343136  0.98188237  0.91669233  1
  Ni  Ni30  1  0.64710068  0.96604160  0.41219939  1
  Ni  Ni31  1  0.31893992  0.35289932  0.41219939  1
  Ni  Ni32  1  0.03395840  0.68106008  0.41219939  1
  Cu  Cu33  1  0.19998014  0.02510972  0.30246208  1
  Cu  Cu34  1  0.82512958  0.80001986  0.30246208  1
  Cu  Cu35  1  0.97489028  0.17487042  0.30246208  1
  Cu  Cu36  1  0.19912733  0.17575495  0.80285168  1
  Cu  Cu37  1  0.97662761  0.80087267  0.80285168  1
  Cu  Cu38  1  0.82424505  0.02337239  0.80285168  1
  Cu  Cu39  1  0.79051553  0.98880566  0.70414678  1
  Cu  Cu40  1  0.19829013  0.20948447  0.70414678  1
  Cu  Cu41  1  0.01119434  0.80170987  0.70414678  1
  Cu  Cu42  1  0.79583185  0.80176701  0.20342054  1
  Cu  Cu43  1  0.00593517  0.20416815  0.20342054  1
  Cu  Cu44  1  0.19823299  0.99406483  0.20342054  1
  Cu  Cu45  1  0.88186796  0.35704284  0.63220711  1
  Cu  Cu46  1  0.47517588  0.11813204  0.63220711  1
  Cu  Cu47  1  0.64295716  0.52482412  0.63220711  1
  Cu  Cu48  1  0.87481572  0.53026716  0.12951369  1
  Cu  Cu49  1  0.65545244  0.12518428  0.12951369  1
  Cu  Cu50  1  0.46973284  0.34454756  0.12951369  1
  Cu  Cu51  1  0.46730491  0.30966455  0.03072758  1
  Cu  Cu52  1  0.84236064  0.53269509  0.03072758  1
  Cu  Cu53  1  0.69033545  0.15763936  0.03072758  1
  Cu  Cu54  1  0.45386257  0.14005979  0.53456826  1
  Cu  Cu55  1  0.68619823  0.54613743  0.53456826  1
  Cu  Cu56  1  0.85994021  0.31380177  0.53456826  1
  Cu  Cu57  1  0.56706894  0.69227578  0.96512296  1
  Cu  Cu58  1  0.12520583  0.43293106  0.96512296  1
  Cu  Cu59  1  0.30772422  0.87479417  0.96512296  1
  Cu  Cu60  1  0.56796795  0.86985937  0.46266632  1
  Cu  Cu61  1  0.30189042  0.43203205  0.46266632  1
  Cu  Cu62  1  0.13014063  0.69810958  0.46266632  1
  Cu  Cu63  1  0.11598147  0.64916129  0.36582391  1
  Cu  Cu64  1  0.53317883  0.88401853  0.36582391  1
  Cu  Cu65  1  0.35083871  0.46682117  0.36582391  1
  Cu  Cu66  1  0.09930779  0.45850241  0.86829185  1
  Cu  Cu67  1  0.35919362  0.90069221  0.86829185  1
  Cu  Cu68  1  0.54149759  0.64080638  0.86829185  1
  Cu  Cu69  1  0.02011161  0.82849028  0.40431588  1
  Cu  Cu70  1  0.80837867  0.97988839  0.40431588  1
  Cu  Cu71  1  0.17150972  0.19162133  0.40431588  1
  Cu  Cu72  1  0.00424648  0.18622086  0.90976191  1
  Cu  Cu73  1  0.18197437  0.99575352  0.90976191  1
  Cu  Cu74  1  0.81377914  0.81802563  0.90976191  1
  Cu  Cu75  1  0.97886392  0.18787518  0.58887766  1
  Cu  Cu76  1  0.20901126  0.02113608  0.58887766  1
  Cu  Cu77  1  0.81212482  0.79098874  0.58887766  1
  Cu  Cu78  1  0.96545286  0.78814775  0.08101718  1
  Cu  Cu79  1  0.82269489  0.03454714  0.08101718  1
  Cu  Cu80  1  0.21185225  0.17730511  0.08101718  1
  Cu  Cu81  1  0.70114233  0.15614998  0.75293371  1
  Cu  Cu82  1  0.45500865  0.29885767  0.75293371  1
  Cu  Cu83  1  0.84385002  0.54499135  0.75293371  1
  Cu  Cu84  1  0.70290984  0.54348708  0.25239927  1
  Cu  Cu85  1  0.84057824  0.29709016  0.25239927  1
  Cu  Cu86  1  0.45651292  0.15942176  0.25239927  1
  Cu  Cu87  1  0.66226733  0.51508488  0.92366928  1
  Cu  Cu88  1  0.85281855  0.33773267  0.92366928  1
  Cu  Cu89  1  0.48491512  0.14718145  0.92366928  1
  Cu  Cu90  1  0.66364934  0.13442949  0.41715068  1
  Cu  Cu91  1  0.47078115  0.33635066  0.41715068  1
  Cu  Cu92  1  0.86557051  0.52921885  0.41715068  1
  Cu  Cu93  1  0.36178849  0.47586725  0.07240638  1
  Cu  Cu94  1  0.11407776  0.63821151  0.07240638  1
  Cu  Cu95  1  0.52413275  0.88592224  0.07240638  1
  Cu  Cu96  1  0.35792985  0.87295633  0.57680963  1
  Cu  Cu97  1  0.51502549  0.64207015  0.57680963  1
  Cu  Cu98  1  0.12704367  0.48497451  0.57680963  1
  Cu  Cu99  1  0.30582649  0.86132678  0.25905131  1
  Cu  Cu100  1  0.55549929  0.69417351  0.25905131  1
  Cu  Cu101  1  0.13867322  0.44450071  0.25905131  1
  Cu  Cu102  1  0.30534208  0.44784526  0.76131592  1
  Cu  Cu103  1  0.14250218  0.69465792  0.76131592  1
  Cu  Cu104  1  0.55215474  0.85749782  0.76131592  1
