# generated using pymatgen
data_CuNiC6
_symmetry_space_group_name_H-M   'P 1'
_cell_length_a   3.95901139
_cell_length_b   3.95901152
_cell_length_c   9.62533474
_cell_angle_alpha   101.86788716
_cell_angle_beta   101.86789784
_cell_angle_gamma   89.99999031
_symmetry_Int_Tables_number   1
_chemical_formula_structural   CuNiC6
_chemical_formula_sum   'Cu1 Ni1 C6'
_cell_volume   144.34359367
_cell_formula_units_Z   1
loop_
 _symmetry_equiv_pos_site_id
 _symmetry_equiv_pos_as_xyz
  1  'x, y, z'
loop_
 _atom_site_type_symbol
 _atom_site_label
 _atom_site_symmetry_multiplicity
 _atom_site_fract_x
 _atom_site_fract_y
 _atom_site_fract_z
 _atom_site_occupancy
  C  C0  1  0.68496458  0.68496358  0.36992715  1
  C  C1  1  0.31503542  0.31503642  0.63007285  1
  Ni  Ni2  1  0.50000000  0.50000000  -0.00000000  1
  Cu  Cu3  1  0.00000000  -0.00000000  -0.00000000  1
  C  C4  1  0.81113691  0.81113691  0.62227482  1
  C  C5  1  0.18886309  0.18886309  0.37772518  1
  C  C6  1  0.00000100  0.50000100  0.00000100  1
  C  C7  1  0.49999900  -0.00000000  0.00000000  1
