# generated using pymatgen
data_Cu9NiC
_symmetry_space_group_name_H-M   'P 1'
_cell_length_a   12.50873400
_cell_length_b   7.31639600
_cell_length_c   10.47679150
_cell_angle_alpha   76.31484244
_cell_angle_beta   90.00000000
_cell_angle_gamma   90.00000000
_symmetry_Int_Tables_number   1
_chemical_formula_structural   Cu9NiC
_chemical_formula_sum   'Cu18 Ni2 C2'
_cell_volume   931.60333521
_cell_formula_units_Z   2
loop_
 _symmetry_equiv_pos_site_id
 _symmetry_equiv_pos_as_xyz
  1  'x, y, z'
loop_
 _atom_site_type_symbol
 _atom_site_label
 _atom_site_symmetry_multiplicity
 _atom_site_fract_x
 _atom_site_fract_y
 _atom_site_fract_z
 _atom_site_occupancy
  C  C0  1  0.25000000  0.64575400  0.85408800  1
  C  C1  1  0.75000000  0.35424600  0.14591200  1
  Ni  Ni2  1  0.25000000  0.75795900  0.46865600  1
  Ni  Ni3  1  0.75000000  0.24204100  0.53134400  1
  Cu  Cu4  1  0.60892100  0.44685700  0.30818100  1
  Cu  Cu5  1  0.10892100  0.55314300  0.69181900  1
  Cu  Cu6  1  0.39107900  0.55314300  0.69181900  1
  Cu  Cu7  1  0.89107900  0.44685700  0.30818100  1
  Cu  Cu8  1  0.75000000  0.67995000  0.01488400  1
  Cu  Cu9  1  0.25000000  0.32005000  0.98511600  1
  Cu  Cu10  1  0.75000000  0.50980000  0.64948900  1
  Cu  Cu11  1  0.25000000  0.49020000  0.35051100  1
  Cu  Cu12  1  0.75000000  0.02509700  0.31789800  1
  Cu  Cu13  1  0.25000000  0.97490300  0.68210200  1
  Cu  Cu14  1  0.89595700  0.24525300  0.02627100  1
  Cu  Cu15  1  0.39595700  0.75474700  0.97372900  1
  Cu  Cu16  1  0.10404300  0.75474700  0.97372900  1
  Cu  Cu17  1  0.60404300  0.24525300  0.02627100  1
  Cu  Cu18  1  0.90238900  0.05361400  0.66241400  1
  Cu  Cu19  1  0.40238900  0.94638600  0.33758600  1
  Cu  Cu20  1  0.09761100  0.94638600  0.33758600  1
  Cu  Cu21  1  0.59761100  0.05361400  0.66241400  1
