# generated using pymatgen
data_Cu2NiC12
_symmetry_space_group_name_H-M   'P 1'
_cell_length_a   5.82261625
_cell_length_b   5.82261573
_cell_length_c   7.30562800
_cell_angle_alpha   90.00000000
_cell_angle_beta   90.00000000
_cell_angle_gamma   119.26246998
_symmetry_Int_Tables_number   1
_chemical_formula_structural   Cu2NiC12
_chemical_formula_sum   'Cu2 Ni1 C12'
_cell_volume   216.07491571
_cell_formula_units_Z   1
loop_
 _symmetry_equiv_pos_site_id
 _symmetry_equiv_pos_as_xyz
  1  'x, y, z'
loop_
 _atom_site_type_symbol
 _atom_site_label
 _atom_site_symmetry_multiplicity
 _atom_site_fract_x
 _atom_site_fract_y
 _atom_site_fract_z
 _atom_site_occupancy
  C  C0  1  0.19800200  0.80199800  0.75000000  1
  C  C1  1  0.80061900  0.19938100  0.25000000  1
  C  C2  1  0.44132900  0.55867100  0.47119300  1
  C  C3  1  0.44132900  0.55867100  0.02880700  1
  Ni  Ni4  1  0.63877100  0.36122900  0.75000000  1
  Cu  Cu5  1  0.90754400  0.09245600  0.75000000  1
  Cu  Cu6  1  0.11370600  0.88629400  0.25000000  1
  C  C7  1  0.21168600  0.78831400  0.06737600  1
  C  C8  1  0.78535200  0.21464800  0.56803800  1
  C  C9  1  0.78535200  0.21464800  0.93196200  1
  C  C10  1  0.21168600  0.78831400  0.43262400  1
  C  C11  1  0.26379100  0.24851900  0.75000000  1
  C  C12  1  0.78478000  0.75209500  0.25000000  1
  C  C13  1  0.75148200  0.73620900  0.75000000  1
  C  C14  1  0.24790500  0.21522000  0.25000000  1
