# generated using pymatgen
data_Cu8NiC10
_symmetry_space_group_name_H-M   'P 1'
_cell_length_a   7.51310200
_cell_length_b   7.51310200
_cell_length_c   6.46602000
_cell_angle_alpha   90.00000000
_cell_angle_beta   90.00000000
_cell_angle_gamma   90.00000000
_symmetry_Int_Tables_number   1
_chemical_formula_structural   Cu8NiC10
_chemical_formula_sum   'Cu16 Ni2 C20'
_cell_volume   364.98550188
_cell_formula_units_Z   2
loop_
 _symmetry_equiv_pos_site_id
 _symmetry_equiv_pos_as_xyz
  1  'x, y, z'
loop_
 _atom_site_type_symbol
 _atom_site_label
 _atom_site_symmetry_multiplicity
 _atom_site_fract_x
 _atom_site_fract_y
 _atom_site_fract_z
 _atom_site_occupancy
  C  C0  1  0.00000000  0.50000000  0.09093800  1
  C  C1  1  0.50000000  0.00000000  0.90906200  1
  C  C2  1  0.50000000  0.00000000  0.40906200  1
  C  C3  1  0.00000000  0.50000000  0.59093800  1
  C  C4  1  0.85236700  0.30813500  0.10515600  1
  C  C5  1  0.14763300  0.69186500  0.10515600  1
  C  C6  1  0.30813500  0.14763300  0.89484400  1
  C  C7  1  0.69186500  0.85236700  0.89484400  1
  C  C8  1  0.80813500  0.35236700  0.60515600  1
  C  C9  1  0.64763300  0.80813500  0.39484400  1
  C  C10  1  0.35236700  0.19186500  0.39484400  1
  C  C11  1  0.19186500  0.64763300  0.60515600  1
  C  C12  1  0.76791300  0.49402600  0.18849200  1
  C  C13  1  0.23208700  0.50597400  0.18849200  1
  C  C14  1  0.49402600  0.23208700  0.81150800  1
  C  C15  1  0.50597400  0.76791300  0.81150800  1
  C  C16  1  0.99402600  0.26791300  0.68849200  1
  C  C17  1  0.73208700  0.99402600  0.31150800  1
  C  C18  1  0.00597400  0.73208700  0.68849200  1
  C  C19  1  0.26791300  0.00597400  0.31150800  1
  Ni  Ni20  1  0.50000000  0.50000000  0.50000000  1
  Ni  Ni21  1  0.00000000  0.00000000  0.00000000  1
  Cu  Cu22  1  0.84982200  0.44082100  0.08295300  1
  Cu  Cu23  1  0.15017800  0.55917900  0.08295300  1
  Cu  Cu24  1  0.44082100  0.15017800  0.91704700  1
  Cu  Cu25  1  0.55917900  0.84982200  0.91704700  1
  Cu  Cu26  1  0.94082100  0.34982200  0.58295300  1
  Cu  Cu27  1  0.65017800  0.94082100  0.41704700  1
  Cu  Cu28  1  0.34982200  0.05917900  0.41704700  1
  Cu  Cu29  1  0.05917900  0.65017800  0.58295300  1
  Cu  Cu30  1  0.59050800  0.36367400  0.63129800  1
  Cu  Cu31  1  0.40949200  0.63632600  0.63129800  1
  Cu  Cu32  1  0.36367400  0.40949200  0.36870200  1
  Cu  Cu33  1  0.63632600  0.59050800  0.36870200  1
  Cu  Cu34  1  0.86367400  0.09050800  0.13129800  1
  Cu  Cu35  1  0.90949200  0.86367400  0.86870200  1
  Cu  Cu36  1  0.09050800  0.13632600  0.86870200  1
  Cu  Cu37  1  0.13632600  0.90949200  0.13129800  1
