# generated using pymatgen
data_CuNiC5
_symmetry_space_group_name_H-M   'P 1'
_cell_length_a   3.00668431
_cell_length_b   5.51128633
_cell_length_c   5.51128633
_cell_angle_alpha   106.29796069
_cell_angle_beta   90.00000000
_cell_angle_gamma   90.00000000
_symmetry_Int_Tables_number   1
_chemical_formula_structural   CuNiC5
_chemical_formula_sum   'Cu1 Ni1 C5'
_cell_volume   87.65595795
_cell_formula_units_Z   1
loop_
 _symmetry_equiv_pos_site_id
 _symmetry_equiv_pos_as_xyz
  1  'x, y, z'
loop_
 _atom_site_type_symbol
 _atom_site_label
 _atom_site_symmetry_multiplicity
 _atom_site_fract_x
 _atom_site_fract_y
 _atom_site_fract_z
 _atom_site_occupancy
  Ni  Ni0  1  0.00000000  0.69471102  0.30528898  1
  C  C1  1  0.00000000  0.02603925  0.97396075  1
  Cu  Cu2  1  0.50000000  0.43053161  0.56946839  1
  C  C3  1  0.00000000  0.70281586  0.68624566  1
  C  C4  1  0.50000000  0.83770865  0.16229135  1
  C  C5  1  0.50000000  0.18888326  0.81111674  1
  C  C6  1  0.00000000  0.31375434  0.29718414  1
