# generated using pymatgen
data_Cu2NiC18
_symmetry_space_group_name_H-M   'P 1'
_cell_length_a   9.40292590
_cell_length_b   9.39794291
_cell_length_c   23.09059830
_cell_angle_alpha   89.97212370
_cell_angle_beta   90.10642575
_cell_angle_gamma   119.73057774
_symmetry_Int_Tables_number   1
_chemical_formula_structural   Cu2NiC18
_chemical_formula_sum   'Cu12 Ni6 C108'
_cell_volume   1771.87669511
_cell_formula_units_Z   6
loop_
 _symmetry_equiv_pos_site_id
 _symmetry_equiv_pos_as_xyz
  1  'x, y, z'
loop_
 _atom_site_type_symbol
 _atom_site_label
 _atom_site_symmetry_multiplicity
 _atom_site_fract_x
 _atom_site_fract_y
 _atom_site_fract_z
 _atom_site_occupancy
  C  C0  1  0.65517437  0.99902003  0.25567890  1
  C  C1  1  0.36627682  0.38146165  0.23885878  1
  C  C2  1  0.98647101  0.61570656  0.25337145  1
  C  C3  1  0.61667224  0.63555253  0.74297905  1
  C  C4  1  0.00306482  0.35025138  0.75778644  1
  C  C5  1  0.38061570  0.00830307  0.75648723  1
  C  C6  1  0.32084002  0.33527960  0.58870580  1
  C  C7  1  0.03475040  0.71339827  0.57303398  1
  C  C8  1  0.64986971  0.94899389  0.58615450  1
  C  C9  1  0.28580755  0.96580534  0.07365915  1
  C  C10  1  0.66707882  0.68430477  0.08830669  1
  C  C11  1  0.04909511  0.34461337  0.08660077  1
  C  C12  1  0.98057282  0.66575018  0.92224467  1
  C  C13  1  0.70179903  0.04717995  0.90836295  1
  C  C14  1  0.32284776  0.28508691  0.92099796  1
  C  C15  1  0.95173345  0.30026308  0.40711200  1
  C  C16  1  0.33516430  0.01257290  0.42364543  1
  C  C17  1  0.71604866  0.67978826  0.42216020  1
  C  C18  1  0.98778024  0.97193583  0.50068992  1
  C  C19  1  0.02337789  0.01053265  0.99996755  1
  C  C20  1  0.65510433  0.30775127  0.83518379  1
  C  C21  1  0.69603302  0.34470930  0.33311514  1
  C  C22  1  0.32313940  0.64042595  0.16461567  1
  C  C23  1  0.35867331  0.67784537  0.66688070  1
  C  C24  1  0.98840911  0.99060706  0.34984757  1
  C  C25  1  0.99726719  0.00276661  0.65261391  1
  C  C26  1  0.65194530  0.32516384  0.68340397  1
  C  C27  1  0.67457632  0.34594699  0.18043641  1
  C  C28  1  0.66467877  0.33377556  0.48521010  1
  C  C29  1  0.33334634  0.66719324  0.31630357  1
  Ni  Ni30  1  0.01431250  0.02144351  0.85012189  1
  Ni  Ni31  1  0.99921092  0.00096478  0.14936025  1
  Ni  Ni32  1  0.66541145  0.33606911  0.98443356  1
  Ni  Ni33  1  0.31117201  0.65395627  0.01424445  1
  Ni  Ni34  1  0.34703262  0.68851341  0.51538460  1
  Ni  Ni35  1  0.33091565  0.66752839  0.81999733  1
  Cu  Cu36  1  0.69952916  0.70029450  0.24714824  1
  Cu  Cu37  1  0.00057033  0.29692113  0.24816656  1
  Cu  Cu38  1  0.30232556  0.30806174  0.75210292  1
  Cu  Cu39  1  0.69783127  0.99546696  0.75393541  1
  Cu  Cu40  1  0.35860961  0.02539690  0.58243055  1
  Cu  Cu41  1  0.66189937  0.63735896  0.58206267  1
  Cu  Cu42  1  0.96931219  0.63950528  0.08157231  1
  Cu  Cu43  1  0.36466391  0.33431031  0.08088465  1
  Cu  Cu44  1  0.02909027  0.36622838  0.91647161  1
  Cu  Cu45  1  0.33350206  0.96426062  0.91678519  1
  Cu  Cu46  1  0.63675997  0.97036525  0.41633233  1
  Cu  Cu47  1  0.03612318  0.66583445  0.41825060  1
  C  C48  1  0.29805261  0.00028841  0.24888014  1
  C  C49  1  0.00081538  0.70294579  0.75195958  1
  C  C50  1  0.97020776  0.33679352  0.58348236  1
  C  C51  1  0.66544902  0.03250899  0.08166718  1
  C  C52  1  0.63045703  0.66745436  0.91714334  1
  C  C53  1  0.33232570  0.36928535  0.41799788  1
  C  C54  1  0.22256668  0.02483048  0.30144956  1
  C  C55  1  0.81245596  0.78134635  0.30486646  1
  C  C56  1  0.98517473  0.19390838  0.30714929  1
  C  C57  1  0.22613709  0.18602945  0.80828538  1
  C  C58  1  0.97491402  0.77876176  0.80414493  1
  C  C59  1  0.81114450  0.01621611  0.81134652  1
  C  C60  1  0.77669275  0.96461435  0.69546440  1
  C  C61  1  0.18984317  0.22596113  0.69416918  1
  C  C62  1  0.02097330  0.80327446  0.69960970  1
  C  C63  1  0.78710772  0.81486335  0.18978108  1
  C  C64  1  0.03194529  0.21283652  0.19040858  1
  C  C65  1  0.19712468  0.97777082  0.19659511  1
  C  C66  1  0.89125153  0.35995981  0.63558902  1
  C  C67  1  0.47697968  0.11271788  0.63877684  1
  C  C68  1  0.64037753  0.52681700  0.63997719  1
  C  C69  1  0.88917060  0.52332930  0.13827884  1
  C  C70  1  0.64015007  0.10804756  0.13414444  1
  C  C71  1  0.47206386  0.35969182  0.13958041  1
  C  C72  1  0.44813371  0.29752596  0.02417584  1
  C  C73  1  0.85325182  0.55397607  0.02402419  1
  C  C74  1  0.68832761  0.13517028  0.02982670  1
  C  C75  1  0.44434236  0.13571590  0.52459781  1
  C  C76  1  0.69419036  0.55467855  0.52497547  1
  C  C77  1  0.86746094  0.31394333  0.53152033  1
  C  C78  1  0.55414928  0.69356631  0.96917831  1
  C  C79  1  0.14797115  0.44042748  0.97323518  1
  C  C80  1  0.30852140  0.85399657  0.97526363  1
  C  C81  1  0.55891920  0.85310173  0.47368566  1
  C  C82  1  0.30756826  0.44611918  0.47032229  1
  C  C83  1  0.14341564  0.68098877  0.47697452  1
  C  C84  1  0.11860893  0.63896622  0.36009968  1
  C  C85  1  0.52516406  0.88370238  0.35886845  1
  C  C86  1  0.35324725  0.46926605  0.36565320  1
  C  C87  1  0.11104887  0.48114442  0.85864823  1
  C  C88  1  0.36910767  0.88464807  0.85909102  1
  C  C89  1  0.53061704  0.64381997  0.86439957  1
  C  C90  1  0.03197368  0.83949376  0.41700329  1
  C  C91  1  0.82310064  0.99544416  0.41507883  1
  C  C92  1  0.18908899  0.20332163  0.41246345  1
  C  C93  1  0.00394186  0.17875539  0.91406268  1
  C  C94  1  0.15875086  0.97016604  0.91209930  1
  C  C95  1  0.79834083  0.81293890  0.91183211  1
  C  C96  1  0.98283402  0.18567774  0.58779312  1
  C  C97  1  0.17740327  0.01106824  0.58696949  1
  C  C98  1  0.82076905  0.82356635  0.58587941  1
  C  C99  1  0.98301569  0.82237592  0.08650699  1
  C  C100  1  0.81537825  0.01786624  0.08589044  1
  C  C101  1  0.17846589  0.17116843  0.08504060  1
  C  C102  1  0.69100110  0.16807637  0.75051519  1
  C  C103  1  0.48909482  0.33444079  0.74862320  1
  C  C104  1  0.85695499  0.53636619  0.74565266  1
  C  C105  1  0.67476228  0.51378945  0.24583893  1
  C  C106  1  0.82742286  0.30212972  0.24581458  1
  C  C107  1  0.46403606  0.14521097  0.24355177  1
  C  C108  1  0.64511313  0.51633882  0.92123742  1
  C  C109  1  0.84675357  0.35379474  0.92218112  1
  C  C110  1  0.49595742  0.15078058  0.92125387  1
  C  C111  1  0.64959819  0.15136991  0.41969503  1
  C  C112  1  0.48363675  0.35611793  0.42166971  1
  C  C113  1  0.85003612  0.50596322  0.42015021  1
  C  C114  1  0.35931072  0.50887435  0.07582571  1
  C  C115  1  0.15612093  0.66371595  0.07950591  1
  C  C116  1  0.51864795  0.86557764  0.07619496  1
  C  C117  1  0.33693616  0.83967445  0.58211036  1
  C  C118  1  0.48496939  0.63773354  0.57818125  1
  C  C119  1  0.13507647  0.48110754  0.57806437  1
  C  C120  1  0.31208017  0.85010098  0.25342355  1
  C  C121  1  0.51808794  0.68654195  0.25026428  1
  C  C122  1  0.16090357  0.48342036  0.24975339  1
  C  C123  1  0.31215593  0.48848322  0.75799261  1
  C  C124  1  0.15269530  0.69025820  0.75528996  1
  C  C125  1  0.51167307  0.83281479  0.75720336  1
