# generated using pymatgen
data_Cu2NiC14
_symmetry_space_group_name_H-M   'P 1'
_cell_length_a   4.13430082
_cell_length_b   5.98700449
_cell_length_c   10.62471700
_cell_angle_alpha   90.00000000
_cell_angle_beta   90.00000000
_cell_angle_gamma   68.54248867
_symmetry_Int_Tables_number   1
_chemical_formula_structural   Cu2NiC14
_chemical_formula_sum   'Cu2 Ni1 C14'
_cell_volume   244.75617371
_cell_formula_units_Z   1
loop_
 _symmetry_equiv_pos_site_id
 _symmetry_equiv_pos_as_xyz
  1  'x, y, z'
loop_
 _atom_site_type_symbol
 _atom_site_label
 _atom_site_symmetry_multiplicity
 _atom_site_fract_x
 _atom_site_fract_y
 _atom_site_fract_z
 _atom_site_occupancy
  C  C0  1  0.13146300  0.72866800  0.92664600  1
  C  C1  1  0.13146300  0.72866800  0.57335400  1
  C  C2  1  0.87150400  0.28841400  0.06363600  1
  C  C3  1  0.87150400  0.28841400  0.43636400  1
  Ni  Ni4  1  0.59251800  0.94443500  0.25000000  1
  Cu  Cu5  1  0.22005700  0.57930800  0.25000000  1
  Cu  Cu6  1  0.77953300  0.35815700  0.75000000  1
  C  C7  1  0.99127200  0.90384300  0.37728100  1
  C  C8  1  0.99127200  0.90384300  0.12271900  1
  C  C9  1  0.70688500  0.59315400  0.90271000  1
  C  C10  1  0.70688500  0.59315400  0.59729000  1
  C  C11  1  0.29184200  0.45906300  0.75000000  1
  C  C12  1  0.71386500  0.57483700  0.25000000  1
  C  C13  1  0.29868600  0.43343200  0.07609200  1
  C  C14  1  0.29868600  0.43343200  0.42390800  1
  C  C15  1  0.94294800  0.11542400  0.62378200  1
  C  C16  1  0.94294800  0.11542400  0.87621800  1
