# generated using pymatgen
data_Cu4NiC4
_symmetry_space_group_name_H-M   'P 1'
_cell_length_a   8.28977000
_cell_length_b   8.28977000
_cell_length_c   7.34334400
_cell_angle_alpha   90.00000000
_cell_angle_beta   90.00000000
_cell_angle_gamma   90.00000000
_symmetry_Int_Tables_number   1
_chemical_formula_structural   Cu4NiC4
_chemical_formula_sum   'Cu8 Ni2 C8'
_cell_volume   504.63670467
_cell_formula_units_Z   2
loop_
 _symmetry_equiv_pos_site_id
 _symmetry_equiv_pos_as_xyz
  1  'x, y, z'
loop_
 _atom_site_type_symbol
 _atom_site_label
 _atom_site_symmetry_multiplicity
 _atom_site_fract_x
 _atom_site_fract_y
 _atom_site_fract_z
 _atom_site_occupancy
  C  C0  1  0.19710600  0.40513800  0.02879900  1
  C  C1  1  0.59486200  0.19710600  0.97120100  1
  C  C2  1  0.40513800  0.80289400  0.97120100  1
  C  C3  1  0.80289400  0.59486200  0.02879900  1
  C  C4  1  0.69710600  0.09486200  0.47120100  1
  C  C5  1  0.30289400  0.90513800  0.47120100  1
  C  C6  1  0.90513800  0.69710600  0.52879900  1
  C  C7  1  0.09486200  0.30289400  0.52879900  1
  Ni  Ni8  1  0.00000000  0.00000000  0.00000000  1
  Ni  Ni9  1  0.50000000  0.50000000  0.50000000  1
  Cu  Cu10  1  0.25790600  0.59506100  0.69085900  1
  Cu  Cu11  1  0.74209400  0.40493900  0.69085900  1
  Cu  Cu12  1  0.09506100  0.75790600  0.19085900  1
  Cu  Cu13  1  0.24209400  0.09506100  0.80914100  1
  Cu  Cu14  1  0.75790600  0.90493900  0.80914100  1
  Cu  Cu15  1  0.90493900  0.24209400  0.19085900  1
  Cu  Cu16  1  0.59506100  0.74209400  0.30914100  1
  Cu  Cu17  1  0.40493900  0.25790600  0.30914100  1
