# generated using pymatgen
data_CuNiC2
_symmetry_space_group_name_H-M   'P 1'
_cell_length_a   9.65992012
_cell_length_b   9.65992012
_cell_length_c   7.03816793
_cell_angle_alpha   80.14779623
_cell_angle_beta   80.14779623
_cell_angle_gamma   43.62401236
_symmetry_Int_Tables_number   1
_chemical_formula_structural   CuNiC2
_chemical_formula_sum   'Cu4 Ni4 C8'
_cell_volume   445.35184178
_cell_formula_units_Z   4
loop_
 _symmetry_equiv_pos_site_id
 _symmetry_equiv_pos_as_xyz
  1  'x, y, z'
loop_
 _atom_site_type_symbol
 _atom_site_label
 _atom_site_symmetry_multiplicity
 _atom_site_fract_x
 _atom_site_fract_y
 _atom_site_fract_z
 _atom_site_occupancy
  C  C0  1  0.85148200  0.65825200  0.71264300  1
  C  C1  1  0.34174800  0.14851800  0.78735700  1
  C  C2  1  0.14851800  0.34174800  0.28735700  1
  C  C3  1  0.65825200  0.85148200  0.21264300  1
  C  C4  1  0.90647400  0.24188900  0.72234800  1
  C  C5  1  0.75811100  0.09352600  0.77765200  1
  C  C6  1  0.09352600  0.75811100  0.27765200  1
  C  C7  1  0.24188900  0.90647400  0.22234800  1
  Ni  Ni8  1  0.21759200  0.55019200  0.82441000  1
  Ni  Ni9  1  0.44980800  0.78240800  0.67559000  1
  Ni  Ni10  1  0.78240800  0.44980800  0.17559000  1
  Ni  Ni11  1  0.55019200  0.21759200  0.32441000  1
  Cu  Cu12  1  0.05341000  0.34064200  0.65847700  1
  Cu  Cu13  1  0.65935800  0.94659000  0.84152300  1
  Cu  Cu14  1  0.94659000  0.65935800  0.34152300  1
  Cu  Cu15  1  0.34064200  0.05341000  0.15847700  1
