# generated using pymatgen
data_Cu3NiC
_symmetry_space_group_name_H-M   'P 1'
_cell_length_a   7.27001191
_cell_length_b   7.27001191
_cell_length_c   6.23936031
_cell_angle_alpha   76.72961790
_cell_angle_beta   76.72961790
_cell_angle_gamma   117.89695733
_symmetry_Int_Tables_number   1
_chemical_formula_structural   Cu3NiC
_chemical_formula_sum   'Cu6 Ni2 C2'
_cell_volume   260.99641034
_cell_formula_units_Z   2
loop_
 _symmetry_equiv_pos_site_id
 _symmetry_equiv_pos_as_xyz
  1  'x, y, z'
loop_
 _atom_site_type_symbol
 _atom_site_label
 _atom_site_symmetry_multiplicity
 _atom_site_fract_x
 _atom_site_fract_y
 _atom_site_fract_z
 _atom_site_occupancy
  C  C0  1  0.89102500  0.55134900  0.51865000  1
  C  C1  1  0.55134900  0.89102500  0.01865000  1
  Ni  Ni2  1  0.27150900  0.22650000  0.42437000  1
  Ni  Ni3  1  0.22650000  0.27150900  0.92437000  1
  Cu  Cu4  1  0.97334600  0.30035500  0.11074000  1
  Cu  Cu5  1  0.30035500  0.97334600  0.61074000  1
  Cu  Cu6  1  0.05753300  0.92836700  0.97991600  1
  Cu  Cu7  1  0.92836700  0.05753300  0.47991600  1
  Cu  Cu8  1  0.37014500  0.47179100  0.56492400  1
  Cu  Cu9  1  0.47179100  0.37014500  0.06492400  1
