# generated using pymatgen
data_Cu3Ni2
_symmetry_space_group_name_H-M   'P 1'
_cell_length_a   8.15431799
_cell_length_b   8.15431799
_cell_length_c   6.91738300
_cell_angle_alpha   90.00000000
_cell_angle_beta   90.00000000
_cell_angle_gamma   96.99473828
_symmetry_Int_Tables_number   1
_chemical_formula_structural   Cu3Ni2
_chemical_formula_sum   'Cu24 Ni16'
_cell_volume   456.53356605
_cell_formula_units_Z   8
loop_
 _symmetry_equiv_pos_site_id
 _symmetry_equiv_pos_as_xyz
  1  'x, y, z'
loop_
 _atom_site_type_symbol
 _atom_site_label
 _atom_site_symmetry_multiplicity
 _atom_site_fract_x
 _atom_site_fract_y
 _atom_site_fract_z
 _atom_site_occupancy
  Ni  Ni0  1  0.59242500  0.59242500  0.25000000  1
  Ni  Ni1  1  0.40757500  0.40757500  0.75000000  1
  Ni  Ni2  1  0.84385100  0.84385100  0.75000000  1
  Ni  Ni3  1  0.15614900  0.15614900  0.25000000  1
  Ni  Ni4  1  0.49360500  0.19075800  0.45799500  1
  Ni  Ni5  1  0.50639500  0.80924200  0.95799500  1
  Ni  Ni6  1  0.80924200  0.50639500  0.95799500  1
  Ni  Ni7  1  0.19075800  0.49360500  0.45799500  1
  Ni  Ni8  1  0.49360500  0.19075800  0.04200500  1
  Ni  Ni9  1  0.50639500  0.80924200  0.54200500  1
  Ni  Ni10  1  0.80924200  0.50639500  0.54200500  1
  Ni  Ni11  1  0.19075800  0.49360500  0.04200500  1
  Ni  Ni12  1  0.17607400  0.93763000  0.75000000  1
  Ni  Ni13  1  0.82392600  0.06237000  0.25000000  1
  Ni  Ni14  1  0.06237000  0.82392600  0.25000000  1
  Ni  Ni15  1  0.93763000  0.17607400  0.75000000  1
  Cu  Cu16  1  0.00000000  0.00000000  0.50000000  1
  Cu  Cu17  1  0.00000000  0.00000000  0.00000000  1
  Cu  Cu18  1  0.23494500  0.23494500  0.56091200  1
  Cu  Cu19  1  0.76505500  0.76505500  0.06091200  1
  Cu  Cu20  1  0.23494500  0.23494500  0.93908800  1
  Cu  Cu21  1  0.76505500  0.76505500  0.43908800  1
  Cu  Cu22  1  0.38333700  0.38333700  0.25000000  1
  Cu  Cu23  1  0.61666300  0.61666300  0.75000000  1
  Cu  Cu24  1  0.67640500  0.31494100  0.75000000  1
  Cu  Cu25  1  0.32359500  0.68505900  0.25000000  1
  Cu  Cu26  1  0.68505900  0.32359500  0.25000000  1
  Cu  Cu27  1  0.31494100  0.67640500  0.75000000  1
  Cu  Cu28  1  0.44361500  0.04994900  0.75000000  1
  Cu  Cu29  1  0.55638500  0.95005100  0.25000000  1
  Cu  Cu30  1  0.95005100  0.55638500  0.25000000  1
  Cu  Cu31  1  0.04994900  0.44361500  0.75000000  1
  Cu  Cu32  1  0.29111400  0.94686400  0.43855800  1
  Cu  Cu33  1  0.70888600  0.05313600  0.93855800  1
  Cu  Cu34  1  0.05313600  0.70888600  0.93855800  1
  Cu  Cu35  1  0.94686400  0.29111400  0.43855800  1
  Cu  Cu36  1  0.29111400  0.94686400  0.06144200  1
  Cu  Cu37  1  0.70888600  0.05313600  0.56144200  1
  Cu  Cu38  1  0.05313600  0.70888600  0.56144200  1
  Cu  Cu39  1  0.94686400  0.29111400  0.06144200  1
