# generated using pymatgen
data_Cu2NiC7
_symmetry_space_group_name_H-M   'P 1'
_cell_length_a   8.46967100
_cell_length_b   4.46493500
_cell_length_c   4.94100600
_cell_angle_alpha   90.00000000
_cell_angle_beta   90.00000000
_cell_angle_gamma   90.00000000
_symmetry_Int_Tables_number   1
_chemical_formula_structural   Cu2NiC7
_chemical_formula_sum   'Cu2 Ni1 C7'
_cell_volume   186.85170403
_cell_formula_units_Z   1
loop_
 _symmetry_equiv_pos_site_id
 _symmetry_equiv_pos_as_xyz
  1  'x, y, z'
loop_
 _atom_site_type_symbol
 _atom_site_label
 _atom_site_symmetry_multiplicity
 _atom_site_fract_x
 _atom_site_fract_y
 _atom_site_fract_z
 _atom_site_occupancy
  C  C0  1  0.00000000  0.00000000  0.00000000  1
  C  C1  1  0.50000100  0.00000000  0.00000000  1
  Ni  Ni2  1  0.50000000  0.00000000  0.50000000  1
  Cu  Cu3  1  0.22949600  0.49999900  0.49999900  1
  Cu  Cu4  1  0.77050400  0.49999900  0.49999900  1
  C  C5  1  0.23819100  0.49999900  0.00000000  1
  C  C6  1  0.76180900  0.49999900  0.00000000  1
  C  C7  1  0.50000100  0.49999900  0.49999900  1
  C  C8  1  0.27737400  0.00000000  0.49999900  1
  C  C9  1  0.72262600  0.00000000  0.49999900  1
