# generated using pymatgen
data_Cu2NiC10
_symmetry_space_group_name_H-M   'P 1'
_cell_length_a   5.57872797
_cell_length_b   5.44654342
_cell_length_c   5.58431298
_cell_angle_alpha   103.72035876
_cell_angle_beta   106.06106708
_cell_angle_gamma   120.20209026
_symmetry_Int_Tables_number   1
_chemical_formula_structural   Cu2NiC10
_chemical_formula_sum   'Cu2 Ni1 C10'
_cell_volume   125.62160417
_cell_formula_units_Z   1
loop_
 _symmetry_equiv_pos_site_id
 _symmetry_equiv_pos_as_xyz
  1  'x, y, z'
loop_
 _atom_site_type_symbol
 _atom_site_label
 _atom_site_symmetry_multiplicity
 _atom_site_fract_x
 _atom_site_fract_y
 _atom_site_fract_z
 _atom_site_occupancy
  Ni  Ni0  1  0.29125500  0.01009500  0.78449100  1
  Cu  Cu1  1  0.11537200  0.87245100  0.22747600  1
  Cu  Cu2  1  0.87301300  0.14903000  0.74559000  1
  C  C3  1  0.63989800  0.40048300  0.27941000  1
  C  C4  1  0.39783700  0.62066600  0.74261600  1
  C  C5  1  0.76813400  0.37700100  0.06028100  1
  C  C6  1  0.73353600  0.82429000  0.92316900  1
  C  C7  1  0.29449100  0.24459300  0.11059200  1
  C  C8  1  0.20071100  0.64401300  0.89323400  1
  C  C9  1  0.22813400  0.28099700  0.60662000  1
  C  C10  1  0.61714500  0.19629700  0.41130000  1
  C  C11  1  0.84345400  0.74037600  0.44932700  1
  C  C12  1  0.38452000  0.77720600  0.55339600  1
