# generated using pymatgen
data_Cu7NiC66
_symmetry_space_group_name_H-M   'P 1'
_cell_length_a   17.45076663
_cell_length_b   8.71709313
_cell_length_c   22.75663462
_cell_angle_alpha   89.98101363
_cell_angle_beta   90.01552649
_cell_angle_gamma   119.91935723
_symmetry_Int_Tables_number   1
_chemical_formula_structural   Cu7NiC66
_chemical_formula_sum   'Cu21 Ni3 C198'
_cell_volume   3000.38632037
_cell_formula_units_Z   3
loop_
 _symmetry_equiv_pos_site_id
 _symmetry_equiv_pos_as_xyz
  1  'x, y, z'
loop_
 _atom_site_type_symbol
 _atom_site_label
 _atom_site_symmetry_multiplicity
 _atom_site_fract_x
 _atom_site_fract_y
 _atom_site_fract_z
 _atom_site_occupancy
  C  C0  1  0.32107483  0.64152412  0.74981737  1
  C  C1  1  0.64826276  0.32999969  0.58414139  1
  C  C2  1  0.98663867  0.66694893  0.91689516  1
  C  C3  1  0.66524320  0.30090707  0.91546960  1
  C  C4  1  0.16723326  0.03029983  0.41682033  1
  C  C5  1  0.66630963  0.02872235  0.41696401  1
  C  C6  1  0.99677389  0.00175255  0.49559759  1
  C  C7  1  0.48983376  0.98747308  0.50081229  1
  C  C8  1  0.00231157  0.01178988  0.99703867  1
  C  C9  1  0.49381814  0.98960794  0.99543320  1
  C  C10  1  0.33645576  0.32851981  0.83564514  1
  C  C11  1  0.83147167  0.32199268  0.83041453  1
  C  C12  1  0.33779019  0.34126647  0.33331737  1
  C  C13  1  0.83814580  0.34162464  0.33278378  1
  C  C14  1  0.16745752  0.66669447  0.16664624  1
  C  C15  1  0.66612178  0.66624237  0.16684443  1
  C  C16  1  0.16673917  0.67122333  0.66429577  1
  C  C17  1  0.66320851  0.67122430  0.66909021  1
  Ni  Ni18  1  0.00024969  0.00167642  0.64762665  1
  Ni  Ni19  1  0.00029511  0.00100602  0.14796859  1
  Ni  Ni20  1  0.49911770  0.99949661  0.14760674  1
  Cu  Cu21  1  0.99629834  0.99940482  0.35136721  1
  Cu  Cu22  1  0.49512366  0.99821835  0.35153304  1
  Cu  Cu23  1  0.00098196  0.00860816  0.85135926  1
  Cu  Cu24  1  0.49596064  0.99372659  0.84990985  1
  Cu  Cu25  1  0.49599133  0.99174566  0.65009571  1
  Cu  Cu26  1  0.33799534  0.33258938  0.68226755  1
  Cu  Cu27  1  0.83106327  0.32843432  0.68568897  1
  Cu  Cu28  1  0.33367168  0.33372640  0.18424174  1
  Cu  Cu29  1  0.83335976  0.33314133  0.18499666  1
  Cu  Cu30  1  0.33355373  0.33631465  0.98072807  1
  Cu  Cu31  1  0.83340607  0.32251427  0.98371803  1
  Cu  Cu32  1  0.33829388  0.34423978  0.48351905  1
  Cu  Cu33  1  0.83819368  0.33748870  0.48175838  1
  Cu  Cu34  1  0.16980087  0.66778189  0.01645105  1
  Cu  Cu35  1  0.66430366  0.66764876  0.01709292  1
  Cu  Cu36  1  0.16932544  0.66395097  0.51730795  1
  Cu  Cu37  1  0.66448868  0.67172193  0.51597612  1
  Cu  Cu38  1  0.16705227  0.66455799  0.31657282  1
  Cu  Cu39  1  0.66631906  0.66443826  0.31587440  1
  Cu  Cu40  1  0.16760299  0.67307371  0.81824092  1
  Cu  Cu41  1  0.66344095  0.66425209  0.81472465  1
  C  C42  1  0.14797792  0.00043387  0.25200500  1
  C  C43  1  0.64780442  0.00084890  0.25193297  1
  C  C44  1  0.35244997  0.70413860  0.25149535  1
  C  C45  1  0.85273875  0.70485557  0.25140459  1
  C  C46  1  0.99969896  0.29516982  0.25156184  1
  C  C47  1  0.49974485  0.29465307  0.25144630  1
  C  C48  1  0.14755557  0.29451817  0.75146604  1
  C  C49  1  0.64723461  0.29431401  0.74997749  1
  C  C50  1  0.99961840  0.70426764  0.75193469  1
  C  C51  1  0.50090768  0.70825369  0.74976885  1
  C  C52  1  0.35335560  0.00191462  0.75012337  1
  C  C53  1  0.85305806  0.00013285  0.75166397  1
  C  C54  1  0.48018259  0.33328573  0.58296144  1
  C  C55  1  0.97912975  0.33936553  0.58363179  1
  C  C56  1  0.18919093  0.04004506  0.58272815  1
  C  C57  1  0.68759782  0.03999621  0.58285601  1
  C  C58  1  0.33283373  0.62620120  0.58430420  1
  C  C59  1  0.83213361  0.62139986  0.58298561  1
  C  C60  1  0.47918994  0.61988116  0.08334692  1
  C  C61  1  0.97984877  0.62125700  0.08264332  1
  C  C62  1  0.33045774  0.04222604  0.08309425  1
  C  C63  1  0.83060453  0.04003577  0.08371754  1
  C  C64  1  0.19009269  0.33838696  0.08325064  1
  C  C65  1  0.68942101  0.33844268  0.08280261  1
  C  C66  1  0.31331322  0.66589883  0.91609496  1
  C  C67  1  0.81292204  0.66904691  0.91692595  1
  C  C68  1  0.02101581  0.37419230  0.91688623  1
  C  C69  1  0.52023254  0.37514348  0.91680432  1
  C  C70  1  0.16722545  0.96046313  0.91695091  1
  C  C71  1  0.66675883  0.95832867  0.91655018  1
  C  C72  1  0.31290515  0.95865970  0.41679259  1
  C  C73  1  0.81291490  0.95738801  0.41682977  1
  C  C74  1  0.16666395  0.37417490  0.41658522  1
  C  C75  1  0.66691911  0.37402522  0.41729649  1
  C  C76  1  0.02050596  0.66505145  0.41667548  1
  C  C77  1  0.52002623  0.66546319  0.41577368  1
  C  C78  1  0.10662890  0.02631618  0.30464340  1
  C  C79  1  0.60675435  0.02668960  0.30479816  1
  C  C80  1  0.40815780  0.78878951  0.30282882  1
  C  C81  1  0.90829879  0.78933618  0.30283402  1
  C  C82  1  0.48693369  0.18391321  0.30289667  1
  C  C83  1  0.98648824  0.18380362  0.30289293  1
  C  C84  1  0.10505182  0.18319370  0.80261570  1
  C  C85  1  0.60675054  0.18727412  0.80378267  1
  C  C86  1  0.48439526  0.78748645  0.80239598  1
  C  C87  1  0.98676346  0.78673976  0.80478523  1
  C  C88  1  0.40678991  0.02754088  0.80308868  1
  C  C89  1  0.90869385  0.02649157  0.80297327  1
  C  C90  1  0.39308131  0.96838044  0.69760504  1
  C  C91  1  0.89755040  0.97566344  0.69739840  1
  C  C92  1  0.09109025  0.20752893  0.69760514  1
  C  C93  1  0.59414565  0.21296179  0.69604347  1
  C  C94  1  0.01201558  0.82005466  0.69839245  1
  C  C95  1  0.51378248  0.81505813  0.69671489  1
  C  C96  1  0.39671209  0.81830887  0.19732182  1
  C  C97  1  0.89695131  0.81872116  0.19722892  1
  C  C98  1  0.01220272  0.20648751  0.19729854  1
  C  C99  1  0.51236713  0.20606431  0.19724592  1
  C  C100  1  0.09031542  0.97581570  0.19835044  1
  C  C101  1  0.59038675  0.97625811  0.19833635  1
  C  C102  1  0.44047380  0.36057320  0.63579094  1
  C  C103  1  0.93806707  0.35982071  0.63689264  1
  C  C104  1  0.24086587  0.12414834  0.63565931  1
  C  C105  1  0.74248964  0.12441582  0.63502321  1
  C  C106  1  0.31958025  0.52059354  0.63884059  1
  C  C107  1  0.81920626  0.51546762  0.63607187  1
  C  C108  1  0.43875843  0.51782463  0.13683060  1
  C  C109  1  0.93743363  0.51616590  0.13525199  1
  C  C110  1  0.32018608  0.12291698  0.13681368  1
  C  C111  1  0.82014168  0.12277703  0.13671574  1
  C  C112  1  0.24097983  0.35909806  0.13679657  1
  C  C113  1  0.74195425  0.35869201  0.13538922  1
  C  C114  1  0.22683371  0.30329506  0.03052411  1
  C  C115  1  0.72563685  0.30546977  0.02870402  1
  C  C116  1  0.42518770  0.54629324  0.03054084  1
  C  C117  1  0.92679284  0.54921574  0.02860694  1
  C  C118  1  0.34774748  0.15077547  0.03036514  1
  C  C119  1  0.84845289  0.14831861  0.03081388  1
  C  C120  1  0.22453604  0.14500629  0.52865713  1
  C  C121  1  0.72665067  0.15052825  0.52881782  1
  C  C122  1  0.34572172  0.54208287  0.53195052  1
  C  C123  1  0.84866000  0.54681004  0.53014181  1
  C  C124  1  0.42608657  0.30650517  0.53044333  1
  C  C125  1  0.92518101  0.30328727  0.53063460  1
  C  C126  1  0.27127199  0.69267375  0.96820132  1
  C  C127  1  0.77287105  0.69466275  0.96998951  1
  C  C128  1  0.07402973  0.45488210  0.97002777  1
  C  C129  1  0.57685478  0.45479081  0.96942054  1
  C  C130  1  0.15002396  0.84644227  0.96931946  1
  C  C131  1  0.65426572  0.85302582  0.96966811  1
  C  C132  1  0.27233541  0.85127614  0.46973849  1
  C  C133  1  0.77257621  0.85043201  0.46995340  1
  C  C134  1  0.15260328  0.45381508  0.46922833  1
  C  C135  1  0.65422264  0.45261579  0.47146250  1
  C  C136  1  0.07641656  0.69738917  0.46941999  1
  C  C137  1  0.57589834  0.69884866  0.46858800  1
  C  C138  1  0.06074318  0.63910581  0.36329257  1
  C  C139  1  0.56120214  0.63949955  0.36300471  1
  C  C140  1  0.25694258  0.87906590  0.36386313  1
  C  C141  1  0.75681621  0.87823860  0.36405128  1
  C  C142  1  0.17982716  0.48096786  0.36359625  1
  C  C143  1  0.67988758  0.48339304  0.36502198  1
  C  C144  1  0.06037308  0.48563649  0.86388393  1
  C  C145  1  0.56113655  0.48262107  0.86387702  1
  C  C146  1  0.17944530  0.87931265  0.86361152  1
  C  C147  1  0.68101725  0.87842313  0.86384001  1
  C  C148  1  0.26078097  0.63908602  0.86141048  1
  C  C149  1  0.75755772  0.63728074  0.86437762  1
  C  C150  1  0.01347271  0.82982571  0.41005082  1
  C  C151  1  0.51360312  0.83044525  0.40947819  1
  C  C152  1  0.40149892  0.97819947  0.41002406  1
  C  C153  1  0.90173281  0.97803013  0.41017653  1
  C  C154  1  0.08750630  0.19137716  0.41031656  1
  C  C155  1  0.58794419  0.19262938  0.41051757  1
  C  C156  1  0.01042420  0.19616093  0.91007486  1
  C  C157  1  0.51371538  0.19709725  0.91031434  1
  C  C158  1  0.08444190  0.97304497  0.91010635  1
  C  C159  1  0.58803433  0.98332712  0.91045733  1
  C  C160  1  0.40198157  0.82654112  0.91020771  1
  C  C161  1  0.90400685  0.82387327  0.91035313  1
  C  C162  1  0.49222277  0.17515426  0.58939432  1
  C  C163  1  0.98843618  0.17345415  0.59110609  1
  C  C164  1  0.09748115  0.02253070  0.59113741  1
  C  C165  1  0.59911790  0.02714562  0.58966136  1
  C  C166  1  0.41310280  0.80375655  0.58989704  1
  C  C167  1  0.91302098  0.80403120  0.59045283  1
  C  C168  1  0.48888503  0.80419009  0.09103769  1
  C  C169  1  0.98843919  0.80405757  0.09056548  1
  C  C170  1  0.41299318  0.02261942  0.09073566  1
  C  C171  1  0.91331474  0.02224724  0.09082756  1
  C  C172  1  0.09795867  0.17303085  0.09099509  1
  C  C173  1  0.59832407  0.17338962  0.09073591  1
  C  C174  1  0.34269741  0.15853594  0.74302904  1
  C  C175  1  0.84602245  0.15991972  0.74308923  1
  C  C176  1  0.23604354  0.31446091  0.74324805  1
  C  C177  1  0.73628794  0.31131001  0.74373995  1
  C  C178  1  0.41845088  0.53030761  0.74348227  1
  C  C179  1  0.92022099  0.53096950  0.74279404  1
  C  C180  1  0.34504479  0.53007080  0.24279880  1
  C  C181  1  0.84516474  0.53058347  0.24269008  1
  C  C182  1  0.42031380  0.30999219  0.24283696  1
  C  C183  1  0.92017432  0.31019753  0.24281812  1
  C  C184  1  0.23463970  0.15951793  0.24295593  1
  C  C185  1  0.73468992  0.15976185  0.24304000  1
  C  C186  1  0.32175693  0.50554015  0.92298760  1
  C  C187  1  0.82284197  0.50638607  0.92325765  1
  C  C188  1  0.43170614  0.35517247  0.92378396  1
  C  C189  1  0.93188609  0.36087062  0.92320385  1
  C  C190  1  0.24564192  0.13704309  0.92368375  1
  C  C191  1  0.74585877  0.14169057  0.92284827  1
  C  C192  1  0.31975871  0.13679236  0.42340697  1
  C  C193  1  0.81961652  0.13546924  0.42329019  1
  C  C194  1  0.24552394  0.34940407  0.42283864  1
  C  C195  1  0.74607034  0.35002879  0.42301432  1
  C  C196  1  0.43164644  0.50841372  0.42282946  1
  C  C197  1  0.93158414  0.50825107  0.42330252  1
  C  C198  1  0.17655974  0.49133317  0.07704155  1
  C  C199  1  0.67724838  0.49286681  0.07681953  1
  C  C200  1  0.06903883  0.64558610  0.07661462  1
  C  C201  1  0.56891468  0.64587668  0.07721646  1
  C  C202  1  0.25396185  0.86248655  0.07700598  1
  C  C203  1  0.75384664  0.86169489  0.07690945  1
  C  C204  1  0.17587256  0.86045639  0.57699575  1
  C  C205  1  0.67832042  0.86302713  0.57651164  1
  C  C206  1  0.25276681  0.64377700  0.57754709  1
  C  C207  1  0.75295156  0.64134129  0.57654467  1
  C  C208  1  0.06860280  0.49197906  0.57705227  1
  C  C209  1  0.57124537  0.49173416  0.57679245  1
  C  C210  1  0.15435763  0.83868032  0.25566718  1
  C  C211  1  0.65457318  0.83941046  0.25568381  1
  C  C212  1  0.26536757  0.69167735  0.25564159  1
  C  C213  1  0.76550542  0.69170786  0.25567299  1
  C  C214  1  0.08034121  0.46941658  0.25558612  1
  C  C215  1  0.58042568  0.46904824  0.25550292  1
  C  C216  1  0.15615854  0.47198722  0.75578270  1
  C  C217  1  0.65633560  0.47249106  0.75628226  1
  C  C218  1  0.08026697  0.69097819  0.75579721  1
  C  C219  1  0.57953776  0.68808128  0.75637698  1
  C  C220  1  0.26455798  0.83608768  0.75650182  1
  C  C221  1  0.76595007  0.83955179  0.75573694  1
