# generated using pymatgen
data_CuNi3C31
_symmetry_space_group_name_H-M   'P 1'
_cell_length_a   8.90147242
_cell_length_b   8.90147213
_cell_length_c   23.17242616
_cell_angle_alpha   90.00000000
_cell_angle_beta   90.00000000
_cell_angle_gamma   120.00000108
_symmetry_Int_Tables_number   1
_chemical_formula_structural   CuNi3C31
_chemical_formula_sum   'Cu3 Ni9 C93'
_cell_volume   1590.10506448
_cell_formula_units_Z   3
loop_
 _symmetry_equiv_pos_site_id
 _symmetry_equiv_pos_as_xyz
  1  'x, y, z'
loop_
 _atom_site_type_symbol
 _atom_site_label
 _atom_site_symmetry_multiplicity
 _atom_site_fract_x
 _atom_site_fract_y
 _atom_site_fract_z
 _atom_site_occupancy
  C  C0  1  0.00000000  0.00000000  0.99884935  1
  C  C1  1  0.66666700  0.33333300  0.83407221  1
  C  C2  1  0.66666700  0.33333300  0.33310802  1
  Ni  Ni3  1  0.00000000  0.00000000  0.35835855  1
  Ni  Ni4  1  0.00000000  0.00000000  0.85421932  1
  Ni  Ni5  1  0.66666700  0.33333300  0.68622442  1
  Ni  Ni6  1  0.66666700  0.33333300  0.18627517  1
  Ni  Ni7  1  0.66666700  0.33333300  0.97995186  1
  Ni  Ni8  1  0.66666700  0.33333300  0.48030820  1
  Ni  Ni9  1  0.33333300  0.66666700  0.02253156  1
  Ni  Ni10  1  0.33333300  0.66666700  0.30852521  1
  Ni  Ni11  1  0.33333300  0.66666700  0.80969389  1
  Cu  Cu12  1  0.00000000  0.00000000  0.64497233  1
  Cu  Cu13  1  0.00000000  0.00000000  0.14722597  1
  Cu  Cu14  1  0.33333300  0.66666700  0.52147906  1
  C  C15  1  0.28637059  0.00193089  0.25041579  1
  C  C16  1  0.71556030  0.71362941  0.25041579  1
  C  C17  1  0.99806911  0.28443970  0.25041579  1
  C  C18  1  0.28657703  0.28542025  0.74922302  1
  C  C19  1  0.99884323  0.71342297  0.74922302  1
  C  C20  1  0.71457975  0.00115677  0.74922302  1
  C  C21  1  0.95869087  0.33341118  0.58330195  1
  C  C22  1  0.37472131  0.04130913  0.58330195  1
  C  C23  1  0.66658882  0.62527869  0.58330195  1
  C  C24  1  0.95607298  0.62587090  0.08395909  1
  C  C25  1  0.66979892  0.04392702  0.08395909  1
  C  C26  1  0.37412910  0.33020108  0.08395909  1
  C  C27  1  0.62157480  0.66626734  0.91658254  1
  C  C28  1  0.04469154  0.37842520  0.91658254  1
  C  C29  1  0.33373266  0.95530846  0.91658254  1
  C  C30  1  0.61678194  0.95190348  0.41679251  1
  C  C31  1  0.33512053  0.38321806  0.41679251  1
  C  C32  1  0.04809652  0.66487947  0.41679251  1
  C  C33  1  0.20198905  0.03039987  0.30355678  1
  C  C34  1  0.82841083  0.79801095  0.30355678  1
  C  C35  1  0.96960013  0.17158917  0.30355678  1
  C  C36  1  0.20451466  0.17320312  0.80281630  1
  C  C37  1  0.96868846  0.79548534  0.80281630  1
  C  C38  1  0.82679688  0.03131154  0.80281630  1
  C  C39  1  0.80801778  0.97923143  0.69536470  1
  C  C40  1  0.17121364  0.19198222  0.69536470  1
  C  C41  1  0.02076857  0.82878636  0.69536470  1
  C  C42  1  0.80750837  0.82870704  0.19593945  1
  C  C43  1  0.02119868  0.19249163  0.19593945  1
  C  C44  1  0.17129296  0.97880132  0.19593945  1
  C  C45  1  0.87810417  0.36637461  0.63664926  1
  C  C46  1  0.48827144  0.12189583  0.63664926  1
  C  C47  1  0.63362539  0.51172856  0.63664926  1
  C  C48  1  0.87138787  0.51454880  0.13743194  1
  C  C49  1  0.64316194  0.12861213  0.13743194  1
  C  C50  1  0.48545120  0.35683806  0.13743194  1
  C  C51  1  0.45382508  0.29559995  0.03018077  1
  C  C52  1  0.84177587  0.54617492  0.03018077  1
  C  C53  1  0.70440005  0.15822413  0.03018077  1
  C  C54  1  0.45525537  0.15498149  0.52999009  1
  C  C55  1  0.69972712  0.54474463  0.52999009  1
  C  C56  1  0.84501851  0.30027288  0.52999009  1
  C  C57  1  0.53888738  0.69365037  0.97081871  1
  C  C58  1  0.15476199  0.46111262  0.97081871  1
  C  C59  1  0.30634963  0.84523801  0.97081871  1
  C  C60  1  0.52533476  0.83781032  0.47119569  1
  C  C61  1  0.31247455  0.47466524  0.47119569  1
  C  C62  1  0.16218968  0.68752545  0.47119569  1
  C  C63  1  0.13062545  0.63561716  0.36326726  1
  C  C64  1  0.50499071  0.86937455  0.36326726  1
  C  C65  1  0.36438284  0.49500929  0.36326726  1
  C  C66  1  0.12811061  0.48877608  0.86227434  1
  C  C67  1  0.36066447  0.87188939  0.86227434  1
  C  C68  1  0.51122392  0.63933553  0.86227434  1
  C  C69  1  0.03036382  0.82605868  0.41026791  1
  C  C70  1  0.79569486  0.96963618  0.41026791  1
  C  C71  1  0.17394132  0.20430514  0.41026791  1
  C  C72  1  0.02341057  0.19559141  0.91042266  1
  C  C73  1  0.17218083  0.97658943  0.91042266  1
  C  C74  1  0.80440859  0.82781917  0.91042266  1
  C  C75  1  0.98176047  0.17427041  0.59559044  1
  C  C76  1  0.19250995  0.01823953  0.59559044  1
  C  C77  1  0.82572959  0.80749005  0.59559044  1
  C  C78  1  0.97604724  0.80990534  0.09372077  1
  C  C79  1  0.83385810  0.02395276  0.09372077  1
  C  C80  1  0.19009466  0.16614190  0.09372077  1
  C  C81  1  0.69451207  0.16240101  0.74116312  1
  C  C82  1  0.46788995  0.30548793  0.74116312  1
  C  C83  1  0.83759899  0.53211005  0.74116312  1
  C  C84  1  0.69437999  0.53249949  0.24214248  1
  C  C85  1  0.83812050  0.30562001  0.24214248  1
  C  C86  1  0.46750051  0.16187950  0.24214248  1
  C  C87  1  0.64275204  0.50444186  0.92313674  1
  C  C88  1  0.86169082  0.35724796  0.92313674  1
  C  C89  1  0.49555814  0.13830918  0.92313674  1
  C  C90  1  0.63860549  0.13408935  0.42527692  1
  C  C91  1  0.49548486  0.36139451  0.42527692  1
  C  C92  1  0.86591065  0.50451514  0.42527692  1
  C  C93  1  0.35124215  0.48701283  0.07503124  1
  C  C94  1  0.13576968  0.64875785  0.07503124  1
  C  C95  1  0.51298717  0.86423032  0.07503124  1
  C  C96  1  0.35156059  0.85914616  0.57106327  1
  C  C97  1  0.50758457  0.64843941  0.57106327  1
  C  C98  1  0.14085384  0.49241543  0.57106327  1
  C  C99  1  0.30259348  0.83984501  0.25656163  1
  C  C100  1  0.53725053  0.69740652  0.25656163  1
  C  C101  1  0.16015499  0.46274947  0.25656163  1
  C  C102  1  0.30331477  0.46349522  0.75615295  1
  C  C103  1  0.16017945  0.69668523  0.75615295  1
  C  C104  1  0.53650478  0.83982055  0.75615295  1
