# generated using pymatgen
data_CuNi3C31
_symmetry_space_group_name_H-M   'P 1'
_cell_length_a   8.36017780
_cell_length_b   8.36017756
_cell_length_c   21.82730585
_cell_angle_alpha   90.00000000
_cell_angle_beta   90.00000000
_cell_angle_gamma   120.00000094
_symmetry_Int_Tables_number   1
_chemical_formula_structural   CuNi3C31
_chemical_formula_sum   'Cu3 Ni9 C93'
_cell_volume   1321.17934958
_cell_formula_units_Z   3
loop_
 _symmetry_equiv_pos_site_id
 _symmetry_equiv_pos_as_xyz
  1  'x, y, z'
loop_
 _atom_site_type_symbol
 _atom_site_label
 _atom_site_symmetry_multiplicity
 _atom_site_fract_x
 _atom_site_fract_y
 _atom_site_fract_z
 _atom_site_occupancy
  C  C0  1  0.00000000  -0.00000000  0.99839265  1
  C  C1  1  0.66666700  0.33333300  0.83476014  1
  C  C2  1  0.66666700  0.33333300  0.33316495  1
  Ni  Ni3  1  0.00000000  -0.00000000  0.64619772  1
  Ni  Ni4  1  0.00000000  -0.00000000  0.15098215  1
  Ni  Ni5  1  0.66666700  0.33333300  0.68291343  1
  Ni  Ni6  1  0.66666700  0.33333300  0.18239325  1
  Ni  Ni7  1  0.66666700  0.33333300  0.48147816  1
  Ni  Ni8  1  0.33333300  0.66666700  0.02238348  1
  Ni  Ni9  1  0.33333300  0.66666700  0.52219186  1
  Ni  Ni10  1  0.33333300  0.66666700  0.31244033  1
  Ni  Ni11  1  0.33333300  0.66666700  0.81052476  1
  Cu  Cu12  1  0.00000000  -0.00000000  0.35485960  1
  Cu  Cu13  1  0.00000000  -0.00000000  0.85093560  1
  Cu  Cu14  1  0.66666700  0.33333300  0.98196351  1
  C  C15  1  0.29635130  0.00094907  0.24932931  1
  C  C16  1  0.70459777  0.70364870  0.24932931  1
  C  C17  1  0.99905093  0.29540223  0.24932931  1
  C  C18  1  0.29560548  0.29454936  0.74805824  1
  C  C19  1  0.99894388  0.70439452  0.74805824  1
  C  C20  1  0.70545064  0.00105612  0.74805824  1
  C  C21  1  0.95568932  0.33225478  0.58303706  1
  C  C22  1  0.37656646  0.04431068  0.58303706  1
  C  C23  1  0.66774522  0.62343354  0.58303706  1
  C  C24  1  0.96248628  0.63065475  0.08450972  1
  C  C25  1  0.66816947  0.03751372  0.08450972  1
  C  C26  1  0.36934525  0.33183053  0.08450972  1
  C  C27  1  0.61366043  0.66678233  0.91661827  1
  C  C28  1  0.05312090  0.38633957  0.91661827  1
  C  C29  1  0.33321767  0.94687910  0.91661827  1
  C  C30  1  0.61385528  0.95348769  0.41853616  1
  C  C31  1  0.33963141  0.38614472  0.41853616  1
  C  C32  1  0.04651231  0.66036859  0.41853616  1
  C  C33  1  0.22813515  0.04597786  0.30462491  1
  C  C34  1  0.81784271  0.77186485  0.30462491  1
  C  C35  1  0.95402214  0.18215729  0.30462491  1
  C  C36  1  0.22919181  0.18301302  0.80388622  1
  C  C37  1  0.95382121  0.77080819  0.80388622  1
  C  C38  1  0.81698698  0.04617879  0.80388622  1
  C  C39  1  0.79380064  0.96807065  0.69423273  1
  C  C40  1  0.17427001  0.20619936  0.69423273  1
  C  C41  1  0.03192935  0.82572999  0.69423273  1
  C  C42  1  0.79207080  0.82416671  0.19528067  1
  C  C43  1  0.03209591  0.20792920  0.19528067  1
  C  C44  1  0.17583329  0.96790409  0.19528067  1
  C  C45  1  0.87294309  0.36954232  0.63735609  1
  C  C46  1  0.49660023  0.12705691  0.63735609  1
  C  C47  1  0.63045768  0.50339977  0.63735609  1
  C  C48  1  0.87379264  0.50891679  0.13817179  1
  C  C49  1  0.63512516  0.12620736  0.13817179  1
  C  C50  1  0.49108321  0.36487484  0.13817179  1
  C  C51  1  0.43680891  0.28687919  0.02889193  1
  C  C52  1  0.85007128  0.56319109  0.02889193  1
  C  C53  1  0.71312081  0.14992872  0.02889193  1
  C  C54  1  0.45938423  0.16407842  0.52846783  1
  C  C55  1  0.70469519  0.54061577  0.52846783  1
  C  C56  1  0.83592158  0.29530481  0.52846783  1
  C  C57  1  0.52602674  0.68620883  0.97312995  1
  C  C58  1  0.16018109  0.47397326  0.97312995  1
  C  C59  1  0.31379117  0.83981891  0.97312995  1
  C  C60  1  0.52557486  0.84097427  0.47346321  1
  C  C61  1  0.31539841  0.47442514  0.47346321  1
  C  C62  1  0.15902573  0.68460159  0.47346321  1
  C  C63  1  0.12668459  0.62626407  0.36225683  1
  C  C64  1  0.49957847  0.87331541  0.36225683  1
  C  C65  1  0.37373593  0.50042152  0.36225683  1
  C  C66  1  0.14083058  0.49367517  0.86016948  1
  C  C67  1  0.35284359  0.85916942  0.86016948  1
  C  C68  1  0.50632483  0.64715641  0.86016948  1
  C  C69  1  0.02703855  0.82259160  0.41302884  1
  C  C70  1  0.79555306  0.97296145  0.41302884  1
  C  C71  1  0.17740840  0.20444694  0.41302884  1
  C  C72  1  0.03869576  0.20373817  0.91425667  1
  C  C73  1  0.16504241  0.96130424  0.91425667  1
  C  C74  1  0.79626183  0.83495759  0.91425667  1
  C  C75  1  0.97357669  0.16780767  0.59312707  1
  C  C76  1  0.19423098  0.02642331  0.59312707  1
  C  C77  1  0.83219233  0.80576902  0.59312707  1
  C  C78  1  0.98648256  0.81719149  0.09581597  1
  C  C79  1  0.83070892  0.01351744  0.09581597  1
  C  C80  1  0.18280851  0.16929108  0.09581597  1
  C  C81  1  0.68099607  0.16390935  0.73717369  1
  C  C82  1  0.48291429  0.31900393  0.73717369  1
  C  C83  1  0.83609064  0.51708571  0.73717369  1
  C  C84  1  0.67977670  0.51648995  0.23793395  1
  C  C85  1  0.83671426  0.32022330  0.23793395  1
  C  C86  1  0.48351005  0.16328574  0.23793395  1
  C  C87  1  0.62795397  0.49840530  0.91902891  1
  C  C88  1  0.87045233  0.37204603  0.91902891  1
  C  C89  1  0.50159470  0.12954767  0.91902891  1
  C  C90  1  0.62765487  0.13876213  0.42547990  1
  C  C91  1  0.51110827  0.37234513  0.42547990  1
  C  C92  1  0.86123787  0.48889173  0.42547990  1
  C  C93  1  0.35314249  0.49819688  0.07690948  1
  C  C94  1  0.14505339  0.64685751  0.07690948  1
  C  C95  1  0.50180312  0.85494661  0.07690948  1
  C  C96  1  0.35781007  0.86139032  0.57399483  1
  C  C97  1  0.50357925  0.64218993  0.57399483  1
  C  C98  1  0.13860968  0.49642075  0.57399483  1
  C  C99  1  0.31185465  0.83392340  0.25755296  1
  C  C100  1  0.52206775  0.68814535  0.25755296  1
  C  C101  1  0.16607660  0.47793225  0.25755296  1
  C  C102  1  0.31267548  0.47769326  0.75603882  1
  C  C103  1  0.16501679  0.68732452  0.75603882  1
  C  C104  1  0.52230674  0.83498321  0.75603882  1
