# generated using pymatgen
data_CuNiC6
_symmetry_space_group_name_H-M   'P 1'
_cell_length_a   3.99311186
_cell_length_b   3.99311088
_cell_length_c   13.03809298
_cell_angle_alpha   98.80851834
_cell_angle_beta   98.80851931
_cell_angle_gamma   89.99998896
_symmetry_Int_Tables_number   1
_chemical_formula_structural   CuNiC6
_chemical_formula_sum   'Cu1 Ni1 C6'
_cell_volume   202.95806766
_cell_formula_units_Z   1
loop_
 _symmetry_equiv_pos_site_id
 _symmetry_equiv_pos_as_xyz
  1  'x, y, z'
loop_
 _atom_site_type_symbol
 _atom_site_label
 _atom_site_symmetry_multiplicity
 _atom_site_fract_x
 _atom_site_fract_y
 _atom_site_fract_z
 _atom_site_occupancy
  C  C0  1  0.56476100  0.56476100  0.12952300  1
  C  C1  1  0.43523900  0.43523900  0.87047700  1
  Ni  Ni2  1  0.75000000  0.25000000  0.50000000  1
  Cu  Cu3  1  0.00000000  0.00000000  0.00000000  1
  C  C4  1  0.87155700  0.87155700  0.74311300  1
  C  C5  1  0.12844300  0.12844300  0.25688700  1
  C  C6  1  0.49996700  0.99996700  0.99993400  1
  C  C7  1  0.00003300  0.50003300  0.00006600  1
