# generated using pymatgen
data_CuNiC18
_symmetry_space_group_name_H-M   'P 1'
_cell_length_a   15.43661674
_cell_length_b   8.90861047
_cell_length_c   8.92870194
_cell_angle_alpha   90.00000000
_cell_angle_beta   124.90268156
_cell_angle_gamma   90.00000000
_symmetry_Int_Tables_number   1
_chemical_formula_structural   CuNiC18
_chemical_formula_sum   'Cu4 Ni4 C72'
_cell_volume   1007.00243234
_cell_formula_units_Z   4
loop_
 _symmetry_equiv_pos_site_id
 _symmetry_equiv_pos_as_xyz
  1  'x, y, z'
loop_
 _atom_site_type_symbol
 _atom_site_label
 _atom_site_symmetry_multiplicity
 _atom_site_fract_x
 _atom_site_fract_y
 _atom_site_fract_z
 _atom_site_occupancy
  C  C0  1  0.25075415  0.72533328  0.99464993  1
  C  C1  1  0.75075415  0.77466672  0.49464993  1
  C  C2  1  0.75075415  0.22533328  0.99464993  1
  C  C3  1  0.25075415  0.27466672  0.49464993  1
  C  C4  1  0.50530336  0.11141984  0.76094930  1
  C  C5  1  0.50530336  0.88858016  0.26094930  1
  C  C6  1  0.00530336  0.61141984  0.76094930  1
  C  C7  1  0.00530336  0.38858016  0.26094930  1
  C  C8  1  0.18556914  0.93240355  0.28112183  1
  C  C9  1  0.18556914  0.06759645  0.78112183  1
  C  C10  1  0.68556914  0.43240355  0.28112183  1
  C  C11  1  0.68556914  0.56759645  0.78112183  1
  C  C12  1  0.10516864  0.74094660  0.56204442  1
  C  C13  1  0.10516864  0.25905340  0.06204442  1
  C  C14  1  0.60516864  0.24094660  0.56204442  1
  C  C15  1  0.60516864  0.75905340  0.06204442  1
  Ni  Ni16  1  0.64562118  0.89857350  0.74774692  1
  Ni  Ni17  1  0.64562118  0.10142650  0.24774692  1
  Ni  Ni18  1  0.14562118  0.39857350  0.74774692  1
  Ni  Ni19  1  0.14562118  0.60142650  0.24774692  1
  Cu  Cu20  1  0.89766054  0.75636022  0.94326174  1
  Cu  Cu21  1  0.89766054  0.24363978  0.44326174  1
  Cu  Cu22  1  0.39766054  0.25636022  0.94326174  1
  Cu  Cu23  1  0.39766054  0.74363978  0.44326174  1
  C  C24  1  0.00201651  0.95589791  0.75656725  1
  C  C25  1  0.00201651  0.04410209  0.25656725  1
  C  C26  1  0.50201651  0.45589791  0.75656725  1
  C  C27  1  0.50201651  0.54410209  0.25656725  1
  C  C28  1  0.35203680  0.89141462  0.75901965  1
  C  C29  1  0.35203680  0.10858538  0.25901965  1
  C  C30  1  0.85203680  0.39141462  0.75901965  1
  C  C31  1  0.85203680  0.60858538  0.25901965  1
  C  C32  1  0.14741702  0.58131979  0.73827496  1
  C  C33  1  0.84665306  0.56831568  0.76088390  1
  C  C34  1  0.84665306  0.43168432  0.26088390  1
  C  C35  1  0.14741702  0.41868021  0.23827496  1
  C  C36  1  0.64741702  0.08131979  0.73827496  1
  C  C37  1  0.34665306  0.06831568  0.76088390  1
  C  C38  1  0.34665306  0.93168432  0.26088390  1
  C  C39  1  0.64741702  0.91868021  0.23827496  1
  C  C40  1  0.43208581  0.54921698  0.58053182  1
  C  C41  1  0.56649466  0.55330052  0.92977675  1
  C  C42  1  0.56649466  0.44669948  0.42977675  1
  C  C43  1  0.43208581  0.45078302  0.08053182  1
  C  C44  1  0.93208581  0.04921698  0.58053182  1
  C  C45  1  0.06649466  0.05330052  0.92977675  1
  C  C46  1  0.06649466  0.94669948  0.42977675  1
  C  C47  1  0.93208581  0.95078302  0.08053182  1
  C  C48  1  0.25344829  0.83310804  0.74380352  1
  C  C49  1  0.74491288  0.81480831  0.75952248  1
  C  C50  1  0.74491288  0.18519169  0.25952248  1
  C  C51  1  0.25344829  0.16689196  0.24380352  1
  C  C52  1  0.75344829  0.33310804  0.74380352  1
  C  C53  1  0.24491288  0.31480831  0.75952248  1
  C  C54  1  0.24491288  0.68519169  0.25952248  1
  C  C55  1  0.75344829  0.66689196  0.24380352  1
  C  C56  1  0.34839695  0.86394390  0.58233551  1
  C  C57  1  0.63639532  0.85344413  0.91325026  1
  C  C58  1  0.63639532  0.14655587  0.41325026  1
  C  C59  1  0.34839695  0.13605610  0.08233551  1
  C  C60  1  0.84839695  0.36394390  0.58233551  1
  C  C61  1  0.13639532  0.35344413  0.91325026  1
  C  C62  1  0.13639532  0.64655587  0.41325026  1
  C  C63  1  0.84839695  0.63605610  0.08233551  1
  C  C64  1  0.45240347  0.82992409  0.93169916  1
  C  C65  1  0.54310741  0.82768417  0.55577673  1
  C  C66  1  0.54310741  0.17231583  0.05577673  1
  C  C67  1  0.45240347  0.17007591  0.43169916  1
  C  C68  1  0.95240347  0.32992409  0.93169916  1
  C  C69  1  0.04310741  0.32768417  0.55577673  1
  C  C70  1  0.04310741  0.67231583  0.05577673  1
  C  C71  1  0.95240347  0.67007591  0.43169916  1
  C  C72  1  0.08235677  0.85931820  0.74574621  1
  C  C73  1  0.92219803  0.84571947  0.75303766  1
  C  C74  1  0.92219803  0.15428053  0.25303766  1
  C  C75  1  0.08235677  0.14068180  0.24574621  1
  C  C76  1  0.58235677  0.35931820  0.74574621  1
  C  C77  1  0.42219803  0.34571947  0.75303766  1
  C  C78  1  0.42219803  0.65428053  0.25303766  1
  C  C79  1  0.58235677  0.64068180  0.24574621  1
