# generated using pymatgen
data_CuNiC9
_symmetry_space_group_name_H-M   'P 1'
_cell_length_a   6.46205353
_cell_length_b   7.20570419
_cell_length_c   7.20570384
_cell_angle_alpha   50.73803997
_cell_angle_beta   54.10240382
_cell_angle_gamma   54.10239149
_symmetry_Int_Tables_number   1
_chemical_formula_structural   CuNiC9
_chemical_formula_sum   'Cu1 Ni1 C9'
_cell_volume   197.65858214
_cell_formula_units_Z   1
loop_
 _symmetry_equiv_pos_site_id
 _symmetry_equiv_pos_as_xyz
  1  'x, y, z'
loop_
 _atom_site_type_symbol
 _atom_site_label
 _atom_site_symmetry_multiplicity
 _atom_site_fract_x
 _atom_site_fract_y
 _atom_site_fract_z
 _atom_site_occupancy
  C  C0  1  0.69846985  0.67878654  0.67878655  1
  C  C1  1  0.19725064  0.30131185  0.30131085  1
  Ni  Ni2  1  0.87699460  0.91739734  0.91739734  1
  Cu  Cu3  1  0.46753265  0.53478966  0.53478966  1
  C  C4  1  0.11066916  0.05491341  0.05491341  1
  C  C5  1  0.22072238  0.73702536  0.73702436  1
  C  C6  1  0.75288615  0.20334813  0.20334713  1
  C  C7  1  0.74260104  0.71473251  0.27261086  1
  C  C8  1  0.74260104  0.27260986  0.71473251  1
  C  C9  1  0.27742874  0.24241177  0.71767256  1
  C  C10  1  0.27742774  0.71767356  0.24241177  1
