# generated using pymatgen
data_Cu2NiC12
_symmetry_space_group_name_H-M   'P 1'
_cell_length_a   7.30282844
_cell_length_b   7.29415614
_cell_length_c   7.31658831
_cell_angle_alpha   60.03099167
_cell_angle_beta   60.04814085
_cell_angle_gamma   60.13725763
_symmetry_Int_Tables_number   1
_chemical_formula_structural   Cu2NiC12
_chemical_formula_sum   'Cu2 Ni1 C12'
_cell_volume   276.03760054
_cell_formula_units_Z   1
loop_
 _symmetry_equiv_pos_site_id
 _symmetry_equiv_pos_as_xyz
  1  'x, y, z'
loop_
 _atom_site_type_symbol
 _atom_site_label
 _atom_site_symmetry_multiplicity
 _atom_site_fract_x
 _atom_site_fract_y
 _atom_site_fract_z
 _atom_site_occupancy
  Ni  Ni0  1  0.37676600  0.37305000  0.37409800  1
  Cu  Cu1  1  0.87510100  0.87496500  0.87508900  1
  Cu  Cu2  1  0.12603900  0.12387500  0.12380900  1
  C  C3  1  0.52391300  0.52375700  0.52442300  1
  C  C4  1  0.52423900  0.52462900  0.92597900  1
  C  C5  1  0.92800900  0.52448000  0.52357300  1
  C  C6  1  0.52502200  0.92615500  0.52451300  1
  C  C7  1  0.74204100  0.74128200  0.74099200  1
  C  C8  1  0.25163600  0.25202800  0.74539300  1
  C  C9  1  0.25081300  0.74515500  0.25202700  1
  C  C10  1  0.74769700  0.25072300  0.25169100  1
  C  C11  1  0.74148200  0.27601400  0.74094000  1
  C  C12  1  0.27580900  0.74119000  0.74094200  1
  C  C13  1  0.24977600  0.25195700  0.25072500  1
  C  C14  1  0.74129000  0.74110600  0.27617900  1
