# generated using pymatgen
data_Cu2Ni7C12
_symmetry_space_group_name_H-M   'P 1'
_cell_length_a   9.95648200
_cell_length_b   11.41946900
_cell_length_c   16.71577300
_cell_angle_alpha   90.00000000
_cell_angle_beta   90.00000000
_cell_angle_gamma   90.00000000
_symmetry_Int_Tables_number   1
_chemical_formula_structural   Cu2Ni7C12
_chemical_formula_sum   'Cu8 Ni28 C48'
_cell_volume   1900.54557147
_cell_formula_units_Z   4
loop_
 _symmetry_equiv_pos_site_id
 _symmetry_equiv_pos_as_xyz
  1  'x, y, z'
loop_
 _atom_site_type_symbol
 _atom_site_label
 _atom_site_symmetry_multiplicity
 _atom_site_fract_x
 _atom_site_fract_y
 _atom_site_fract_z
 _atom_site_occupancy
  Ni  Ni0  1  0.90014600  0.75000000  0.48825600  1
  Ni  Ni1  1  0.40014600  0.25000000  0.01174400  1
  Ni  Ni2  1  0.09985400  0.25000000  0.51174400  1
  Ni  Ni3  1  0.59985400  0.75000000  0.98825600  1
  Ni  Ni4  1  0.11960500  0.47179500  0.62703000  1
  Ni  Ni5  1  0.61960500  0.52820500  0.87297000  1
  Ni  Ni6  1  0.88039500  0.97179500  0.37297000  1
  Ni  Ni7  1  0.38039500  0.02820500  0.12703000  1
  Ni  Ni8  1  0.88039500  0.52820500  0.37297000  1
  Ni  Ni9  1  0.38039500  0.47179500  0.12703000  1
  Ni  Ni10  1  0.11960500  0.02820500  0.62703000  1
  Ni  Ni11  1  0.61960500  0.97179500  0.87297000  1
  Ni  Ni12  1  0.25232600  0.57017900  0.50151700  1
  Ni  Ni13  1  0.75232600  0.42982100  0.99848300  1
  Ni  Ni14  1  0.74767400  0.07017900  0.49848300  1
  Ni  Ni15  1  0.24767400  0.92982100  0.00151700  1
  Ni  Ni16  1  0.74767400  0.42982100  0.49848300  1
  Ni  Ni17  1  0.24767400  0.57017900  0.00151700  1
  Ni  Ni18  1  0.25232600  0.92982100  0.50151700  1
  Ni  Ni19  1  0.75232600  0.07017900  0.99848300  1
  Ni  Ni20  1  0.14255700  0.42195100  0.38533400  1
  Ni  Ni21  1  0.64255700  0.57804800  0.11466600  1
  Ni  Ni22  1  0.85744300  0.92195200  0.61466600  1
  Ni  Ni23  1  0.35744300  0.07804900  0.88533400  1
  Ni  Ni24  1  0.85744300  0.57804800  0.61466600  1
  Ni  Ni25  1  0.35744300  0.42195100  0.88533400  1
  Ni  Ni26  1  0.14255700  0.07804900  0.38533400  1
  Ni  Ni27  1  0.64255700  0.92195200  0.11466600  1
  Cu  Cu28  1  0.47869700  0.75000000  0.68594600  1
  Cu  Cu29  1  0.97869700  0.25000000  0.81405400  1
  Cu  Cu30  1  0.52130300  0.25000000  0.31405400  1
  Cu  Cu31  1  0.02130300  0.75000000  0.18594600  1
  Cu  Cu32  1  0.01260500  0.75000000  0.82944400  1
  Cu  Cu33  1  0.51260500  0.25000000  0.67055600  1
  Cu  Cu34  1  0.98739500  0.25000000  0.17055600  1
  Cu  Cu35  1  0.48739500  0.75000000  0.32944400  1
  C  C36  1  0.58170600  0.14015100  0.24789700  1
  C  C37  1  0.08170600  0.85984900  0.25210300  1
  C  C38  1  0.41829400  0.64015100  0.75210300  1
  C  C39  1  0.91829400  0.35984900  0.74789700  1
  C  C40  1  0.41829400  0.85984900  0.75210300  1
  C  C41  1  0.91829400  0.14015100  0.74789700  1
  C  C42  1  0.58170600  0.35984900  0.24789700  1
  C  C43  1  0.08170600  0.64015100  0.25210300  1
  C  C44  1  0.46111300  0.35991900  0.37978600  1
  C  C45  1  0.96111300  0.64008100  0.12021400  1
  C  C46  1  0.53888700  0.85991900  0.62021400  1
  C  C47  1  0.03888700  0.14008100  0.87978600  1
  C  C48  1  0.53888700  0.64008100  0.62021400  1
  C  C49  1  0.03888700  0.35991900  0.87978600  1
  C  C50  1  0.46111300  0.14008100  0.37978600  1
  C  C51  1  0.96111300  0.85991900  0.12021400  1
  C  C52  1  0.32130200  0.75000000  0.63431900  1
  C  C53  1  0.82130200  0.25000000  0.86568100  1
  C  C54  1  0.67869800  0.25000000  0.36568100  1
  C  C55  1  0.17869800  0.75000000  0.13431900  1
  C  C56  1  0.13833700  0.63979400  0.83501300  1
  C  C57  1  0.63557100  0.75000000  0.73727200  1
  C  C58  1  0.36442900  0.25000000  0.26272800  1
  C  C59  1  0.86442900  0.75000000  0.23727200  1
  C  C60  1  0.11279000  0.13979900  0.17823600  1
  C  C61  1  0.61279000  0.86020100  0.32176400  1
  C  C62  1  0.88721000  0.63979900  0.82176400  1
  C  C63  1  0.38721000  0.36020100  0.67823600  1
  C  C64  1  0.88721000  0.86020100  0.82176400  1
  C  C65  1  0.38721000  0.13979900  0.67823600  1
  C  C66  1  0.11279000  0.36020100  0.17823600  1
  C  C67  1  0.61279000  0.63979900  0.32176400  1
  C  C68  1  0.86166300  0.36020600  0.16498700  1
  C  C69  1  0.36166300  0.63979400  0.33501300  1
  C  C70  1  0.13833700  0.86020600  0.83501300  1
  C  C71  1  0.63833700  0.13979400  0.66498700  1
  C  C72  1  0.47292500  0.75000000  0.22249300  1
  C  C73  1  0.97292500  0.25000000  0.27750700  1
  C  C74  1  0.52707500  0.25000000  0.77750700  1
  C  C75  1  0.02707500  0.75000000  0.72249300  1
  C  C76  1  0.50145200  0.75000000  0.43493500  1
  C  C77  1  0.00145200  0.25000000  0.06506500  1
  C  C78  1  0.49854800  0.25000000  0.56506500  1
  C  C79  1  0.99854800  0.75000000  0.93493500  1
  C  C80  1  0.36166300  0.86020600  0.33501300  1
  C  C81  1  0.86166300  0.13979400  0.16498700  1
  C  C82  1  0.63833700  0.36020600  0.66498700  1
  C  C83  1  0.13557100  0.25000000  0.76272800  1
