# generated using pymatgen
data_Cu2Ni2C9
_symmetry_space_group_name_H-M   'P 1'
_cell_length_a   3.38900800
_cell_length_b   3.38870627
_cell_length_c   47.03302975
_cell_angle_alpha   90.03467057
_cell_angle_beta   90.00000000
_cell_angle_gamma   120.00292593
_symmetry_Int_Tables_number   1
_chemical_formula_structural   Cu2Ni2C9
_chemical_formula_sum   'Cu2 Ni2 C9'
_cell_volume   467.76443281
_cell_formula_units_Z   1
loop_
 _symmetry_equiv_pos_site_id
 _symmetry_equiv_pos_as_xyz
  1  'x, y, z'
loop_
 _atom_site_type_symbol
 _atom_site_label
 _atom_site_symmetry_multiplicity
 _atom_site_fract_x
 _atom_site_fract_y
 _atom_site_fract_z
 _atom_site_occupancy
  C  C0  1  0.99991100  0.99982200  0.18453800  1
  C  C1  1  0.33337900  0.66675800  0.32898200  1
  C  C2  1  0.33358100  0.66716400  0.69725400  1
  C  C3  1  0.33291900  0.66583900  0.24882500  1
  C  C4  1  0.33305700  0.66611600  0.61746900  1
  C  C5  1  0.33348500  0.66696900  0.08547400  1
  C  C6  1  0.66650600  0.33301400  0.28912200  1
  C  C7  1  0.66666300  0.33332600  0.65735200  1
  C  C8  1  0.33334700  0.66669400  0.46961200  1
  Ni  Ni9  1  0.66679200  0.33358300  0.05047200  1
  Ni  Ni10  1  0.66688500  0.33376800  0.12095800  1
  Cu  Cu11  1  0.66656000  0.33311800  0.43751700  1
  Cu  Cu12  1  0.66691500  0.33383000  0.50172900  1
