# generated using pymatgen
data_Cu(NiC4)2
_symmetry_space_group_name_H-M   'P 1'
_cell_length_a   6.39042443
_cell_length_b   6.39042421
_cell_length_c   6.35118000
_cell_angle_alpha   60.20292841
_cell_angle_beta   60.20292957
_cell_angle_gamma   56.90195938
_symmetry_Int_Tables_number   1
_chemical_formula_structural   Cu(NiC4)2
_chemical_formula_sum   'Cu1 Ni2 C8'
_cell_volume   179.24821596
_cell_formula_units_Z   1
loop_
 _symmetry_equiv_pos_site_id
 _symmetry_equiv_pos_as_xyz
  1  'x, y, z'
loop_
 _atom_site_type_symbol
 _atom_site_label
 _atom_site_symmetry_multiplicity
 _atom_site_fract_x
 _atom_site_fract_y
 _atom_site_fract_z
 _atom_site_occupancy
  Ni  Ni0  1  0.68459400  0.68459400  0.81540600  1
  Ni  Ni1  1  0.31540600  0.31540600  0.18459400  1
  Cu  Cu2  1  0.50000000  0.50000000  0.50000000  1
  C  C3  1  0.00000000  0.00000000  0.50000000  1
  C  C4  1  0.00000000  0.00000000  0.00000000  1
  C  C5  1  0.22636700  0.77363300  0.74693700  1
  C  C6  1  0.22636700  0.77363300  0.25306300  1
  C  C7  1  0.77363300  0.22636700  0.74693700  1
  C  C8  1  0.22594900  0.22594900  0.77405100  1
  C  C9  1  0.77363300  0.22636700  0.25306300  1
  C  C10  1  0.77405100  0.77405100  0.22594900  1
