# generated using pymatgen
data_CuNi2C
_symmetry_space_group_name_H-M   'P 1'
_cell_length_a   5.80999177
_cell_length_b   5.80999177
_cell_length_c   7.53782000
_cell_angle_alpha   90.00000000
_cell_angle_beta   90.00000000
_cell_angle_gamma   132.56859902
_symmetry_Int_Tables_number   1
_chemical_formula_structural   CuNi2C
_chemical_formula_sum   'Cu2 Ni4 C2'
_cell_volume   187.39182572
_cell_formula_units_Z   2
loop_
 _symmetry_equiv_pos_site_id
 _symmetry_equiv_pos_as_xyz
  1  'x, y, z'
loop_
 _atom_site_type_symbol
 _atom_site_label
 _atom_site_symmetry_multiplicity
 _atom_site_fract_x
 _atom_site_fract_y
 _atom_site_fract_z
 _atom_site_occupancy
  C  C0  1  0.07953000  0.92047000  0.25000000  1
  C  C1  1  0.92047000  0.07953000  0.75000000  1
  Ni  Ni2  1  0.36343800  0.63656200  0.04988300  1
  Ni  Ni3  1  0.63656200  0.36343800  0.54988300  1
  Ni  Ni4  1  0.63656200  0.36343800  0.95011700  1
  Ni  Ni5  1  0.36343800  0.63656200  0.45011700  1
  Cu  Cu6  1  0.79531500  0.20468500  0.25000000  1
  Cu  Cu7  1  0.20468500  0.79531500  0.75000000  1
