# generated using pymatgen
data_Cu3NiC16
_symmetry_space_group_name_H-M   'P 1'
_cell_length_a   6.57778354
_cell_length_b   6.57828479
_cell_length_c   9.51561203
_cell_angle_alpha   90.89649661
_cell_angle_beta   89.11077980
_cell_angle_gamma   84.75281185
_symmetry_Int_Tables_number   1
_chemical_formula_structural   Cu3NiC16
_chemical_formula_sum   'Cu3 Ni1 C16'
_cell_volume   409.91055478
_cell_formula_units_Z   1
loop_
 _symmetry_equiv_pos_site_id
 _symmetry_equiv_pos_as_xyz
  1  'x, y, z'
loop_
 _atom_site_type_symbol
 _atom_site_label
 _atom_site_symmetry_multiplicity
 _atom_site_fract_x
 _atom_site_fract_y
 _atom_site_fract_z
 _atom_site_occupancy
  C  C0  1  0.51502553  0.88778602  0.20984321  1
  C  C1  1  0.48493195  0.94155180  0.77915053  1
  C  C2  1  0.02844843  0.97159217  0.50461981  1
  C  C3  1  0.11215479  0.48500032  0.20980260  1
  C  C4  1  0.05841383  0.51507541  0.77914360  1
  Ni  Ni5  1  0.74468492  0.25531895  0.26557688  1
  Cu  Cu6  1  0.01703978  0.98293925  0.00091742  1
  Cu  Cu7  1  0.52997893  0.47002845  0.98234972  1
  Cu  Cu8  1  0.48384143  0.51614052  0.50754135  1
  C  C9  1  0.76269238  0.23800801  0.05320859  1
  C  C10  1  0.27155102  0.23530747  0.98751684  1
  C  C11  1  0.76446546  0.72876786  0.98741527  1
  C  C12  1  0.98031114  0.01931255  0.24346022  1
  C  C13  1  0.73881982  0.26114969  0.46928088  1
  C  C14  1  0.51527532  0.48471420  0.24856375  1
  C  C15  1  0.27111375  0.72878914  0.03292975  1
  C  C16  1  0.49015553  0.84919970  0.49396256  1
  C  C17  1  0.15078790  0.50974180  0.49396370  1
  C  C18  1  0.49108218  0.50887063  0.74660698  1
  C  C19  1  0.09134191  0.90858807  0.76128934  1
