# generated using pymatgen
data_Cu3NiC33
_symmetry_space_group_name_H-M   'P 1'
_cell_length_a   17.65103905
_cell_length_b   8.89206039
_cell_length_c   22.95317858
_cell_angle_alpha   89.79260804
_cell_angle_beta   89.98669052
_cell_angle_gamma   120.23937241
_symmetry_Int_Tables_number   1
_chemical_formula_structural   Cu3NiC33
_chemical_formula_sum   'Cu18 Ni6 C198'
_cell_volume   3112.35738000
_cell_formula_units_Z   6
loop_
 _symmetry_equiv_pos_site_id
 _symmetry_equiv_pos_as_xyz
  1  'x, y, z'
loop_
 _atom_site_type_symbol
 _atom_site_label
 _atom_site_symmetry_multiplicity
 _atom_site_fract_x
 _atom_site_fract_y
 _atom_site_fract_z
 _atom_site_occupancy
  C  C0  1  0.65490440  0.34811889  0.58136649  1
  C  C1  1  0.52078493  0.68972736  0.58404888  1
  C  C2  1  0.82464026  0.95600699  0.58263700  1
  C  C3  1  0.15318191  0.95991262  0.08436816  1
  C  C4  1  0.32333874  0.69241299  0.08624354  1
  C  C5  1  0.02050070  0.35297990  0.08734618  1
  C  C6  1  0.00547976  0.99098131  0.49584980  1
  C  C7  1  0.49371926  0.00784464  0.49984082  1
  C  C8  1  0.99500327  0.98133320  0.00205842  1
  C  C9  1  0.50369931  0.00814151  0.00028046  1
  C  C10  1  0.32609739  0.31817756  0.82097456  1
  C  C11  1  0.82929538  0.33324383  0.83413298  1
  C  C12  1  0.32660919  0.32347911  0.33551456  1
  C  C13  1  0.83422309  0.34448172  0.32520278  1
  C  C14  1  0.16390712  0.66536151  0.16134643  1
  C  C15  1  0.67373928  0.67914424  0.17306172  1
  C  C16  1  0.17234888  0.66670933  0.66832570  1
  C  C17  1  0.66562992  0.66381333  0.65628752  1
  Ni  Ni18  1  0.33265411  0.32022200  0.68960678  1
  Ni  Ni19  1  0.82993117  0.33340610  0.68061140  1
  Ni  Ni20  1  0.32789463  0.32311883  0.18355927  1
  Ni  Ni21  1  0.83556920  0.34690764  0.19247947  1
  Ni  Ni22  1  0.16613887  0.66933839  0.02394522  1
  Ni  Ni23  1  0.66717576  0.66553861  0.52293299  1
  C  C24  1  0.64723307  0.00445410  0.25011001  1
  C  C25  1  0.85522138  0.70670112  0.25187037  1
  C  C26  1  0.14731128  0.28938960  0.74996665  1
  C  C27  1  0.35652093  0.00611560  0.75213036  1
  C  C28  1  0.47520643  0.33701294  0.58506328  1
  C  C29  1  0.68882873  0.04251304  0.58547330  1
  C  C30  1  0.83635420  0.63062183  0.58699170  1
  C  C31  1  0.97490552  0.61623246  0.08521013  1
  C  C32  1  0.33785726  0.04436668  0.08585046  1
  C  C33  1  0.18638037  0.33462838  0.08681697  1
  C  C34  1  0.81556527  0.66927260  0.91435776  1
  C  C35  1  0.66556395  0.96211926  0.91720953  1
  C  C36  1  0.31594192  0.96050269  0.41414131  1
  C  C37  1  0.16690568  0.37192408  0.41690554  1
  C  C38  1  0.01543903  0.65910219  0.41781356  1
  Cu  Cu39  1  0.00155634  0.99246886  0.35548285  1
  Cu  Cu40  1  0.50039640  0.99974632  0.35173500  1
  Cu  Cu41  1  0.00037483  0.00003513  0.85108085  1
  Cu  Cu42  1  0.50120317  0.99708572  0.85076062  1
  Cu  Cu43  1  0.00497301  0.00239309  0.64831255  1
  Cu  Cu44  1  0.49414138  0.00654481  0.64550018  1
  Cu  Cu45  1  0.99558232  0.98365931  0.14905068  1
  Cu  Cu46  1  0.50276256  0.00839017  0.15146867  1
  Cu  Cu47  1  0.32823054  0.31589548  0.98780550  1
  Cu  Cu48  1  0.83166389  0.34418123  0.97893232  1
  Cu  Cu49  1  0.33071011  0.31697993  0.47817093  1
  Cu  Cu50  1  0.83371597  0.35016725  0.48419900  1
  Cu  Cu51  1  0.67235993  0.67966485  0.01468390  1
  Cu  Cu52  1  0.16814685  0.66704724  0.51024864  1
  Cu  Cu53  1  0.16388903  0.66043027  0.32144128  1
  Cu  Cu54  1  0.67225332  0.68187453  0.31231716  1
  Cu  Cu55  1  0.17077168  0.66121023  0.81111386  1
  Cu  Cu56  1  0.67073102  0.67735866  0.81694416  1
  C  C57  1  0.15057873  0.99892091  0.25070514  1
  C  C58  1  0.35002708  0.70008978  0.24955960  1
  C  C59  1  0.00261921  0.29399784  0.24997510  1
  C  C60  1  0.49737525  0.29636454  0.25122692  1
  C  C61  1  0.64982057  0.30142052  0.75125212  1
  C  C62  1  0.99707859  0.69966231  0.75127182  1
  C  C63  1  0.50194785  0.70534825  0.74959533  1
  C  C64  1  0.85180183  0.00309766  0.74913643  1
  C  C65  1  0.98286540  0.34021771  0.58499238  1
  C  C66  1  0.18792532  0.03484561  0.58430950  1
  C  C67  1  0.32847483  0.61700398  0.58391576  1
  C  C68  1  0.48248374  0.62424876  0.08341883  1
  C  C69  1  0.82993590  0.04260758  0.08419751  1
  C  C70  1  0.68660629  0.33883271  0.08343334  1
  C  C71  1  0.31319715  0.66049379  0.91950963  1
  C  C72  1  0.02305733  0.37809822  0.91710774  1
  C  C73  1  0.51762083  0.37397117  0.91739120  1
  C  C74  1  0.16800547  0.95691357  0.91654165  1
  C  C75  1  0.81147316  0.96200992  0.41955090  1
  C  C76  1  0.66603952  0.37842236  0.41655307  1
  C  C77  1  0.52330797  0.66737476  0.41710923  1
  C  C78  1  0.10842574  0.02503180  0.30222579  1
  C  C79  1  0.60099884  0.03667351  0.30777646  1
  C  C80  1  0.40520470  0.78769275  0.30142819  1
  C  C81  1  0.91409301  0.80607406  0.30880776  1
  C  C82  1  0.48156929  0.18379267  0.30311425  1
  C  C83  1  0.99343450  0.18773147  0.30211266  1
  C  C84  1  0.10278128  0.16768819  0.80913828  1
  C  C85  1  0.60870486  0.19333588  0.80474667  1
  C  C86  1  0.49192882  0.78839171  0.80366463  1
  C  C87  1  0.98146466  0.77859698  0.80411090  1
  C  C88  1  0.41531817  0.03208255  0.81174092  1
  C  C89  1  0.90340470  0.02074992  0.80282194  1
  C  C90  1  0.39574468  0.94885244  0.69656997  1
  C  C91  1  0.89087787  0.97177355  0.69639536  1
  C  C92  1  0.08134870  0.20378848  0.69354308  1
  C  C93  1  0.59612634  0.22163892  0.69822308  1
  C  C94  1  0.01405129  0.81046741  0.69863713  1
  C  C95  1  0.52042634  0.81745834  0.69719618  1
  C  C96  1  0.38887200  0.80944843  0.19494842  1
  C  C97  1  0.89099208  0.83540336  0.19339878  1
  C  C98  1  0.01901634  0.21957628  0.19517949  1
  C  C99  1  0.51498682  0.22181011  0.19759382  1
  C  C100  1  0.09820906  0.97237794  0.19585584  1
  C  C101  1  0.58217776  0.95735464  0.19181423  1
  C  C102  1  0.43271047  0.37842864  0.63925896  1
  C  C103  1  0.94229826  0.36148017  0.63725505  1
  C  C104  1  0.23899570  0.11767619  0.63577228  1
  C  C105  1  0.75120837  0.12314255  0.64052671  1
  C  C106  1  0.31643838  0.51583482  0.63623258  1
  C  C107  1  0.81825250  0.51176525  0.64305200  1
  C  C108  1  0.44230907  0.52028622  0.13531247  1
  C  C109  1  0.93111353  0.48367164  0.13778034  1
  C  C110  1  0.32027852  0.13231049  0.13987835  1
  C  C111  1  0.81645493  0.11851403  0.13543106  1
  C  C112  1  0.25358987  0.38092448  0.13889891  1
  C  C113  1  0.73861313  0.36423764  0.13425135  1
  C  C114  1  0.21958550  0.27685224  0.02537605  1
  C  C115  1  0.72031625  0.30538064  0.02807141  1
  C  C116  1  0.42851308  0.55117603  0.02863427  1
  C  C117  1  0.91827628  0.54072883  0.02321657  1
  C  C118  1  0.36400451  0.16121179  0.02369824  1
  C  C119  1  0.84239778  0.14182071  0.02864439  1
  C  C120  1  0.22171072  0.13708017  0.52942313  1
  C  C121  1  0.72646080  0.17025084  0.52585205  1
  C  C122  1  0.34364377  0.54386975  0.52975378  1
  C  C123  1  0.86005940  0.56266163  0.52677253  1
  C  C124  1  0.41773388  0.30015850  0.52435396  1
  C  C125  1  0.92844496  0.30384867  0.53131611  1
  C  C126  1  0.27221425  0.68485819  0.97099352  1
  C  C127  1  0.77557873  0.70473224  0.97371451  1
  C  C128  1  0.07520989  0.45837608  0.96905298  1
  C  C129  1  0.57183565  0.45286584  0.97034633  1
  C  C130  1  0.15848491  0.85754686  0.96953164  1
  C  C131  1  0.64116197  0.83710612  0.97470847  1
  C  C132  1  0.27911949  0.84854369  0.47455973  1
  C  C133  1  0.77053742  0.85208732  0.47073764  1
  C  C134  1  0.14643282  0.44596431  0.47613666  1
  C  C135  1  0.65585652  0.45806173  0.46932490  1
  C  C136  1  0.07533319  0.69941811  0.47658092  1
  C  C137  1  0.57520742  0.69136762  0.46924276  1
  C  C138  1  0.05611762  0.62640561  0.35836491  1
  C  C139  1  0.56238983  0.63816709  0.36333696  1
  C  C140  1  0.25746794  0.87867061  0.35576499  1
  C  C141  1  0.75841740  0.88511956  0.36516466  1
  C  C142  1  0.18895715  0.48898980  0.35779248  1
  C  C143  1  0.67610654  0.48210617  0.36264288  1
  C  C144  1  0.06219934  0.48701969  0.86326532  1
  C  C145  1  0.55761463  0.47916798  0.86385141  1
  C  C146  1  0.17831001  0.87435793  0.86297848  1
  C  C147  1  0.68205663  0.88103064  0.85822842  1
  C  C148  1  0.26067388  0.63155494  0.86541999  1
  C  C149  1  0.75364998  0.62908466  0.85700509  1
  C  C150  1  0.00690048  0.83322312  0.41455053  1
  C  C151  1  0.51526877  0.82675911  0.41076180  1
  C  C152  1  0.41392974  0.97710167  0.40952760  1
  C  C153  1  0.89955437  0.98170679  0.41254983  1
  C  C154  1  0.07837237  0.18150392  0.40934785  1
  C  C155  1  0.58549127  0.20159207  0.41185713  1
  C  C156  1  0.01481803  0.20285347  0.91071995  1
  C  C157  1  0.50903417  0.19976268  0.91291962  1
  C  C158  1  0.08826049  0.97474971  0.91203744  1
  C  C159  1  0.57825893  0.98499751  0.91032010  1
  C  C160  1  0.40165380  0.82038594  0.91284618  1
  C  C161  1  0.91246989  0.84904527  0.90904258  1
  C  C162  1  0.48891671  0.16367835  0.58651126  1
  C  C163  1  0.98962942  0.17723442  0.58885574  1
  C  C164  1  0.09733231  0.01343394  0.58791316  1
  C  C165  1  0.58761683  0.01857128  0.59222371  1
  C  C166  1  0.41266460  0.79386635  0.58714246  1
  C  C167  1  0.92266052  0.83783909  0.59168087  1
  C  C168  1  0.49076740  0.80034377  0.08659799  1
  C  C169  1  0.98931039  0.81702140  0.08777052  1
  C  C170  1  0.42366073  0.00873597  0.09091136  1
  C  C171  1  0.91199011  0.03061059  0.08655899  1
  C  C172  1  0.08649116  0.15827562  0.09311392  1
  C  C173  1  0.59616632  0.18024395  0.08745943  1
  C  C174  1  0.34947270  0.17542464  0.74809658  1
  C  C175  1  0.84435223  0.15867348  0.74501717  1
  C  C176  1  0.24259404  0.31717224  0.74364894  1
  C  C177  1  0.73684749  0.32133448  0.74729528  1
  C  C178  1  0.42383676  0.53656811  0.74524560  1
  C  C179  1  0.92112360  0.52557621  0.74499176  1
  C  C180  1  0.34493990  0.53162167  0.24424795  1
  C  C181  1  0.84828167  0.52326457  0.24776141  1
  C  C182  1  0.42091242  0.31668078  0.24393689  1
  C  C183  1  0.92426967  0.30671173  0.24476674  1
  C  C184  1  0.23736860  0.15522357  0.24596371  1
  C  C185  1  0.74194833  0.16747833  0.24267600  1
  C  C186  1  0.32531930  0.50499795  0.92412772  1
  C  C187  1  0.82511408  0.49726292  0.91723335  1
  C  C188  1  0.43036766  0.36160974  0.92231802  1
  C  C189  1  0.93320171  0.35243578  0.91987448  1
  C  C190  1  0.24841857  0.13662095  0.91825133  1
  C  C191  1  0.75456640  0.15000634  0.92538730  1
  C  C192  1  0.32661066  0.15307874  0.41720797  1
  C  C193  1  0.81961257  0.13560817  0.42412112  1
  C  C194  1  0.25588072  0.35898145  0.42461730  1
  C  C195  1  0.74436835  0.35737526  0.41820398  1
  C  C196  1  0.43364760  0.51395453  0.42004075  1
  C  C197  1  0.91985646  0.47748503  0.42154314  1
  C  C198  1  0.17323852  0.49778942  0.07464032  1
  C  C199  1  0.67467154  0.49583770  0.07578291  1
  C  C200  1  0.07374032  0.65115784  0.07569042  1
  C  C201  1  0.57099059  0.64019414  0.07653545  1
  C  C202  1  0.25404876  0.85378740  0.07478698  1
  C  C203  1  0.75119133  0.85926021  0.07921871  1
  C  C204  1  0.17838497  0.85811211  0.57889932  1
  C  C205  1  0.67325798  0.85084984  0.57417942  1
  C  C206  1  0.25161273  0.64502493  0.57823910  1
  C  C207  1  0.75261832  0.65571951  0.57691273  1
  C  C208  1  0.07193566  0.49662610  0.57902015  1
  C  C209  1  0.57404755  0.49886644  0.57580370  1
  C  C210  1  0.15586831  0.83663022  0.25506919  1
  C  C211  1  0.64429342  0.81626086  0.25639078  1
  C  C212  1  0.26282975  0.68712441  0.25390360  1
  C  C213  1  0.75610045  0.68616555  0.25566951  1
  C  C214  1  0.08446561  0.47201563  0.25387015  1
  C  C215  1  0.57882153  0.46667142  0.25802844  1
  C  C216  1  0.14491725  0.47258765  0.75618666  1
  C  C217  1  0.65265551  0.47336392  0.75670375  1
  C  C218  1  0.07936850  0.69336818  0.75831314  1
  C  C219  1  0.58335872  0.68884116  0.75593420  1
  C  C220  1  0.25835501  0.82765774  0.75699585  1
  C  C221  1  0.76318876  0.83926363  0.75294359  1
