# generated using pymatgen
data_Cu(NiC3)3
_symmetry_space_group_name_H-M   'P 1'
_cell_length_a   3.34435834
_cell_length_b   3.34391644
_cell_length_c   43.43096879
_cell_angle_alpha   89.84283577
_cell_angle_beta   90.09569297
_cell_angle_gamma   119.99172924
_symmetry_Int_Tables_number   1
_chemical_formula_structural   Cu(NiC3)3
_chemical_formula_sum   'Cu1 Ni3 C9'
_cell_volume   420.66162857
_cell_formula_units_Z   1
loop_
 _symmetry_equiv_pos_site_id
 _symmetry_equiv_pos_as_xyz
  1  'x, y, z'
loop_
 _atom_site_type_symbol
 _atom_site_label
 _atom_site_symmetry_multiplicity
 _atom_site_fract_x
 _atom_site_fract_y
 _atom_site_fract_z
 _atom_site_occupancy
  C  C0  1  0.00055000  0.00273500  0.37038400  1
  C  C1  1  0.66655000  0.33460700  0.04998600  1
  C  C2  1  0.66700300  0.33179100  0.13734500  1
  Ni  Ni3  1  0.33337200  0.66656200  0.09363900  1
  Ni  Ni4  1  0.33304700  0.66702500  0.47543600  1
  Ni  Ni5  1  0.66664500  0.33191700  0.27631100  1
  Cu  Cu6  1  0.66675100  0.33361700  0.65775500  1
  C  C7  1  0.33353000  0.66561600  0.69630200  1
  C  C8  1  0.66630500  0.33507200  0.43661200  1
  C  C9  1  0.66668700  0.33250800  0.51370500  1
  C  C10  1  0.33310900  0.66810700  0.61918800  1
  C  C11  1  0.33335500  0.66413400  0.31190900  1
  C  C12  1  0.33309700  0.66631000  0.24170500  1
