# generated using pymatgen
data_Cu3NiC9
_symmetry_space_group_name_H-M   'P 1'
_cell_length_a   6.19361980
_cell_length_b   6.19374953
_cell_length_c   6.01963034
_cell_angle_alpha   59.70297150
_cell_angle_beta   59.70506027
_cell_angle_gamma   57.26136341
_symmetry_Int_Tables_number   1
_chemical_formula_structural   Cu3NiC9
_chemical_formula_sum   'Cu3 Ni1 C9'
_cell_volume   158.95351654
_cell_formula_units_Z   1
loop_
 _symmetry_equiv_pos_site_id
 _symmetry_equiv_pos_as_xyz
  1  'x, y, z'
loop_
 _atom_site_type_symbol
 _atom_site_label
 _atom_site_symmetry_multiplicity
 _atom_site_fract_x
 _atom_site_fract_y
 _atom_site_fract_z
 _atom_site_occupancy
  Ni  Ni0  1  0.00000000  0.00000000  0.00000000  1
  Cu  Cu1  1  0.00000000  0.50000000  0.50000000  1
  Cu  Cu2  1  0.50000000  0.00000000  0.50000000  1
  Cu  Cu3  1  0.50000000  0.50000000  0.00000000  1
  C  C4  1  0.50000000  0.50000000  0.50000000  1
  C  C5  1  0.28131400  0.28141300  0.25771900  1
  C  C6  1  0.25698100  0.25698400  0.71174000  1
  C  C7  1  0.26974000  0.72749400  0.23185400  1
  C  C8  1  0.72748500  0.26968800  0.23191000  1
  C  C9  1  0.27251500  0.73031200  0.76809000  1
  C  C10  1  0.73026000  0.27250600  0.76814600  1
  C  C11  1  0.74301900  0.74301600  0.28826000  1
  C  C12  1  0.71868600  0.71858700  0.74228100  1
