# generated using pymatgen
data_Cu4NiC10
_symmetry_space_group_name_H-M   'P 1'
_cell_length_a   6.09711997
_cell_length_b   6.37320720
_cell_length_c   6.35358212
_cell_angle_alpha   58.90892784
_cell_angle_beta   61.45039697
_cell_angle_gamma   61.64197730
_symmetry_Int_Tables_number   1
_chemical_formula_structural   Cu4NiC10
_chemical_formula_sum   'Cu4 Ni1 C10'
_cell_volume   176.96369108
_cell_formula_units_Z   1
loop_
 _symmetry_equiv_pos_site_id
 _symmetry_equiv_pos_as_xyz
  1  'x, y, z'
loop_
 _atom_site_type_symbol
 _atom_site_label
 _atom_site_symmetry_multiplicity
 _atom_site_fract_x
 _atom_site_fract_y
 _atom_site_fract_z
 _atom_site_occupancy
  Ni  Ni0  1  0.02527300  0.48060000  0.46741900  1
  Cu  Cu1  1  0.97753100  0.03428700  0.02386600  1
  Cu  Cu2  1  0.32924800  0.17859100  0.18405000  1
  Cu  Cu3  1  0.09451100  0.68012200  0.68957600  1
  Cu  Cu4  1  0.62630100  0.12828200  0.61409300  1
  C  C5  1  0.62248400  0.61634600  0.13475400  1
  C  C6  1  0.54726400  0.66540200  0.67224700  1
  C  C7  1  0.41157900  0.34899400  0.35091000  1
  C  C8  1  0.41281100  0.36680300  0.80056800  1
  C  C9  1  0.41169200  0.79892700  0.37723600  1
  C  C10  1  0.39226700  0.88641100  0.88468000  1
  C  C11  1  0.89120600  0.35338300  0.34171900  1
  C  C12  1  0.85428500  0.43025300  0.85179200  1
  C  C13  1  0.85435500  0.86373800  0.42599700  1
  C  C14  1  0.82002700  0.90744600  0.88942800  1
