# generated using pymatgen
data_Cu3Ni3C32
_symmetry_space_group_name_H-M   'P 1'
_cell_length_a   8.97644748
_cell_length_b   8.97134238
_cell_length_c   22.66468358
_cell_angle_alpha   89.68530597
_cell_angle_beta   90.28901681
_cell_angle_gamma   120.50165471
_symmetry_Int_Tables_number   1
_chemical_formula_structural   Cu3Ni3C32
_chemical_formula_sum   'Cu9 Ni9 C96'
_cell_volume   1572.59375210
_cell_formula_units_Z   3
loop_
 _symmetry_equiv_pos_site_id
 _symmetry_equiv_pos_as_xyz
  1  'x, y, z'
loop_
 _atom_site_type_symbol
 _atom_site_label
 _atom_site_symmetry_multiplicity
 _atom_site_fract_x
 _atom_site_fract_y
 _atom_site_fract_z
 _atom_site_occupancy
  C  C0  1  0.36945724  0.35082896  0.24509681  1
  C  C1  1  0.64419159  0.63060787  0.74657279  1
  C  C2  1  0.02436765  0.68131465  0.59091164  1
  C  C3  1  0.32093854  0.96929582  0.07868434  1
  C  C4  1  0.69959568  0.02567208  0.90775617  1
  C  C5  1  0.98605431  0.30450179  0.42291931  1
  C  C6  1  0.01150196  0.01587254  0.49990566  1
  C  C7  1  0.01063938  0.00183651  0.99026897  1
  C  C8  1  0.67896317  0.33381192  0.82126819  1
  C  C9  1  0.64710606  0.31830991  0.32954272  1
  C  C10  1  0.34858868  0.66941971  0.15472520  1
  C  C11  1  0.33221322  0.65091722  0.65715517  1
  C  C12  1  0.01355177  0.00214673  0.35226369  1
  C  C13  1  0.00602571  0.99690799  0.84996749  1
  C  C14  1  0.68036603  0.33522151  0.68705149  1
  C  C15  1  0.65282599  0.31845613  0.18344567  1
  C  C16  1  0.33991493  0.66831208  0.01890902  1
  C  C17  1  0.33876872  0.64883998  0.52190361  1
  C  C18  1  0.98162970  0.99455722  0.64805985  1
  C  C19  1  0.01004548  0.00084018  0.14147375  1
  C  C20  1  0.65139463  0.31458626  0.98082916  1
  C  C21  1  0.66202563  0.34177362  0.48596897  1
  C  C22  1  0.34028275  0.67033744  0.31338608  1
  C  C23  1  0.32898357  0.68285049  0.80932717  1
  Ni  Ni24  1  0.29691713  0.00337919  0.25229151  1
  Ni  Ni25  1  0.99145596  0.70890099  0.75107932  1
  Ni  Ni26  1  0.71229086  0.01387710  0.75687930  1
  Ni  Ni27  1  0.96251522  0.33670494  0.58422354  1
  Ni  Ni28  1  0.65726234  0.62795725  0.59064738  1
  Ni  Ni29  1  0.66386426  0.03577062  0.08657965  1
  Ni  Ni30  1  0.38315301  0.35224414  0.08738569  1
  Ni  Ni31  1  0.31445471  0.95145792  0.92071572  1
  Ni  Ni32  1  0.33033691  0.36618625  0.41811747  1
  Cu  Cu33  1  0.71545160  0.71379834  0.25223377  1
  Cu  Cu34  1  0.99558287  0.28835149  0.25101843  1
  Cu  Cu35  1  0.28810899  0.28884357  0.75154140  1
  Cu  Cu36  1  0.37473652  0.04171740  0.58475574  1
  Cu  Cu37  1  0.95176125  0.61697627  0.08539047  1
  Cu  Cu38  1  0.62410098  0.66356710  0.91763678  1
  Cu  Cu39  1  0.04500168  0.37992801  0.91839343  1
  Cu  Cu40  1  0.62536529  0.95745574  0.41751951  1
  Cu  Cu41  1  0.04408084  0.66954999  0.41749573  1
  C  C42  1  0.19711415  0.02845707  0.30476525  1
  C  C43  1  0.80923110  0.79997365  0.30546555  1
  C  C44  1  0.97106341  0.18996491  0.30532356  1
  C  C45  1  0.20621646  0.18946786  0.80445942  1
  C  C46  1  0.97125787  0.80300158  0.80600008  1
  C  C47  1  0.81608717  0.02737963  0.81542210  1
  C  C48  1  0.80535446  0.96957501  0.69773317  1
  C  C49  1  0.17939525  0.21072945  0.69706191  1
  C  C50  1  0.03534634  0.83344585  0.68954216  1
  C  C51  1  0.79122558  0.81857057  0.19786259  1
  C  C52  1  0.02802763  0.20369236  0.19921905  1
  C  C53  1  0.17101023  0.97127627  0.19115960  1
  C  C54  1  0.86157666  0.36058298  0.63619242  1
  C  C55  1  0.47815175  0.12327362  0.63670630  1
  C  C56  1  0.63708830  0.51382871  0.64648566  1
  C  C57  1  0.86952621  0.52058203  0.13883983  1
  C  C58  1  0.63915617  0.13401919  0.13935073  1
  C  C59  1  0.48203174  0.36800537  0.14735863  1
  C  C60  1  0.47638311  0.30332805  0.03015366  1
  C  C61  1  0.84726862  0.54128839  0.03106562  1
  C  C62  1  0.69996204  0.16330448  0.02422643  1
  C  C63  1  0.46298447  0.15716215  0.52921888  1
  C  C64  1  0.69521727  0.52661226  0.53043961  1
  C  C65  1  0.83568960  0.30049345  0.51994523  1
  C  C66  1  0.53530163  0.68216850  0.96840281  1
  C  C67  1  0.14649609  0.46279449  0.97083451  1
  C  C68  1  0.31066808  0.84964868  0.97865103  1
  C  C69  1  0.53728878  0.85607093  0.46894053  1
  C  C70  1  0.30031599  0.46881620  0.46840107  1
  C  C71  1  0.14438378  0.69499639  0.47053805  1
  C  C72  1  0.13439907  0.64194557  0.36435708  1
  C  C73  1  0.51350540  0.87001045  0.36166126  1
  C  C74  1  0.35954529  0.49566260  0.35607062  1
  C  C75  1  0.12955149  0.48322754  0.86367070  1
  C  C76  1  0.35954448  0.85823174  0.86230374  1
  C  C77  1  0.52070483  0.63307309  0.86209821  1
  C  C78  1  0.01057170  0.81029770  0.40732244  1
  C  C79  1  0.79615387  0.97633097  0.40874975  1
  C  C80  1  0.15562103  0.18120089  0.41059798  1
  C  C81  1  0.01168155  0.20201226  0.91338173  1
  C  C82  1  0.16533328  0.99413074  0.91194502  1
  C  C83  1  0.79548209  0.82221057  0.91354395  1
  C  C84  1  0.98465473  0.16293053  0.58987671  1
  C  C85  1  0.20280408  0.03002615  0.58520756  1
  C  C86  1  0.85278479  0.81428956  0.58880653  1
  C  C87  1  0.96760548  0.79819711  0.08869573  1
  C  C88  1  0.84185479  0.02155164  0.09383016  1
  C  C89  1  0.18979026  0.15431575  0.09028928  1
  C  C90  1  0.66410374  0.15680399  0.74436493  1
  C  C91  1  0.46094961  0.31400263  0.74439664  1
  C  C92  1  0.82638140  0.52069462  0.74493280  1
  C  C93  1  0.69020392  0.53937465  0.24734916  1
  C  C94  1  0.85561129  0.32310757  0.24169483  1
  C  C95  1  0.48647111  0.17198183  0.24700542  1
  C  C96  1  0.64738605  0.50896678  0.92462360  1
  C  C97  1  0.86856396  0.36757166  0.92117577  1
  C  C98  1  0.51234607  0.14781463  0.92266230  1
  C  C99  1  0.64492011  0.13351383  0.41714671  1
  C  C100  1  0.50979477  0.35237873  0.42259997  1
  C  C101  1  0.87250989  0.49912825  0.41882545  1
  C  C102  1  0.33543008  0.49505974  0.07436558  1
  C  C103  1  0.12801466  0.65098087  0.07966518  1
  C  C104  1  0.49630188  0.85080852  0.07669825  1
  C  C105  1  0.35014390  0.87137378  0.57327405  1
  C  C106  1  0.51058267  0.67086914  0.57822886  1
  C  C107  1  0.14278641  0.51309888  0.57458683  1
  C  C108  1  0.30883153  0.82113730  0.25972532  1
  C  C109  1  0.53132752  0.69067887  0.25518678  1
  C  C110  1  0.16686175  0.46340058  0.25508509  1
  C  C111  1  0.30848302  0.46822144  0.75615197  1
  C  C112  1  0.17067347  0.68882557  0.75761440  1
  C  C113  1  0.52304023  0.81416632  0.75916847  1
