# generated using pymatgen
data_Cu11NiC15
_symmetry_space_group_name_H-M   'P 1'
_cell_length_a   6.65366900
_cell_length_b   11.86997500
_cell_length_c   12.11352000
_cell_angle_alpha   90.00000000
_cell_angle_beta   90.00000000
_cell_angle_gamma   90.00000000
_symmetry_Int_Tables_number   1
_chemical_formula_structural   Cu11NiC15
_chemical_formula_sum   'Cu44 Ni4 C60'
_cell_volume   956.71229925
_cell_formula_units_Z   4
loop_
 _symmetry_equiv_pos_site_id
 _symmetry_equiv_pos_as_xyz
  1  'x, y, z'
loop_
 _atom_site_type_symbol
 _atom_site_label
 _atom_site_symmetry_multiplicity
 _atom_site_fract_x
 _atom_site_fract_y
 _atom_site_fract_z
 _atom_site_occupancy
  C  C0  1  0.45886700  0.58223600  0.60362000  1
  C  C1  1  0.95886700  0.91776400  0.39638000  1
  C  C2  1  0.54113300  0.08223600  0.89638000  1
  C  C3  1  0.04113300  0.41776400  0.10362000  1
  C  C4  1  0.48713700  0.51735100  0.86481400  1
  C  C5  1  0.98713700  0.98264900  0.13518600  1
  C  C6  1  0.51286300  0.01735100  0.63518600  1
  C  C7  1  0.01286300  0.48264900  0.36481400  1
  C  C8  1  0.55091500  0.56764800  0.98091600  1
  C  C9  1  0.05091500  0.93235200  0.01908400  1
  C  C10  1  0.44908500  0.06764800  0.51908400  1
  C  C11  1  0.94908500  0.43235200  0.48091600  1
  C  C12  1  0.09252900  0.59023100  0.50341600  1
  C  C13  1  0.59252900  0.90976900  0.49658400  1
  C  C14  1  0.90747100  0.09023100  0.99658400  1
  C  C15  1  0.40747100  0.40976900  0.00341600  1
  C  C16  1  0.16460200  0.71699600  0.53415000  1
  C  C17  1  0.66460200  0.78300400  0.46585000  1
  C  C18  1  0.83539800  0.21699600  0.96585000  1
  C  C19  1  0.33539800  0.28300400  0.03415000  1
  C  C20  1  0.72384500  0.58433300  0.44181300  1
  C  C21  1  0.22384500  0.91566700  0.55818700  1
  C  C22  1  0.27615500  0.08433300  0.05818700  1
  C  C23  1  0.77615500  0.41566700  0.94181300  1
  C  C24  1  0.52019600  0.63920100  0.39148200  1
  C  C25  1  0.02019600  0.86079900  0.60851800  1
  C  C26  1  0.47980400  0.13920100  0.10851800  1
  C  C27  1  0.97980400  0.36079900  0.89148200  1
  C  C28  1  0.47897600  0.40077600  0.46920800  1
  C  C29  1  0.97897600  0.09922400  0.53079200  1
  C  C30  1  0.39195600  0.76553300  0.71919100  1
  C  C31  1  0.52102400  0.90077600  0.03079200  1
  C  C32  1  0.29977700  0.38163100  0.55353400  1
  C  C33  1  0.79977700  0.11836900  0.44646600  1
  C  C34  1  0.70022300  0.88163100  0.94646600  1
  C  C35  1  0.20022300  0.61836900  0.05353400  1
  C  C36  1  0.75198600  0.45404800  0.67805200  1
  C  C37  1  0.25198600  0.04595200  0.32194800  1
  C  C38  1  0.24801400  0.95404800  0.82194800  1
  C  C39  1  0.74801400  0.54595200  0.17805200  1
  C  C40  1  0.80810000  0.57831000  0.72049200  1
  C  C41  1  0.30810000  0.92169000  0.27950800  1
  C  C42  1  0.19190000  0.07831000  0.77950800  1
  C  C43  1  0.69190000  0.42169000  0.22049200  1
  C  C44  1  0.25196800  0.45302300  0.75015500  1
  C  C45  1  0.75196800  0.04697700  0.24984500  1
  C  C46  1  0.74803200  0.95302300  0.74984500  1
  C  C47  1  0.24803200  0.54697700  0.25015500  1
  C  C48  1  0.20120200  0.58077500  0.77230100  1
  C  C49  1  0.70120200  0.91922500  0.22769900  1
  C  C50  1  0.79879800  0.08077500  0.72769900  1
  C  C51  1  0.29879800  0.41922500  0.27230100  1
  C  C52  1  0.62999600  0.76311800  0.69572000  1
  C  C53  1  0.12999600  0.73688200  0.30428000  1
  C  C54  1  0.37000400  0.26311800  0.80428000  1
  C  C55  1  0.87000400  0.23688200  0.19572000  1
  C  C56  1  0.10804400  0.23446700  0.21919100  1
  C  C57  1  0.60804300  0.26553300  0.78080900  1
  C  C58  1  0.89195700  0.73446700  0.28080900  1
  C  C59  1  0.02102400  0.59922400  0.96920800  1
  Ni  Ni60  1  0.00329800  0.27850300  0.67805300  1
  Ni  Ni61  1  0.50329800  0.22149700  0.32194700  1
  Ni  Ni62  1  0.99670200  0.77850300  0.82194700  1
  Ni  Ni63  1  0.49670200  0.72149700  0.17805300  1
  Cu  Cu64  1  0.56335300  0.50026400  0.93342700  1
  Cu  Cu65  1  0.06335300  0.99973600  0.06657300  1
  Cu  Cu66  1  0.43664700  0.00026400  0.56657300  1
  Cu  Cu67  1  0.93664700  0.49973600  0.43342700  1
  Cu  Cu68  1  0.18525700  0.63611700  0.55006800  1
  Cu  Cu69  1  0.68525700  0.86388300  0.44993200  1
  Cu  Cu70  1  0.81474300  0.13611700  0.94993200  1
  Cu  Cu71  1  0.31474300  0.36388300  0.05006800  1
  Cu  Cu72  1  0.60591500  0.63405700  0.45824300  1
  Cu  Cu73  1  0.10591500  0.86594300  0.54175700  1
  Cu  Cu74  1  0.39408500  0.13405700  0.04175700  1
  Cu  Cu75  1  0.89408500  0.36594300  0.95824300  1
  Cu  Cu76  1  0.43086600  0.42109700  0.54361300  1
  Cu  Cu77  1  0.93086600  0.07890300  0.45638700  1
  Cu  Cu78  1  0.56913400  0.92109700  0.95638700  1
  Cu  Cu79  1  0.06913400  0.57890300  0.04361300  1
  Cu  Cu80  1  0.73722300  0.53606900  0.66225200  1
  Cu  Cu81  1  0.23722300  0.96393100  0.33774800  1
  Cu  Cu82  1  0.26277700  0.03606900  0.83774800  1
  Cu  Cu83  1  0.76277700  0.46393100  0.16225200  1
  Cu  Cu84  1  0.31496000  0.52944600  0.75341200  1
  Cu  Cu85  1  0.81496000  0.97055400  0.24658800  1
  Cu  Cu86  1  0.68504000  0.02944600  0.74658800  1
  Cu  Cu87  1  0.18504000  0.47055400  0.25341200  1
  Cu  Cu88  1  0.49693200  0.74171100  0.66544700  1
  Cu  Cu89  1  0.99693200  0.75828900  0.33455300  1
  Cu  Cu90  1  0.50306800  0.24171100  0.83455300  1
  Cu  Cu91  1  0.00306800  0.25828900  0.16544700  1
  Cu  Cu92  1  0.13732300  0.32314600  0.76924300  1
  Cu  Cu93  1  0.63732300  0.17685400  0.23075700  1
  Cu  Cu94  1  0.86267700  0.82314600  0.73075700  1
  Cu  Cu95  1  0.36267700  0.67685400  0.26924300  1
  Cu  Cu96  1  0.79335600  0.31483300  0.70060600  1
  Cu  Cu97  1  0.29335600  0.18516700  0.29939400  1
  Cu  Cu98  1  0.20664400  0.81483300  0.79939400  1
  Cu  Cu99  1  0.70664400  0.68516700  0.20060600  1
  Cu  Cu100  1  0.01501000  0.15231000  0.67772000  1
  Cu  Cu101  1  0.51501000  0.34769000  0.32228000  1
  Cu  Cu102  1  0.98499000  0.65231000  0.82228000  1
  Cu  Cu103  1  0.48499000  0.84769000  0.17772000  1
  Cu  Cu104  1  0.07072700  0.32433200  0.57054600  1
  Cu  Cu105  1  0.57072700  0.17566800  0.42945400  1
  Cu  Cu106  1  0.92927300  0.82433200  0.92945400  1
  Cu  Cu107  1  0.42927300  0.67566800  0.07054600  1
