# generated using pymatgen
data_Cu2NiC14
_symmetry_space_group_name_H-M   'P 1'
_cell_length_a   4.01829700
_cell_length_b   4.01829700
_cell_length_c   16.31648400
_cell_angle_alpha   90.00000000
_cell_angle_beta   90.00000000
_cell_angle_gamma   90.00000000
_symmetry_Int_Tables_number   1
_chemical_formula_structural   Cu2NiC14
_chemical_formula_sum   'Cu2 Ni1 C14'
_cell_volume   263.45754810
_cell_formula_units_Z   1
loop_
 _symmetry_equiv_pos_site_id
 _symmetry_equiv_pos_as_xyz
  1  'x, y, z'
loop_
 _atom_site_type_symbol
 _atom_site_label
 _atom_site_symmetry_multiplicity
 _atom_site_fract_x
 _atom_site_fract_y
 _atom_site_fract_z
 _atom_site_occupancy
  C  C0  1  0.75000100  0.75000100  0.17201500  1
  C  C1  1  0.25000000  0.25000000  0.82798400  1
  C  C2  1  0.75000100  0.75000100  0.37133300  1
  C  C3  1  0.25000000  0.25000000  0.62866600  1
  Ni  Ni4  1  0.75000000  0.25000000  0.50000000  1
  C  C5  1  0.25000000  0.25000000  0.28476900  1
  C  C6  1  0.75000100  0.75000100  0.71523000  1
  Cu  Cu7  1  0.25000000  0.75000100  0.00000000  1
  Cu  Cu8  1  0.75000100  0.25000000  0.00000000  1
  C  C9  1  0.75000100  0.75000100  0.91626600  1
  C  C10  1  0.25000000  0.25000000  0.08373300  1
  C  C11  1  0.75000100  0.75000100  0.55159800  1
  C  C12  1  0.25000000  0.25000000  0.44840200  1
  C  C13  1  0.25000000  0.75000100  0.72695500  1
  C  C14  1  0.25000000  0.75000100  0.27304500  1
  C  C15  1  0.75000100  0.25000000  0.27782000  1
  C  C16  1  0.75000100  0.25000000  0.72218000  1
