# generated using pymatgen
data_Cu3Ni9C7
_symmetry_space_group_name_H-M   'P 1'
_cell_length_a   6.74596986
_cell_length_b   5.75813421
_cell_length_c   5.56791503
_cell_angle_alpha   83.05070939
_cell_angle_beta   76.12114505
_cell_angle_gamma   71.30690516
_symmetry_Int_Tables_number   1
_chemical_formula_structural   Cu3Ni9C7
_chemical_formula_sum   'Cu3 Ni9 C7'
_cell_volume   198.66194064
_cell_formula_units_Z   1
loop_
 _symmetry_equiv_pos_site_id
 _symmetry_equiv_pos_as_xyz
  1  'x, y, z'
loop_
 _atom_site_type_symbol
 _atom_site_label
 _atom_site_symmetry_multiplicity
 _atom_site_fract_x
 _atom_site_fract_y
 _atom_site_fract_z
 _atom_site_occupancy
  C  C0  1  0.83271738  0.16428238  0.66666693  1
  C  C1  1  0.83725475  0.66153119  0.66613986  1
  C  C2  1  0.33775663  0.67225456  0.65354460  1
  C  C3  1  0.67234872  0.41500757  0.23153117  1
  C  C4  1  0.18174478  0.32874645  0.32584953  1
  C  C5  1  0.49292613  0.98978968  0.00890257  1
  C  C6  1  0.00285327  0.90576358  0.09701464  1
  Ni  Ni7  1  0.64477979  0.52813122  0.57718573  1
  Ni  Ni8  1  0.29616525  0.86175118  0.92430592  1
  Ni  Ni9  1  0.95981467  0.19300960  0.28839888  1
  Ni  Ni10  1  0.37953119  0.46303045  0.39708656  1
  Ni  Ni11  1  0.02855989  0.80215711  0.74637314  1
  Ni  Ni12  1  0.71351644  0.12511060  0.04497051  1
  Ni  Ni13  1  0.36658315  0.00066362  0.31896944  1
  Ni  Ni14  1  0.68452937  0.67242956  0.00900891  1
  Ni  Ni15  1  0.98557349  0.65499456  0.32676577  1
  Cu  Cu16  1  0.32512202  0.32563999  0.96005378  1
  Cu  Cu17  1  0.61944812  0.00970521  0.65072211  1
  Cu  Cu18  1  0.03877499  0.31350150  0.70650693  1
