# generated using pymatgen
data_CuNi3C35
_symmetry_space_group_name_H-M   'P 1'
_cell_length_a   8.62901820
_cell_length_b   8.64355722
_cell_length_c   21.80210514
_cell_angle_alpha   90.02154226
_cell_angle_beta   90.11942663
_cell_angle_gamma   119.87472602
_symmetry_Int_Tables_number   1
_chemical_formula_structural   CuNi3C35
_chemical_formula_sum   'Cu3 Ni9 C105'
_cell_volume   1410.02977079
_cell_formula_units_Z   3
loop_
 _symmetry_equiv_pos_site_id
 _symmetry_equiv_pos_as_xyz
  1  'x, y, z'
loop_
 _atom_site_type_symbol
 _atom_site_label
 _atom_site_symmetry_multiplicity
 _atom_site_fract_x
 _atom_site_fract_y
 _atom_site_fract_z
 _atom_site_occupancy
  C  C0  1  0.63499465  0.99939106  0.25111770  1
  C  C1  1  0.36517600  0.36554819  0.25051102  1
  C  C2  1  0.00045950  0.63467982  0.25078368  1
  C  C3  1  0.30432575  0.33639716  0.58628499  1
  C  C4  1  0.03027040  0.70035784  0.58492079  1
  C  C5  1  0.66731758  0.96545499  0.58498148  1
  C  C6  1  0.29984612  0.96545158  0.08199716  1
  C  C7  1  0.97320640  0.66999596  0.91368238  1
  C  C8  1  0.70070608  0.02801061  0.91223183  1
  C  C9  1  0.99764767  0.99774940  0.49685436  1
  C  C10  1  0.00421411  0.01078329  0.99882694  1
  C  C11  1  0.65899942  0.33089054  0.82588178  1
  C  C12  1  0.66706573  0.33263482  0.33340564  1
  C  C13  1  0.33393133  0.65907210  0.16341360  1
  C  C14  1  0.33656692  0.66614461  0.66650581  1
  C  C15  1  0.66458039  0.33122100  0.97986439  1
  C  C16  1  0.66874476  0.33935558  0.47703066  1
  C  C17  1  0.32986088  0.66671476  0.80857228  1
  Ni  Ni18  1  0.99879753  0.99939633  0.35434028  1
  Ni  Ni19  1  0.01048212  0.00990045  0.85133209  1
  Ni  Ni20  1  0.99679830  0.99714930  0.64994957  1
  Ni  Ni21  1  0.99568033  0.00058016  0.14751536  1
  Ni  Ni22  1  0.66404768  0.33603815  0.68875913  1
  Ni  Ni23  1  0.66728165  0.33503753  0.18365208  1
  Ni  Ni24  1  0.32899770  0.66036594  0.01937961  1
  Ni  Ni25  1  0.33793500  0.66676101  0.51670306  1
  Ni  Ni26  1  0.33392589  0.66691009  0.31665599  1
  Cu  Cu27  1  0.66582435  0.62820700  0.58772251  1
  Cu  Cu28  1  0.05552949  0.37238874  0.91865676  1
  Cu  Cu29  1  0.32294151  0.95117323  0.91858828  1
  C  C30  1  0.28682279  -0.00001249  0.24997507  1
  C  C31  1  0.71378963  0.71385639  0.25014579  1
  C  C32  1  -0.00000033  0.28608527  0.25012151  1
  C  C33  1  0.28876184  0.27805410  0.74793212  1
  C  C34  1  0.98849235  0.71135061  0.74899924  1
  C  C35  1  0.72028999  0.01033127  0.74875351  1
  C  C36  1  0.95779092  0.33485626  0.58617257  1
  C  C37  1  0.37737018  0.04274550  0.58591029  1
  C  C38  1  0.96063494  0.62811611  0.08725363  1
  C  C39  1  0.66967070  0.03713741  0.08691196  1
  C  C40  1  0.37124121  0.33835406  0.08728577  1
  C  C41  1  0.61811392  0.66976252  0.91819761  1
  C  C42  1  0.62300490  0.94758730  0.41494331  1
  C  C43  1  0.32187713  0.37626312  0.41480133  1
  C  C44  1  0.05567516  0.67666481  0.41522984  1
  C  C45  1  0.20160555  0.03773110  0.30561185  1
  C  C46  1  0.83540870  0.79649187  0.30646976  1
  C  C47  1  0.96106619  0.16492626  0.30639881  1
  C  C48  1  0.20057955  0.16923744  0.80533508  1
  C  C49  1  0.96824918  0.79732848  0.80783786  1
  C  C50  1  0.82639614  0.02877064  0.80771308  1
  C  C51  1  0.80012299  0.97424266  0.69079705  1
  C  C52  1  0.17300672  0.20039961  0.68944233  1
  C  C53  1  0.02825588  0.82798902  0.69116026  1
  C  C54  1  0.79597935  0.83429764  0.19373559  1
  C  C55  1  0.03847923  0.20369799  0.19369106  1
  C  C56  1  0.17007637  0.96309718  0.19183628  1
  C  C57  1  0.86994543  0.37057364  0.64016942  1
  C  C58  1  0.50302356  0.12614817  0.63993413  1
  C  C59  1  0.62350771  0.48798280  0.64154128  1
  C  C60  1  0.86810293  0.50686039  0.14282747  1
  C  C61  1  0.63253763  0.12853380  0.14184032  1
  C  C62  1  0.49079184  0.36292898  0.14374997  1
  C  C63  1  0.46090862  0.29967494  0.03041789  1
  C  C64  1  0.84320607  0.54220888  0.02841797  1
  C  C65  1  0.69847843  0.15669489  0.02828148  1
  C  C66  1  0.46233797  0.16335420  0.52746207  1
  C  C67  1  0.70573981  0.53602332  0.52605878  1
  C  C68  1  0.83569034  0.29445205  0.52747584  1
  C  C69  1  0.53642081  0.70502604  0.97437063  1
  C  C70  1  0.17074489  0.46700651  0.97785205  1
  C  C71  1  0.29758328  0.83446200  0.97945925  1
  C  C72  1  0.53692070  0.83981273  0.47376547  1
  C  C73  1  0.30063315  0.46191392  0.47379806  1
  C  C74  1  0.16224171  0.69651910  0.47437872  1
  C  C75  1  0.13415074  0.63948512  0.35761469  1
  C  C76  1  0.50617687  0.86721972  0.35739256  1
  C  C77  1  0.36117346  0.49343848  0.35752427  1
  C  C78  1  0.13185329  0.50493740  0.85858635  1
  C  C79  1  0.37738852  0.86906864  0.85956632  1
  C  C80  1  0.50262108  0.62974282  0.85990846  1
  C  C81  1  0.02820608  0.83784321  0.40861881  1
  C  C82  1  0.81069377  0.97151945  0.40827724  1
  C  C83  1  0.16064135  0.18832297  0.40805825  1
  C  C84  1  0.00974646  0.17052957  0.90867988  1
  C  C85  1  0.14807893  0.96727975  0.90841011  1
  C  C86  1  0.80628344  0.83002480  0.90977808  1
  C  C87  1  0.98043088  0.16854431  0.59093060  1
  C  C88  1  0.19105563  0.02693130  0.59093382  1
  C  C89  1  0.84495185  0.82462652  0.59152652  1
  C  C90  1  0.97960112  0.81523313  0.09259802  1
  C  C91  1  0.83983559  0.02584868  0.09257292  1
  C  C92  1  0.18978189  0.16312218  0.09255292  1
  C  C93  1  0.69471568  0.17221214  0.74195788  1
  C  C94  1  0.47566403  0.30153392  0.74267483  1
  C  C95  1  0.82984763  0.52289683  0.74297188  1
  C  C96  1  0.69062944  0.52268937  0.24255442  1
  C  C97  1  0.83162411  0.30929672  0.24202439  1
  C  C98  1  0.47808360  0.16759180  0.24266521  1
  C  C99  1  0.64284897  0.50300671  0.92460274  1
  C  C100  1  0.85428707  0.35965125  0.92461016  1
  C  C101  1  0.50571465  0.14815197  0.92369477  1
  C  C102  1  0.64095893  0.13766791  0.42173973  1
  C  C103  1  0.49513420  0.35736063  0.42148011  1
  C  C104  1  0.86490465  0.50204031  0.42114497  1
  C  C105  1  0.36093521  0.50650781  0.07822860  1
  C  C106  1  0.14669070  0.64762485  0.08047944  1
  C  C107  1  0.49880966  0.85698872  0.07810095  1
  C  C108  1  0.35316278  0.85451662  0.57535120  1
  C  C109  1  0.48895997  0.64666938  0.57506093  1
  C  C110  1  0.14261935  0.50313769  0.57551000  1
  C  C111  1  0.31003633  0.83242909  0.25726430  1
  C  C112  1  0.52221784  0.68961630  0.25733825  1
  C  C113  1  0.16689947  0.47710029  0.25750570  1
  C  C114  1  0.30850664  0.46983613  0.75403705  1
  C  C115  1  0.16389949  0.69497240  0.75370007  1
  C  C116  1  0.53048136  0.83614937  0.75385404  1
