# generated using pymatgen
data_Cu2NiC6
_symmetry_space_group_name_H-M   'P 1'
_cell_length_a   7.33173221
_cell_length_b   3.70980705
_cell_length_c   6.96391566
_cell_angle_alpha   105.23662281
_cell_angle_beta   104.78775660
_cell_angle_gamma   89.99018382
_symmetry_Int_Tables_number   1
_chemical_formula_structural   Cu2NiC6
_chemical_formula_sum   'Cu2 Ni1 C6'
_cell_volume   176.24729353
_cell_formula_units_Z   1
loop_
 _symmetry_equiv_pos_site_id
 _symmetry_equiv_pos_as_xyz
  1  'x, y, z'
loop_
 _atom_site_type_symbol
 _atom_site_label
 _atom_site_symmetry_multiplicity
 _atom_site_fract_x
 _atom_site_fract_y
 _atom_site_fract_z
 _atom_site_occupancy
  Ni  Ni0  1  0.40928700  0.33511200  0.66654500  1
  Cu  Cu1  1  0.99848600  0.00199000  0.99835800  1
  Cu  Cu2  1  0.52468100  0.02176100  0.04770200  1
  C  C3  1  0.18656000  0.85107500  0.69929700  1
  C  C4  1  0.31857500  0.13917800  0.28374600  1
  C  C5  1  0.66119600  0.85748900  0.71169800  1
  C  C6  1  0.82497200  0.13337200  0.27125600  1
  C  C7  1  0.48392200  0.48527500  0.97343300  1
  C  C8  1  0.99972800  0.49617700  0.98685200  1
