# generated using pymatgen
data_Cu4Ni8C7
_symmetry_space_group_name_H-M   'P 1'
_cell_length_a   7.65824575
_cell_length_b   5.67209224
_cell_length_c   5.93877595
_cell_angle_alpha   72.62567040
_cell_angle_beta   66.15968751
_cell_angle_gamma   70.79403714
_symmetry_Int_Tables_number   1
_chemical_formula_structural   Cu4Ni8C7
_chemical_formula_sum   'Cu4 Ni8 C7'
_cell_volume   218.69012965
_cell_formula_units_Z   1
loop_
 _symmetry_equiv_pos_site_id
 _symmetry_equiv_pos_as_xyz
  1  'x, y, z'
loop_
 _atom_site_type_symbol
 _atom_site_label
 _atom_site_symmetry_multiplicity
 _atom_site_fract_x
 _atom_site_fract_y
 _atom_site_fract_z
 _atom_site_occupancy
  C  C0  1  0.33628100  0.66413800  0.16344200  1
  C  C1  1  0.83625500  0.66407800  0.66341700  1
  C  C2  1  0.69304300  0.36292900  0.31189500  1
  C  C3  1  0.33635100  0.66403300  0.66337400  1
  C  C4  1  0.14311500  0.28491900  0.31507200  1
  C  C5  1  0.52937700  0.04338100  0.01211500  1
  C  C6  1  0.97943800  0.96548600  0.01517400  1
  Ni  Ni7  1  0.34992100  0.38554600  0.99621600  1
  Ni  Ni8  1  0.63320300  0.58718100  0.54391400  1
  Ni  Ni9  1  0.96783900  0.20357000  0.20204800  1
  Ni  Ni10  1  0.70462300  0.12448900  0.12534900  1
  Ni  Ni11  1  0.03935700  0.74129600  0.78306100  1
  Ni  Ni12  1  0.32255400  0.94276400  0.33068700  1
  Ni  Ni13  1  0.63552900  0.67918300  0.01330600  1
  Ni  Ni14  1  0.03703800  0.64903800  0.31371600  1
  Cu  Cu15  1  0.67338300  0.06455100  0.64947500  1
  Cu  Cu16  1  0.28561200  0.92798400  0.88133400  1
  Cu  Cu17  1  0.38693300  0.40027700  0.44550000  1
  Cu  Cu18  1  0.99903500  0.26420400  0.67804800  1
