# generated using pymatgen
data_Cu(NiC4)4
_symmetry_space_group_name_H-M   'P 1'
_cell_length_a   9.07110603
_cell_length_b   9.07110571
_cell_length_c   22.17479653
_cell_angle_alpha   90.00000000
_cell_angle_beta   90.00000000
_cell_angle_gamma   120.00000112
_symmetry_Int_Tables_number   1
_chemical_formula_structural   Cu(NiC4)4
_chemical_formula_sum   'Cu6 Ni24 C96'
_cell_volume   1580.19521324
_cell_formula_units_Z   6
loop_
 _symmetry_equiv_pos_site_id
 _symmetry_equiv_pos_as_xyz
  1  'x, y, z'
loop_
 _atom_site_type_symbol
 _atom_site_label
 _atom_site_symmetry_multiplicity
 _atom_site_fract_x
 _atom_site_fract_y
 _atom_site_fract_z
 _atom_site_occupancy
  Ni  Ni0  1  0.63711520  0.00529623  0.24843212  1
  Ni  Ni1  1  0.36818103  0.36288480  0.24843212  1
  Ni  Ni2  1  0.99470377  0.63181897  0.24843212  1
  Ni  Ni3  1  0.63711520  0.63181897  0.74843212  1
  Ni  Ni4  1  0.99470377  0.36288480  0.74843212  1
  Ni  Ni5  1  0.36818103  0.00529623  0.74843212  1
  Ni  Ni6  1  0.30378220  0.33862923  0.58176512  1
  Ni  Ni7  1  0.03484803  0.69621780  0.58176512  1
  Ni  Ni8  1  0.66137077  0.96515197  0.58176512  1
  Ni  Ni9  1  0.30378220  0.96515197  0.08176512  1
  Ni  Ni10  1  0.66137077  0.69621780  0.08176512  1
  Ni  Ni11  1  0.03484803  0.33862923  0.08176512  1
  Ni  Ni12  1  0.97044820  0.67196323  0.91509912  1
  Ni  Ni13  1  0.70151403  0.02955180  0.91509912  1
  Ni  Ni14  1  0.32803677  0.29848597  0.91509912  1
  Ni  Ni15  1  0.97044820  0.29848597  0.41509912  1
  Ni  Ni16  1  0.32803677  0.02955180  0.41509912  1
  Ni  Ni17  1  0.70151403  0.67196323  0.41509912  1
  Ni  Ni18  1  0.00000000  0.00000000  0.49742807  1
  Ni  Ni19  1  0.00000000  0.00000000  0.99742807  1
  Ni  Ni20  1  0.66666700  0.33333300  0.83076107  1
  Ni  Ni21  1  0.66666700  0.33333300  0.33076107  1
  Ni  Ni22  1  0.33333300  0.66666700  0.16409507  1
  Ni  Ni23  1  0.33333300  0.66666700  0.66409507  1
  C  C24  1  0.00000000  0.00000000  0.34962633  1
  C  C25  1  0.00000000  0.00000000  0.84962633  1
  C  C26  1  0.66666700  0.33333300  0.68295933  1
  C  C27  1  0.66666700  0.33333300  0.18295933  1
  C  C28  1  0.33333300  0.66666700  0.01629333  1
  C  C29  1  0.33333300  0.66666700  0.51629333  1
  Cu  Cu30  1  0.00000000  0.00000000  0.65026052  1
  Cu  Cu31  1  0.00000000  0.00000000  0.15026052  1
  Cu  Cu32  1  0.66666700  0.33333300  0.98359352  1
  Cu  Cu33  1  0.66666700  0.33333300  0.48359352  1
  Cu  Cu34  1  0.33333300  0.66666700  0.31692752  1
  Cu  Cu35  1  0.33333300  0.66666700  0.81692752  1
  C  C36  1  0.29682558  0.00165335  0.25128227  1
  C  C37  1  0.70482777  0.70317442  0.25128227  1
  C  C38  1  0.99834665  0.29517223  0.25128227  1
  C  C39  1  0.29682558  0.29517223  0.75128227  1
  C  C40  1  0.99834665  0.70317442  0.75128227  1
  C  C41  1  0.70482777  0.00165335  0.75128227  1
  C  C42  1  0.96349258  0.33498635  0.58461527  1
  C  C43  1  0.37149477  0.03650742  0.58461527  1
  C  C44  1  0.66501365  0.62850523  0.58461527  1
  C  C45  1  0.96349258  0.62850523  0.08461527  1
  C  C46  1  0.66501365  0.03650742  0.08461527  1
  C  C47  1  0.37149477  0.33498635  0.08461527  1
  C  C48  1  0.63015858  0.66832035  0.91794927  1
  C  C49  1  0.03816077  0.36984142  0.91794927  1
  C  C50  1  0.33167965  0.96183923  0.91794927  1
  C  C51  1  0.63015858  0.96183923  0.41794927  1
  C  C52  1  0.33167965  0.36984142  0.41794927  1
  C  C53  1  0.03816077  0.66832035  0.41794927  1
  C  C54  1  0.21240667  0.02689326  0.30708292  1
  C  C55  1  0.81448658  0.78759333  0.30708292  1
  C  C56  1  0.97310674  0.18551342  0.30708292  1
  C  C57  1  0.21240667  0.18551342  0.80708292  1
  C  C58  1  0.97310674  0.78759333  0.80708292  1
  C  C59  1  0.81448658  0.02689326  0.80708292  1
  C  C60  1  0.78734265  0.97216623  0.69428239  1
  C  C61  1  0.18482359  0.21265735  0.69428239  1
  C  C62  1  0.02783377  0.81517641  0.69428239  1
  C  C63  1  0.78734265  0.81517641  0.19428239  1
  C  C64  1  0.02783377  0.21265735  0.19428239  1
  C  C65  1  0.18482359  0.97216623  0.19428239  1
  C  C66  1  0.87907367  0.36022626  0.64041592  1
  C  C67  1  0.48115358  0.12092633  0.64041592  1
  C  C68  1  0.63977374  0.51884642  0.64041592  1
  C  C69  1  0.87907367  0.51884642  0.14041592  1
  C  C70  1  0.63977374  0.12092633  0.14041592  1
  C  C71  1  0.48115358  0.36022626  0.14041592  1
  C  C72  1  0.45400965  0.30549923  0.02761539  1
  C  C73  1  0.85149059  0.54599035  0.02761539  1
  C  C74  1  0.69450077  0.14850941  0.02761539  1
  C  C75  1  0.45400965  0.14850941  0.52761539  1
  C  C76  1  0.69450077  0.54599035  0.52761539  1
  C  C77  1  0.85149059  0.30549923  0.52761539  1
  C  C78  1  0.54573967  0.69356026  0.97374992  1
  C  C79  1  0.14781958  0.45426033  0.97374992  1
  C  C80  1  0.30643974  0.85218042  0.97374992  1
  C  C81  1  0.54573967  0.85218042  0.47374992  1
  C  C82  1  0.30643974  0.45426033  0.47374992  1
  C  C83  1  0.14781958  0.69356026  0.47374992  1
  C  C84  1  0.12067565  0.63883323  0.36094939  1
  C  C85  1  0.51815659  0.87932435  0.36094939  1
  C  C86  1  0.36116677  0.48184341  0.36094939  1
  C  C87  1  0.12067565  0.48184341  0.86094939  1
  C  C88  1  0.36116677  0.87932435  0.86094939  1
  C  C89  1  0.51815659  0.63883323  0.86094939  1
  C  C90  1  0.01705245  0.82772468  0.41186245  1
  C  C91  1  0.81067223  0.98294755  0.41186245  1
  C  C92  1  0.17227532  0.18932777  0.41186245  1
  C  C93  1  0.01705245  0.18932777  0.91186245  1
  C  C94  1  0.17227532  0.98294755  0.91186245  1
  C  C95  1  0.81067223  0.82772468  0.91186245  1
  C  C96  1  0.98025482  0.17122726  0.58795287  1
  C  C97  1  0.19097244  0.01974518  0.58795287  1
  C  C98  1  0.82877274  0.80902756  0.58795287  1
  C  C99  1  0.98025482  0.80902756  0.08795287  1
  C  C100  1  0.82877274  0.01974518  0.08795287  1
  C  C101  1  0.19097244  0.17122726  0.08795287  1
  C  C102  1  0.68371945  0.16105768  0.74519545  1
  C  C103  1  0.47733923  0.31628055  0.74519545  1
  C  C104  1  0.83894232  0.52266077  0.74519545  1
  C  C105  1  0.68371945  0.52266077  0.24519545  1
  C  C106  1  0.83894232  0.31628055  0.24519545  1
  C  C107  1  0.47733923  0.16105768  0.24519545  1
  C  C108  1  0.64692182  0.50456026  0.92128587  1
  C  C109  1  0.85763944  0.35307818  0.92128587  1
  C  C110  1  0.49543974  0.14236056  0.92128587  1
  C  C111  1  0.64692182  0.14236056  0.42128587  1
  C  C112  1  0.49543974  0.35307818  0.42128587  1
  C  C113  1  0.85763944  0.50456026  0.42128587  1
  C  C114  1  0.35038545  0.49439168  0.07852945  1
  C  C115  1  0.14400523  0.64961455  0.07852945  1
  C  C116  1  0.50560832  0.85599477  0.07852945  1
  C  C117  1  0.35038545  0.85599477  0.57852945  1
  C  C118  1  0.50560832  0.64961455  0.57852945  1
  C  C119  1  0.14400523  0.49439168  0.57852945  1
  C  C120  1  0.31358782  0.83789426  0.25461987  1
  C  C121  1  0.52430544  0.68641218  0.25461987  1
  C  C122  1  0.16210574  0.47569456  0.25461987  1
  C  C123  1  0.31358782  0.47569456  0.75461987  1
  C  C124  1  0.16210574  0.68641218  0.75461987  1
  C  C125  1  0.52430544  0.83789426  0.75461987  1
