# generated using pymatgen
data_Cu3(NiC7)2
_symmetry_space_group_name_H-M   'P 1'
_cell_length_a   12.08143700
_cell_length_b   12.08143700
_cell_length_c   12.08143700
_cell_angle_alpha   90.00000000
_cell_angle_beta   90.00000000
_cell_angle_gamma   90.00000000
_symmetry_Int_Tables_number   1
_chemical_formula_structural   Cu3(NiC7)2
_chemical_formula_sum   'Cu24 Ni16 C112'
_cell_volume   1763.42007555
_cell_formula_units_Z   8
loop_
 _symmetry_equiv_pos_site_id
 _symmetry_equiv_pos_as_xyz
  1  'x, y, z'
loop_
 _atom_site_type_symbol
 _atom_site_label
 _atom_site_symmetry_multiplicity
 _atom_site_fract_x
 _atom_site_fract_y
 _atom_site_fract_z
 _atom_site_occupancy
  C  C0  1  0.32755200  0.50604000  0.24810200  1
  C  C1  1  0.24810200  0.32755200  0.50604000  1
  C  C2  1  0.50604000  0.24810200  0.32755200  1
  C  C3  1  0.99396000  0.75189800  0.82755200  1
  C  C4  1  0.74810200  0.17244800  0.49396000  1
  C  C5  1  0.49396000  0.74810200  0.17244800  1
  C  C6  1  0.25189800  0.67244800  0.00604000  1
  C  C7  1  0.75189800  0.82755200  0.99396000  1
  C  C8  1  0.00604000  0.25189800  0.67244800  1
  C  C9  1  0.82755200  0.99396000  0.75189800  1
  C  C10  1  0.67244800  0.00604000  0.25189800  1
  C  C11  1  0.17244800  0.49396000  0.74810200  1
  C  C12  1  0.42371200  0.00979100  0.74041200  1
  C  C13  1  0.74041200  0.42371200  0.00979100  1
  C  C14  1  0.00979100  0.74041200  0.42371200  1
  C  C15  1  0.49020900  0.25958800  0.92371200  1
  C  C16  1  0.24041200  0.07628800  0.99020900  1
  C  C17  1  0.99020900  0.24041200  0.07628800  1
  C  C18  1  0.75958800  0.57628800  0.50979100  1
  C  C19  1  0.25958800  0.92371200  0.49020900  1
  C  C20  1  0.50979100  0.75958800  0.57628800  1
  C  C21  1  0.92371200  0.49020900  0.25958800  1
  C  C22  1  0.57628800  0.50979100  0.75958800  1
  C  C23  1  0.07628800  0.99020900  0.24041200  1
  C  C24  1  0.37503200  0.00239900  0.24252800  1
  C  C25  1  0.24252800  0.37503200  0.00239900  1
  C  C26  1  0.00239900  0.24252800  0.37503200  1
  C  C27  1  0.49760100  0.75747200  0.87503200  1
  C  C28  1  0.74252800  0.12496800  0.99760100  1
  C  C29  1  0.99760100  0.74252800  0.12496800  1
  C  C30  1  0.25747200  0.62496800  0.50239900  1
  C  C31  1  0.75747200  0.87503200  0.49760100  1
  C  C32  1  0.50239900  0.25747200  0.62496800  1
  C  C33  1  0.87503200  0.49760100  0.75747200  1
  C  C34  1  0.62496800  0.50239900  0.25747200  1
  C  C35  1  0.12496800  0.99760100  0.74252800  1
  Ni  Ni36  1  0.51826100  0.98173900  0.01826100  1
  Ni  Ni37  1  0.01826100  0.51826100  0.98173900  1
  Ni  Ni38  1  0.98173900  0.01826100  0.51826100  1
  Ni  Ni39  1  0.48173900  0.48173900  0.48173900  1
  Ni  Ni40  1  0.53102300  0.03102300  0.46897700  1
  Ni  Ni41  1  0.46897700  0.53102300  0.03102300  1
  Ni  Ni42  1  0.03102300  0.46897700  0.53102300  1
  Ni  Ni43  1  0.96897700  0.96897700  0.96897700  1
  Ni  Ni44  1  0.21858500  0.78141500  0.28141500  1
  Ni  Ni45  1  0.28141500  0.21858500  0.78141500  1
  Ni  Ni46  1  0.78141500  0.28141500  0.21858500  1
  Ni  Ni47  1  0.71858500  0.71858500  0.71858500  1
  Ni  Ni48  1  0.23119500  0.23119500  0.23119500  1
  Ni  Ni49  1  0.26880500  0.76880500  0.73119500  1
  Ni  Ni50  1  0.73119500  0.26880500  0.76880500  1
  Ni  Ni51  1  0.76880500  0.73119500  0.26880500  1
  Cu  Cu52  1  0.54845200  0.17624800  0.11596500  1
  Cu  Cu53  1  0.11596500  0.54845200  0.17624800  1
  Cu  Cu54  1  0.17624800  0.11596500  0.54845200  1
  Cu  Cu55  1  0.32375200  0.88403500  0.04845200  1
  Cu  Cu56  1  0.61596500  0.95154800  0.82375200  1
  Cu  Cu57  1  0.82375200  0.61596500  0.95154800  1
  Cu  Cu58  1  0.38403500  0.45154800  0.67624800  1
  Cu  Cu59  1  0.88403500  0.04845200  0.32375200  1
  Cu  Cu60  1  0.67624800  0.38403500  0.45154800  1
  Cu  Cu61  1  0.04845200  0.32375200  0.88403500  1
  Cu  Cu62  1  0.45154800  0.67624800  0.38403500  1
  Cu  Cu63  1  0.95154800  0.82375200  0.61596500  1
  Cu  Cu64  1  0.42410300  0.20484000  0.13326000  1
  Cu  Cu65  1  0.13326000  0.42410300  0.20484000  1
  Cu  Cu66  1  0.20484000  0.13326000  0.42410300  1
  Cu  Cu67  1  0.29516000  0.86674000  0.92410300  1
  Cu  Cu68  1  0.63326000  0.07589700  0.79516000  1
  Cu  Cu69  1  0.79516000  0.63326000  0.07589700  1
  Cu  Cu70  1  0.36674000  0.57589700  0.70484000  1
  Cu  Cu71  1  0.86674000  0.92410300  0.29516000  1
  Cu  Cu72  1  0.70484000  0.36674000  0.57589700  1
  Cu  Cu73  1  0.92410300  0.29516000  0.86674000  1
  Cu  Cu74  1  0.57589700  0.70484000  0.36674000  1
  Cu  Cu75  1  0.07589700  0.79516000  0.63326000  1
  C  C76  1  0.44579800  0.05420200  0.94579800  1
  C  C77  1  0.94579800  0.44579800  0.05420200  1
  C  C78  1  0.05420200  0.94579800  0.44579800  1
  C  C79  1  0.55420200  0.55420200  0.55420200  1
  C  C80  1  0.45815800  0.95815800  0.54184200  1
  C  C81  1  0.54184200  0.45815800  0.95815800  1
  C  C82  1  0.95815800  0.54184200  0.45815800  1
  C  C83  1  0.04184200  0.04184200  0.04184200  1
  C  C84  1  0.29129100  0.70870900  0.20870900  1
  C  C85  1  0.20870900  0.29129100  0.70870900  1
  C  C86  1  0.70870900  0.20870900  0.29129100  1
  C  C87  1  0.79129100  0.79129100  0.79129100  1
  C  C88  1  0.30407000  0.30407000  0.30407000  1
  C  C89  1  0.19593000  0.69593000  0.80407000  1
  C  C90  1  0.80407000  0.19593000  0.69593000  1
  C  C91  1  0.69593000  0.80407000  0.19593000  1
  C  C92  1  0.45139200  0.92852100  0.11649200  1
  C  C93  1  0.11649200  0.45139200  0.92852100  1
  C  C94  1  0.92852100  0.11649200  0.45139200  1
  C  C95  1  0.57147900  0.88350800  0.95139200  1
  C  C96  1  0.61649200  0.04860800  0.07147900  1
  C  C97  1  0.07147900  0.61649200  0.04860800  1
  C  C98  1  0.38350800  0.54860800  0.42852100  1
  C  C99  1  0.88350800  0.95139200  0.57147900  1
  C  C100  1  0.42852100  0.38350800  0.54860800  1
  C  C101  1  0.95139200  0.57147900  0.88350800  1
  C  C102  1  0.54860800  0.42852100  0.38350800  1
  C  C103  1  0.04860800  0.07147900  0.61649200  1
  C  C104  1  0.29905500  0.13526000  0.17471000  1
  C  C105  1  0.17471000  0.29905500  0.13526000  1
  C  C106  1  0.13526000  0.17471000  0.29905500  1
  C  C107  1  0.36474000  0.82529000  0.79905500  1
  C  C108  1  0.67471000  0.20094500  0.86474000  1
  C  C109  1  0.86474000  0.67471000  0.20094500  1
  C  C110  1  0.32529000  0.70094500  0.63526000  1
  C  C111  1  0.82529000  0.79905500  0.36474000  1
  C  C112  1  0.63526000  0.32529000  0.70094500  1
  C  C113  1  0.79905500  0.36474000  0.82529000  1
  C  C114  1  0.70094500  0.63526000  0.32529000  1
  C  C115  1  0.20094500  0.86474000  0.67471000  1
  C  C116  1  0.25633100  0.90560800  0.28684400  1
  C  C117  1  0.28684400  0.25633100  0.90560800  1
  C  C118  1  0.90560800  0.28684400  0.25633100  1
  C  C119  1  0.59439200  0.71315600  0.75633100  1
  C  C120  1  0.78684400  0.24366900  0.09439200  1
  C  C121  1  0.09439200  0.78684400  0.24366900  1
  C  C122  1  0.21315600  0.74366900  0.40560800  1
  C  C123  1  0.71315600  0.75633100  0.59439200  1
  C  C124  1  0.40560800  0.21315600  0.74366900  1
  C  C125  1  0.75633100  0.59439200  0.71315600  1
  C  C126  1  0.74366900  0.40560800  0.21315600  1
  C  C127  1  0.24366900  0.09439200  0.78684400  1
  C  C128  1  0.48443500  0.05034300  0.34899200  1
  C  C129  1  0.34899200  0.48443500  0.05034300  1
  C  C130  1  0.05034300  0.34899200  0.48443500  1
  C  C131  1  0.44965700  0.65100800  0.98443500  1
  C  C132  1  0.84899200  0.01556500  0.94965700  1
  C  C133  1  0.94965700  0.84899200  0.01556500  1
  C  C134  1  0.15100800  0.51556500  0.55034300  1
  C  C135  1  0.65100800  0.98443500  0.44965700  1
  C  C136  1  0.55034300  0.15100800  0.51556500  1
  C  C137  1  0.98443500  0.44965700  0.65100800  1
  C  C138  1  0.51556500  0.55034300  0.15100800  1
  C  C139  1  0.01556500  0.94965700  0.84899200  1
  C  C140  1  0.49807600  0.24000400  0.12676300  1
  C  C141  1  0.12676300  0.49807600  0.24000400  1
  C  C142  1  0.24000400  0.12676300  0.49807600  1
  C  C143  1  0.25999600  0.87323700  0.99807600  1
  C  C144  1  0.62676300  0.00192400  0.75999600  1
  C  C145  1  0.75999600  0.62676300  0.00192400  1
  C  C146  1  0.37323700  0.50192400  0.74000400  1
  C  C147  1  0.87323700  0.99807600  0.25999600  1
  C  C148  1  0.74000400  0.37323700  0.50192400  1
  C  C149  1  0.99807600  0.25999600  0.87323700  1
  C  C150  1  0.50192400  0.74000400  0.37323700  1
  C  C151  1  0.00192400  0.75999600  0.62676300  1
