# generated using pymatgen
data_Cu2NiC14
_symmetry_space_group_name_H-M   'P 1'
_cell_length_a   5.18709940
_cell_length_b   5.63379335
_cell_length_c   7.61722690
_cell_angle_alpha   70.62911907
_cell_angle_beta   91.45788564
_cell_angle_gamma   64.45814169
_symmetry_Int_Tables_number   1
_chemical_formula_structural   Cu2NiC14
_chemical_formula_sum   'Cu2 Ni1 C14'
_cell_volume   185.72713073
_cell_formula_units_Z   1
loop_
 _symmetry_equiv_pos_site_id
 _symmetry_equiv_pos_as_xyz
  1  'x, y, z'
loop_
 _atom_site_type_symbol
 _atom_site_label
 _atom_site_symmetry_multiplicity
 _atom_site_fract_x
 _atom_site_fract_y
 _atom_site_fract_z
 _atom_site_occupancy
  Ni  Ni0  1  0.80746100  0.38797900  0.59080000  1
  Cu  Cu1  1  0.01740900  0.94318200  0.44882200  1
  Cu  Cu2  1  0.00742800  0.00175600  0.01894200  1
  C  C3  1  0.59053400  0.81641600  0.72087000  1
  C  C4  1  0.65003900  0.71283500  0.18070500  1
  C  C5  1  0.33877300  0.30709600  0.82886000  1
  C  C6  1  0.36392100  0.25625500  0.28835200  1
  C  C7  1  0.74966600  0.84503100  0.94082000  1
  C  C8  1  0.43307500  0.80000600  0.47545700  1
  C  C9  1  0.00726700  0.62009800  0.64934200  1
  C  C10  1  0.65065300  0.39911800  0.83624500  1
  C  C11  1  0.34456900  0.62114500  0.15263500  1
  C  C12  1  0.97102500  0.35287600  0.35118500  1
  C  C13  1  0.61583000  0.15909700  0.52574300  1
  C  C14  1  0.19904200  0.04950200  0.76447700  1
  C  C15  1  0.24734500  0.18460600  0.07076600  1
  C  C16  1  0.79346100  0.95966900  0.23931400  1
