# generated using pymatgen
data_Cu2NiC16
_symmetry_space_group_name_H-M   'P 1'
_cell_length_a   5.16878021
_cell_length_b   5.02750135
_cell_length_c   9.92089100
_cell_angle_alpha   90.00001708
_cell_angle_beta   90.00003947
_cell_angle_gamma   90.56872577
_symmetry_Int_Tables_number   1
_chemical_formula_structural   Cu2NiC16
_chemical_formula_sum   'Cu2 Ni1 C16'
_cell_volume   257.79206389
_cell_formula_units_Z   1
loop_
 _symmetry_equiv_pos_site_id
 _symmetry_equiv_pos_as_xyz
  1  'x, y, z'
loop_
 _atom_site_type_symbol
 _atom_site_label
 _atom_site_symmetry_multiplicity
 _atom_site_fract_x
 _atom_site_fract_y
 _atom_site_fract_z
 _atom_site_occupancy
  Ni  Ni0  1  0.50000000  0.00000000  0.50344300  1
  Cu  Cu1  1  0.00000000  0.00000000  0.00404400  1
  Cu  Cu2  1  0.50000000  0.50000000  0.50394700  1
  C  C3  1  0.99999900  0.00000000  0.32655000  1
  C  C4  1  0.00000000  0.00000000  0.68130300  1
  C  C5  1  0.50000100  0.50000200  0.16987500  1
  C  C6  1  0.49999800  0.49999800  0.83798300  1
  C  C7  1  0.18046400  0.78500700  0.50395200  1
  C  C8  1  0.16918500  0.78843300  0.16333500  1
  C  C9  1  0.16899300  0.78969000  0.84504200  1
  C  C10  1  0.34716900  0.26464500  0.35445000  1
  C  C11  1  0.34661700  0.26285800  0.65267700  1
  C  C12  1  0.30491500  0.28135000  0.00447100  1
  C  C13  1  0.69508400  0.71865000  0.00447100  1
  C  C14  1  0.65283200  0.73535400  0.35445200  1
  C  C15  1  0.65338300  0.73714300  0.65267900  1
  C  C16  1  0.83081300  0.21156400  0.16333500  1
  C  C17  1  0.83101000  0.21031300  0.84504200  1
  C  C18  1  0.81953700  0.21499300  0.50395200  1
