# generated using pymatgen
data_Cu(NiC4)2
_symmetry_space_group_name_H-M   'P 1'
_cell_length_a   6.29531567
_cell_length_b   7.26404410
_cell_length_c   6.29531534
_cell_angle_alpha   63.60497206
_cell_angle_beta   59.89616674
_cell_angle_gamma   63.60497404
_symmetry_Int_Tables_number   1
_chemical_formula_structural   Cu(NiC4)2
_chemical_formula_sum   'Cu1 Ni2 C8'
_cell_volume   213.77346448
_cell_formula_units_Z   1
loop_
 _symmetry_equiv_pos_site_id
 _symmetry_equiv_pos_as_xyz
  1  'x, y, z'
loop_
 _atom_site_type_symbol
 _atom_site_label
 _atom_site_symmetry_multiplicity
 _atom_site_fract_x
 _atom_site_fract_y
 _atom_site_fract_z
 _atom_site_occupancy
  Ni  Ni0  1  0.68146147  0.94964187  0.68146147  1
  Ni  Ni1  1  0.27749182  0.16664458  0.27749182  1
  Cu  Cu2  1  0.02660478  0.92013354  0.02660478  1
  C  C3  1  0.87778367  0.35021502  0.87778367  1
  C  C4  1  0.47149369  0.58926873  0.47149369  1
  C  C5  1  0.26582860  0.76446016  0.72131942  1
  C  C6  1  0.25803628  0.78525544  0.25803628  1
  C  C7  1  0.78361670  0.18735811  0.78361670  1
  C  C8  1  0.23443018  0.19357270  0.77693340  1
  C  C9  1  0.77693340  0.19357270  0.23443018  1
  C  C10  1  0.72131942  0.76446016  0.26582860  1
