# generated using pymatgen
data_Cu5(NiC)7
_symmetry_space_group_name_H-M   'P 1'
_cell_length_a   5.07690057
_cell_length_b   7.62953765
_cell_length_c   5.79532236
_cell_angle_alpha   100.76985400
_cell_angle_beta   101.06382677
_cell_angle_gamma   79.91559115
_symmetry_Int_Tables_number   1
_chemical_formula_structural   Cu5(NiC)7
_chemical_formula_sum   'Cu5 Ni7 C7'
_cell_volume   214.15676994
_cell_formula_units_Z   1
loop_
 _symmetry_equiv_pos_site_id
 _symmetry_equiv_pos_as_xyz
  1  'x, y, z'
loop_
 _atom_site_type_symbol
 _atom_site_label
 _atom_site_symmetry_multiplicity
 _atom_site_fract_x
 _atom_site_fract_y
 _atom_site_fract_z
 _atom_site_occupancy
  C  C0  1  0.48537050  0.67572623  0.66587578  1
  C  C1  1  0.58019604  0.02952041  0.43199704  1
  C  C2  1  0.48355871  0.31181848  0.85738224  1
  C  C3  1  0.49292249  0.66285927  0.16601895  1
  C  C4  1  0.98995777  0.65614376  0.66371825  1
  C  C5  1  0.99741453  0.31570711  0.33328990  1
  C  C6  1  0.99223321  0.99361782  0.00207491  1
  Ni  Ni7  1  0.82231969  0.09564442  0.27352205  1
  Ni  Ni8  1  0.67620655  0.76884995  0.45671697  1
  Ni  Ni9  1  0.70859368  0.09693521  0.78580592  1
  Ni  Ni10  1  0.69979347  0.42880387  0.14085819  1
  Ni  Ni11  1  0.31654053  0.55559446  0.87113426  1
  Ni  Ni12  1  0.30591403  0.23429203  0.54239208  1
  Ni  Ni13  1  0.30557422  0.90030103  0.19252744  1
  Cu  Cu14  1  0.78066333  0.44499827  0.61760362  1
  Cu  Cu15  1  0.77074580  0.75785511  0.93816730  1
  Cu  Cu16  1  0.19434672  0.22922166  0.05124151  1
  Cu  Cu17  1  0.18074394  0.87899729  0.72524741  1
  Cu  Cu18  1  0.21689880  0.57025963  0.39156917  1
