# generated using pymatgen
data_Cu2NiC27
_symmetry_space_group_name_H-M   'P 1'
_cell_length_a   9.09127069
_cell_length_b   9.07756303
_cell_length_c   22.59022323
_cell_angle_alpha   89.91297935
_cell_angle_beta   90.14309323
_cell_angle_gamma   120.09374744
_symmetry_Int_Tables_number   1
_chemical_formula_structural   Cu2NiC27
_chemical_formula_sum   'Cu8 Ni4 C108'
_cell_volume   1612.99345288
_cell_formula_units_Z   4
loop_
 _symmetry_equiv_pos_site_id
 _symmetry_equiv_pos_as_xyz
  1  'x, y, z'
loop_
 _atom_site_type_symbol
 _atom_site_label
 _atom_site_symmetry_multiplicity
 _atom_site_fract_x
 _atom_site_fract_y
 _atom_site_fract_z
 _atom_site_occupancy
  C  C0  1  0.64875463  0.63168586  0.74697352  1
  C  C1  1  0.97844180  0.36104747  0.74715561  1
  C  C2  1  0.02744029  0.68894151  0.58629001  1
  C  C3  1  0.65981558  0.97584423  0.58680568  1
  C  C4  1  0.31972924  0.97452777  0.08706088  1
  C  C5  1  0.66374169  0.68961233  0.08688816  1
  C  C6  1  0.96432366  0.68147126  0.91017767  1
  C  C7  1  0.71701863  0.03521796  0.91076559  1
  C  C8  1  0.32215272  0.28967080  0.91432649  1
  C  C9  1  0.96609497  0.28844691  0.41389355  1
  C  C10  1  0.31813783  0.03463019  0.40972860  1
  C  C11  1  0.71136762  0.67816816  0.41360539  1
  C  C12  1  0.00997260  0.01009725  0.49465201  1
  C  C13  1  0.99731253  0.00675372  0.99318814  1
  C  C14  1  0.66887202  0.32561623  0.82492187  1
  C  C15  1  0.65450510  0.32404106  0.32303116  1
  C  C16  1  0.32468818  0.65932142  0.16823192  1
  C  C17  1  0.33398627  0.67089375  0.66624271  1
  Ni  Ni18  1  0.00781681  0.00198166  0.35285577  1
  Ni  Ni19  1  0.99028478  0.99277744  0.85315746  1
  Ni  Ni20  1  0.67130730  0.32865021  0.68339948  1
  Ni  Ni21  1  0.65620413  0.32279520  0.18307937  1
  Cu  Cu22  1  0.99169802  0.98659120  0.64529616  1
  Cu  Cu23  1  0.01075518  0.00089655  0.14497955  1
  Cu  Cu24  1  0.66988485  0.33360690  0.98190676  1
  Cu  Cu25  1  0.66331956  0.33009059  0.48140349  1
  Cu  Cu26  1  0.32928197  0.66272501  0.02041723  1
  Cu  Cu27  1  0.33335658  0.66298814  0.51993077  1
  Cu  Cu28  1  0.33123087  0.67580907  0.31352915  1
  Cu  Cu29  1  0.33652638  0.68283178  0.81361474  1
  C  C30  1  0.30131644  0.01065319  0.25443046  1
  C  C31  1  0.99710466  0.70526962  0.75380014  1
  C  C32  1  0.70890474  0.00524071  0.75321781  1
  C  C33  1  0.96009201  0.33337959  0.58572371  1
  C  C34  1  0.37557549  0.04502881  0.58557547  1
  C  C35  1  0.65812954  0.61471482  0.58673868  1
  C  C36  1  0.95515082  0.61480877  0.08772125  1
  C  C37  1  0.66948652  0.04393376  0.08572461  1
  C  C38  1  0.38086379  0.33735287  0.08528897  1
  C  C39  1  0.62192986  0.66451696  0.91672669  1
  C  C40  1  0.04317005  0.37607249  0.91513694  1
  C  C41  1  0.33385489  0.96374782  0.91872124  1
  C  C42  1  0.62605643  0.95882563  0.41680845  1
  C  C43  1  0.33399332  0.37790069  0.41457139  1
  C  C44  1  0.03970661  0.66545030  0.41731429  1
  C  C45  1  0.70901030  0.70930185  0.25117746  1
  C  C46  1  0.00059552  0.28893078  0.25131078  1
  C  C47  1  0.28812795  0.28738734  0.75125303  1
  C  C48  1  0.20346889  0.01722217  0.31192670  1
  C  C49  1  0.80765419  0.79460566  0.30496395  1
  C  C50  1  0.98021940  0.19091098  0.30586285  1
  C  C51  1  0.21222493  0.19197700  0.80577324  1
  C  C52  1  0.97562861  0.79537178  0.81092470  1
  C  C53  1  0.82305367  0.03167110  0.81057089  1
  C  C54  1  0.80679060  0.97139025  0.69357392  1
  C  C55  1  0.17723844  0.20283183  0.69838603  1
  C  C56  1  0.02732280  0.82916872  0.69278152  1
  C  C57  1  0.79197005  0.81777865  0.19668125  1
  C  C58  1  0.02070647  0.19762767  0.19856503  1
  C  C59  1  0.16977503  0.97970999  0.19416921  1
  C  C60  1  0.89084598  0.38232468  0.64234871  1
  C  C61  1  0.50450594  0.12309858  0.63858130  1
  C  C62  1  0.63310552  0.51367759  0.64604532  1
  C  C63  1  0.86901263  0.50390352  0.14346695  1
  C  C64  1  0.61457787  0.11833906  0.13834227  1
  C  C65  1  0.50351080  0.38529257  0.13978821  1
  C  C66  1  0.46173238  0.29604097  0.02460480  1
  C  C67  1  0.83485598  0.53551253  0.02600941  1
  C  C68  1  0.69787165  0.16265204  0.02434141  1
  C  C69  1  0.46695148  0.16200079  0.52415297  1
  C  C70  1  0.69772857  0.53142229  0.52677743  1
  C  C71  1  0.83448946  0.29984317  0.52599508  1
  C  C72  1  0.52217413  0.68706761  0.97349044  1
  C  C73  1  0.16680822  0.47975583  0.97141202  1
  C  C74  1  0.30876969  0.83925608  0.97452291  1
  C  C75  1  0.53135083  0.83902357  0.47442736  1
  C  C76  1  0.31259441  0.47993540  0.47159810  1
  C  C77  1  0.16403636  0.69224623  0.47396113  1
  C  C78  1  0.13810420  0.63063983  0.36122197  1
  C  C79  1  0.49250779  0.86244184  0.36062418  1
  C  C80  1  0.37041455  0.50879028  0.35892180  1
  C  C81  1  0.13563154  0.50339150  0.85764500  1
  C  C82  1  0.36966667  0.86717391  0.86126182  1
  C  C83  1  0.49478669  0.62971711  0.85885335  1
  C  C84  1  0.01676611  0.82904980  0.41372335  1
  C  C85  1  0.81003944  0.97755319  0.40998039  1
  C  C86  1  0.16514768  0.19397383  0.41369381  1
  C  C87  1  0.02823422  0.19292966  0.91335635  1
  C  C88  1  0.16957612  0.98344843  0.91321889  1
  C  C89  1  0.80710917  0.83140294  0.91624111  1
  C  C90  1  0.97223833  0.15856074  0.59034087  1
  C  C91  1  0.18152495  0.01682326  0.58965569  1
  C  C92  1  0.83570717  0.81034699  0.58866146  1
  C  C93  1  0.97362360  0.81170688  0.09213495  1
  C  C94  1  0.83246216  0.01170049  0.09266221  1
  C  C95  1  0.18878327  0.16202916  0.09126772  1
  C  C96  1  0.68714296  0.16790542  0.74452827  1
  C  C97  1  0.46193991  0.31562452  0.74438586  1
  C  C98  1  0.83126717  0.51900381  0.74608044  1
  C  C99  1  0.69191380  0.54082707  0.24514162  1
  C  C100  1  0.85385949  0.31340199  0.24373281  1
  C  C101  1  0.48784079  0.16856136  0.24591121  1
  C  C102  1  0.63218879  0.48832061  0.92319063  1
  C  C103  1  0.85791093  0.36702014  0.92274967  1
  C  C104  1  0.51266435  0.14642143  0.92216691  1
  C  C105  1  0.63439033  0.14397288  0.42222648  1
  C  C106  1  0.50929479  0.36702956  0.42311258  1
  C  C107  1  0.85569148  0.48751906  0.42271928  1
  C  C108  1  0.35303104  0.50052795  0.07316382  1
  C  C109  1  0.15247704  0.66181705  0.07526755  1
  C  C110  1  0.50456877  0.85041470  0.07263715  1
  C  C111  1  0.34724090  0.85136437  0.57347606  1
  C  C112  1  0.50633716  0.66010069  0.57531422  1
  C  C113  1  0.14750113  0.50226123  0.57275626  1
  C  C114  1  0.30523659  0.82179834  0.25632788  1
  C  C115  1  0.53589774  0.69548886  0.25418837  1
  C  C116  1  0.16297912  0.45976242  0.25395204  1
  C  C117  1  0.29986016  0.46107726  0.75323843  1
  C  C118  1  0.17184442  0.68372800  0.75540305  1
  C  C119  1  0.52389777  0.81579954  0.75540312  1
