# generated using pymatgen
data_Cu3NiC6
_symmetry_space_group_name_H-M   'P 1'
_cell_length_a   6.70675782
_cell_length_b   6.70675782
_cell_length_c   6.70675833
_cell_angle_alpha   73.36737243
_cell_angle_beta   73.36737243
_cell_angle_gamma   73.36737485
_symmetry_Int_Tables_number   1
_chemical_formula_structural   Cu3NiC6
_chemical_formula_sum   'Cu6 Ni2 C12'
_cell_volume   270.01299130
_cell_formula_units_Z   2
loop_
 _symmetry_equiv_pos_site_id
 _symmetry_equiv_pos_as_xyz
  1  'x, y, z'
loop_
 _atom_site_type_symbol
 _atom_site_label
 _atom_site_symmetry_multiplicity
 _atom_site_fract_x
 _atom_site_fract_y
 _atom_site_fract_z
 _atom_site_occupancy
  Ni  Ni0  1  0.27380900  0.27380900  0.27380900  1
  Ni  Ni1  1  0.72619100  0.72619100  0.72619100  1
  Cu  Cu2  1  0.94399000  0.11791700  0.70470000  1
  Cu  Cu3  1  0.70470000  0.94399000  0.11791700  1
  Cu  Cu4  1  0.11791700  0.70470000  0.94399000  1
  Cu  Cu5  1  0.05601000  0.88208300  0.29530000  1
  Cu  Cu6  1  0.29530000  0.05601000  0.88208300  1
  Cu  Cu7  1  0.88208300  0.29530000  0.05601000  1
  C  C8  1  0.17305100  0.57033400  0.25847100  1
  C  C9  1  0.25847100  0.17305100  0.57033400  1
  C  C10  1  0.57033400  0.25847100  0.17305100  1
  C  C11  1  0.82694900  0.42966600  0.74152900  1
  C  C12  1  0.74152900  0.82694900  0.42966600  1
  C  C13  1  0.42966600  0.74152900  0.82694900  1
  C  C14  1  0.64788500  0.03373200  0.79904200  1
  C  C15  1  0.79904200  0.64788500  0.03373200  1
  C  C16  1  0.96626800  0.20095800  0.35211500  1
  C  C17  1  0.20095800  0.35211500  0.96626800  1
  C  C18  1  0.35211500  0.96626800  0.20095800  1
  C  C19  1  0.03373200  0.79904200  0.64788500  1
