# generated using pymatgen
data_Cu6NiC12
_symmetry_space_group_name_H-M   'P 1'
_cell_length_a   7.14970723
_cell_length_b   5.70052857
_cell_length_c   5.96451447
_cell_angle_alpha   82.59871394
_cell_angle_beta   71.78844016
_cell_angle_gamma   73.25355316
_symmetry_Int_Tables_number   1
_chemical_formula_structural   Cu6NiC12
_chemical_formula_sum   'Cu6 Ni1 C12'
_cell_volume   220.92504940
_cell_formula_units_Z   1
loop_
 _symmetry_equiv_pos_site_id
 _symmetry_equiv_pos_as_xyz
  1  'x, y, z'
loop_
 _atom_site_type_symbol
 _atom_site_label
 _atom_site_symmetry_multiplicity
 _atom_site_fract_x
 _atom_site_fract_y
 _atom_site_fract_z
 _atom_site_occupancy
  Ni  Ni0  1  0.67477092  0.34142101  0.84874076  1
  Cu  Cu1  1  0.84944763  0.72215031  0.61307212  1
  Cu  Cu2  1  0.65445575  0.27893355  0.39203450  1
  Cu  Cu3  1  0.32765785  0.73578311  0.60159789  1
  Cu  Cu4  1  0.15017144  0.33339403  0.35585327  1
  Cu  Cu5  1  0.48215638  0.96945471  0.02418925  1
  Cu  Cu6  1  0.00370471  0.94509233  0.05017718  1
  C  C7  1  0.66032760  0.04800180  0.67459715  1
  C  C8  1  0.29073691  0.89965383  0.89042743  1
  C  C9  1  0.95634024  0.21458020  0.24318861  1
  C  C10  1  0.61652062  0.58076509  0.57432951  1
  C  C11  1  0.03408993  0.79676141  0.75964100  1
  C  C12  1  0.36486251  0.44272131  0.44574005  1
  C  C13  1  0.70458283  0.08546638  0.11121640  1
  C  C14  1  0.32608574  0.99005868  0.35060158  1
  C  C15  1  0.95725902  0.37675827  0.66816213  1
  C  C16  1  0.01241124  0.68547020  0.29250155  1
  C  C17  1  0.36466503  0.33962189  0.00195527  1
  C  C18  1  0.65308666  0.63057888  0.01864035  1
