# generated using pymatgen
data_Cu2(NiC5)3
_symmetry_space_group_name_H-M   'P 1'
_cell_length_a   15.71398826
_cell_length_b   9.01971324
_cell_length_c   9.03608280
_cell_angle_alpha   90.00000000
_cell_angle_beta   124.94740313
_cell_angle_gamma   90.00000000
_symmetry_Int_Tables_number   1
_chemical_formula_structural   Cu2(NiC5)3
_chemical_formula_sum   'Cu8 Ni12 C60'
_cell_volume   1049.79079452
_cell_formula_units_Z   4
loop_
 _symmetry_equiv_pos_site_id
 _symmetry_equiv_pos_as_xyz
  1  'x, y, z'
loop_
 _atom_site_type_symbol
 _atom_site_label
 _atom_site_symmetry_multiplicity
 _atom_site_fract_x
 _atom_site_fract_y
 _atom_site_fract_z
 _atom_site_occupancy
  Ni  Ni0  1  0.24442943  0.77374380  0.99759508  1
  Ni  Ni1  1  0.74442943  0.72625620  0.49759508  1
  Ni  Ni2  1  0.74442943  0.27374380  0.99759508  1
  Ni  Ni3  1  0.24442943  0.22625620  0.49759508  1
  Ni  Ni4  1  0.50240214  0.10446657  0.74896166  1
  Ni  Ni5  1  0.50240214  0.89553343  0.24896166  1
  Ni  Ni6  1  0.00240214  0.60446657  0.74896166  1
  Ni  Ni7  1  0.00240214  0.39553343  0.24896166  1
  Ni  Ni8  1  0.81040164  0.93387759  0.20839959  1
  Ni  Ni9  1  0.81040164  0.06612241  0.70839959  1
  Ni  Ni10  1  0.31040164  0.43387759  0.20839959  1
  Ni  Ni11  1  0.31040164  0.56612241  0.70839959  1
  Cu  Cu12  1  0.10381073  0.75851045  0.55630425  1
  Cu  Cu13  1  0.89761416  0.75011243  0.94155448  1
  Cu  Cu14  1  0.89761416  0.24988757  0.44155448  1
  Cu  Cu15  1  0.10381073  0.24148955  0.05630425  1
  Cu  Cu16  1  0.60381073  0.25851045  0.55630425  1
  Cu  Cu17  1  0.39761416  0.25011243  0.94155448  1
  Cu  Cu18  1  0.39761416  0.74988757  0.44155448  1
  Cu  Cu19  1  0.60381073  0.74148955  0.05630425  1
  C  C20  1  0.99903423  0.95094568  0.74468617  1
  C  C21  1  0.99903423  0.04905432  0.24468617  1
  C  C22  1  0.49903423  0.45094568  0.74468617  1
  C  C23  1  0.49903423  0.54905432  0.24468617  1
  C  C24  1  0.35539678  0.89629124  0.75779506  1
  C  C25  1  0.65000955  0.89783888  0.74604375  1
  C  C26  1  0.65000955  0.10216112  0.24604375  1
  C  C27  1  0.35539678  0.10370876  0.25779506  1
  C  C28  1  0.85539678  0.39629124  0.75779506  1
  C  C29  1  0.15000955  0.39783888  0.74604375  1
  C  C30  1  0.15000955  0.60216112  0.24604375  1
  C  C31  1  0.85539678  0.60370876  0.25779506  1
  C  C32  1  0.15724334  0.57051947  0.74308780  1
  C  C33  1  0.84836533  0.56751275  0.75470545  1
  C  C34  1  0.84836533  0.43248725  0.25470545  1
  C  C35  1  0.15724334  0.42948053  0.24308780  1
  C  C36  1  0.65724334  0.07051947  0.74308780  1
  C  C37  1  0.34836533  0.06751275  0.75470545  1
  C  C38  1  0.34836533  0.93248725  0.25470545  1
  C  C39  1  0.65724334  0.92948053  0.24308780  1
  C  C40  1  0.43309100  0.54519129  0.57166474  1
  C  C41  1  0.55917883  0.55313712  0.91120988  1
  C  C42  1  0.55917883  0.44686288  0.41120988  1
  C  C43  1  0.43309100  0.45480871  0.07166474  1
  C  C44  1  0.93309100  0.04519129  0.57166474  1
  C  C45  1  0.05917883  0.05313712  0.91120988  1
  C  C46  1  0.05917883  0.94686288  0.41120988  1
  C  C47  1  0.93309100  0.95480871  0.07166474  1
  C  C48  1  0.26276284  0.82152728  0.74531813  1
  C  C49  1  0.74274941  0.83361333  0.75043459  1
  C  C50  1  0.74274941  0.16638667  0.25043459  1
  C  C51  1  0.26276284  0.17847272  0.24531813  1
  C  C52  1  0.76276284  0.32152728  0.74531813  1
  C  C53  1  0.24274941  0.33361333  0.75043459  1
  C  C54  1  0.24274941  0.66638667  0.25043459  1
  C  C55  1  0.76276284  0.67847272  0.24531813  1
  C  C56  1  0.35889261  0.84843223  0.59718815  1
  C  C57  1  0.65374890  0.86064512  0.91774407  1
  C  C58  1  0.65374890  0.13935488  0.41774407  1
  C  C59  1  0.35889261  0.15156777  0.09718815  1
  C  C60  1  0.85889261  0.34843223  0.59718815  1
  C  C61  1  0.15374890  0.36064512  0.91774407  1
  C  C62  1  0.15374890  0.63935488  0.41774407  1
  C  C63  1  0.85889261  0.65156777  0.09718815  1
  C  C64  1  0.45659721  0.84226620  0.93449179  1
  C  C65  1  0.54722726  0.84189549  0.57558395  1
  C  C66  1  0.54722726  0.15810451  0.07558395  1
  C  C67  1  0.45659721  0.15773380  0.43449179  1
  C  C68  1  0.95659721  0.34226620  0.93449179  1
  C  C69  1  0.04722726  0.34189549  0.57558395  1
  C  C70  1  0.04722726  0.65810451  0.07558395  1
  C  C71  1  0.95659721  0.65773380  0.43449179  1
  C  C72  1  0.07665257  0.84520794  0.74432916  1
  C  C73  1  0.92039205  0.85202162  0.75290225  1
  C  C74  1  0.92039205  0.14797838  0.25290225  1
  C  C75  1  0.07665257  0.15479206  0.24432916  1
  C  C76  1  0.57665257  0.34520794  0.74432916  1
  C  C77  1  0.42039205  0.35202162  0.75290225  1
  C  C78  1  0.42039205  0.64797838  0.25290225  1
  C  C79  1  0.57665257  0.65479206  0.24432916  1
