# generated using pymatgen
data_Cu5Ni2C
_symmetry_space_group_name_H-M   'P 1'
_cell_length_a   10.06066613
_cell_length_b   10.06066613
_cell_length_c   10.06066613
_cell_angle_alpha   126.79597067
_cell_angle_beta   126.79597067
_cell_angle_gamma   78.58379571
_symmetry_Int_Tables_number   1
_chemical_formula_structural   Cu5Ni2C
_chemical_formula_sum   'Cu10 Ni4 C2'
_cell_volume   632.10839637
_cell_formula_units_Z   2
loop_
 _symmetry_equiv_pos_site_id
 _symmetry_equiv_pos_as_xyz
  1  'x, y, z'
loop_
 _atom_site_type_symbol
 _atom_site_label
 _atom_site_symmetry_multiplicity
 _atom_site_fract_x
 _atom_site_fract_y
 _atom_site_fract_z
 _atom_site_occupancy
  C  C0  1  0.25000000  0.25000000  0.00000000  1
  C  C1  1  0.75000000  0.75000000  0.00000000  1
  Ni  Ni2  1  0.66337800  0.16337800  0.82675600  1
  Ni  Ni3  1  0.33662200  0.83662200  0.17324400  1
  Ni  Ni4  1  0.83662200  0.66337800  0.50000000  1
  Ni  Ni5  1  0.16337800  0.33662200  0.50000000  1
  Cu  Cu6  1  0.29567500  0.79567500  0.81292200  1
  Cu  Cu7  1  0.70432500  0.20432500  0.18707800  1
  Cu  Cu8  1  0.98275300  0.48275300  0.18707800  1
  Cu  Cu9  1  0.01724700  0.51724700  0.81292200  1
  Cu  Cu10  1  0.00000000  0.00000000  0.00000000  1
  Cu  Cu11  1  0.50000000  0.50000000  0.00000000  1
  Cu  Cu12  1  0.51724700  0.70432500  0.50000000  1
  Cu  Cu13  1  0.48275300  0.29567500  0.50000000  1
  Cu  Cu14  1  0.20432500  0.01724700  0.50000000  1
  Cu  Cu15  1  0.79567500  0.98275300  0.50000000  1
