# generated using pymatgen
data_CuNiC3
_symmetry_space_group_name_H-M   'P 1'
_cell_length_a   3.35099100
_cell_length_b   3.35130102
_cell_length_c   37.64246618
_cell_angle_alpha   89.98902825
_cell_angle_beta   90.00000000
_cell_angle_gamma   119.99694978
_symmetry_Int_Tables_number   1
_chemical_formula_structural   CuNiC3
_chemical_formula_sum   'Cu2 Ni2 C6'
_cell_volume   366.10759454
_cell_formula_units_Z   2
loop_
 _symmetry_equiv_pos_site_id
 _symmetry_equiv_pos_as_xyz
  1  'x, y, z'
loop_
 _atom_site_type_symbol
 _atom_site_label
 _atom_site_symmetry_multiplicity
 _atom_site_fract_x
 _atom_site_fract_y
 _atom_site_fract_z
 _atom_site_occupancy
  C  C0  1  0.00001300  0.00002600  0.24679800  1
  C  C1  1  0.66670200  0.33340500  0.52795700  1
  C  C2  1  0.66657500  0.33315100  0.62905500  1
  C  C3  1  0.66667700  0.33335600  0.35303300  1
  C  C4  1  0.33331500  0.66663000  0.10670900  1
  C  C5  1  0.33333400  0.66666900  0.57851200  1
  Ni  Ni6  1  0.66669100  0.33338100  0.06226600  1
  Ni  Ni7  1  0.66657100  0.33314100  0.15130200  1
  Cu  Cu8  1  0.33330400  0.66660900  0.39279600  1
  Cu  Cu9  1  0.33341600  0.66683400  0.31191400  1
