# generated using pymatgen
data_Cu2Ni2C9
_symmetry_space_group_name_H-M   'P 1'
_cell_length_a   3.39937100
_cell_length_b   3.39980670
_cell_length_c   45.74518823
_cell_angle_alpha   90.01048762
_cell_angle_beta   90.00000000
_cell_angle_gamma   119.99575110
_symmetry_Int_Tables_number   1
_chemical_formula_structural   Cu2Ni2C9
_chemical_formula_sum   'Cu2 Ni2 C9'
_cell_volume   457.87551853
_cell_formula_units_Z   1
loop_
 _symmetry_equiv_pos_site_id
 _symmetry_equiv_pos_as_xyz
  1  'x, y, z'
loop_
 _atom_site_type_symbol
 _atom_site_label
 _atom_site_symmetry_multiplicity
 _atom_site_fract_x
 _atom_site_fract_y
 _atom_site_fract_z
 _atom_site_occupancy
  C  C0  1  0.00006800  0.00013700  0.20011800  1
  C  C1  1  0.33353300  0.66706900  0.69876100  1
  C  C2  1  0.66652100  0.33304400  0.04587100  1
  C  C3  1  0.66668900  0.33337600  0.12839200  1
  C  C4  1  0.33334200  0.66668500  0.61641500  1
  C  C5  1  0.66658600  0.33317100  0.28882400  1
  C  C6  1  0.33329600  0.66659300  0.08696600  1
  C  C7  1  0.33331300  0.66662700  0.46956000  1
  C  C8  1  0.66677200  0.33354600  0.65760700  1
  Ni  Ni9  1  0.66657500  0.33314900  0.43337500  1
  Ni  Ni10  1  0.66668400  0.33336700  0.50574000  1
  Cu  Cu11  1  0.33335900  0.66672000  0.32128100  1
  Cu  Cu12  1  0.33325800  0.66651800  0.25549200  1
