# generated using pymatgen
data_Cu2NiC18
_symmetry_space_group_name_H-M   'P 1'
_cell_length_a   9.08512493
_cell_length_b   9.08110221
_cell_length_c   22.08633797
_cell_angle_alpha   90.19846693
_cell_angle_beta   90.00000000
_cell_angle_gamma   120.01465462
_symmetry_Int_Tables_number   1
_chemical_formula_structural   Cu2NiC18
_chemical_formula_sum   'Cu12 Ni6 C108'
_cell_volume   1577.81538510
_cell_formula_units_Z   6
loop_
 _symmetry_equiv_pos_site_id
 _symmetry_equiv_pos_as_xyz
  1  'x, y, z'
loop_
 _atom_site_type_symbol
 _atom_site_label
 _atom_site_symmetry_multiplicity
 _atom_site_fract_x
 _atom_site_fract_y
 _atom_site_fract_z
 _atom_site_occupancy
  C  C0  1  0.63250628  0.01060308  0.24956820  1
  C  C1  1  0.37115233  0.35470123  0.24947970  1
  C  C2  1  0.99312163  0.63169682  0.24367917  1
  C  C3  1  0.63857519  0.63169682  0.74367917  1
  C  C4  1  0.98354890  0.35470123  0.74947970  1
  C  C5  1  0.37809680  0.01060308  0.74956820  1
  C  C6  1  0.31087738  0.34855104  0.58287679  1
  C  C7  1  0.03198877  0.69295689  0.58028399  1
  C  C8  1  0.65404803  0.95215402  0.57982271  1
  C  C9  1  0.29810699  0.95215402  0.07982271  1
  C  C10  1  0.66096912  0.69295689  0.08028399  1
  C  C11  1  0.03767466  0.34855104  0.08287679  1
  C  C12  1  0.97760650  0.68272284  0.91809365  1
  C  C13  1  0.70175642  0.02861931  0.91047751  1
  C  C14  1  0.32224559  0.28964318  0.91439345  1
  C  C15  1  0.96739660  0.28964318  0.41439345  1
  C  C16  1  0.32686189  0.02861931  0.41047751  1
  C  C17  1  0.70511534  0.68272284  0.41809365  1
  C  C18  1  0.99084254  0.99548046  0.49524641  1
  C  C19  1  0.00463791  0.99548046  0.99524641  1
  C  C20  1  0.66476608  0.32508556  0.82867697  1
  C  C21  1  0.66032048  0.32508556  0.32867697  1
  C  C22  1  0.32636937  0.66935007  0.16202836  1
  C  C23  1  0.34297969  0.66935007  0.66202836  1
  C  C24  1  0.00112591  0.00091714  0.35077349  1
  C  C25  1  0.99979124  0.00091714  0.85077349  1
  C  C26  1  0.66619267  0.33192806  0.68419712  1
  C  C27  1  0.66573639  0.33192806  0.18419712  1
  C  C28  1  0.32863557  0.66943519  0.01762797  1
  C  C29  1  0.34079861  0.66943519  0.51762797  1
  Ni  Ni30  1  0.29839880  0.00107584  0.25300379  1
  Ni  Ni31  1  0.70267704  0.00107584  0.75300379  1
  Ni  Ni32  1  0.66576740  0.62788120  0.58633615  1
  Ni  Ni33  1  0.96211480  0.62788120  0.08633615  1
  Ni  Ni34  1  0.33270123  0.96627642  0.91983789  1
  Ni  Ni35  1  0.63357419  0.96627642  0.41983789  1
  C  C36  1  0.99364273  0.99524634  0.65092271  1
  C  C37  1  0.00160361  0.99524634  0.15092271  1
  C  C38  1  0.66722131  0.33348175  0.98442349  1
  C  C39  1  0.66626144  0.33348175  0.48442349  1
  C  C40  1  0.33543914  0.67366145  0.31766321  1
  C  C41  1  0.33822130  0.67366145  0.81766321  1
  Cu  Cu42  1  0.70327309  0.70453413  0.25219521  1
  Cu  Cu43  1  0.00195824  0.29444217  0.25219705  1
  Cu  Cu44  1  0.29248393  0.29444217  0.75219705  1
  Cu  Cu45  1  0.00126103  0.70453413  0.75219521  1
  Cu  Cu46  1  0.96354372  0.33382068  0.58526122  1
  Cu  Cu47  1  0.36848720  0.03817634  0.58571898  1
  Cu  Cu48  1  0.66969013  0.03817634  0.08571898  1
  Cu  Cu49  1  0.37027796  0.33382068  0.08526122  1
  Cu  Cu50  1  0.62594310  0.66392001  0.91913622  1
  Cu  Cu51  1  0.04084819  0.37349865  0.91835708  1
  Cu  Cu52  1  0.33264945  0.37349865  0.41835708  1
  Cu  Cu53  1  0.03797591  0.66392001  0.41913622  1
  C  C54  1  0.20979876  0.03069205  0.31075659  1
  C  C55  1  0.81449074  0.79158589  0.30694358  1
  C  C56  1  0.97477592  0.18247960  0.30663357  1
  C  C57  1  0.20770367  0.18247960  0.80663357  1
  C  C58  1  0.97709515  0.79158589  0.80694358  1
  C  C59  1  0.82089330  0.03069205  0.81075659  1
  C  C60  1  0.77972582  0.95710007  0.69054480  1
  C  C61  1  0.18086390  0.21775921  0.69283059  1
  C  C62  1  0.04488873  0.82024228  0.69367044  1
  C  C63  1  0.77535355  0.82024228  0.19367044  1
  C  C64  1  0.03689531  0.21775921  0.19283059  1
  C  C65  1  0.17737425  0.95710007  0.19054480  1
  C  C66  1  0.87766733  0.35800805  0.64048372  1
  C  C67  1  0.48284492  0.12221190  0.64023027  1
  C  C68  1  0.63953398  0.51028881  0.64369934  1
  C  C69  1  0.87075583  0.51028881  0.14369934  1
  C  C70  1  0.63936797  0.12221190  0.14023027  1
  C  C71  1  0.48034172  0.35800805  0.14048372  1
  C  C72  1  0.44363445  0.29162759  0.02675179  1
  C  C73  1  0.84039103  0.55025586  0.02362429  1
  C  C74  1  0.70760794  0.15077922  0.02678952  1
  C  C75  1  0.44317228  0.15077922  0.52678952  1
  C  C76  1  0.70986583  0.55025586  0.52362429  1
  C  C77  1  0.84799414  0.29162759  0.52675179  1
  C  C78  1  0.53932962  0.68740833  0.97390116  1
  C  C79  1  0.15263278  0.45807367  0.97301380  1
  C  C80  1  0.30337386  0.84833086  0.97725216  1
  C  C81  1  0.54495600  0.84833086  0.47725216  1
  C  C82  1  0.30543989  0.45807367  0.47301380  1
  C  C83  1  0.14807771  0.68740833  0.47390116  1
  C  C84  1  0.11158289  0.62316351  0.36019047  1
  C  C85  1  0.51216175  0.89094808  0.35726511  1
  C  C86  1  0.36850211  0.48603762  0.35935256  1
  C  C87  1  0.11753451  0.48603762  0.85935256  1
  C  C88  1  0.37878533  0.89094808  0.85726511  1
  C  C89  1  0.51157962  0.62316351  0.86019047  1
  C  C90  1  0.01837666  0.82174401  0.41208749  1
  C  C91  1  0.82193682  0.98973011  0.41216898  1
  C  C92  1  0.17760587  0.19445361  0.41181155  1
  C  C93  1  0.01684774  0.19445361  0.91181155  1
  C  C94  1  0.16779329  0.98973011  0.91216898  1
  C  C95  1  0.80336735  0.82174401  0.91208749  1
  C  C96  1  0.98472718  0.17166296  0.58852842  1
  C  C97  1  0.19065868  0.02952798  0.59020388  1
  C  C98  1  0.84612291  0.81883037  0.58652534  1
  C  C99  1  0.97270746  0.81883037  0.08652534  1
  C  C100  1  0.83886930  0.02952798  0.09020388  1
  C  C101  1  0.18693578  0.17166296  0.08852842  1
  C  C102  1  0.67839534  0.16585149  0.74576226  1
  C  C103  1  0.47130573  0.31832587  0.74566809  1
  C  C104  1  0.84333467  0.52780742  0.74474755  1
  C  C105  1  0.68447375  0.52780742  0.24474755  1
  C  C106  1  0.84702114  0.31832587  0.24566809  1
  C  C107  1  0.48745715  0.16585149  0.24576226  1
  C  C108  1  0.64284773  0.49925686  0.92120001  1
  C  C109  1  0.86101168  0.36089403  0.92137172  1
  C  C110  1  0.51214246  0.15806673  0.92226814  1
  C  C111  1  0.64592527  0.15806673  0.42226814  1
  C  C112  1  0.49988335  0.36089403  0.42137172  1
  C  C113  1  0.85641013  0.49925686  0.42120001  1
  C  C114  1  0.35397771  0.49278511  0.07741638  1
  C  C115  1  0.15002877  0.64936490  0.08061326  1
  C  C116  1  0.51788006  0.85803516  0.07834199  1
  C  C117  1  0.34015410  0.85803516  0.57834199  1
  C  C118  1  0.49933513  0.64936490  0.58061326  1
  C  C119  1  0.13880640  0.49278511  0.57741638  1
  C  C120  1  0.30764614  0.82013019  0.25347694  1
  C  C121  1  0.51995878  0.68323936  0.25552185  1
  C  C122  1  0.17030687  0.47344142  0.25607390  1
  C  C123  1  0.30313354  0.47344142  0.75607390  1
  C  C124  1  0.16327958  0.68323936  0.75552185  1
  C  C125  1  0.51248304  0.82013019  0.75347694  1
