# generated using pymatgen
data_Cu2NiC
_symmetry_space_group_name_H-M   'P 1'
_cell_length_a   9.66896811
_cell_length_b   9.66896811
_cell_length_c   9.66896811
_cell_angle_alpha   149.13068263
_cell_angle_beta   133.01753681
_cell_angle_gamma   57.27809736
_symmetry_Int_Tables_number   1
_chemical_formula_structural   Cu2NiC
_chemical_formula_sum   'Cu12 Ni6 C6'
_cell_volume   336.65161345
_cell_formula_units_Z   6
loop_
 _symmetry_equiv_pos_site_id
 _symmetry_equiv_pos_as_xyz
  1  'x, y, z'
loop_
 _atom_site_type_symbol
 _atom_site_label
 _atom_site_symmetry_multiplicity
 _atom_site_fract_x
 _atom_site_fract_y
 _atom_site_fract_z
 _atom_site_occupancy
  C  C0  1  0.85732100  0.59578300  0.26153900  1
  C  C1  1  0.14267900  0.40421700  0.73846100  1
  C  C2  1  0.66575600  0.40421700  0.26153900  1
  C  C3  1  0.33424400  0.59578300  0.73846100  1
  C  C4  1  0.14169500  0.14169500  0.00000000  1
  C  C5  1  0.85830500  0.85830500  0.00000000  1
  Ni  Ni6  1  0.74519800  0.00000000  0.74519800  1
  Ni  Ni7  1  0.00000000  0.00000000  0.50000000  1
  Ni  Ni8  1  0.50000000  0.50000000  0.50000000  1
  Ni  Ni9  1  0.50000000  0.00000000  0.00000000  1
  Ni  Ni10  1  0.25480200  0.00000000  0.25480200  1
  Ni  Ni11  1  0.00000000  0.50000000  0.00000000  1
  Cu  Cu12  1  0.48804000  0.13930800  0.34873200  1
  Cu  Cu13  1  0.51196000  0.86069200  0.65126800  1
  Cu  Cu14  1  0.20942300  0.86069200  0.34873200  1
  Cu  Cu15  1  0.79057700  0.13930800  0.65126800  1
  Cu  Cu16  1  0.70222300  0.70222300  0.00000000  1
  Cu  Cu17  1  0.29777700  0.29777700  0.00000000  1
  Cu  Cu18  1  0.50000000  0.74140400  0.24140400  1
  Cu  Cu19  1  0.50000000  0.25859600  0.75859600  1
  Cu  Cu20  1  0.00000000  0.25435900  0.25435900  1
  Cu  Cu21  1  0.21433800  0.71433800  0.50000000  1
  Cu  Cu22  1  0.00000000  0.74564100  0.74564100  1
  Cu  Cu23  1  0.78566200  0.28566200  0.50000000  1
