# generated using pymatgen
data_Cu2Ni2C9
_symmetry_space_group_name_H-M   'P 1'
_cell_length_a   3.33929439
_cell_length_b   3.33931682
_cell_length_c   45.26756427
_cell_angle_alpha   89.79554181
_cell_angle_beta   90.20630379
_cell_angle_gamma   120.01411766
_symmetry_Int_Tables_number   1
_chemical_formula_structural   Cu2Ni2C9
_chemical_formula_sum   'Cu2 Ni2 C9'
_cell_volume   437.08366006
_cell_formula_units_Z   1
loop_
 _symmetry_equiv_pos_site_id
 _symmetry_equiv_pos_as_xyz
  1  'x, y, z'
loop_
 _atom_site_type_symbol
 _atom_site_label
 _atom_site_symmetry_multiplicity
 _atom_site_fract_x
 _atom_site_fract_y
 _atom_site_fract_z
 _atom_site_occupancy
  C  C0  1  0.66690300  0.33322000  0.56498200  1
  C  C1  1  0.66569800  0.33415700  0.05188000  1
  C  C2  1  0.66782500  0.33216700  0.13571100  1
  Ni  Ni3  1  0.33352500  0.66638800  0.09379600  1
  Ni  Ni4  1  0.33318200  0.66685900  0.46391100  1
  Cu  Cu5  1  0.66683400  0.33324700  0.28187500  1
  Cu  Cu6  1  0.66445200  0.33546200  0.66711700  1
  C  C7  1  0.33490700  0.66521600  0.31890400  1
  C  C8  1  0.66526400  0.33476300  0.42708200  1
  C  C9  1  0.66758000  0.33245200  0.50097200  1
  C  C10  1  0.33221500  0.66784000  0.24483500  1
  C  C11  1  0.33233000  0.66763400  0.70063700  1
  C  C12  1  0.32999800  0.66988200  0.63343700  1
