# generated using pymatgen
data_Cu3NiC34
_symmetry_space_group_name_H-M   'P 1'
_cell_length_a   9.09674579
_cell_length_b   9.09524936
_cell_length_c   23.21951451
_cell_angle_alpha   90.06015040
_cell_angle_beta   89.93470129
_cell_angle_gamma   120.12394619
_symmetry_Int_Tables_number   1
_chemical_formula_structural   Cu3NiC34
_chemical_formula_sum   'Cu9 Ni3 C102'
_cell_volume   1661.65291236
_cell_formula_units_Z   3
loop_
 _symmetry_equiv_pos_site_id
 _symmetry_equiv_pos_as_xyz
  1  'x, y, z'
loop_
 _atom_site_type_symbol
 _atom_site_label
 _atom_site_symmetry_multiplicity
 _atom_site_fract_x
 _atom_site_fract_y
 _atom_site_fract_z
 _atom_site_occupancy
  C  C0  1  0.63249532  0.00920605  0.24098368  1
  C  C1  1  0.37651822  0.35564350  0.25076132  1
  C  C2  1  0.99069332  0.64075340  0.24647966  1
  C  C3  1  0.99232303  0.35504849  0.75419202  1
  C  C4  1  0.37991766  0.01443527  0.75494133  1
  C  C5  1  0.70360918  0.67840725  0.40507504  1
  C  C6  1  0.00696330  0.01878839  0.48746646  1
  C  C7  1  0.00226714  0.01138407  0.00031109  1
  C  C8  1  0.65959505  0.32733819  0.83449083  1
  C  C9  1  0.64836769  0.31971761  0.32435554  1
  C  C10  1  0.34879010  0.68505187  0.16290004  1
  C  C11  1  0.35187081  0.66478702  0.67137047  1
  C  C12  1  0.01119867  0.02277618  0.85561043  1
  C  C13  1  0.99388638  0.00731007  0.64966627  1
  C  C14  1  0.98981865  0.98868347  0.14813976  1
  C  C15  1  0.66743332  0.31222896  0.97953607  1
  C  C16  1  0.65562207  0.32122644  0.47680983  1
  C  C17  1  0.33083302  0.67651397  0.01912271  1
  C  C18  1  0.34215255  0.66190922  0.51567631  1
  C  C19  1  0.35138263  0.67879244  0.31435406  1
  C  C20  1  0.34103368  0.66789876  0.81746962  1
  Ni  Ni21  1  0.00881177  0.00539064  0.35018188  1
  Ni  Ni22  1  0.65477356  0.32534713  0.68958596  1
  Ni  Ni23  1  0.64220966  0.31369498  0.18277235  1
  Cu  Cu24  1  0.28901794  0.00143857  0.25173986  1
  Cu  Cu25  1  0.71152995  0.70162009  0.25326424  1
  Cu  Cu26  1  0.29948701  0.29902336  0.74885349  1
  Cu  Cu27  1  0.70341522  0.00006952  0.74999805  1
  Cu  Cu28  1  0.66854855  0.03863695  0.08791147  1
  Cu  Cu29  1  0.04291437  0.38197668  0.91709081  1
  Cu  Cu30  1  0.32845455  0.95899568  0.91495965  1
  Cu  Cu31  1  0.63748579  0.96198930  0.41615693  1
  Cu  Cu32  1  0.32172647  0.36246847  0.41489370  1
  C  C33  1  0.99978490  0.29145656  0.25121143  1
  C  C34  1  0.99735834  0.70909106  0.74930524  1
  C  C35  1  0.95725358  0.33636447  0.58509165  1
  C  C36  1  0.37212182  0.03795309  0.58467009  1
  C  C37  1  0.66847314  0.62283221  0.58429724  1
  C  C38  1  0.95547196  0.62185920  0.08452325  1
  C  C39  1  0.37488322  0.33543548  0.08390174  1
  C  C40  1  0.62713279  0.66620606  0.91818561  1
  C  C41  1  0.04236336  0.66516840  0.41866661  1
  C  C42  1  0.20676764  0.04129454  0.30641741  1
  C  C43  1  0.81839620  0.78075925  0.31164838  1
  C  C44  1  0.96760314  0.18637561  0.30228108  1
  C  C45  1  0.20552988  0.17222827  0.80355460  1
  C  C46  1  0.97443487  0.78767590  0.80091914  1
  C  C47  1  0.82756942  0.02457923  0.80365808  1
  C  C48  1  0.79447485  0.96896456  0.69230400  1
  C  C49  1  0.16961794  0.19908312  0.69326846  1
  C  C50  1  0.02594361  0.81882641  0.69709914  1
  C  C51  1  0.79712664  0.83301196  0.19782245  1
  C  C52  1  0.03239344  0.21511746  0.19895640  1
  C  C53  1  0.16999588  0.96982277  0.19424578  1
  C  C54  1  0.88129488  0.35654394  0.63798083  1
  C  C55  1  0.47275374  0.11345237  0.63681940  1
  C  C56  1  0.64568666  0.51988649  0.63512724  1
  C  C57  1  0.88256168  0.52800219  0.13792189  1
  C  C58  1  0.64276286  0.12007663  0.14587720  1
  C  C59  1  0.47181099  0.36306838  0.13758642  1
  C  C60  1  0.46256782  0.31606510  0.03302463  1
  C  C61  1  0.85086145  0.53998325  0.03289694  1
  C  C62  1  0.68973067  0.15617732  0.03017681  1
  C  C63  1  0.45878836  0.14668317  0.53305170  1
  C  C64  1  0.68721750  0.54388292  0.53058708  1
  C  C65  1  0.85185536  0.31542192  0.53344512  1
  C  C66  1  0.54598850  0.69309971  0.96880839  1
  C  C67  1  0.16525025  0.47317610  0.97183157  1
  C  C68  1  0.31280931  0.84216897  0.97045681  1
  C  C69  1  0.52716370  0.83927679  0.47149453  1
  C  C70  1  0.30987221  0.46780886  0.47214884  1
  C  C71  1  0.14858296  0.68121629  0.46981565  1
  C  C72  1  0.11414575  0.63536639  0.36577798  1
  C  C73  1  0.51555413  0.88051707  0.35922163  1
  C  C74  1  0.36462091  0.49100982  0.35999053  1
  C  C75  1  0.12941902  0.48666540  0.85685513  1
  C  C76  1  0.36070606  0.87518903  0.85649800  1
  C  C77  1  0.52093174  0.64006042  0.86534221  1
  C  C78  1  0.02081204  0.81275267  0.41642829  1
  C  C79  1  0.81308421  0.96389319  0.41374463  1
  C  C80  1  0.16190087  0.17806596  0.41337858  1
  C  C81  1  0.01704275  0.18976542  0.91216609  1
  C  C82  1  0.15426811  0.96689181  0.90977274  1
  C  C83  1  0.79523248  0.81806701  0.91012277  1
  C  C84  1  0.97560912  0.17999684  0.58754411  1
  C  C85  1  0.20002221  0.02047617  0.58800919  1
  C  C86  1  0.82264103  0.79650137  0.58805273  1
  C  C87  1  0.97833666  0.79777534  0.08715720  1
  C  C88  1  0.84191722  0.02334508  0.08896342  1
  C  C89  1  0.20348175  0.17969752  0.08794275  1
  C  C90  1  0.69708163  0.17478557  0.74329472  1
  C  C91  1  0.48022753  0.30889968  0.74285723  1
  C  C92  1  0.85253904  0.53603070  0.74162284  1
  C  C93  1  0.68911561  0.51454801  0.24171244  1
  C  C94  1  0.85447715  0.31966337  0.24340434  1
  C  C95  1  0.48327718  0.16075529  0.24635343  1
  C  C96  1  0.64130940  0.51319272  0.92413663  1
  C  C97  1  0.85611955  0.36698748  0.92258742  1
  C  C98  1  0.49480653  0.14997257  0.92214669  1
  C  C99  1  0.65111721  0.14845716  0.42617919  1
  C  C100  1  0.50929813  0.37001963  0.42640247  1
  C  C101  1  0.86816105  0.50960538  0.42682950  1
  C  C102  1  0.35347795  0.48648687  0.07643587  1
  C  C103  1  0.12968777  0.64243923  0.07793193  1
  C  C104  1  0.50125173  0.84730375  0.07767856  1
  C  C105  1  0.35109734  0.86537502  0.57649634  1
  C  C106  1  0.51427219  0.64461216  0.57890938  1
  C  C107  1  0.13121551  0.48835646  0.57821467  1
  C  C108  1  0.29611347  0.82021012  0.25652576  1
  C  C109  1  0.51781032  0.68353110  0.25500109  1
  C  C110  1  0.15797538  0.46401652  0.25670703  1
  C  C111  1  0.29856133  0.47801684  0.75367648  1
  C  C112  1  0.15752206  0.69784233  0.75304522  1
  C  C113  1  0.51028970  0.83617454  0.75335005  1
