# generated using pymatgen
data_Cu2Ni2C9
_symmetry_space_group_name_H-M   'P 1'
_cell_length_a   3.40278501
_cell_length_b   3.40283364
_cell_length_c   45.19333706
_cell_angle_alpha   90.00097152
_cell_angle_beta   89.99420940
_cell_angle_gamma   120.00034931
_symmetry_Int_Tables_number   1
_chemical_formula_structural   Cu2Ni2C9
_chemical_formula_sum   'Cu2 Ni2 C9'
_cell_volume   453.18835147
_cell_formula_units_Z   1
loop_
 _symmetry_equiv_pos_site_id
 _symmetry_equiv_pos_as_xyz
  1  'x, y, z'
loop_
 _atom_site_type_symbol
 _atom_site_label
 _atom_site_symmetry_multiplicity
 _atom_site_fract_x
 _atom_site_fract_y
 _atom_site_fract_z
 _atom_site_occupancy
  C  C0  1  0.99990800  0.00021700  0.19930800  1
  C  C1  1  0.33325500  0.66667200  0.69930200  1
  C  C2  1  0.66674300  0.33339000  0.04599700  1
  C  C3  1  0.66662400  0.33337300  0.12898600  1
  C  C4  1  0.33337000  0.66669800  0.61593100  1
  C  C5  1  0.33335900  0.66671600  0.08730300  1
  C  C6  1  0.33335300  0.66651900  0.46963600  1
  C  C7  1  0.66668200  0.33334000  0.28858000  1
  C  C8  1  0.66663900  0.33335200  0.65762200  1
  Ni  Ni9  1  0.66675400  0.33322500  0.43317500  1
  Ni  Ni10  1  0.66660600  0.33314200  0.50608300  1
  Cu  Cu11  1  0.33330300  0.66666200  0.32145400  1
  Cu  Cu12  1  0.33340200  0.66669200  0.25502300  1
