# generated using pymatgen
data_Cu24Ni6C7
_symmetry_space_group_name_H-M   'P 1'
_cell_length_a   18.42158475
_cell_length_b   9.20292985
_cell_length_c   24.13656588
_cell_angle_alpha   90.05815173
_cell_angle_beta   89.93697863
_cell_angle_gamma   119.94919861
_symmetry_Int_Tables_number   1
_chemical_formula_structural   Cu24Ni6C7
_chemical_formula_sum   'Cu144 Ni36 C42'
_cell_volume   3545.52847031
_cell_formula_units_Z   6
loop_
 _symmetry_equiv_pos_site_id
 _symmetry_equiv_pos_as_xyz
  1  'x, y, z'
loop_
 _atom_site_type_symbol
 _atom_site_label
 _atom_site_symmetry_multiplicity
 _atom_site_fract_x
 _atom_site_fract_y
 _atom_site_fract_z
 _atom_site_occupancy
  C  C0  1  0.32125355  0.64099552  0.74923831  1
  C  C1  1  0.64947064  0.33050565  0.58435846  1
  C  C2  1  0.98726259  0.66764721  0.91758371  1
  C  C3  1  0.66477950  0.30150684  0.91536059  1
  C  C4  1  0.16706472  0.02960935  0.41709696  1
  C  C5  1  0.66643650  0.02884584  0.41724668  1
  C  C6  1  0.99512419  0.00290997  0.49567944  1
  C  C7  1  0.48545196  0.98272695  0.50146770  1
  C  C8  1  0.00303298  0.01631618  0.99797286  1
  C  C9  1  0.49107103  0.98477142  0.99521991  1
  C  C10  1  0.33780116  0.32544776  0.83720199  1
  C  C11  1  0.82983306  0.31715205  0.83003832  1
  C  C12  1  0.33994512  0.34576269  0.33460382  1
  C  C13  1  0.84024182  0.34600444  0.33387706  1
  C  C14  1  0.16761546  0.66690571  0.16638808  1
  C  C15  1  0.66584392  0.66619947  0.16660925  1
  C  C16  1  0.16540578  0.67146859  0.66337106  1
  C  C17  1  0.66249258  0.67389429  0.66999871  1
  C  C18  1  0.99590642  0.99953862  0.35009637  1
  C  C19  1  0.49542372  0.00000584  0.35053711  1
  C  C20  1  0.00141066  0.00965120  0.85028543  1
  C  C21  1  0.49695863  0.99585211  0.84893099  1
  C  C22  1  0.49797052  0.99472815  0.65103948  1
  C  C23  1  0.33677217  0.32878452  0.68090773  1
  C  C24  1  0.83215381  0.33074797  0.68447390  1
  C  C25  1  0.33304659  0.33277304  0.18310776  1
  C  C26  1  0.83288060  0.33293706  0.18317060  1
  C  C27  1  0.33353236  0.33534049  0.98553039  1
  C  C28  1  0.83311036  0.32274278  0.98940369  1
  C  C29  1  0.33661632  0.34095970  0.48568383  1
  C  C30  1  0.84209156  0.34326548  0.48563186  1
  C  C31  1  0.17024465  0.66803211  0.01776742  1
  C  C32  1  0.66566439  0.67045296  0.01773146  1
  C  C33  1  0.16709735  0.66053952  0.51757476  1
  C  C34  1  0.66639282  0.67101001  0.51565205  1
  C  C35  1  0.16714944  0.66197307  0.31357920  1
  C  C36  1  0.66664172  0.66151907  0.31336656  1
  C  C37  1  0.16460859  0.66844122  0.81645539  1
  C  C38  1  0.66711962  0.66983077  0.81530255  1
  C  C39  1  0.00048075  0.00109628  0.65037334  1
  C  C40  1  0.00072363  0.00023705  0.15054657  1
  C  C41  1  0.49969713  0.99968779  0.15012370  1
  Ni  Ni42  1  0.14473248  0.99947939  0.24898291  1
  Ni  Ni43  1  0.64444101  0.99981142  0.24891289  1
  Ni  Ni44  1  0.35512957  0.71034148  0.24745464  1
  Ni  Ni45  1  0.85523027  0.71062329  0.24739541  1
  Ni  Ni46  1  0.00008991  0.29022702  0.24741816  1
  Ni  Ni47  1  0.50013698  0.29005099  0.24736621  1
  Ni  Ni48  1  0.14637912  0.29270756  0.74708838  1
  Ni  Ni49  1  0.65079697  0.30125339  0.75020377  1
  Ni  Ni50  1  0.00000089  0.71102697  0.74883815  1
  Ni  Ni51  1  0.49880826  0.69941859  0.74960785  1
  Ni  Ni52  1  0.34923665  0.99716730  0.75024713  1
  Ni  Ni53  1  0.85558670  0.99974825  0.74774543  1
  Ni  Ni54  1  0.48581152  0.33316727  0.58286612  1
  Ni  Ni55  1  0.98323410  0.32591321  0.58699024  1
  Ni  Ni56  1  0.17847460  0.03116676  0.58502167  1
  Ni  Ni57  1  0.68459457  0.03822770  0.58199774  1
  Ni  Ni58  1  0.33270508  0.63374811  0.58550115  1
  Ni  Ni59  1  0.83687168  0.63874067  0.58616417  1
  Ni  Ni60  1  0.48304421  0.64037334  0.08660687  1
  Ni  Ni61  1  0.98380026  0.64157275  0.08493889  1
  Ni  Ni62  1  0.33715556  0.03420397  0.08643181  1
  Ni  Ni63  1  0.83727929  0.03151914  0.08696279  1
  Ni  Ni64  1  0.17972416  0.32549805  0.08652667  1
  Ni  Ni65  1  0.67899363  0.32581579  0.08518915  1
  Ni  Ni66  1  0.31614504  0.66422836  0.91508465  1
  Ni  Ni67  1  0.81600100  0.66438737  0.91759279  1
  Ni  Ni68  1  0.01714004  0.37172310  0.91764735  1
  Ni  Ni69  1  0.51887329  0.36951133  0.91690724  1
  Ni  Ni70  1  0.16560287  0.96370627  0.91721551  1
  Ni  Ni71  1  0.66740318  0.96966547  0.91671679  1
  Ni  Ni72  1  0.31333705  0.96422935  0.41692921  1
  Ni  Ni73  1  0.81405338  0.96457411  0.41658210  1
  Ni  Ni74  1  0.16675667  0.36443229  0.41626606  1
  Ni  Ni75  1  0.66760416  0.36497457  0.41804881  1
  Ni  Ni76  1  0.01981532  0.66904526  0.41609347  1
  Ni  Ni77  1  0.51867620  0.66856415  0.41524355  1
  Cu  Cu78  1  0.10724574  0.01577514  0.30087887  1
  Cu  Cu79  1  0.60723201  0.01614534  0.30095777  1
  Cu  Cu80  1  0.40194472  0.78716043  0.29828975  1
  Cu  Cu81  1  0.90196489  0.78705001  0.29828704  1
  Cu  Cu82  1  0.49213840  0.19680136  0.29819881  1
  Cu  Cu83  1  0.99170482  0.19650798  0.29820514  1
  Cu  Cu84  1  0.10806982  0.19839472  0.79772902  1
  Cu  Cu85  1  0.60913817  0.20286374  0.80085937  1
  Cu  Cu86  1  0.48840499  0.78136059  0.79934493  1
  Cu  Cu87  1  0.99196672  0.78576216  0.80091865  1
  Cu  Cu88  1  0.39855397  0.01623311  0.80048489  1
  Cu  Cu89  1  0.90236417  0.01529107  0.79849656  1
  Cu  Cu90  1  0.39020174  0.97637353  0.70042923  1
  Cu  Cu91  1  0.90544331  0.99028421  0.69822819  1
  Cu  Cu92  1  0.09164088  0.19539054  0.69782883  1
  Cu  Cu93  1  0.60242876  0.21873805  0.69915594  1
  Cu  Cu94  1  0.00546959  0.82391493  0.70018331  1
  Cu  Cu95  1  0.50795556  0.79805740  0.69934031  1
  Cu  Cu96  1  0.40442331  0.82027885  0.19799844  1
  Cu  Cu97  1  0.90452861  0.82034683  0.19801652  1
  Cu  Cu98  1  0.00534977  0.19098973  0.19793583  1
  Cu  Cu99  1  0.50541642  0.19103174  0.19790214  1
  Cu  Cu100  1  0.08866015  0.98891851  0.20022312  1
  Cu  Cu101  1  0.58864193  0.98938412  0.20020041  1
  Cu  Cu102  1  0.44612343  0.35112429  0.63321532  1
  Cu  Cu103  1  0.94158349  0.34845683  0.63508404  1
  Cu  Cu104  1  0.23223830  0.11813751  0.63239530  1
  Cu  Cu105  1  0.73610937  0.12385012  0.63096418  1
  Cu  Cu106  1  0.32528685  0.53963015  0.63739755  1
  Cu  Cu107  1  0.82399497  0.53085790  0.63416796  1
  Cu  Cu108  1  0.44205189  0.53583696  0.13508520  1
  Cu  Cu109  1  0.93988449  0.53261040  0.13199852  1
  Cu  Cu110  1  0.32571507  0.11571897  0.13508009  1
  Cu  Cu111  1  0.82571833  0.11534010  0.13484862  1
  Cu  Cu112  1  0.23169391  0.34771044  0.13510220  1
  Cu  Cu113  1  0.73348788  0.34716627  0.13222908  1
  Cu  Cu114  1  0.21300369  0.29233830  0.03567760  1
  Cu  Cu115  1  0.71119360  0.29434084  0.03275525  1
  Cu  Cu116  1  0.43343148  0.57380174  0.03570584  1
  Cu  Cu117  1  0.93584280  0.57771613  0.03250361  1
  Cu  Cu118  1  0.35323905  0.13382165  0.03566008  1
  Cu  Cu119  1  0.85414535  0.13067213  0.03571449  1
  Cu  Cu120  1  0.20968793  0.12573052  0.53272621  1
  Cu  Cu121  1  0.72433216  0.13760514  0.53057947  1
  Cu  Cu122  1  0.33974629  0.54532375  0.53645693  1
  Cu  Cu123  1  0.85427881  0.57370466  0.53522182  1
  Cu  Cu124  1  0.43628031  0.31619376  0.53303278  1
  Cu  Cu125  1  0.93410945  0.29159469  0.53572519  1
  Cu  Cu126  1  0.27222272  0.68053824  0.96384975  1
  Cu  Cu127  1  0.77642519  0.68487346  0.96760443  1
  Cu  Cu128  1  0.06687483  0.45314631  0.96753085  1
  Cu  Cu129  1  0.57056398  0.45154617  0.96674119  1
  Cu  Cu130  1  0.15396787  0.85853605  0.96655852  1
  Cu  Cu131  1  0.65952775  0.87273450  0.96701451  1
  Cu  Cu132  1  0.27298488  0.86543030  0.46718263  1
  Cu  Cu133  1  0.77432549  0.86615057  0.46697862  1
  Cu  Cu134  1  0.15758327  0.44436891  0.46638839  1
  Cu  Cu135  1  0.65923025  0.44165769  0.46998610  1
  Cu  Cu136  1  0.07005988  0.68820214  0.46624814  1
  Cu  Cu137  1  0.56942673  0.68989304  0.46542690  1
  Cu  Cu138  1  0.06024268  0.65101641  0.36570389  1
  Cu  Cu139  1  0.55996652  0.65059682  0.36524480  1
  Cu  Cu140  1  0.26254948  0.88235289  0.36671321  1
  Cu  Cu141  1  0.76280800  0.88175798  0.36673246  1
  Cu  Cu142  1  0.17509542  0.46212844  0.36595931  1
  Cu  Cu143  1  0.67561488  0.46730570  0.36908414  1
  Cu  Cu144  1  0.05713114  0.47193174  0.86709578  1
  Cu  Cu145  1  0.55942039  0.46865872  0.86665970  1
  Cu  Cu146  1  0.17414598  0.88358716  0.86640606  1
  Cu  Cu147  1  0.67679284  0.88966051  0.86651303  1
  Cu  Cu148  1  0.26926793  0.64834719  0.86274773  1
  Cu  Cu149  1  0.76565766  0.64359569  0.86759387  1
  Cu  Cu150  1  0.01527114  0.82785661  0.41262593  1
  Cu  Cu151  1  0.51446156  0.82740392  0.41153510  1
  Cu  Cu152  1  0.39876600  0.98760735  0.41301447  1
  Cu  Cu153  1  0.89947381  0.98769033  0.41277345  1
  Cu  Cu154  1  0.09172539  0.19017300  0.41295975  1
  Cu  Cu155  1  0.59261229  0.19221731  0.41356483  1
  Cu  Cu156  1  0.00530811  0.20048590  0.91352015  1
  Cu  Cu157  1  0.51501207  0.20227475  0.91309866  1
  Cu  Cu158  1  0.08583174  0.97217695  0.91328321  1
  Cu  Cu159  1  0.59244529  0.99289039  0.91320971  1
  Cu  Cu160  1  0.40082362  0.81723726  0.91316654  1
  Cu  Cu161  1  0.90335299  0.80968407  0.91282636  1
  Cu  Cu162  1  0.49720018  0.18291139  0.58605700  1
  Cu  Cu163  1  0.99196208  0.16916402  0.59675870  1
  Cu  Cu164  1  0.09182308  0.01490878  0.59593661  1
  Cu  Cu165  1  0.60167590  0.03122511  0.58645496  1
  Cu  Cu166  1  0.40906874  0.80295177  0.58680280  1
  Cu  Cu167  1  0.91244598  0.81274113  0.59637397  1
  Cu  Cu168  1  0.49193260  0.81455709  0.09624921  1
  Cu  Cu169  1  0.99194137  0.81421183  0.09531483  1
  Cu  Cu170  1  0.41533009  0.01632130  0.09598834  1
  Cu  Cu171  1  0.91535276  0.01484995  0.09640526  1
  Cu  Cu172  1  0.09260130  0.16862942  0.09613548  1
  Cu  Cu173  1  0.59313949  0.16958095  0.09553534  1
  Cu  Cu174  1  0.33696298  0.14369768  0.74591789  1
  Cu  Cu175  1  0.84754831  0.15049777  0.74208571  1
  Cu  Cu176  1  0.23133424  0.31589260  0.74054376  1
  Cu  Cu177  1  0.73546337  0.31667757  0.74770195  1
  Cu  Cu178  1  0.41914226  0.53235706  0.74600134  1
  Cu  Cu179  1  0.92520147  0.54504164  0.74178372  1
  Cu  Cu180  1  0.34642005  0.54326163  0.24118078  1
  Cu  Cu181  1  0.84663925  0.54351547  0.24107246  1
  Cu  Cu182  1  0.42547274  0.30791735  0.24136852  1
  Cu  Cu183  1  0.92541416  0.30822598  0.24122653  1
  Cu  Cu184  1  0.22774158  0.14935784  0.24201149  1
  Cu  Cu185  1  0.72769045  0.14992507  0.24199751  1
  Cu  Cu186  1  0.32449664  0.51168529  0.91981086  1
  Cu  Cu187  1  0.82301330  0.50746878  0.92221620  1
  Cu  Cu188  1  0.43348315  0.34610109  0.92181793  1
  Cu  Cu189  1  0.93351223  0.36403803  0.92171193  1
  Cu  Cu190  1  0.23934654  0.13355085  0.92217182  1
  Cu  Cu191  1  0.74262341  0.14438845  0.92050359  1
  Cu  Cu192  1  0.31753992  0.13177912  0.42091407  1
  Cu  Cu193  1  0.81833377  0.13210894  0.42053806  1
  Cu  Cu194  1  0.24173368  0.34053202  0.41981549  1
  Cu  Cu195  1  0.74295016  0.34210800  0.42081381  1
  Cu  Cu196  1  0.43339093  0.52082898  0.41957068  1
  Cu  Cu197  1  0.93417949  0.52134447  0.42011414  1
  Cu  Cu198  1  0.16658223  0.47054932  0.08118881  1
  Cu  Cu199  1  0.66693487  0.47214185  0.08056672  1
  Cu  Cu200  1  0.06888879  0.66576875  0.08025905  1
  Cu  Cu201  1  0.56862745  0.66621760  0.08124783  1
  Cu  Cu202  1  0.26456222  0.86296057  0.08108517  1
  Cu  Cu203  1  0.76436973  0.86140364  0.08122579  1
  Cu  Cu204  1  0.16545455  0.85987339  0.58089777  1
  Cu  Cu205  1  0.67333548  0.86786253  0.57881568  1
  Cu  Cu206  1  0.25660807  0.65096875  0.58183968  1
  Cu  Cu207  1  0.76045809  0.65351494  0.58004097  1
  Cu  Cu208  1  0.06825232  0.47126297  0.58145325  1
  Cu  Cu209  1  0.57268775  0.48302613  0.57949093  1
  Cu  Cu210  1  0.14919160  0.84359863  0.24761695  1
  Cu  Cu211  1  0.64937805  0.84427771  0.24770063  1
  Cu  Cu212  1  0.27272571  0.70145276  0.24687772  1
  Cu  Cu213  1  0.77280576  0.70148420  0.24691186  1
  Cu  Cu214  1  0.07798380  0.45483889  0.24674214  1
  Cu  Cu215  1  0.57819216  0.45475327  0.24662829  1
  Cu  Cu216  1  0.15310198  0.46075926  0.74735558  1
  Cu  Cu217  1  0.65942592  0.47068658  0.75308867  1
  Cu  Cu218  1  0.07762003  0.70154014  0.74749571  1
  Cu  Cu219  1  0.57292720  0.67732869  0.75365270  1
  Cu  Cu220  1  0.26608922  0.83652437  0.75380760  1
  Cu  Cu221  1  0.77321719  0.84513906  0.74677539  1
