# generated using pymatgen
data_Cu4Ni2C13
_symmetry_space_group_name_H-M   'P 1'
_cell_length_a   4.95913266
_cell_length_b   4.86662444
_cell_length_c   9.59913900
_cell_angle_alpha   90.00000661
_cell_angle_beta   90.00007058
_cell_angle_gamma   87.92098837
_symmetry_Int_Tables_number   1
_chemical_formula_structural   Cu4Ni2C13
_chemical_formula_sum   'Cu4 Ni2 C13'
_cell_volume   231.51539240
_cell_formula_units_Z   1
loop_
 _symmetry_equiv_pos_site_id
 _symmetry_equiv_pos_as_xyz
  1  'x, y, z'
loop_
 _atom_site_type_symbol
 _atom_site_label
 _atom_site_symmetry_multiplicity
 _atom_site_fract_x
 _atom_site_fract_y
 _atom_site_fract_z
 _atom_site_occupancy
  C  C0  1  0.50000000  0.00000100  0.45820400  1
  Ni  Ni1  1  0.00000100  0.99999800  0.98910800  1
  Ni  Ni2  1  0.50000000  0.50000200  0.51522500  1
  Cu  Cu3  1  0.49999800  0.50000400  0.83231000  1
  Cu  Cu4  1  0.00000000  0.99999700  0.30064700  1
  Cu  Cu5  1  0.50000300  0.49999900  0.15798700  1
  Cu  Cu6  1  0.00001100  0.99998900  0.67653700  1
  C  C7  1  0.68375600  0.71389800  0.67554500  1
  C  C8  1  0.31624300  0.28610400  0.67554500  1
  C  C9  1  0.64972500  0.71094500  0.32471900  1
  C  C10  1  0.18590800  0.77640800  0.14677600  1
  C  C11  1  0.81409000  0.22359100  0.14677600  1
  C  C12  1  0.81345000  0.20889600  0.83017300  1
  C  C13  1  0.32548500  0.30398100  0.99365400  1
  C  C14  1  0.19654800  0.79943900  0.52484200  1
  C  C15  1  0.80344800  0.20056600  0.52483900  1
  C  C16  1  0.67451500  0.69601800  0.99365300  1
  C  C17  1  0.35027400  0.28905500  0.32471900  1
  C  C18  1  0.18654500  0.79110700  0.83017000  1
