# generated using pymatgen
data_Cu6Ni7C65
_symmetry_space_group_name_H-M   'P 1'
_cell_length_a   17.68049895
_cell_length_b   8.91859101
_cell_length_c   22.10429961
_cell_angle_alpha   90.35037248
_cell_angle_beta   89.06075855
_cell_angle_gamma   120.11409660
_symmetry_Int_Tables_number   1
_chemical_formula_structural   Cu6Ni7C65
_chemical_formula_sum   'Cu18 Ni21 C195'
_cell_volume   3014.65796502
_cell_formula_units_Z   3
loop_
 _symmetry_equiv_pos_site_id
 _symmetry_equiv_pos_as_xyz
  1  'x, y, z'
loop_
 _atom_site_type_symbol
 _atom_site_label
 _atom_site_symmetry_multiplicity
 _atom_site_fract_x
 _atom_site_fract_y
 _atom_site_fract_z
 _atom_site_occupancy
  C  C0  1  0.81516859  0.00953566  0.25111622  1
  C  C1  1  0.18965271  0.37664489  0.24699085  1
  C  C2  1  0.69034441  0.36143895  0.25716599  1
  C  C3  1  0.99235289  0.60916679  0.25604425  1
  C  C4  1  0.49486726  0.62610701  0.24740086  1
  C  C5  1  0.31688203  0.62233181  0.75223356  1
  C  C6  1  0.99485952  0.36106035  0.74620565  1
  C  C7  1  0.49285321  0.37982802  0.75643229  1
  C  C8  1  0.19118985  0.01773021  0.75167191  1
  C  C9  1  0.69212148  0.00262690  0.74745489  1
  C  C10  1  0.15640617  0.34164099  0.57517822  1
  C  C11  1  0.01532967  0.69006140  0.58860969  1
  C  C12  1  0.48809386  0.66607730  0.91408070  1
  C  C13  1  0.99336175  0.68310031  0.92435350  1
  C  C14  1  0.84433385  0.02440436  0.91589670  1
  C  C15  1  0.49381599  0.30611541  0.42506242  1
  C  C16  1  0.16131241  0.02075463  0.41747209  1
  C  C17  1  0.34257215  0.66237292  0.41659845  1
  C  C18  1  0.98518722  0.99010467  0.49712075  1
  C  C19  1  0.51962796  0.01113398  0.49691279  1
  C  C20  1  0.01740175  0.02631937  0.99637819  1
  C  C21  1  0.50585974  0.02806421  0.99828109  1
  C  C22  1  0.32723355  0.31970602  0.83296434  1
  C  C23  1  0.82728804  0.33768888  0.83293320  1
  C  C24  1  0.33476131  0.33006306  0.33134746  1
  C  C25  1  0.83298625  0.33485214  0.33235230  1
  C  C26  1  0.17666660  0.67968995  0.16531100  1
  C  C27  1  0.65978527  0.66534626  0.15690767  1
  C  C28  1  0.17615912  0.69422613  0.66135538  1
  C  C29  1  0.67477052  0.67151082  0.66491482  1
  C  C30  1  0.33032650  0.32597147  0.68579640  1
  C  C31  1  0.83771154  0.32992044  0.68259515  1
  C  C32  1  0.34079335  0.34999992  0.18112708  1
  C  C33  1  0.83133182  0.32834180  0.18502183  1
  C  C34  1  0.16357130  0.66747979  0.01817534  1
  C  C35  1  0.66265158  0.66123974  0.51683511  1
  Ni  Ni36  1  0.63569758  0.97833285  0.25325590  1
  Ni  Ni37  1  0.35139440  0.72498075  0.25461905  1
  Ni  Ni38  1  0.85593004  0.72625693  0.25451075  1
  Ni  Ni39  1  0.00789026  0.29033048  0.25411207  1
  Ni  Ni40  1  0.13826576  0.29756255  0.75318071  1
  Ni  Ni41  1  0.50919086  0.72711223  0.75428920  1
  Ni  Ni42  1  0.35689005  0.98753929  0.75541748  1
  Ni  Ni43  1  0.85601939  0.97716258  0.75157129  1
  Ni  Ni44  1  0.98057738  0.34132588  0.57768764  1
  Ni  Ni45  1  0.18399485  0.02988913  0.58522919  1
  Ni  Ni46  1  0.48714671  0.62395040  0.07856972  1
  Ni  Ni47  1  0.80574612  0.66752402  0.91532258  1
  Ni  Ni48  1  0.01969962  0.37629308  0.91872718  1
  Ni  Ni49  1  0.52612616  0.37281516  0.91125544  1
  Ni  Ni50  1  0.16696414  0.97242000  0.91588659  1
  Ni  Ni51  1  0.66423544  0.96382654  0.91517907  1
  Ni  Ni52  1  0.30708985  0.94644778  0.41495189  1
  Ni  Ni53  1  0.16198848  0.37046190  0.41570761  1
  Ni  Ni54  1  0.66650536  0.36041070  0.41529203  1
  Ni  Ni55  1  0.01930904  0.66733560  0.41025389  1
  Ni  Ni56  1  0.51762812  0.66241331  0.41887559  1
  Cu  Cu57  1  0.99847822  0.99837957  0.35508326  1
  Cu  Cu58  1  0.49932756  0.98571003  0.35780512  1
  Cu  Cu59  1  0.99947488  0.01464160  0.85703974  1
  Cu  Cu60  1  0.50203851  0.00590765  0.85523708  1
  Cu  Cu61  1  0.00455006  0.04569066  0.64269152  1
  Cu  Cu62  1  0.49584741  0.98187519  0.65126743  1
  Cu  Cu63  1  0.99244304  0.01309229  0.14926950  1
  Cu  Cu64  1  0.49032457  0.93001319  0.14514832  1
  Cu  Cu65  1  0.34558535  0.30879278  0.97931718  1
  Cu  Cu66  1  0.82604104  0.34084485  0.97211432  1
  Cu  Cu67  1  0.32309696  0.31544847  0.47372982  1
  Cu  Cu68  1  0.84096517  0.35483869  0.47405750  1
  Cu  Cu69  1  0.65605510  0.65848391  0.00470488  1
  Cu  Cu70  1  0.15844351  0.66890294  0.50843490  1
  Cu  Cu71  1  0.16840248  0.65651109  0.31700999  1
  Cu  Cu72  1  0.66399212  0.65214643  0.31594782  1
  Cu  Cu73  1  0.16572341  0.67616908  0.81676878  1
  Cu  Cu74  1  0.67271712  0.68932393  0.81654371  1
  C  C75  1  0.13904172  0.99072681  0.24978014  1
  C  C76  1  0.50371620  0.28431348  0.25347011  1
  C  C77  1  0.63838417  0.28626258  0.75020029  1
  C  C78  1  0.00312302  0.71757333  0.75348027  1
  C  C79  1  0.48286876  0.30831846  0.58711401  1
  C  C80  1  0.67407528  0.03644024  0.58756231  1
  C  C81  1  0.33860295  0.64402009  0.58082352  1
  C  C82  1  0.83854712  0.63944802  0.58301438  1
  C  C83  1  0.98066670  0.65479169  0.08672071  1
  C  C84  1  0.34624060  0.03760132  0.08557174  1
  C  C85  1  0.83578033  0.02915792  0.08105709  1
  C  C86  1  0.17526800  0.31065904  0.08783281  1
  C  C87  1  0.68351246  0.33563106  0.08019411  1
  C  C88  1  0.31795405  0.66615468  0.91336907  1
  C  C89  1  0.81900827  0.97518060  0.41481069  1
  C  C90  1  0.10477694  0.01620619  0.30941173  1
  C  C91  1  0.58579362  0.01618688  0.30683415  1
  C  C92  1  0.41094176  0.82882545  0.31098651  1
  C  C93  1  0.92094715  0.81552645  0.31163786  1
  C  C94  1  0.49622551  0.19852217  0.31193498  1
  C  C95  1  0.00127692  0.16930894  0.31079645  1
  C  C96  1  0.08337507  0.15431470  0.80395016  1
  C  C97  1  0.60260430  0.18363956  0.80706492  1
  C  C98  1  0.50199917  0.82591690  0.81478793  1
  C  C99  1  0.99591442  0.79786677  0.81008834  1
  C  C100  1  0.42138747  0.01919490  0.81163693  1
  C  C101  1  0.90924760  0.99080103  0.81194583  1
  C  C102  1  0.39978406  0.94315088  0.69413512  1
  C  C103  1  0.90634313  0.97046684  0.68734013  1
  C  C104  1  0.08637563  0.22824865  0.68626921  1
  C  C105  1  0.58302250  0.19816128  0.69620116  1
  C  C106  1  0.00915127  0.81164481  0.69758562  1
  C  C107  1  0.52815873  0.84875685  0.69276041  1
  C  C108  1  0.39285702  0.82148785  0.18765167  1
  C  C109  1  0.89918847  0.85908664  0.19453432  1
  C  C110  1  0.02682106  0.21168088  0.19038236  1
  C  C111  1  0.51138937  0.19542193  0.20025401  1
  C  C112  1  0.08137848  0.97093890  0.19821227  1
  C  C113  1  0.57721238  0.94033663  0.18883181  1
  C  C114  1  0.44040237  0.31969753  0.64277220  1
  C  C115  1  0.96155530  0.39623788  0.64256682  1
  C  C116  1  0.22651917  0.07923166  0.64980008  1
  C  C117  1  0.71701210  0.11797322  0.64474077  1
  C  C118  1  0.32762097  0.54377755  0.63648845  1
  C  C119  1  0.82998839  0.54126426  0.63764787  1
  C  C120  1  0.46319905  0.55586751  0.14643335  1
  C  C121  1  0.93598774  0.56036395  0.14180241  1
  C  C122  1  0.33415565  0.12212828  0.13783607  1
  C  C123  1  0.82698501  0.10261418  0.13848580  1
  C  C124  1  0.21727837  0.31641704  0.14557313  1
  C  C125  1  0.72546499  0.35478373  0.13866300  1
  C  C126  1  0.22252915  0.29472422  0.03471514  1
  C  C127  1  0.73482390  0.30211017  0.02915987  1
  C  C128  1  0.41421920  0.50443352  0.02435245  1
  C  C129  1  0.93210857  0.56524446  0.02998839  1
  C  C130  1  0.35269401  0.13606917  0.02674422  1
  C  C131  1  0.84504773  0.13669664  0.02699625  1
  C  C132  1  0.23552358  0.18229267  0.52949216  1
  C  C133  1  0.71868939  0.14316417  0.53353382  1
  C  C134  1  0.34700815  0.55685747  0.52508054  1
  C  C135  1  0.84629374  0.54861046  0.52645825  1
  C  C136  1  0.43340215  0.29760932  0.53096897  1
  C  C137  1  0.90676041  0.31233156  0.52569295  1
  C  C138  1  0.27886414  0.68175921  0.96904082  1
  C  C139  1  0.76251097  0.71970666  0.97259408  1
  C  C140  1  0.07068470  0.43082881  0.97929376  1
  C  C141  1  0.58480914  0.45531413  0.97095192  1
  C  C142  1  0.13605168  0.84708523  0.97234701  1
  C  C143  1  0.63643206  0.81690473  0.96741769  1
  C  C144  1  0.26440595  0.81045652  0.47182326  1
  C  C145  1  0.78112795  0.88133556  0.47035922  1
  C  C146  1  0.15246924  0.46708601  0.47518816  1
  C  C147  1  0.63669511  0.42750576  0.47176018  1
  C  C148  1  0.08300328  0.71202720  0.46838026  1
  C  C149  1  0.56872046  0.71145081  0.47986859  1
  C  C150  1  0.06416838  0.63235302  0.35015783  1
  C  C151  1  0.56416969  0.61099525  0.36074372  1
  C  C152  1  0.23838980  0.86502403  0.35836553  1
  C  C153  1  0.76737875  0.88747157  0.35924317  1
  C  C154  1  0.19001330  0.50010201  0.35662427  1
  C  C155  1  0.68635655  0.48932449  0.35370323  1
  C  C156  1  0.06505493  0.51907215  0.86087360  1
  C  C157  1  0.56607134  0.51128276  0.85376861  1
  C  C158  1  0.18697954  0.88433269  0.85387718  1
  C  C159  1  0.69459658  0.89486994  0.85468336  1
  C  C160  1  0.26556464  0.65086813  0.85812669  1
  C  C161  1  0.74186706  0.62458190  0.85719119  1
  C  C162  1  0.01088647  0.84406439  0.40763992  1
  C  C163  1  0.49118147  0.81009419  0.40529161  1
  C  C164  1  0.40817787  0.98869798  0.40889940  1
  C  C165  1  0.90893186  0.99508288  0.41042311  1
  C  C166  1  0.08142380  0.17062346  0.41011703  1
  C  C167  1  0.57926282  0.16482940  0.40500464  1
  C  C168  1  0.99312090  0.17495997  0.90522096  1
  C  C169  1  0.51161026  0.17847313  0.90654951  1
  C  C170  1  0.08079812  0.99696593  0.90390561  1
  C  C171  1  0.57895132  0.98667848  0.91018163  1
  C  C172  1  0.40826344  0.82660011  0.91044711  1
  C  C173  1  0.90739560  0.83010360  0.91015933  1
  C  C174  1  0.48365775  0.13798889  0.58835319  1
  C  C175  1  0.98860192  0.16360150  0.58042709  1
  C  C176  1  0.08505408  0.02123200  0.58995748  1
  C  C177  1  0.58463503  0.02764527  0.58848548  1
  C  C178  1  0.42102352  0.81619262  0.58387748  1
  C  C179  1  0.92445545  0.80724639  0.58278355  1
  C  C180  1  0.49037542  0.81788002  0.07719461  1
  C  C181  1  0.98300489  0.82757068  0.08718619  1
  C  C182  1  0.43267330  0.04218315  0.08731976  1
  C  C183  1  0.92198923  0.02727454  0.08288536  1
  C  C184  1  0.08618153  0.14040344  0.08778496  1
  C  C185  1  0.59630620  0.17872262  0.07960225  1
  C  C186  1  0.34582771  0.15467717  0.75368967  1
  C  C187  1  0.84413887  0.14766842  0.75125052  1
  C  C188  1  0.23475064  0.32537909  0.75235550  1
  C  C189  1  0.72663544  0.30882481  0.74532913  1
  C  C190  1  0.42320672  0.53984737  0.75172886  1
  C  C191  1  0.92932329  0.53590961  0.75400921  1
  C  C192  1  0.34131490  0.53281747  0.25464523  1
  C  C193  1  0.84193982  0.53467866  0.24989276  1
  C  C194  1  0.42985134  0.31969657  0.25193759  1
  C  C195  1  0.92160237  0.30623094  0.25207711  1
  C  C196  1  0.22711437  0.14550106  0.24469182  1
  C  C197  1  0.73159090  0.14430907  0.24942341  1
  C  C198  1  0.33119321  0.51406013  0.91220474  1
  C  C199  1  0.81679943  0.49557732  0.92542269  1
  C  C200  1  0.42821469  0.35686865  0.92103609  1
  C  C201  1  0.91949356  0.36614843  0.92497238  1
  C  C202  1  0.25839026  0.16806591  0.92828258  1
  C  C203  1  0.75336145  0.15026885  0.92800062  1
  C  C204  1  0.31304368  0.13667233  0.42598364  1
  C  C205  1  0.82914904  0.15238483  0.41540888  1
  C  C206  1  0.25113974  0.35050668  0.42261862  1
  C  C207  1  0.75521891  0.34026942  0.42560874  1
  C  C208  1  0.41836011  0.47116918  0.42563140  1
  C  C209  1  0.92361812  0.49510959  0.42029231  1
  C  C210  1  0.16276643  0.46100609  0.08595796  1
  C  C211  1  0.68119146  0.49586210  0.06894108  1
  C  C212  1  0.06939084  0.68173243  0.08704513  1
  C  C213  1  0.58578721  0.64846613  0.06704053  1
  C  C214  1  0.27379773  0.86055624  0.08105125  1
  C  C215  1  0.76061757  0.85179921  0.07621019  1
  C  C216  1  0.16823724  0.83739340  0.56687419  1
  C  C217  1  0.66229851  0.86211332  0.58622479  1
  C  C218  1  0.25931672  0.66151857  0.57769932  1
  C  C219  1  0.76600363  0.67230825  0.58008714  1
  C  C220  1  0.08037735  0.50945394  0.56456658  1
  C  C221  1  0.57207205  0.45585002  0.58627524  1
  C  C222  1  0.14264727  0.82837987  0.24978512  1
  C  C223  1  0.64144227  0.79855138  0.26155959  1
  C  C224  1  0.25518100  0.71242900  0.25728967  1
  C  C225  1  0.75730125  0.71116109  0.25997285  1
  C  C226  1  0.09627557  0.48696618  0.25764662  1
  C  C227  1  0.58910338  0.46318725  0.25264185  1
  C  C228  1  0.14252202  0.48774068  0.76192026  1
  C  C229  1  0.64058700  0.45399121  0.75273975  1
  C  C230  1  0.08887504  0.71286953  0.75325436  1
  C  C231  1  0.59810600  0.70701268  0.75745936  1
  C  C232  1  0.25811435  0.80669602  0.75919129  1
  C  C233  1  0.75802198  0.79973653  0.75406783  1
