# generated using pymatgen
data_Cu2NiC14
_symmetry_space_group_name_H-M   'P 1'
_cell_length_a   6.55000563
_cell_length_b   6.04655348
_cell_length_c   6.92940759
_cell_angle_alpha   104.98221929
_cell_angle_beta   103.00614489
_cell_angle_gamma   97.31411012
_symmetry_Int_Tables_number   1
_chemical_formula_structural   Cu2NiC14
_chemical_formula_sum   'Cu2 Ni1 C14'
_cell_volume   253.24276908
_cell_formula_units_Z   1
loop_
 _symmetry_equiv_pos_site_id
 _symmetry_equiv_pos_as_xyz
  1  'x, y, z'
loop_
 _atom_site_type_symbol
 _atom_site_label
 _atom_site_symmetry_multiplicity
 _atom_site_fract_x
 _atom_site_fract_y
 _atom_site_fract_z
 _atom_site_occupancy
  C  C0  1  0.21112289  0.08883149  0.75096741  1
  C  C1  1  0.64291026  0.74182694  0.24443257  1
  Ni  Ni2  1  0.72581093  0.34191279  0.71707438  1
  C  C3  1  0.11313632  0.60719799  0.06653255  1
  C  C4  1  0.07942860  0.49697532  0.49956310  1
  Cu  Cu5  1  0.62382990  0.83857433  0.73217715  1
  Cu  Cu6  1  0.37523590  0.17888859  0.26680900  1
  C  C7  1  0.93077164  0.58785299  0.25420511  1
  C  C8  1  0.29674761  0.91041284  0.05778243  1
  C  C9  1  0.21096528  0.19512508  0.43770401  1
  C  C10  1  0.60291753  0.12828190  0.85187447  1
  C  C11  1  0.63706967  0.18128711  0.40798958  1
  C  C12  1  0.35603093  0.39154440  0.12620354  1
  C  C13  1  0.65722500  0.64263701  0.88169403  1
  C  C14  1  0.84552857  0.84516894  0.61963868  1
  C  C15  1  0.03612174  0.40380069  0.76168675  1
  C  C16  1  0.37389725  0.74259860  0.53662824  1
