# generated using pymatgen
data_Cu2NiC8
_symmetry_space_group_name_H-M   'P 1'
_cell_length_a   6.91113839
_cell_length_b   6.52228579
_cell_length_c   6.06010388
_cell_angle_alpha   90.54306157
_cell_angle_beta   118.46309709
_cell_angle_gamma   125.02796589
_symmetry_Int_Tables_number   1
_chemical_formula_structural   Cu2NiC8
_chemical_formula_sum   'Cu2 Ni1 C8'
_cell_volume   180.81467680
_cell_formula_units_Z   1
loop_
 _symmetry_equiv_pos_site_id
 _symmetry_equiv_pos_as_xyz
  1  'x, y, z'
loop_
 _atom_site_type_symbol
 _atom_site_label
 _atom_site_symmetry_multiplicity
 _atom_site_fract_x
 _atom_site_fract_y
 _atom_site_fract_z
 _atom_site_occupancy
  C  C0  1  0.81193944  0.09680235  0.90544842  1
  C  C1  1  0.18333206  0.92280141  0.09472777  1
  Ni  Ni2  1  0.98247169  0.51680853  0.49665804  1
  Cu  Cu3  1  0.31437841  0.29348206  0.67695726  1
  Cu  Cu4  1  0.51777106  0.75373317  0.19518598  1
  C  C5  1  0.94164288  0.23347669  0.28030208  1
  C  C6  1  0.01908155  0.79033648  0.70897246  1
  C  C7  1  0.01108509  0.31983132  0.75655288  1
  C  C8  1  0.98864322  0.69394556  0.23767544  1
  C  C9  1  0.42671058  0.73754371  0.73726419  1
  C  C10  1  0.55641604  0.27665572  0.27483849  1
