# generated using pymatgen
data_Cu4Ni8C7
_symmetry_space_group_name_H-M   'P 1'
_cell_length_a   5.33016453
_cell_length_b   5.25945220
_cell_length_c   8.98756648
_cell_angle_alpha   90.60364887
_cell_angle_beta   89.82318368
_cell_angle_gamma   105.33874534
_symmetry_Int_Tables_number   1
_chemical_formula_structural   Cu4Ni8C7
_chemical_formula_sum   'Cu4 Ni8 C7'
_cell_volume   242.96669964
_cell_formula_units_Z   1
loop_
 _symmetry_equiv_pos_site_id
 _symmetry_equiv_pos_as_xyz
  1  'x, y, z'
loop_
 _atom_site_type_symbol
 _atom_site_label
 _atom_site_symmetry_multiplicity
 _atom_site_fract_x
 _atom_site_fract_y
 _atom_site_fract_z
 _atom_site_occupancy
  C  C0  1  0.01163968  0.53984224  0.65480580  1
  C  C1  1  0.01660251  0.97065270  0.00702344  1
  C  C2  1  0.01686713  0.97175374  0.32706586  1
  C  C3  1  0.97252949  0.02160436  0.65586068  1
  C  C4  1  0.50161866  0.48685354  0.83753954  1
  C  C5  1  0.47111982  0.51613896  0.16352718  1
  C  C6  1  0.51005210  0.48187883  0.48912315  1
  Ni  Ni7  1  0.12502006  0.84864430  0.51518656  1
  Ni  Ni8  1  0.31628282  0.28327101  0.99505593  1
  Ni  Ni9  1  0.31165972  0.29262556  0.33010449  1
  Ni  Ni10  1  0.27689924  0.33627187  0.66188744  1
  Ni  Ni11  1  0.68799814  0.68833677  0.99632853  1
  Ni  Ni12  1  0.68141471  0.69743825  0.33123345  1
  Ni  Ni13  1  0.69540783  0.68726782  0.66832238  1
  Ni  Ni14  1  0.88964940  0.11468415  0.16444861  1
  Cu  Cu15  1  0.19892934  0.77022578  0.16358721  1
  Cu  Cu16  1  0.14978189  0.80164983  0.82555483  1
  Cu  Cu17  1  0.81272940  0.26120155  0.51104475  1
  Cu  Cu18  1  0.82601905  0.22965876  0.80229717  1
