# generated using pymatgen
data_Cu2NiC8
_symmetry_space_group_name_H-M   'P 1'
_cell_length_a   5.49679806
_cell_length_b   6.02752492
_cell_length_c   5.49679811
_cell_angle_alpha   117.12765935
_cell_angle_beta   60.00001075
_cell_angle_gamma   117.12766063
_symmetry_Int_Tables_number   1
_chemical_formula_structural   Cu2NiC8
_chemical_formula_sum   'Cu2 Ni1 C8'
_cell_volume   134.08900848
_cell_formula_units_Z   1
loop_
 _symmetry_equiv_pos_site_id
 _symmetry_equiv_pos_as_xyz
  1  'x, y, z'
loop_
 _atom_site_type_symbol
 _atom_site_label
 _atom_site_symmetry_multiplicity
 _atom_site_fract_x
 _atom_site_fract_y
 _atom_site_fract_z
 _atom_site_occupancy
  Ni  Ni0  1  0.50000000  0.50000000  0.50000000  1
  C  C1  1  0.12097300  0.36291900  0.12097300  1
  C  C2  1  0.87902700  0.63708100  0.87902700  1
  Cu  Cu3  1  0.32449100  0.97347300  0.32449100  1
  Cu  Cu4  1  0.67550900  0.02652700  0.67550900  1
  C  C5  1  0.08751400  0.24083500  0.47000900  1
  C  C6  1  0.47000900  0.24083500  0.68331100  1
  C  C7  1  0.68331100  0.24083500  0.08751400  1
  C  C8  1  0.31668900  0.75916500  0.91248600  1
  C  C9  1  0.52999100  0.75916500  0.31668900  1
  C  C10  1  0.91248600  0.75916500  0.52999100  1
