# generated using pymatgen
data_Cu2NiC12
_symmetry_space_group_name_H-M   'P 1'
_cell_length_a   5.96655247
_cell_length_b   6.41876488
_cell_length_c   6.51819718
_cell_angle_alpha   117.89787077
_cell_angle_beta   117.25605615
_cell_angle_gamma   90.15647762
_symmetry_Int_Tables_number   1
_chemical_formula_structural   Cu2NiC12
_chemical_formula_sum   'Cu2 Ni1 C12'
_cell_volume   188.49541147
_cell_formula_units_Z   1
loop_
 _symmetry_equiv_pos_site_id
 _symmetry_equiv_pos_as_xyz
  1  'x, y, z'
loop_
 _atom_site_type_symbol
 _atom_site_label
 _atom_site_symmetry_multiplicity
 _atom_site_fract_x
 _atom_site_fract_y
 _atom_site_fract_z
 _atom_site_occupancy
  Ni  Ni0  1  0.55749542  0.04817884  0.11397228  1
  C  C1  1  0.02394995  0.00264744  0.54609622  1
  C  C2  1  0.00911038  0.98221242  0.01840316  1
  C  C3  1  0.99969766  0.49009825  0.99951261  1
  C  C4  1  0.52327138  0.00256970  0.54595810  1
  Cu  Cu5  1  0.57178962  0.51823659  0.14268951  1
  Cu  Cu6  1  0.32339341  0.55128414  0.65155502  1
  C  C7  1  0.74975929  0.75537061  0.02696653  1
  C  C8  1  0.76784958  0.20183310  0.53113435  1
  C  C9  1  0.27617011  0.75476277  0.02806339  1
  C  C10  1  0.25362866  0.21189229  0.99852098  1
  C  C11  1  0.23308540  0.76576498  0.46831944  1
  C  C12  1  0.23941748  0.16424163  0.47691200  1
  C  C13  1  0.78679713  0.81639798  0.57331516  1
  C  C14  1  0.74708454  0.21367627  0.99858123  1
