# generated using pymatgen
data_Cu3NiC
_symmetry_space_group_name_H-M   'P 1'
_cell_length_a   4.83229000
_cell_length_b   10.76502600
_cell_length_c   18.14727700
_cell_angle_alpha   90.00000000
_cell_angle_beta   90.00000000
_cell_angle_gamma   90.00000000
_symmetry_Int_Tables_number   1
_chemical_formula_structural   Cu3NiC
_chemical_formula_sum   'Cu12 Ni4 C4'
_cell_volume   944.01640422
_cell_formula_units_Z   4
loop_
 _symmetry_equiv_pos_site_id
 _symmetry_equiv_pos_as_xyz
  1  'x, y, z'
loop_
 _atom_site_type_symbol
 _atom_site_label
 _atom_site_symmetry_multiplicity
 _atom_site_fract_x
 _atom_site_fract_y
 _atom_site_fract_z
 _atom_site_occupancy
  C  C0  1  0.25000000  0.58347700  0.17018200  1
  C  C1  1  0.75000000  0.41652300  0.82981800  1
  C  C2  1  0.25000000  0.08347700  0.32981800  1
  C  C3  1  0.75000000  0.91652300  0.67018200  1
  Ni  Ni4  1  0.25000000  0.84186000  0.93897800  1
  Ni  Ni5  1  0.75000000  0.15814000  0.06102200  1
  Ni  Ni6  1  0.25000000  0.34186000  0.56102200  1
  Ni  Ni7  1  0.75000000  0.65814000  0.43897800  1
  Cu  Cu8  1  0.75000000  0.52610000  0.61190700  1
  Cu  Cu9  1  0.25000000  0.47390000  0.38809300  1
  Cu  Cu10  1  0.75000000  0.02610000  0.88809300  1
  Cu  Cu11  1  0.25000000  0.97390000  0.11190700  1
  Cu  Cu12  1  0.75000000  0.79317400  0.29187400  1
  Cu  Cu13  1  0.25000000  0.20682600  0.70812600  1
  Cu  Cu14  1  0.75000000  0.29317400  0.20812600  1
  Cu  Cu15  1  0.25000000  0.70682600  0.79187400  1
  Cu  Cu16  1  0.75000000  0.66849600  0.99887400  1
  Cu  Cu17  1  0.25000000  0.33150400  0.00112600  1
  Cu  Cu18  1  0.75000000  0.16849600  0.50112600  1
  Cu  Cu19  1  0.25000000  0.83150400  0.49887400  1
