# generated using pymatgen
data_Cu2Ni3C2
_symmetry_space_group_name_H-M   'P 1'
_cell_length_a   11.33557755
_cell_length_b   11.33557755
_cell_length_c   10.01205900
_cell_angle_alpha   90.00000000
_cell_angle_beta   90.00000000
_cell_angle_gamma   119.99999740
_symmetry_Int_Tables_number   1
_chemical_formula_structural   Cu2Ni3C2
_chemical_formula_sum   'Cu8 Ni12 C8'
_cell_volume   1114.14405806
_cell_formula_units_Z   4
loop_
 _symmetry_equiv_pos_site_id
 _symmetry_equiv_pos_as_xyz
  1  'x, y, z'
loop_
 _atom_site_type_symbol
 _atom_site_label
 _atom_site_symmetry_multiplicity
 _atom_site_fract_x
 _atom_site_fract_y
 _atom_site_fract_z
 _atom_site_occupancy
  C  C0  1  0.81150100  0.28163200  0.77022700  1
  C  C1  1  0.47013100  0.18849900  0.77022700  1
  C  C2  1  0.33333300  0.66666700  0.94683900  1
  C  C3  1  0.18849900  0.71836800  0.22977300  1
  C  C4  1  0.52986900  0.81150100  0.22977300  1
  C  C5  1  0.28163200  0.47013100  0.22977300  1
  C  C6  1  0.66666700  0.33333300  0.05316100  1
  C  C7  1  0.71836800  0.52986900  0.77022700  1
  Ni  Ni8  1  0.61075600  0.12086400  0.68617600  1
  Ni  Ni9  1  0.17569500  0.72166900  0.00656200  1
  Ni  Ni10  1  0.54597400  0.82430500  0.00656200  1
  Ni  Ni11  1  0.27833100  0.45402600  0.00656200  1
  Ni  Ni12  1  0.45402600  0.17569500  0.99343800  1
  Ni  Ni13  1  0.72166900  0.54597400  0.99343800  1
  Ni  Ni14  1  0.82430500  0.27833100  0.99343800  1
  Ni  Ni15  1  0.12086400  0.51010800  0.31382400  1
  Ni  Ni16  1  0.51010800  0.38924400  0.68617600  1
  Ni  Ni17  1  0.87913600  0.48989200  0.68617600  1
  Ni  Ni18  1  0.38924400  0.87913600  0.31382400  1
  Ni  Ni19  1  0.48989200  0.61075600  0.31382400  1
  Cu  Cu20  1  0.98344400  0.21791800  0.68757600  1
  Cu  Cu21  1  0.78208200  0.76552600  0.68757600  1
  Cu  Cu22  1  0.01655600  0.78208200  0.31242400  1
  Cu  Cu23  1  0.76552600  0.98344400  0.31242400  1
  Cu  Cu24  1  0.21791800  0.23447400  0.31242400  1
  Cu  Cu25  1  0.66666700  0.33333300  0.30512900  1
  Cu  Cu26  1  0.33333300  0.66666700  0.69487100  1
  Cu  Cu27  1  0.23447400  0.01655600  0.68757600  1
