# generated using pymatgen
data_Cu3NiC14
_symmetry_space_group_name_H-M   'P 1'
_cell_length_a   8.77267906
_cell_length_b   8.77267878
_cell_length_c   23.05116639
_cell_angle_alpha   90.00000000
_cell_angle_beta   90.00000000
_cell_angle_gamma   120.00000106
_symmetry_Int_Tables_number   1
_chemical_formula_structural   Cu3NiC14
_chemical_formula_sum   'Cu18 Ni6 C84'
_cell_volume   1536.34234740
_cell_formula_units_Z   6
loop_
 _symmetry_equiv_pos_site_id
 _symmetry_equiv_pos_as_xyz
  1  'x, y, z'
loop_
 _atom_site_type_symbol
 _atom_site_label
 _atom_site_symmetry_multiplicity
 _atom_site_fract_x
 _atom_site_fract_y
 _atom_site_fract_z
 _atom_site_occupancy
  C  C0  1  0.00000000  0.00000000  0.50050866  1
  C  C1  1  0.00000000  0.00000000  0.00046132  1
  C  C2  1  0.66666700  0.33333300  0.83295360  1
  C  C3  1  0.66666700  0.33333300  0.33379002  1
  C  C4  1  0.33333300  0.66666700  0.16709756  1
  C  C5  1  0.33333300  0.66666700  0.66624599  1
  C  C6  1  0.00000000  0.00000000  0.35436255  1
  C  C7  1  0.00000000  0.00000000  0.85312443  1
  C  C8  1  0.66666700  0.33333300  0.18705063  1
  C  C9  1  0.66666700  0.33333300  0.98065930  1
  C  C10  1  0.33333300  0.66666700  0.02025955  1
  C  C11  1  0.33333300  0.66666700  0.81281629  1
  Ni  Ni12  1  0.00000000  0.00000000  0.64734087  1
  Ni  Ni13  1  0.00000000  0.00000000  0.14836287  1
  Ni  Ni14  1  0.66666700  0.33333300  0.68535437  1
  Ni  Ni15  1  0.66666700  0.33333300  0.48118915  1
  Ni  Ni16  1  0.33333300  0.66666700  0.51965133  1
  Ni  Ni17  1  0.33333300  0.66666700  0.31451212  1
  Cu  Cu18  1  0.28876165  0.99773958  0.25038358  1
  Cu  Cu19  1  0.70897793  0.71123835  0.25038358  1
  Cu  Cu20  1  0.00226042  0.29102207  0.25038358  1
  Cu  Cu21  1  0.29123265  0.28875108  0.74906953  1
  Cu  Cu22  1  0.99751843  0.70876735  0.74906953  1
  Cu  Cu23  1  0.71124892  0.00248157  0.74906953  1
  Cu  Cu24  1  0.95698987  0.33330311  0.58331813  1
  Cu  Cu25  1  0.37631424  0.04301013  0.58331813  1
  Cu  Cu26  1  0.66669689  0.62368576  0.58331813  1
  Cu  Cu27  1  0.95676905  0.62583355  0.08395984  1
  Cu  Cu28  1  0.66906549  0.04323095  0.08395984  1
  Cu  Cu29  1  0.37416645  0.33093451  0.08395984  1
  Cu  Cu30  1  0.62301923  0.66653770  0.91665890  1
  Cu  Cu31  1  0.04351747  0.37698077  0.91665890  1
  Cu  Cu32  1  0.33346230  0.95648253  0.91665890  1
  Cu  Cu33  1  0.62076686  0.95659984  0.41731626  1
  Cu  Cu34  1  0.33583198  0.37923314  0.41731626  1
  Cu  Cu35  1  0.04340016  0.66416802  0.41731626  1
  C  C36  1  0.20522357  0.02883704  0.30428757  1
  C  C37  1  0.82361348  0.79477643  0.30428757  1
  C  C38  1  0.97116296  0.17638652  0.30428757  1
  C  C39  1  0.20737658  0.17601609  0.80332695  1
  C  C40  1  0.96863951  0.79262342  0.80332695  1
  C  C41  1  0.82398391  0.03136049  0.80332695  1
  C  C42  1  0.78796232  0.96594880  0.69412543  1
  C  C43  1  0.17798648  0.21203768  0.69412543  1
  C  C44  1  0.03405120  0.82201352  0.69412543  1
  C  C45  1  0.78640207  0.82211861  0.19502365  1
  C  C46  1  0.03571654  0.21359793  0.19502365  1
  C  C47  1  0.17788139  0.96428346  0.19502365  1
  C  C48  1  0.87993070  0.36838768  0.63829219  1
  C  C49  1  0.48845798  0.12006930  0.63829219  1
  C  C50  1  0.63161232  0.51154202  0.63829219  1
  C  C51  1  0.87282368  0.51097949  0.13788273  1
  C  C52  1  0.63815682  0.12717632  0.13788273  1
  C  C53  1  0.48902051  0.36184318  0.13788273  1
  C  C54  1  0.45868453  0.30246514  0.02962102  1
  C  C55  1  0.84378160  0.54131547  0.02962102  1
  C  C56  1  0.69753486  0.15621840  0.02962102  1
  C  C57  1  0.45365199  0.15525329  0.52825105  1
  C  C58  1  0.70160230  0.54634801  0.52825105  1
  C  C59  1  0.84474671  0.29839770  0.52825105  1
  C  C60  1  0.53939830  0.69629180  0.97084573  1
  C  C61  1  0.15689250  0.46060170  0.97084573  1
  C  C62  1  0.30370820  0.84310750  0.97084573  1
  C  C63  1  0.54478486  0.84369795  0.47217188  1
  C  C64  1  0.29891209  0.45521514  0.47217188  1
  C  C65  1  0.15630205  0.70108791  0.47217188  1
  C  C66  1  0.12046916  0.63053168  0.36193484  1
  C  C67  1  0.51006151  0.87953084  0.36193484  1
  C  C68  1  0.36946832  0.48993849  0.36193484  1
  C  C69  1  0.12759287  0.49041734  0.86237647  1
  C  C70  1  0.36282348  0.87240713  0.86237647  1
  C  C71  1  0.50958266  0.63717652  0.86237647  1
  C  C72  1  0.02402611  0.82858741  0.40991604  1
  C  C73  1  0.80456131  0.97597389  0.40991604  1
  C  C74  1  0.17141259  0.19543869  0.40991604  1
  C  C75  1  0.02399258  0.19329844  0.90955827  1
  C  C76  1  0.16930586  0.97600742  0.90955827  1
  C  C77  1  0.80670156  0.83069414  0.90955827  1
  C  C78  1  0.97591480  0.16725070  0.58936553  1
  C  C79  1  0.19133590  0.02408520  0.58936553  1
  C  C80  1  0.83274930  0.80866410  0.58936553  1
  C  C81  1  0.97553288  0.81049091  0.08969991  1
  C  C82  1  0.83495803  0.02446712  0.08969991  1
  C  C83  1  0.18950909  0.16504197  0.08969991  1
  C  C84  1  0.69201285  0.16839052  0.74362527  1
  C  C85  1  0.47637867  0.30798715  0.74362527  1
  C  C86  1  0.83160948  0.52362133  0.74362527  1
  C  C87  1  0.69036529  0.52789161  0.24326236  1
  C  C88  1  0.83752732  0.30963471  0.24326236  1
  C  C89  1  0.47210839  0.16247268  0.24326236  1
  C  C90  1  0.64272546  0.50255349  0.92371534  1
  C  C91  1  0.85982903  0.35727454  0.92371534  1
  C  C92  1  0.49744651  0.14017097  0.92371534  1
  C  C93  1  0.64167221  0.14251238  0.42310290  1
  C  C94  1  0.50084118  0.35832779  0.42310290  1
  C  C95  1  0.85748762  0.49915882  0.42310290  1
  C  C96  1  0.35615081  0.49576471  0.07661745  1
  C  C97  1  0.13961290  0.64384919  0.07661745  1
  C  C98  1  0.50423529  0.86038710  0.07661745  1
  C  C99  1  0.35745787  0.85803956  0.57722188  1
  C  C100  1  0.50058069  0.64254213  0.57722188  1
  C  C101  1  0.14196044  0.49941931  0.57722188  1
  C  C102  1  0.30921273  0.83270422  0.25650163  1
  C  C103  1  0.52349049  0.69078727  0.25650163  1
  C  C104  1  0.16729578  0.47650951  0.25650163  1
  C  C105  1  0.31030651  0.47221505  0.75665414  1
  C  C106  1  0.16190754  0.68969349  0.75665414  1
  C  C107  1  0.52778495  0.83809246  0.75665414  1
