# generated using pymatgen
data_Cu(NiC)2
_symmetry_space_group_name_H-M   'P 1'
_cell_length_a   6.38898200
_cell_length_b   6.38898200
_cell_length_c   8.47689900
_cell_angle_alpha   90.00000000
_cell_angle_beta   90.00000000
_cell_angle_gamma   90.00000000
_symmetry_Int_Tables_number   1
_chemical_formula_structural   Cu(NiC)2
_chemical_formula_sum   'Cu4 Ni8 C8'
_cell_volume   346.01931165
_cell_formula_units_Z   4
loop_
 _symmetry_equiv_pos_site_id
 _symmetry_equiv_pos_as_xyz
  1  'x, y, z'
loop_
 _atom_site_type_symbol
 _atom_site_label
 _atom_site_symmetry_multiplicity
 _atom_site_fract_x
 _atom_site_fract_y
 _atom_site_fract_z
 _atom_site_occupancy
  Ni  Ni0  1  0.49864500  0.74481900  0.62769900  1
  Ni  Ni1  1  0.99864500  0.75518100  0.62230100  1
  Ni  Ni2  1  0.24481900  0.00135500  0.87769900  1
  Ni  Ni3  1  0.75518100  0.99864500  0.37769900  1
  Ni  Ni4  1  0.25518100  0.50135500  0.87230100  1
  Ni  Ni5  1  0.00135500  0.24481900  0.12230100  1
  Ni  Ni6  1  0.50135500  0.25518100  0.12769900  1
  Ni  Ni7  1  0.74481900  0.49864500  0.37230100  1
  Cu  Cu8  1  0.21784300  0.21784300  0.50000000  1
  Cu  Cu9  1  0.28215700  0.71784300  0.25000000  1
  Cu  Cu10  1  0.71784300  0.28215700  0.75000000  1
  Cu  Cu11  1  0.78215700  0.78215700  0.00000000  1
  C  C12  1  0.24777600  0.62689600  0.48542600  1
  C  C13  1  0.75222400  0.37310400  0.98542600  1
  C  C14  1  0.62689600  0.24777600  0.51457400  1
  C  C15  1  0.12689600  0.25222400  0.73542600  1
  C  C16  1  0.74777600  0.87310400  0.76457400  1
  C  C17  1  0.37310400  0.75222400  0.01457400  1
  C  C18  1  0.87310400  0.74777600  0.23542600  1
  C  C19  1  0.25222400  0.12689600  0.26457400  1
