# generated using pymatgen
data_Cu2Ni4C9
_symmetry_space_group_name_H-M   'P 1'
_cell_length_a   6.81830767
_cell_length_b   6.81830639
_cell_length_c   5.77290050
_cell_angle_alpha   64.95446577
_cell_angle_beta   64.95446136
_cell_angle_gamma   50.68557696
_symmetry_Int_Tables_number   1
_chemical_formula_structural   Cu2Ni4C9
_chemical_formula_sum   'Cu2 Ni4 C9'
_cell_volume   183.45058225
_cell_formula_units_Z   1
loop_
 _symmetry_equiv_pos_site_id
 _symmetry_equiv_pos_as_xyz
  1  'x, y, z'
loop_
 _atom_site_type_symbol
 _atom_site_label
 _atom_site_symmetry_multiplicity
 _atom_site_fract_x
 _atom_site_fract_y
 _atom_site_fract_z
 _atom_site_occupancy
  C  C0  1  0.75826000  0.75826000  0.74174000  1
  Ni  Ni1  1  0.00242200  0.00242200  0.99757800  1
  Ni  Ni2  1  0.24700600  0.24700600  0.25299400  1
  Ni  Ni3  1  0.19772400  0.65211100  0.57508200  1
  Ni  Ni4  1  0.65211100  0.19772400  0.57508200  1
  Cu  Cu5  1  0.59175000  0.59175000  0.17013900  1
  Cu  Cu6  1  0.59175000  0.59175000  0.64636100  1
  C  C7  1  0.35430500  0.35430500  0.40823300  1
  C  C8  1  0.38682600  0.86549900  0.37383700  1
  C  C9  1  0.35430500  0.35430500  0.88315800  1
  C  C10  1  0.86549900  0.38682600  0.37383700  1
  C  C11  1  0.38375200  0.82753400  0.89435800  1
  C  C12  1  0.82753400  0.38375200  0.89435800  1
  C  C13  1  0.89858600  0.89858600  0.36836200  1
  C  C14  1  0.89858600  0.89858600  0.83446400  1
