# generated using pymatgen
data_Cu(NiC4)2
_symmetry_space_group_name_H-M   'P 1'
_cell_length_a   7.52108881
_cell_length_b   5.74831183
_cell_length_c   6.74620901
_cell_angle_alpha   62.20126409
_cell_angle_beta   46.69926703
_cell_angle_gamma   65.70630638
_symmetry_Int_Tables_number   1
_chemical_formula_structural   Cu(NiC4)2
_chemical_formula_sum   'Cu1 Ni2 C8'
_cell_volume   185.85574219
_cell_formula_units_Z   1
loop_
 _symmetry_equiv_pos_site_id
 _symmetry_equiv_pos_as_xyz
  1  'x, y, z'
loop_
 _atom_site_type_symbol
 _atom_site_label
 _atom_site_symmetry_multiplicity
 _atom_site_fract_x
 _atom_site_fract_y
 _atom_site_fract_z
 _atom_site_occupancy
  Ni  Ni0  1  0.27909300  0.14424528  0.39136043  1
  Ni  Ni1  1  0.57984657  0.76124703  0.87039253  1
  Cu  Cu2  1  0.97958689  0.90833638  0.15666400  1
  C  C3  1  0.04505480  0.54789098  0.83601948  1
  C  C4  1  0.58748041  0.45348852  0.48160728  1
  C  C5  1  0.74425044  0.78819626  0.11064623  1
  C  C6  1  0.29333366  0.65741575  0.80123465  1
  C  C7  1  0.81090456  0.46979804  0.51879751  1
  C  C8  1  0.29990495  0.21186663  0.75826204  1
  C  C9  1  0.13786790  0.73378861  0.43370995  1
  C  C10  1  0.74267984  0.32372852  0.14130589  1
