# generated using pymatgen
data_Cu12Ni3C2
_symmetry_space_group_name_H-M   'P 1'
_cell_length_a   8.69005750
_cell_length_b   8.69005723
_cell_length_c   22.92622251
_cell_angle_alpha   90.00000000
_cell_angle_beta   90.00000000
_cell_angle_gamma   120.00000104
_symmetry_Int_Tables_number   1
_chemical_formula_structural   Cu12Ni3C2
_chemical_formula_sum   'Cu72 Ni18 C12'
_cell_volume   1499.36861809
_cell_formula_units_Z   6
loop_
 _symmetry_equiv_pos_site_id
 _symmetry_equiv_pos_as_xyz
  1  'x, y, z'
loop_
 _atom_site_type_symbol
 _atom_site_label
 _atom_site_symmetry_multiplicity
 _atom_site_fract_x
 _atom_site_fract_y
 _atom_site_fract_z
 _atom_site_occupancy
  C  C0  1  0.00000000  0.00000000  0.84829231  1
  C  C1  1  0.66666700  0.33333300  0.98504069  1
  C  C2  1  0.33333300  0.66666700  0.03066615  1
  C  C3  1  0.33333300  0.66666700  0.52141572  1
  C  C4  1  0.33333300  0.66666700  0.31191828  1
  C  C5  1  0.33333300  0.66666700  0.80266785  1
  C  C6  1  0.00000000  0.00000000  0.34997968  1
  C  C7  1  0.00000000  0.00000000  0.64300049  1
  C  C8  1  0.00000000  0.00000000  0.15157099  1
  C  C9  1  0.66666700  0.33333300  0.68176201  1
  C  C10  1  0.66666700  0.33333300  0.19033251  1
  C  C11  1  0.66666700  0.33333300  0.48335332  1
  Ni  Ni12  1  0.28744803  0.01869604  0.24814028  1
  Ni  Ni13  1  0.73124801  0.71255197  0.24814028  1
  Ni  Ni14  1  0.98130396  0.26875199  0.24814028  1
  Ni  Ni15  1  0.30080569  0.27982417  0.73894585  1
  Ni  Ni16  1  0.97901848  0.69919431  0.73894585  1
  Ni  Ni17  1  0.72017583  0.02098152  0.73894585  1
  Ni  Ni18  1  0.93541899  0.31463696  0.58519272  1
  Ni  Ni19  1  0.37921897  0.06458101  0.58519272  1
  Ni  Ni20  1  0.68536304  0.62078103  0.58519272  1
  Ni  Ni21  1  0.94649117  0.63413869  0.09438715  1
  Ni  Ni22  1  0.68764852  0.05350883  0.09438715  1
  Ni  Ni23  1  0.36586131  0.31235148  0.09438715  1
  Ni  Ni24  1  0.62460831  0.66666700  0.91666700  1
  Ni  Ni25  1  0.04205769  0.37539169  0.91666700  1
  Ni  Ni26  1  0.33333300  0.95794231  0.91666700  1
  Ni  Ni27  1  0.64831868  0.98165268  0.41666700  1
  Ni  Ni28  1  0.33333300  0.35168132  0.41666700  1
  Ni  Ni29  1  0.01834732  0.66666700  0.41666700  1
  Cu  Cu30  1  0.20481140  0.04592567  0.30111991  1
  Cu  Cu31  1  0.84111426  0.79518860  0.30111991  1
  Cu  Cu32  1  0.95407433  0.15888574  0.30111991  1
  Cu  Cu33  1  0.23476372  0.18106908  0.79439215  1
  Cu  Cu34  1  0.94630536  0.76523628  0.79439215  1
  Cu  Cu35  1  0.81893092  0.05369464  0.79439215  1
  Cu  Cu36  1  0.81520284  0.99065339  0.69088068  1
  Cu  Cu37  1  0.17545054  0.18479716  0.69088068  1
  Cu  Cu38  1  0.00934661  0.82454946  0.69088068  1
  Cu  Cu39  1  0.81188382  0.82664764  0.19654004  1
  Cu  Cu40  1  0.01476382  0.18811618  0.19654004  1
  Cu  Cu41  1  0.17335236  0.98523618  0.19654004  1
  Cu  Cu42  1  0.85478318  0.34809682  0.63679296  1
  Cu  Cu43  1  0.49331464  0.14521682  0.63679296  1
  Cu  Cu44  1  0.65190318  0.50668536  0.63679296  1
  Cu  Cu45  1  0.85146416  0.50878354  0.14245232  1
  Cu  Cu46  1  0.65732039  0.14853584  0.14245232  1
  Cu  Cu47  1  0.49121646  0.34267961  0.14245232  1
  Cu  Cu48  1  0.43190328  0.27963836  0.03894085  1
  Cu  Cu49  1  0.84773608  0.56809672  0.03894085  1
  Cu  Cu50  1  0.72036164  0.15226392  0.03894085  1
  Cu  Cu51  1  0.46185560  0.17444726  0.53221309  1
  Cu  Cu52  1  0.71259267  0.53814440  0.53221309  1
  Cu  Cu53  1  0.82555274  0.28740733  0.53221309  1
  Cu  Cu54  1  0.53823355  0.68400647  0.96979519  1
  Cu  Cu55  1  0.14577192  0.46176645  0.96979519  1
  Cu  Cu56  1  0.31599353  0.85422808  0.96979519  1
  Cu  Cu57  1  0.57108927  0.85942532  0.46718484  1
  Cu  Cu58  1  0.28833506  0.42891073  0.46718484  1
  Cu  Cu59  1  0.14057468  0.71166494  0.46718484  1
  Cu  Cu60  1  0.09557673  0.62166906  0.36614916  1
  Cu  Cu61  1  0.52609132  0.90442327  0.36614916  1
  Cu  Cu62  1  0.37833094  0.47390868  0.36614916  1
  Cu  Cu63  1  0.12843245  0.47910592  0.86353881  1
  Cu  Cu64  1  0.35067247  0.87156755  0.86353881  1
  Cu  Cu65  1  0.52089408  0.64932753  0.86353881  1
  Cu  Cu66  1  0.99883811  0.82229343  0.40198855  1
  Cu  Cu67  1  0.82345532  0.00116189  0.40198855  1
  Cu  Cu68  1  0.17770657  0.17654468  0.40198855  1
  Cu  Cu69  1  0.02582216  0.19972771  0.91243142  1
  Cu  Cu70  1  0.17390556  0.97417784  0.91243142  1
  Cu  Cu71  1  0.80027229  0.82609444  0.91243142  1
  Cu  Cu72  1  0.95389528  0.15534863  0.59343752  1
  Cu  Cu73  1  0.20145335  0.04610472  0.59343752  1
  Cu  Cu74  1  0.84465137  0.79854665  0.59343752  1
  Cu  Cu75  1  0.96932538  0.81152786  0.10372587  1
  Cu  Cu76  1  0.84220248  0.03067462  0.10372587  1
  Cu  Cu77  1  0.18847214  0.15779752  0.10372587  1
  Cu  Cu78  1  0.69734162  0.17553548  0.72960713  1
  Cu  Cu79  1  0.47819486  0.30265838  0.72960713  1
  Cu  Cu80  1  0.82446452  0.52180514  0.72960713  1
  Cu  Cu81  1  0.71277172  0.53478635  0.23989548  1
  Cu  Cu82  1  0.82201563  0.28722828  0.23989548  1
  Cu  Cu83  1  0.46521365  0.17798437  0.23989548  1
  Cu  Cu84  1  0.64084484  0.50723856  0.92090158  1
  Cu  Cu85  1  0.86639471  0.35915516  0.92090158  1
  Cu  Cu86  1  0.49276144  0.13360529  0.92090158  1
  Cu  Cu87  1  0.66782889  0.15678832  0.43134445  1
  Cu  Cu88  1  0.48896043  0.33217111  0.43134445  1
  Cu  Cu89  1  0.84321168  0.51103957  0.43134445  1
  Cu  Cu90  1  0.35130120  0.47360756  0.08965579  1
  Cu  Cu91  1  0.12230536  0.64869880  0.08965579  1
  Cu  Cu92  1  0.52639244  0.87769464  0.08965579  1
  Cu  Cu93  1  0.36012674  0.88718869  0.57830519  1
  Cu  Cu94  1  0.52706095  0.63987326  0.57830519  1
  Cu  Cu95  1  0.11281131  0.47293905  0.57830519  1
  Cu  Cu96  1  0.30653926  0.86039495  0.25502881  1
  Cu  Cu97  1  0.55385469  0.69346074  0.25502881  1
  Cu  Cu98  1  0.13960505  0.44614531  0.25502881  1
  Cu  Cu99  1  0.31536480  0.45563936  0.74367821  1
  Cu  Cu100  1  0.14027356  0.68463520  0.74367821  1
  Cu  Cu101  1  0.54436064  0.85972644  0.74367821  1
