# generated using pymatgen
data_Cu2NiC8
_symmetry_space_group_name_H-M   'P 1'
_cell_length_a   5.85566415
_cell_length_b   5.85566436
_cell_length_c   5.13273158
_cell_angle_alpha   91.36391039
_cell_angle_beta   88.63609777
_cell_angle_gamma   113.87976482
_symmetry_Int_Tables_number   1
_chemical_formula_structural   Cu2NiC8
_chemical_formula_sum   'Cu2 Ni1 C8'
_cell_volume   160.86458889
_cell_formula_units_Z   1
loop_
 _symmetry_equiv_pos_site_id
 _symmetry_equiv_pos_as_xyz
  1  'x, y, z'
loop_
 _atom_site_type_symbol
 _atom_site_label
 _atom_site_symmetry_multiplicity
 _atom_site_fract_x
 _atom_site_fract_y
 _atom_site_fract_z
 _atom_site_occupancy
  Ni  Ni0  1  0.88804400  0.88804400  0.25000000  1
  Cu  Cu1  1  0.35692300  0.35692300  0.25000000  1
  Cu  Cu2  1  0.60380400  0.60380400  0.75000000  1
  C  C3  1  0.32407400  0.51137500  0.95817900  1
  C  C4  1  0.51137500  0.32407400  0.54182100  1
  C  C5  1  0.24472500  0.02351300  0.12492600  1
  C  C6  1  0.50645100  0.72830300  0.42943200  1
  C  C7  1  0.73867100  0.92846500  0.92812600  1
  C  C8  1  0.72830300  0.50645100  0.07056800  1
  C  C9  1  0.92846500  0.73867100  0.57187400  1
  C  C10  1  0.02351300  0.24472500  0.37507400  1
