# generated using pymatgen
data_Cu2Ni2C9
_symmetry_space_group_name_H-M   'P 1'
_cell_length_a   3.40053029
_cell_length_b   3.40057563
_cell_length_c   44.99614159
_cell_angle_alpha   90.06950632
_cell_angle_beta   89.95603406
_cell_angle_gamma   120.00497081
_symmetry_Int_Tables_number   1
_chemical_formula_structural   Cu2Ni2C9
_chemical_formula_sum   'Cu2 Ni2 C9'
_cell_volume   450.59141106
_cell_formula_units_Z   1
loop_
 _symmetry_equiv_pos_site_id
 _symmetry_equiv_pos_as_xyz
  1  'x, y, z'
loop_
 _atom_site_type_symbol
 _atom_site_label
 _atom_site_symmetry_multiplicity
 _atom_site_fract_x
 _atom_site_fract_y
 _atom_site_fract_z
 _atom_site_occupancy
  C  C0  1  0.99746000  0.00013600  0.38604800  1
  C  C1  1  0.33367300  0.66770800  0.31727900  1
  C  C2  1  0.33328600  0.66725900  0.69931000  1
  C  C3  1  0.33382800  0.66662900  0.23379100  1
  C  C4  1  0.33350200  0.66606300  0.61556900  1
  Ni  Ni5  1  0.33398200  0.66623100  0.47686000  1
  Ni  Ni6  1  0.66707900  0.33385000  0.27532100  1
  Cu  Cu7  1  0.33304200  0.66651600  0.09374700  1
  Cu  Cu8  1  0.66671500  0.33335200  0.65744500  1
  C  C9  1  0.66646400  0.33274700  0.05698400  1
  C  C10  1  0.66620900  0.33361400  0.13050600  1
  C  C11  1  0.66756100  0.33247200  0.44312400  1
  C  C12  1  0.66719900  0.33342300  0.50991800  1
