# generated using pymatgen
data_Cu2NiC3
_symmetry_space_group_name_H-M   'P 1'
_cell_length_a   9.24714600
_cell_length_b   14.92556100
_cell_length_c   25.12701600
_cell_angle_alpha   90.00000000
_cell_angle_beta   90.00000000
_cell_angle_gamma   90.00000000
_symmetry_Int_Tables_number   1
_chemical_formula_structural   Cu2NiC3
_chemical_formula_sum   'Cu32 Ni16 C48'
_cell_volume   3468.00164367
_cell_formula_units_Z   16
loop_
 _symmetry_equiv_pos_site_id
 _symmetry_equiv_pos_as_xyz
  1  'x, y, z'
loop_
 _atom_site_type_symbol
 _atom_site_label
 _atom_site_symmetry_multiplicity
 _atom_site_fract_x
 _atom_site_fract_y
 _atom_site_fract_z
 _atom_site_occupancy
  C  C0  1  0.21374500  0.68212000  0.32994200  1
  C  C1  1  0.71374500  0.81788000  0.67005800  1
  C  C2  1  0.78625500  0.18212000  0.17005800  1
  C  C3  1  0.28625500  0.31788000  0.82994200  1
  C  C4  1  0.78625500  0.31788000  0.67005800  1
  C  C5  1  0.28625500  0.18212000  0.32994200  1
  C  C6  1  0.21374500  0.81788000  0.82994200  1
  C  C7  1  0.71374500  0.68212000  0.17005800  1
  C  C8  1  0.78129200  0.67894800  0.42835900  1
  C  C9  1  0.28129200  0.82105200  0.57164100  1
  C  C10  1  0.21870800  0.17894800  0.07164100  1
  C  C11  1  0.71870800  0.32105200  0.92835900  1
  C  C12  1  0.21870800  0.32105200  0.57164100  1
  C  C13  1  0.71870800  0.17894800  0.42835900  1
  C  C14  1  0.78129200  0.82105200  0.92835900  1
  C  C15  1  0.28129200  0.67894800  0.07164100  1
  C  C16  1  0.89056000  0.54028500  0.29079100  1
  C  C17  1  0.39056000  0.95971500  0.70920900  1
  C  C18  1  0.10944000  0.04028500  0.20920900  1
  C  C19  1  0.60944000  0.45971500  0.79079100  1
  C  C20  1  0.10944000  0.45971500  0.70920900  1
  C  C21  1  0.60944000  0.04028500  0.29079100  1
  C  C22  1  0.89056000  0.95971500  0.79079100  1
  C  C23  1  0.39056000  0.54028500  0.20920900  1
  C  C24  1  0.35916400  0.59451100  0.47277600  1
  C  C25  1  0.85916400  0.90548900  0.52722400  1
  C  C26  1  0.64083600  0.09451100  0.02722400  1
  C  C27  1  0.14083600  0.40548900  0.97277600  1
  C  C28  1  0.64083600  0.40548900  0.52722400  1
  C  C29  1  0.14083600  0.09451100  0.47277600  1
  C  C30  1  0.35916400  0.90548900  0.97277600  1
  C  C31  1  0.85916400  0.59451100  0.02722400  1
  C  C32  1  0.85942600  0.82972100  0.27588200  1
  C  C33  1  0.35942600  0.67027900  0.72411800  1
  C  C34  1  0.14057400  0.32972100  0.22411800  1
  C  C35  1  0.64057400  0.17027900  0.77588200  1
  C  C36  1  0.14057400  0.17027900  0.72411800  1
  C  C37  1  0.64057400  0.32972100  0.27588200  1
  C  C38  1  0.85942600  0.67027900  0.77588200  1
  C  C39  1  0.35942600  0.82972100  0.22411800  1
  C  C40  1  0.45994500  0.85300300  0.41386900  1
  C  C41  1  0.95994500  0.64699700  0.58613100  1
  C  C42  1  0.54005500  0.35300300  0.08613100  1
  C  C43  1  0.04005500  0.14699700  0.91386900  1
  C  C44  1  0.54005500  0.14699700  0.58613100  1
  C  C45  1  0.04005500  0.35300300  0.41386900  1
  C  C46  1  0.45994500  0.64699700  0.91386900  1
  C  C47  1  0.95994500  0.85300300  0.08613100  1
  Ni  Ni48  1  0.52852500  0.54512300  0.34112800  1
  Ni  Ni49  1  0.02852500  0.95487700  0.65887200  1
  Ni  Ni50  1  0.47147500  0.04512300  0.15887200  1
  Ni  Ni51  1  0.97147500  0.45487700  0.84112800  1
  Ni  Ni52  1  0.47147500  0.45487700  0.65887200  1
  Ni  Ni53  1  0.97147500  0.04512300  0.34112800  1
  Ni  Ni54  1  0.52852500  0.95487700  0.84112800  1
  Ni  Ni55  1  0.02852500  0.54512300  0.15887200  1
  Ni  Ni56  1  0.04917200  0.87683300  0.40148100  1
  Ni  Ni57  1  0.54917200  0.62316700  0.59851900  1
  Ni  Ni58  1  0.95082800  0.37683300  0.09851900  1
  Ni  Ni59  1  0.45082800  0.12316700  0.90148100  1
  Ni  Ni60  1  0.95082800  0.12316700  0.59851900  1
  Ni  Ni61  1  0.45082800  0.37683300  0.40148100  1
  Ni  Ni62  1  0.04917200  0.62316700  0.90148100  1
  Ni  Ni63  1  0.54917200  0.87683300  0.09851900  1
  Cu  Cu64  1  0.18565800  0.95406400  0.33450000  1
  Cu  Cu65  1  0.68565800  0.54593600  0.66550000  1
  Cu  Cu66  1  0.81434200  0.45406400  0.16550000  1
  Cu  Cu67  1  0.31434200  0.04593600  0.83450000  1
  Cu  Cu68  1  0.81434200  0.04593600  0.66550000  1
  Cu  Cu69  1  0.31434200  0.45406400  0.33450000  1
  Cu  Cu70  1  0.18565800  0.54593600  0.83450000  1
  Cu  Cu71  1  0.68565800  0.95406400  0.16550000  1
  Cu  Cu72  1  0.07856200  0.68103300  0.19568300  1
  Cu  Cu73  1  0.57856200  0.81896700  0.80431700  1
  Cu  Cu74  1  0.92143800  0.18103300  0.30431700  1
  Cu  Cu75  1  0.42143800  0.31896700  0.69568300  1
  Cu  Cu76  1  0.92143800  0.31896700  0.80431700  1
  Cu  Cu77  1  0.42143800  0.18103300  0.19568300  1
  Cu  Cu78  1  0.07856200  0.81896700  0.69568300  1
  Cu  Cu79  1  0.57856200  0.68103300  0.30431700  1
  Cu  Cu80  1  0.67593400  0.45579000  0.39661600  1
  Cu  Cu81  1  0.17593400  0.04421000  0.60338400  1
  Cu  Cu82  1  0.32406600  0.95579000  0.10338400  1
  Cu  Cu83  1  0.82406600  0.54421000  0.89661600  1
  Cu  Cu84  1  0.32406600  0.54421000  0.60338400  1
  Cu  Cu85  1  0.82406600  0.95579000  0.39661600  1
  Cu  Cu86  1  0.67593400  0.04421000  0.89661600  1
  Cu  Cu87  1  0.17593400  0.45579000  0.10338400  1
  Cu  Cu88  1  0.11899300  0.76434100  0.45555700  1
  Cu  Cu89  1  0.61899300  0.73565900  0.54444300  1
  Cu  Cu90  1  0.88100700  0.26434100  0.04444300  1
  Cu  Cu91  1  0.38100700  0.23565900  0.95555700  1
  Cu  Cu92  1  0.88100700  0.23565900  0.54444300  1
  Cu  Cu93  1  0.38100700  0.26434100  0.45555700  1
  Cu  Cu94  1  0.11899300  0.73565900  0.95555700  1
  Cu  Cu95  1  0.61899300  0.76434100  0.04444300  1
