# generated using pymatgen
data_CuNiC12
_symmetry_space_group_name_H-M   'P 1'
_cell_length_a   3.07978884
_cell_length_b   7.53577467
_cell_length_c   8.07276474
_cell_angle_alpha   67.00592229
_cell_angle_beta   79.98371667
_cell_angle_gamma   75.33300246
_symmetry_Int_Tables_number   1
_chemical_formula_structural   CuNiC12
_chemical_formula_sum   'Cu1 Ni1 C12'
_cell_volume   166.25783693
_cell_formula_units_Z   1
loop_
 _symmetry_equiv_pos_site_id
 _symmetry_equiv_pos_as_xyz
  1  'x, y, z'
loop_
 _atom_site_type_symbol
 _atom_site_label
 _atom_site_symmetry_multiplicity
 _atom_site_fract_x
 _atom_site_fract_y
 _atom_site_fract_z
 _atom_site_occupancy
  Ni  Ni0  1  0.64028000  0.81235300  0.85944300  1
  Cu  Cu1  1  0.33721800  0.17818100  0.18634600  1
  C  C2  1  0.67115700  0.17073700  0.52435500  1
  C  C3  1  0.07519600  0.60530600  0.26651800  1
  C  C4  1  0.90361400  0.38196500  0.78142800  1
  C  C5  1  0.31083300  0.81332800  0.52711800  1
  C  C6  1  0.77768500  0.65654600  0.68791400  1
  C  C7  1  0.49738600  0.29641300  0.69020700  1
  C  C8  1  0.48233100  0.68906800  0.36132100  1
  C  C9  1  0.20425800  0.32797500  0.36608100  1
  C  C10  1  0.13451800  0.97313600  0.67242400  1
  C  C11  1  0.87292600  0.24740300  0.02134100  1
  C  C12  1  0.83623900  0.00981100  0.38274900  1
  C  C13  1  0.11506200  0.72745000  0.02861700  1
