# generated using pymatgen
data_CuNi3C5
_symmetry_space_group_name_H-M   'P 1'
_cell_length_a   7.78994800
_cell_length_b   16.70955900
_cell_length_c   16.76956400
_cell_angle_alpha   90.00000000
_cell_angle_beta   90.00000000
_cell_angle_gamma   90.00000000
_symmetry_Int_Tables_number   1
_chemical_formula_structural   CuNi3C5
_chemical_formula_sum   'Cu8 Ni24 C40'
_cell_volume   2182.83705747
_cell_formula_units_Z   8
loop_
 _symmetry_equiv_pos_site_id
 _symmetry_equiv_pos_as_xyz
  1  'x, y, z'
loop_
 _atom_site_type_symbol
 _atom_site_label
 _atom_site_symmetry_multiplicity
 _atom_site_fract_x
 _atom_site_fract_y
 _atom_site_fract_z
 _atom_site_occupancy
  Ni  Ni0  1  0.87429000  0.05876500  0.19422800  1
  Ni  Ni1  1  0.37429000  0.44123500  0.80577200  1
  Ni  Ni2  1  0.12571000  0.55876500  0.30577200  1
  Ni  Ni3  1  0.62571000  0.94123500  0.69422800  1
  Ni  Ni4  1  0.12571000  0.94123500  0.80577200  1
  Ni  Ni5  1  0.62571000  0.55876500  0.19422800  1
  Ni  Ni6  1  0.87429000  0.44123500  0.69422800  1
  Ni  Ni7  1  0.37429000  0.05876500  0.30577200  1
  Ni  Ni8  1  0.11097100  0.40321000  0.08552400  1
  Ni  Ni9  1  0.61097100  0.09679000  0.91447600  1
  Ni  Ni10  1  0.88902900  0.90321000  0.41447600  1
  Ni  Ni11  1  0.38902900  0.59679000  0.58552400  1
  Ni  Ni12  1  0.88902900  0.59679000  0.91447600  1
  Ni  Ni13  1  0.38902900  0.90321000  0.08552400  1
  Ni  Ni14  1  0.11097100  0.09679000  0.58552400  1
  Ni  Ni15  1  0.61097100  0.40321000  0.41447600  1
  Ni  Ni16  1  0.58921200  0.29565500  0.14963800  1
  Ni  Ni17  1  0.08921200  0.20434500  0.85036200  1
  Ni  Ni18  1  0.41078800  0.79565500  0.35036200  1
  Ni  Ni19  1  0.91078800  0.70434500  0.64963800  1
  Ni  Ni20  1  0.41078800  0.70434500  0.85036200  1
  Ni  Ni21  1  0.91078800  0.79565500  0.14963800  1
  Ni  Ni22  1  0.58921200  0.20434500  0.64963800  1
  Ni  Ni23  1  0.08921200  0.29565500  0.35036200  1
  Cu  Cu24  1  0.19157000  0.14173700  0.07159500  1
  Cu  Cu25  1  0.69157000  0.35826300  0.92840500  1
  Cu  Cu26  1  0.80843000  0.64173700  0.42840500  1
  Cu  Cu27  1  0.30843000  0.85826300  0.57159500  1
  Cu  Cu28  1  0.80843000  0.85826300  0.92840500  1
  Cu  Cu29  1  0.30843000  0.64173700  0.07159500  1
  Cu  Cu30  1  0.19157000  0.35826300  0.57159500  1
  Cu  Cu31  1  0.69157000  0.14173700  0.42840500  1
  C  C32  1  0.37432600  0.42740200  0.23773300  1
  C  C33  1  0.87432600  0.07259800  0.76226700  1
  C  C34  1  0.62567400  0.92740200  0.26226700  1
  C  C35  1  0.12567400  0.57259800  0.73773300  1
  C  C36  1  0.62567400  0.57259800  0.76226700  1
  C  C37  1  0.12567400  0.92740200  0.23773300  1
  C  C38  1  0.37432600  0.07259800  0.73773300  1
  C  C39  1  0.87432600  0.42740200  0.26226700  1
  C  C40  1  0.93314400  0.19611100  0.02619400  1
  C  C41  1  0.43314400  0.30388900  0.97380600  1
  C  C42  1  0.06685600  0.69611100  0.47380600  1
  C  C43  1  0.56685600  0.80388900  0.52619400  1
  C  C44  1  0.06685600  0.80388900  0.97380600  1
  C  C45  1  0.56685600  0.69611100  0.02619400  1
  C  C46  1  0.93314400  0.30388900  0.52619400  1
  C  C47  1  0.43314400  0.19611100  0.47380600  1
  C  C48  1  0.70846500  0.44321400  0.03849900  1
  C  C49  1  0.20846500  0.05678600  0.96150100  1
  C  C50  1  0.29153500  0.94321400  0.46150100  1
  C  C51  1  0.79153500  0.55678600  0.53849900  1
  C  C52  1  0.29153500  0.55678600  0.96150100  1
  C  C53  1  0.79153500  0.94321400  0.03849900  1
  C  C54  1  0.70846500  0.05678600  0.53849900  1
  C  C55  1  0.20846500  0.44321400  0.46150100  1
  C  C56  1  0.18414300  0.22611900  0.18144300  1
  C  C57  1  0.68414300  0.27388100  0.81855700  1
  C  C58  1  0.81585700  0.72611900  0.31855700  1
  C  C59  1  0.31585700  0.77388100  0.68144300  1
  C  C60  1  0.81585700  0.77388100  0.81855700  1
  C  C61  1  0.31585700  0.72611900  0.18144300  1
  C  C62  1  0.18414300  0.27388100  0.68144300  1
  C  C63  1  0.68414300  0.22611900  0.31855700  1
  C  C64  1  0.45476700  0.09188200  0.11655000  1
  C  C65  1  0.95476700  0.40811800  0.88345000  1
  C  C66  1  0.54523300  0.59188200  0.38345000  1
  C  C67  1  0.04523300  0.90811800  0.61655000  1
  C  C68  1  0.54523300  0.90811800  0.88345000  1
  C  C69  1  0.04523300  0.59188200  0.11655000  1
  C  C70  1  0.45476700  0.40811800  0.61655000  1
  C  C71  1  0.95476700  0.09188200  0.38345000  1
