# generated using pymatgen
data_CuNi2C17
_symmetry_space_group_name_H-M   'P 1'
_cell_length_a   9.17127691
_cell_length_b   9.17127659
_cell_length_c   22.88575543
_cell_angle_alpha   89.83043536
_cell_angle_beta   90.16956464
_cell_angle_gamma   119.94864023
_symmetry_Int_Tables_number   1
_chemical_formula_structural   CuNi2C17
_chemical_formula_sum   'Cu6 Ni12 C102'
_cell_volume   1667.92867441
_cell_formula_units_Z   6
loop_
 _symmetry_equiv_pos_site_id
 _symmetry_equiv_pos_as_xyz
  1  'x, y, z'
loop_
 _atom_site_type_symbol
 _atom_site_label
 _atom_site_symmetry_multiplicity
 _atom_site_fract_x
 _atom_site_fract_y
 _atom_site_fract_z
 _atom_site_occupancy
  C  C0  1  0.62815019  0.99982892  0.24354937  1
  C  C1  1  0.99716069  0.64507709  0.24539139  1
  C  C2  1  0.00017108  0.37184981  0.74354937  1
  C  C3  1  0.35492291  0.00283931  0.74539139  1
  C  C4  1  0.29481719  0.33316192  0.57688237  1
  C  C5  1  0.66382769  0.97841009  0.57872439  1
  C  C6  1  0.66683808  0.70518281  0.07688237  1
  C  C7  1  0.02158991  0.33617231  0.07872439  1
  C  C8  1  0.96148319  0.66649592  0.91021637  1
  C  C9  1  0.33049369  0.31174409  0.91205839  1
  C  C10  1  0.33350408  0.03851681  0.41021637  1
  C  C11  1  0.68825591  0.66950631  0.41205839  1
  C  C12  1  0.00469858  0.02645626  0.49486908  1
  C  C13  1  0.97354374  0.99530142  0.99486908  1
  C  C14  1  0.67136558  0.35978926  0.82820208  1
  C  C15  1  0.64021074  0.32863442  0.32820208  1
  C  C16  1  0.33803158  0.69312326  0.16153608  1
  C  C17  1  0.30687674  0.66196842  0.66153608  1
  C  C18  1  0.01828317  0.00401364  0.64755943  1
  C  C19  1  0.99598636  0.98171683  0.14755943  1
  C  C20  1  0.68495017  0.33734664  0.98089243  1
  C  C21  1  0.66265336  0.31504983  0.48089243  1
  C  C22  1  0.35161617  0.67068064  0.31422643  1
  C  C23  1  0.32931936  0.64838383  0.81422643  1
  C  C24  1  0.00554549  0.00652923  0.35167305  1
  C  C25  1  0.99347077  0.99445451  0.85167305  1
  C  C26  1  0.67221249  0.33986223  0.68500605  1
  C  C27  1  0.66013777  0.32778751  0.18500605  1
  C  C28  1  0.33887849  0.67319623  0.01834005  1
  C  C29  1  0.32680377  0.66112151  0.51834005  1
  Ni  Ni30  1  0.29704621  0.00179722  0.25370388  1
  Ni  Ni31  1  0.70855779  0.70125234  0.25207124  1
  Ni  Ni32  1  0.29874766  0.29144221  0.75207124  1
  Ni  Ni33  1  0.99820278  0.70295379  0.75370388  1
  Ni  Ni34  1  0.96371321  0.33513022  0.58703688  1
  Ni  Ni35  1  0.37522479  0.03458534  0.58540424  1
  Ni  Ni36  1  0.96541466  0.62477521  0.08540424  1
  Ni  Ni37  1  0.66486978  0.03628679  0.08703688  1
  Ni  Ni38  1  0.63037921  0.66846422  0.92037088  1
  Ni  Ni39  1  0.04189079  0.36791934  0.91873824  1
  Ni  Ni40  1  0.63208066  0.95810921  0.41873824  1
  Ni  Ni41  1  0.33153578  0.36962079  0.42037088  1
  Cu  Cu42  1  0.00101874  0.29410834  0.24928158  1
  Cu  Cu43  1  0.70589166  0.99898126  0.74928158  1
  Cu  Cu44  1  0.66768574  0.62744134  0.58261458  1
  Cu  Cu45  1  0.37255866  0.33231426  0.08261458  1
  Cu  Cu46  1  0.33435174  0.96077534  0.91594858  1
  Cu  Cu47  1  0.03922466  0.66564826  0.41594858  1
  C  C48  1  0.20925712  0.02115158  0.31261577  1
  C  C49  1  0.82360757  0.79552401  0.30911958  1
  C  C50  1  0.97991691  0.18696089  0.30017415  1
  C  C51  1  0.20447599  0.17639243  0.80911958  1
  C  C52  1  0.97884842  0.79074288  0.81261577  1
  C  C53  1  0.81303911  0.02008309  0.80017415  1
  C  C54  1  0.77879575  0.97385815  0.69489537  1
  C  C55  1  0.17673866  0.20645076  0.69356487  1
  C  C56  1  0.02180229  0.82689786  0.69753190  1
  C  C57  1  0.79354924  0.82326134  0.19356487  1
  C  C58  1  0.02614185  0.22120425  0.19489537  1
  C  C59  1  0.17310214  0.97819771  0.19753190  1
  C  C60  1  0.87592412  0.35448458  0.64594877  1
  C  C61  1  0.49027457  0.12885701  0.64245258  1
  C  C62  1  0.64658391  0.52029389  0.63350715  1
  C  C63  1  0.87114299  0.50972543  0.14245258  1
  C  C64  1  0.64551542  0.12407588  0.14594877  1
  C  C65  1  0.47970611  0.35341609  0.13350715  1
  C  C66  1  0.44546275  0.30719115  0.02822837  1
  C  C67  1  0.84340566  0.53978376  0.02689787  1
  C  C68  1  0.68846929  0.16023086  0.03086490  1
  C  C69  1  0.46021624  0.15659434  0.52689787  1
  C  C70  1  0.69280885  0.55453725  0.52822837  1
  C  C71  1  0.83976914  0.31153071  0.53086490  1
  C  C72  1  0.54259012  0.68781858  0.97928277  1
  C  C73  1  0.15694057  0.46219101  0.97578658  1
  C  C74  1  0.31324991  0.85362789  0.96684115  1
  C  C75  1  0.53780899  0.84305943  0.47578658  1
  C  C76  1  0.31218142  0.45740988  0.47928277  1
  C  C77  1  0.14637211  0.68675009  0.46684115  1
  C  C78  1  0.11212875  0.64052515  0.36156237  1
  C  C79  1  0.51007166  0.87311776  0.36023187  1
  C  C80  1  0.35513529  0.49356486  0.36419890  1
  C  C81  1  0.12688224  0.48992834  0.86023187  1
  C  C82  1  0.35947485  0.88787125  0.86156237  1
  C  C83  1  0.50643514  0.64486471  0.86419890  1
  C  C84  1  0.02528282  0.82019207  0.41264418  1
  C  C85  1  0.81326796  0.96808292  0.41183026  1
  C  C86  1  0.17692305  0.17638320  0.41406284  1
  C  C87  1  0.03191708  0.18673204  0.91183026  1
  C  C88  1  0.17980793  0.97471718  0.91264418  1
  C  C89  1  0.82361680  0.82307695  0.91406284  1
  C  C90  1  0.96435066  0.15299386  0.58851044  1
  C  C91  1  0.19036362  0.02591518  0.58773600  1
  C  C92  1  0.81358727  0.80088103  0.58921562  1
  C  C93  1  0.97408482  0.80963638  0.08773600  1
  C  C94  1  0.84700614  0.03564934  0.08851044  1
  C  C95  1  0.19911897  0.18641273  0.08921562  1
  C  C96  1  0.69194982  0.15352507  0.74597718  1
  C  C97  1  0.47993496  0.30141592  0.74516326  1
  C  C98  1  0.84359005  0.50971620  0.74739584  1
  C  C99  1  0.69858408  0.52006504  0.24516326  1
  C  C100  1  0.84647493  0.30805018  0.24597718  1
  C  C101  1  0.49028380  0.15640995  0.24739584  1
  C  C102  1  0.63101766  0.48632686  0.92184344  1
  C  C103  1  0.85703062  0.35924818  0.92106900  1
  C  C104  1  0.48025427  0.13421403  0.92254862  1
  C  C105  1  0.64075182  0.14296938  0.42106900  1
  C  C106  1  0.51367314  0.36898234  0.42184344  1
  C  C107  1  0.86578597  0.51974573  0.42254862  1
  C  C108  1  0.35861582  0.48685907  0.07931118  1
  C  C109  1  0.14660096  0.63474992  0.07849726  1
  C  C110  1  0.51025605  0.84305020  0.08072984  1
  C  C111  1  0.36525008  0.85339904  0.57849726  1
  C  C112  1  0.51314093  0.64138418  0.57931118  1
  C  C113  1  0.15694980  0.48974395  0.58072984  1
  C  C114  1  0.29768366  0.81966086  0.25517744  1
  C  C115  1  0.52369662  0.69258218  0.25440300  1
  C  C116  1  0.14692027  0.46754803  0.25588262  1
  C  C117  1  0.30741782  0.47630338  0.75440300  1
  C  C118  1  0.18033914  0.70231634  0.75517744  1
  C  C119  1  0.53245197  0.85307973  0.75588262  1
