# generated using pymatgen
data_CuNi2C5
_symmetry_space_group_name_H-M   'P 1'
_cell_length_a   7.82736300
_cell_length_b   8.79183300
_cell_length_c   11.75955600
_cell_angle_alpha   90.00000000
_cell_angle_beta   90.00000000
_cell_angle_gamma   90.00000000
_symmetry_Int_Tables_number   1
_chemical_formula_structural   CuNi2C5
_chemical_formula_sum   'Cu4 Ni8 C20'
_cell_volume   809.25581683
_cell_formula_units_Z   4
loop_
 _symmetry_equiv_pos_site_id
 _symmetry_equiv_pos_as_xyz
  1  'x, y, z'
loop_
 _atom_site_type_symbol
 _atom_site_label
 _atom_site_symmetry_multiplicity
 _atom_site_fract_x
 _atom_site_fract_y
 _atom_site_fract_z
 _atom_site_occupancy
  C  C0  1  0.70041900  0.46444000  0.93252100  1
  C  C1  1  0.20041900  0.96444100  0.56747900  1
  C  C2  1  0.70041900  0.03556000  0.93252100  1
  C  C3  1  0.79958100  0.46444000  0.43252100  1
  C  C4  1  0.97458100  0.75000000  0.99764400  1
  C  C5  1  0.47458100  0.25000000  0.50235600  1
  C  C6  1  0.02541900  0.25000000  0.00235600  1
  C  C7  1  0.52541900  0.75000000  0.49764400  1
  C  C8  1  0.29958100  0.53555900  0.06747900  1
  C  C9  1  0.79958100  0.03556000  0.43252100  1
  C  C10  1  0.29958100  0.96444100  0.06747900  1
  C  C11  1  0.20041900  0.53555900  0.56747900  1
  C  C12  1  0.36937500  0.75000000  0.79486600  1
  C  C13  1  0.86937500  0.25000000  0.70513400  1
  C  C14  1  0.63062500  0.25000000  0.20513400  1
  C  C15  1  0.13062500  0.75000000  0.29486600  1
  C  C16  1  0.84664200  0.75000000  0.71134300  1
  C  C17  1  0.34664200  0.25000000  0.78865700  1
  C  C18  1  0.15335800  0.25000000  0.28865700  1
  C  C19  1  0.65335800  0.75000000  0.21134300  1
  Ni  Ni20  1  0.57812800  0.49521500  0.67299300  1
  Ni  Ni21  1  0.92187200  0.00478500  0.17299300  1
  Ni  Ni22  1  0.42187200  0.99521500  0.32700700  1
  Ni  Ni23  1  0.07812800  0.50478500  0.82700700  1
  Ni  Ni24  1  0.42187200  0.50478500  0.32700700  1
  Ni  Ni25  1  0.07812800  0.99521500  0.82700700  1
  Ni  Ni26  1  0.57812800  0.00478500  0.67299300  1
  Ni  Ni27  1  0.92187200  0.49521500  0.17299300  1
  Cu  Cu28  1  0.57860400  0.75000000  0.97712600  1
  Cu  Cu29  1  0.07860400  0.25000000  0.52287400  1
  Cu  Cu30  1  0.42139600  0.25000000  0.02287400  1
  Cu  Cu31  1  0.92139600  0.75000000  0.47712600  1
