# generated using pymatgen
data_Cu2Ni4C57
_symmetry_space_group_name_H-M   'P 1'
_cell_length_a   9.17349849
_cell_length_b   9.17349816
_cell_length_c   22.42814234
_cell_angle_alpha   90.00000000
_cell_angle_beta   90.00000000
_cell_angle_gamma   120.00000114
_symmetry_Int_Tables_number   1
_chemical_formula_structural   Cu2Ni4C57
_chemical_formula_sum   'Cu4 Ni8 C114'
_cell_volume   1634.53378837
_cell_formula_units_Z   2
loop_
 _symmetry_equiv_pos_site_id
 _symmetry_equiv_pos_as_xyz
  1  'x, y, z'
loop_
 _atom_site_type_symbol
 _atom_site_label
 _atom_site_symmetry_multiplicity
 _atom_site_fract_x
 _atom_site_fract_y
 _atom_site_fract_z
 _atom_site_occupancy
  C  C0  1  0.64125299  0.02382399  0.24601069  1
  C  C1  1  0.38257100  0.35874701  0.24601069  1
  C  C2  1  0.97617601  0.61742900  0.24601069  1
  C  C3  1  0.64125299  0.61742900  0.74601069  1
  C  C4  1  0.97617601  0.35874701  0.74601069  1
  C  C5  1  0.38257100  0.02382399  0.74601069  1
  C  C6  1  0.30866258  0.33424009  0.58715390  1
  C  C7  1  0.02557851  0.69133742  0.58715390  1
  C  C8  1  0.66575991  0.97442149  0.58715390  1
  C  C9  1  0.30866258  0.97442149  0.08715390  1
  C  C10  1  0.66575991  0.69133742  0.08715390  1
  C  C11  1  0.02557851  0.33424009  0.08715390  1
  C  C12  1  0.96436177  0.68708540  0.90812205  1
  C  C13  1  0.72272262  0.03563823  0.90812205  1
  C  C14  1  0.31291460  0.27727738  0.90812205  1
  C  C15  1  0.96436177  0.27727738  0.40812205  1
  C  C16  1  0.31291460  0.03563823  0.40812205  1
  C  C17  1  0.72272262  0.68708540  0.40812205  1
  C  C18  1  0.00000000  0.00000000  0.49251646  1
  C  C19  1  0.00000000  0.00000000  0.99251646  1
  C  C20  1  0.66666700  0.33333300  0.82197343  1
  C  C21  1  0.66666700  0.33333300  0.32197343  1
  C  C22  1  0.33333300  0.66666700  0.16776303  1
  C  C23  1  0.33333300  0.66666700  0.66776303  1
  Ni  Ni24  1  0.00000000  0.00000000  0.64928326  1
  Ni  Ni25  1  -0.00000000  0.00000000  0.14928326  1
  Ni  Ni26  1  0.66666700  0.33333300  0.97982638  1
  Ni  Ni27  1  0.66666700  0.33333300  0.47982638  1
  Ni  Ni28  1  0.33333300  0.66666700  0.01901295  1
  Ni  Ni29  1  0.33333300  0.66666700  0.51901295  1
  Ni  Ni30  1  0.33333300  0.66666700  0.31124519  1
  Ni  Ni31  1  0.33333300  0.66666700  0.81124519  1
  Cu  Cu32  1  0.00000000  0.00000000  0.34804434  1
  Cu  Cu33  1  0.00000000  0.00000000  0.84804434  1
  Cu  Cu34  1  0.66666700  0.33333300  0.68237681  1
  Cu  Cu35  1  0.66666700  0.33333300  0.18237681  1
  C  C36  1  0.29341294  0.00141911  0.25386951  1
  C  C37  1  0.70800616  0.70658706  0.25386951  1
  C  C38  1  0.99858089  0.29199384  0.25386951  1
  C  C39  1  0.29341294  0.29199384  0.75386951  1
  C  C40  1  0.99858089  0.70658706  0.75386951  1
  C  C41  1  0.70800616  0.00141911  0.75386951  1
  C  C42  1  0.95880363  0.33325980  0.58519409  1
  C  C43  1  0.37445718  0.04119637  0.58519409  1
  C  C44  1  0.66674020  0.62554282  0.58519409  1
  C  C45  1  0.95880363  0.62554282  0.08519409  1
  C  C46  1  0.66674020  0.04119637  0.08519409  1
  C  C47  1  0.37445718  0.33325980  0.08519409  1
  C  C48  1  0.62330740  0.66322049  0.91659385  1
  C  C49  1  0.03991210  0.37669260  0.91659385  1
  C  C50  1  0.33677951  0.96008790  0.91659385  1
  C  C51  1  0.62330740  0.96008790  0.41659385  1
  C  C52  1  0.33677951  0.37669260  0.41659385  1
  C  C53  1  0.03991210  0.66322049  0.41659385  1
  C  C54  1  0.21203176  0.03074167  0.31248255  1
  C  C55  1  0.81870991  0.78796824  0.31248255  1
  C  C56  1  0.96925833  0.18129009  0.31248255  1
  C  C57  1  0.21203176  0.18129009  0.81248255  1
  C  C58  1  0.96925833  0.78796824  0.81248255  1
  C  C59  1  0.81870991  0.03074167  0.81248255  1
  C  C60  1  0.80376720  0.97001415  0.69350265  1
  C  C61  1  0.16624695  0.19623280  0.69350265  1
  C  C62  1  0.02998585  0.83375305  0.69350265  1
  C  C63  1  0.80376720  0.83375305  0.19350265  1
  C  C64  1  0.02998585  0.19623280  0.19350265  1
  C  C65  1  0.16624695  0.97001415  0.19350265  1
  C  C66  1  0.89002046  0.38096502  0.64295708  1
  C  C67  1  0.49094556  0.10997954  0.64295708  1
  C  C68  1  0.61903498  0.50905444  0.64295708  1
  C  C69  1  0.89002046  0.50905444  0.14295708  1
  C  C70  1  0.61903498  0.10997954  0.14295708  1
  C  C71  1  0.49094556  0.38096502  0.14295708  1
  C  C72  1  0.46956593  0.30363513  0.02642026  1
  C  C73  1  0.83407019  0.53043407  0.02642026  1
  C  C74  1  0.69636487  0.16592981  0.02642026  1
  C  C75  1  0.46956593  0.16592981  0.52642026  1
  C  C76  1  0.69636487  0.53043407  0.52642026  1
  C  C77  1  0.83407019  0.30363513  0.52642026  1
  C  C78  1  0.51919629  0.67751325  0.97454160  1
  C  C79  1  0.15831596  0.48080371  0.97454160  1
  C  C80  1  0.32248675  0.84168404  0.97454160  1
  C  C81  1  0.51919629  0.84168404  0.47454160  1
  C  C82  1  0.32248675  0.48080371  0.47454160  1
  C  C83  1  0.15831596  0.67751325  0.47454160  1
  C  C84  1  0.13487583  0.63260672  0.35861817  1
  C  C85  1  0.49772989  0.86512417  0.35861817  1
  C  C86  1  0.36739328  0.50227011  0.35861817  1
  C  C87  1  0.13487583  0.50227011  0.85861817  1
  C  C88  1  0.36739328  0.86512417  0.85861817  1
  C  C89  1  0.49772989  0.63260672  0.85861817  1
  C  C90  1  0.02321999  0.82845100  0.41788954  1
  C  C91  1  0.80523101  0.97678001  0.41788954  1
  C  C92  1  0.17154900  0.19476899  0.41788954  1
  C  C93  1  0.02321999  0.19476899  0.91788954  1
  C  C94  1  0.17154900  0.97678001  0.91788954  1
  C  C95  1  0.80523101  0.82845100  0.91788954  1
  C  C96  1  0.97494719  0.16125177  0.58817320  1
  C  C97  1  0.18630458  0.02505281  0.58817320  1
  C  C98  1  0.83874823  0.81369542  0.58817320  1
  C  C99  1  0.97494719  0.81369542  0.08817320  1
  C  C100  1  0.83874823  0.02505281  0.08817320  1
  C  C101  1  0.18630458  0.16125177  0.08817320  1
  C  C102  1  0.67912934  0.15888034  0.74563409  1
  C  C103  1  0.47975200  0.32087066  0.74563409  1
  C  C104  1  0.84111966  0.52024800  0.74563409  1
  C  C105  1  0.67912934  0.52024800  0.24563409  1
  C  C106  1  0.84111966  0.32087066  0.24563409  1
  C  C107  1  0.47975200  0.15888034  0.24563409  1
  C  C108  1  0.63014160  0.48660147  0.92253517  1
  C  C109  1  0.85646087  0.36985840  0.92253517  1
  C  C110  1  0.51339853  0.14353913  0.92253517  1
  C  C111  1  0.63014160  0.14353913  0.42253517  1
  C  C112  1  0.51339853  0.36985840  0.42253517  1
  C  C113  1  0.85646087  0.48660147  0.42253517  1
  C  C114  1  0.34266506  0.49502148  0.07494677  1
  C  C115  1  0.15235542  0.65733494  0.07494677  1
  C  C116  1  0.50497852  0.84764458  0.07494677  1
  C  C117  1  0.34266506  0.84764458  0.57494677  1
  C  C118  1  0.50497852  0.65733494  0.57494677  1
  C  C119  1  0.15235542  0.49502148  0.57494677  1
  C  C120  1  0.29697764  0.81950886  0.25467421  1
  C  C121  1  0.52253022  0.70302236  0.25467421  1
  C  C122  1  0.18049114  0.47746978  0.25467421  1
  C  C123  1  0.29697764  0.47746978  0.75467421  1
  C  C124  1  0.18049114  0.70302236  0.75467421  1
  C  C125  1  0.52253022  0.81950886  0.75467421  1
