# generated using pymatgen
data_CuNi12C11
_symmetry_space_group_name_H-M   'P 1'
_cell_length_a   12.27966000
_cell_length_b   12.27966000
_cell_length_c   12.27966000
_cell_angle_alpha   90.00000000
_cell_angle_beta   90.00000000
_cell_angle_gamma   90.00000000
_symmetry_Int_Tables_number   1
_chemical_formula_structural   CuNi12C11
_chemical_formula_sum   'Cu8 Ni96 C88'
_cell_volume   1851.65054189
_cell_formula_units_Z   8
loop_
 _symmetry_equiv_pos_site_id
 _symmetry_equiv_pos_as_xyz
  1  'x, y, z'
loop_
 _atom_site_type_symbol
 _atom_site_label
 _atom_site_symmetry_multiplicity
 _atom_site_fract_x
 _atom_site_fract_y
 _atom_site_fract_z
 _atom_site_occupancy
  C  C0  1  0.50000000  0.50000000  0.50000000  1
  C  C1  1  0.00000000  0.50000000  0.00000000  1
  C  C2  1  0.00000000  0.00000000  0.50000000  1
  C  C3  1  0.50000000  0.00000000  0.00000000  1
  C  C4  1  0.00000000  0.00000000  0.00000000  1
  C  C5  1  0.50000000  0.00000000  0.50000000  1
  C  C6  1  0.50000000  0.50000000  0.00000000  1
  C  C7  1  0.00000000  0.50000000  0.50000000  1
  Ni  Ni8  1  0.09042900  0.34304100  0.38822100  1
  Ni  Ni9  1  0.59042900  0.15695900  0.61177900  1
  Ni  Ni10  1  0.90957100  0.84304100  0.11177900  1
  Ni  Ni11  1  0.15695900  0.61177900  0.59042900  1
  Ni  Ni12  1  0.11177900  0.90957100  0.84304100  1
  Ni  Ni13  1  0.61177900  0.59042900  0.15695900  1
  Ni  Ni14  1  0.34304100  0.38822100  0.09042900  1
  Ni  Ni15  1  0.38822100  0.09042900  0.34304100  1
  Ni  Ni16  1  0.84304100  0.11177900  0.90957100  1
  Ni  Ni17  1  0.65695900  0.88822100  0.40957100  1
  Ni  Ni18  1  0.88822100  0.40957100  0.65695900  1
  Ni  Ni19  1  0.40957100  0.65695900  0.88822100  1
  Ni  Ni20  1  0.90957100  0.65695900  0.61177900  1
  Ni  Ni21  1  0.40957100  0.84304100  0.38822100  1
  Ni  Ni22  1  0.09042900  0.15695900  0.88822100  1
  Ni  Ni23  1  0.84304100  0.38822100  0.40957100  1
  Ni  Ni24  1  0.88822100  0.09042900  0.15695900  1
  Ni  Ni25  1  0.38822100  0.40957100  0.84304100  1
  Ni  Ni26  1  0.65695900  0.61177900  0.90957100  1
  Ni  Ni27  1  0.61177900  0.90957100  0.65695900  1
  Ni  Ni28  1  0.15695900  0.88822100  0.09042900  1
  Ni  Ni29  1  0.34304100  0.11177900  0.59042900  1
  Ni  Ni30  1  0.11177900  0.59042900  0.34304100  1
  Ni  Ni31  1  0.59042900  0.34304100  0.11177900  1
  Ni  Ni32  1  0.05136400  0.20711800  0.00699400  1
  Ni  Ni33  1  0.55136400  0.29288200  0.99300600  1
  Ni  Ni34  1  0.94863600  0.70711800  0.49300600  1
  Ni  Ni35  1  0.29288200  0.99300600  0.55136400  1
  Ni  Ni36  1  0.49300600  0.94863600  0.70711800  1
  Ni  Ni37  1  0.99300600  0.55136400  0.29288200  1
  Ni  Ni38  1  0.20711800  0.00699400  0.05136400  1
  Ni  Ni39  1  0.00699400  0.05136400  0.20711800  1
  Ni  Ni40  1  0.70711800  0.49300600  0.94863600  1
  Ni  Ni41  1  0.79288200  0.50699400  0.44863600  1
  Ni  Ni42  1  0.50699400  0.44863600  0.79288200  1
  Ni  Ni43  1  0.44863600  0.79288200  0.50699400  1
  Ni  Ni44  1  0.94863600  0.79288200  0.99300600  1
  Ni  Ni45  1  0.44863600  0.70711800  0.00699400  1
  Ni  Ni46  1  0.05136400  0.29288200  0.50699400  1
  Ni  Ni47  1  0.70711800  0.00699400  0.44863600  1
  Ni  Ni48  1  0.50699400  0.05136400  0.29288200  1
  Ni  Ni49  1  0.00699400  0.44863600  0.70711800  1
  Ni  Ni50  1  0.79288200  0.99300600  0.94863600  1
  Ni  Ni51  1  0.99300600  0.94863600  0.79288200  1
  Ni  Ni52  1  0.29288200  0.50699400  0.05136400  1
  Ni  Ni53  1  0.20711800  0.49300600  0.55136400  1
  Ni  Ni54  1  0.49300600  0.55136400  0.20711800  1
  Ni  Ni55  1  0.58835500  0.31388500  0.35749700  1
  Ni  Ni56  1  0.96512400  0.30825700  0.11293200  1
  Ni  Ni57  1  0.46512400  0.19174300  0.88706800  1
  Ni  Ni58  1  0.03487600  0.80825700  0.38706800  1
  Ni  Ni59  1  0.19174300  0.88706800  0.46512400  1
  Ni  Ni60  1  0.38706800  0.03487600  0.80825700  1
  Ni  Ni61  1  0.88706800  0.46512400  0.19174300  1
  Ni  Ni62  1  0.30825700  0.11293200  0.96512400  1
  Ni  Ni63  1  0.11293200  0.96512400  0.30825700  1
  Ni  Ni64  1  0.80825700  0.38706800  0.03487600  1
  Ni  Ni65  1  0.69174300  0.61293200  0.53487600  1
  Ni  Ni66  1  0.61293200  0.53487600  0.69174300  1
  Ni  Ni67  1  0.53487600  0.69174300  0.61293200  1
  Ni  Ni68  1  0.03487600  0.69174300  0.88706800  1
  Ni  Ni69  1  0.53487600  0.80825700  0.11293200  1
  Ni  Ni70  1  0.96512400  0.19174300  0.61293200  1
  Ni  Ni71  1  0.80825700  0.11293200  0.53487600  1
  Ni  Ni72  1  0.61293200  0.96512400  0.19174300  1
  Ni  Ni73  1  0.11293200  0.53487600  0.80825700  1
  Ni  Ni74  1  0.69174300  0.88706800  0.03487600  1
  Ni  Ni75  1  0.88706800  0.03487600  0.69174300  1
  Ni  Ni76  1  0.19174300  0.61293200  0.96512400  1
  Ni  Ni77  1  0.30825700  0.38706800  0.46512400  1
  Ni  Ni78  1  0.38706800  0.46512400  0.30825700  1
  Ni  Ni79  1  0.46512400  0.30825700  0.38706800  1
  Ni  Ni80  1  0.08835500  0.31388500  0.14250300  1
  Ni  Ni81  1  0.58835500  0.18611500  0.85749700  1
  Ni  Ni82  1  0.91164500  0.81388500  0.35749700  1
  Ni  Ni83  1  0.18611500  0.85749700  0.58835500  1
  Ni  Ni84  1  0.35749700  0.91164500  0.81388500  1
  Ni  Ni85  1  0.85749700  0.58835500  0.18611500  1
  Ni  Ni86  1  0.31388500  0.14250300  0.08835500  1
  Ni  Ni87  1  0.14250300  0.08835500  0.31388500  1
  Ni  Ni88  1  0.81388500  0.35749700  0.91164500  1
  Ni  Ni89  1  0.68611500  0.64250300  0.41164500  1
  Ni  Ni90  1  0.64250300  0.41164500  0.68611500  1
  Ni  Ni91  1  0.41164500  0.68611500  0.64250300  1
  Ni  Ni92  1  0.91164500  0.68611500  0.85749700  1
  Ni  Ni93  1  0.41164500  0.81388500  0.14250300  1
  Ni  Ni94  1  0.08835500  0.18611500  0.64250300  1
  Ni  Ni95  1  0.81388500  0.14250300  0.41164500  1
  Ni  Ni96  1  0.64250300  0.08835500  0.18611500  1
  Ni  Ni97  1  0.14250300  0.41164500  0.81388500  1
  Ni  Ni98  1  0.68611500  0.85749700  0.91164500  1
  Ni  Ni99  1  0.85749700  0.91164500  0.68611500  1
  Ni  Ni100  1  0.18611500  0.64250300  0.08835500  1
  Ni  Ni101  1  0.31388500  0.35749700  0.58835500  1
  Ni  Ni102  1  0.35749700  0.58835500  0.31388500  1
  Ni  Ni103  1  0.55136400  0.20711800  0.49300600  1
  Cu  Cu104  1  0.26578900  0.26578900  0.26578900  1
  Cu  Cu105  1  0.23421100  0.73421100  0.76578900  1
  Cu  Cu106  1  0.76578900  0.23421100  0.73421100  1
  Cu  Cu107  1  0.73421100  0.76578900  0.23421100  1
  Cu  Cu108  1  0.73421100  0.73421100  0.73421100  1
  Cu  Cu109  1  0.76578900  0.26578900  0.23421100  1
  Cu  Cu110  1  0.23421100  0.76578900  0.26578900  1
  Cu  Cu111  1  0.26578900  0.23421100  0.76578900  1
  C  C112  1  0.63889500  0.96012900  0.44307600  1
  C  C113  1  0.13889500  0.53987100  0.55692400  1
  C  C114  1  0.36110500  0.46012900  0.05692400  1
  C  C115  1  0.53987100  0.55692400  0.13889500  1
  C  C116  1  0.05692400  0.36110500  0.46012900  1
  C  C117  1  0.55692400  0.13889500  0.53987100  1
  C  C118  1  0.96012900  0.44307600  0.63889500  1
  C  C119  1  0.44307600  0.63889500  0.96012900  1
  C  C120  1  0.46012900  0.05692400  0.36110500  1
  C  C121  1  0.03987100  0.94307600  0.86110500  1
  C  C122  1  0.94307600  0.86110500  0.03987100  1
  C  C123  1  0.86110500  0.03987100  0.94307600  1
  C  C124  1  0.36110500  0.03987100  0.55692400  1
  C  C125  1  0.86110500  0.46012900  0.44307600  1
  C  C126  1  0.63889500  0.53987100  0.94307600  1
  C  C127  1  0.46012900  0.44307600  0.86110500  1
  C  C128  1  0.94307600  0.63889500  0.53987100  1
  C  C129  1  0.44307600  0.86110500  0.46012900  1
  C  C130  1  0.03987100  0.55692400  0.36110500  1
  C  C131  1  0.55692400  0.36110500  0.03987100  1
  C  C132  1  0.53987100  0.94307600  0.63889500  1
  C  C133  1  0.96012900  0.05692400  0.13889500  1
  C  C134  1  0.05692400  0.13889500  0.96012900  1
  C  C135  1  0.13889500  0.96012900  0.05692400  1
  C  C136  1  0.57877100  0.03812900  0.18474400  1
  C  C137  1  0.07877100  0.46187100  0.81525600  1
  C  C138  1  0.42122900  0.53812900  0.31525600  1
  C  C139  1  0.46187100  0.81525600  0.07877100  1
  C  C140  1  0.31525600  0.42122900  0.53812900  1
  C  C141  1  0.81525600  0.07877100  0.46187100  1
  C  C142  1  0.03812900  0.18474400  0.57877100  1
  C  C143  1  0.18474400  0.57877100  0.03812900  1
  C  C144  1  0.53812900  0.31525600  0.42122900  1
  C  C145  1  0.96187100  0.68474400  0.92122900  1
  C  C146  1  0.68474400  0.92122900  0.96187100  1
  C  C147  1  0.92122900  0.96187100  0.68474400  1
  C  C148  1  0.42122900  0.96187100  0.81525600  1
  C  C149  1  0.92122900  0.53812900  0.18474400  1
  C  C150  1  0.57877100  0.46187100  0.68474400  1
  C  C151  1  0.53812900  0.18474400  0.92122900  1
  C  C152  1  0.68474400  0.57877100  0.46187100  1
  C  C153  1  0.18474400  0.92122900  0.53812900  1
  C  C154  1  0.96187100  0.81525600  0.42122900  1
  C  C155  1  0.81525600  0.42122900  0.96187100  1
  C  C156  1  0.46187100  0.68474400  0.57877100  1
  C  C157  1  0.03812900  0.31525600  0.07877100  1
  C  C158  1  0.31525600  0.07877100  0.03812900  1
  C  C159  1  0.07877100  0.03812900  0.31525600  1
  C  C160  1  0.80777200  0.26927800  0.34800400  1
  C  C161  1  0.30777200  0.23072200  0.65199600  1
  C  C162  1  0.19222800  0.76927800  0.15199600  1
  C  C163  1  0.23072200  0.65199600  0.30777200  1
  C  C164  1  0.15199600  0.19222800  0.76927800  1
  C  C165  1  0.65199600  0.30777200  0.23072200  1
  C  C166  1  0.26927800  0.34800400  0.80777200  1
  C  C167  1  0.34800400  0.80777200  0.26927800  1
  C  C168  1  0.76927800  0.15199600  0.19222800  1
  C  C169  1  0.73072200  0.84800400  0.69222800  1
  C  C170  1  0.84800400  0.69222800  0.73072200  1
  C  C171  1  0.69222800  0.73072200  0.84800400  1
  C  C172  1  0.19222800  0.73072200  0.65199600  1
  C  C173  1  0.69222800  0.76927800  0.34800400  1
  C  C174  1  0.80777200  0.23072200  0.84800400  1
  C  C175  1  0.76927800  0.34800400  0.69222800  1
  C  C176  1  0.84800400  0.80777200  0.23072200  1
  C  C177  1  0.34800400  0.69222800  0.76927800  1
  C  C178  1  0.73072200  0.65199600  0.19222800  1
  C  C179  1  0.65199600  0.19222800  0.73072200  1
  C  C180  1  0.23072200  0.84800400  0.80777200  1
  C  C181  1  0.26927800  0.15199600  0.30777200  1
  C  C182  1  0.15199600  0.30777200  0.26927800  1
  C  C183  1  0.30777200  0.26927800  0.15199600  1
  C  C184  1  0.33651400  0.33651400  0.33651400  1
  C  C185  1  0.16348600  0.83651400  0.33651400  1
  C  C186  1  0.83651400  0.33651400  0.16348600  1
  C  C187  1  0.66348600  0.66348600  0.66348600  1
  C  C188  1  0.66348600  0.83651400  0.16348600  1
  C  C189  1  0.83651400  0.16348600  0.66348600  1
  C  C190  1  0.16348600  0.66348600  0.83651400  1
  C  C191  1  0.33651400  0.16348600  0.83651400  1
