# generated using pymatgen
data_Cu6Ni7C8
_symmetry_space_group_name_H-M   'P 1'
_cell_length_a   12.14905300
_cell_length_b   12.14905300
_cell_length_c   5.17107800
_cell_angle_alpha   90.00000000
_cell_angle_beta   90.00000000
_cell_angle_gamma   90.00000000
_symmetry_Int_Tables_number   1
_chemical_formula_structural   Cu6Ni7C8
_chemical_formula_sum   'Cu12 Ni14 C16'
_cell_volume   763.24846933
_cell_formula_units_Z   2
loop_
 _symmetry_equiv_pos_site_id
 _symmetry_equiv_pos_as_xyz
  1  'x, y, z'
loop_
 _atom_site_type_symbol
 _atom_site_label
 _atom_site_symmetry_multiplicity
 _atom_site_fract_x
 _atom_site_fract_y
 _atom_site_fract_z
 _atom_site_occupancy
  Ni  Ni0  1  0.50000000  0.00000000  0.40354900  1
  Ni  Ni1  1  0.53802400  0.21141200  0.11569400  1
  Ni  Ni2  1  0.46197600  0.78858800  0.11569400  1
  Ni  Ni3  1  0.21141200  0.46197600  0.88430600  1
  Ni  Ni4  1  0.78858800  0.53802400  0.88430600  1
  Ni  Ni5  1  0.71141200  0.03802400  0.11569400  1
  Ni  Ni6  1  0.96197600  0.71141200  0.88430600  1
  Ni  Ni7  1  0.03802400  0.28858800  0.88430600  1
  Ni  Ni8  1  0.28858800  0.96197600  0.11569400  1
  Ni  Ni9  1  0.00000000  0.50000000  0.59645100  1
  Ni  Ni10  1  0.24455000  0.74455000  0.29723000  1
  Ni  Ni11  1  0.25545000  0.24455000  0.70277000  1
  Ni  Ni12  1  0.74455000  0.75545000  0.70277000  1
  Ni  Ni13  1  0.75545000  0.25545000  0.29723000  1
  Cu  Cu14  1  0.63490100  0.29034300  0.24288900  1
  Cu  Cu15  1  0.20965700  0.86509900  0.24288900  1
  Cu  Cu16  1  0.42131000  0.92131000  0.20789100  1
  Cu  Cu17  1  0.07869000  0.42131000  0.79210900  1
  Cu  Cu18  1  0.92131000  0.57869000  0.79210900  1
  Cu  Cu19  1  0.57869000  0.07869000  0.20789100  1
  Cu  Cu20  1  0.36509900  0.70965700  0.24288900  1
  Cu  Cu21  1  0.29034300  0.36509900  0.75711100  1
  Cu  Cu22  1  0.70965700  0.63490100  0.75711100  1
  Cu  Cu23  1  0.79034300  0.13490100  0.24288900  1
  Cu  Cu24  1  0.86509900  0.79034300  0.75711100  1
  Cu  Cu25  1  0.13490100  0.20965700  0.75711100  1
  C  C26  1  0.54540700  0.21936400  0.83952900  1
  C  C27  1  0.26623800  0.06271900  0.24738000  1
  C  C28  1  0.43728100  0.23376200  0.24738000  1
  C  C29  1  0.93728100  0.26623800  0.75262000  1
  C  C30  1  0.06271900  0.73376200  0.75262000  1
  C  C31  1  0.73376200  0.93728100  0.24738000  1
  C  C32  1  0.76623800  0.43728100  0.75262000  1
  C  C33  1  0.23376200  0.56271900  0.75262000  1
  C  C34  1  0.56271900  0.76623800  0.24738000  1
  C  C35  1  0.21936400  0.45459300  0.16047100  1
  C  C36  1  0.28063600  0.95459300  0.83952900  1
  C  C37  1  0.04540700  0.28063600  0.16047100  1
  C  C38  1  0.95459300  0.71936400  0.16047100  1
  C  C39  1  0.71936400  0.04540700  0.83952900  1
  C  C40  1  0.78063600  0.54540700  0.16047100  1
  C  C41  1  0.45459300  0.78063600  0.83952900  1
