# generated using pymatgen
data_CuNi5C32
_symmetry_space_group_name_H-M   'P 1'
_cell_length_a   8.97314944
_cell_length_b   8.96731667
_cell_length_c   22.66749450
_cell_angle_alpha   90.13828006
_cell_angle_beta   90.05423718
_cell_angle_gamma   120.05881029
_symmetry_Int_Tables_number   1
_chemical_formula_structural   CuNi5C32
_chemical_formula_sum   'Cu3 Ni15 C96'
_cell_volume   1578.63334900
_cell_formula_units_Z   3
loop_
 _symmetry_equiv_pos_site_id
 _symmetry_equiv_pos_as_xyz
  1  'x, y, z'
loop_
 _atom_site_type_symbol
 _atom_site_label
 _atom_site_symmetry_multiplicity
 _atom_site_fract_x
 _atom_site_fract_y
 _atom_site_fract_z
 _atom_site_occupancy
  C  C0  1  0.37272331  0.36287445  0.24229990  1
  C  C1  1  0.98824132  0.61831290  0.24016031  1
  C  C2  1  0.63640079  0.62727577  0.74260642  1
  C  C3  1  0.38028141  0.01090548  0.74028436  1
  C  C4  1  0.02239899  0.68208477  0.58487292  1
  C  C5  1  0.65874801  0.97818929  0.58451043  1
  C  C6  1  0.00972692  0.01017571  0.49713158  1
  C  C7  1  0.00365047  0.99862757  0.99968938  1
  C  C8  1  0.69015362  0.33363021  0.82974419  1
  C  C9  1  0.66576736  0.31118943  0.33098895  1
  C  C10  1  0.33057241  0.66677166  0.16213506  1
  C  C11  1  0.32194366  0.65028625  0.66392985  1
  C  C12  1  0.68330505  0.33661875  0.68509396  1
  C  C13  1  0.66809928  0.32623451  0.18519999  1
  C  C14  1  0.00946954  0.01396489  0.35802462  1
  C  C15  1  0.98677017  0.98894785  0.85872366  1
  C  C16  1  0.99264934  0.99056051  0.64295840  1
  C  C17  1  0.02030888  0.00935051  0.14261044  1
  C  C18  1  0.66572619  0.34561669  0.97711664  1
  C  C19  1  0.66614341  0.32979553  0.47836361  1
  C  C20  1  0.32074123  0.65763473  0.01996417  1
  C  C21  1  0.33443629  0.66686005  0.51888362  1
  C  C22  1  0.32553070  0.66620272  0.31452578  1
  C  C23  1  0.33075244  0.67429630  0.81503171  1
  Ni  Ni24  1  0.29456759  0.00138311  0.25117837  1
  Ni  Ni25  1  0.99362103  0.28680623  0.25008642  1
  Ni  Ni26  1  0.99814813  0.70613852  0.75060272  1
  Ni  Ni27  1  0.71018404  0.00396766  0.75120786  1
  Ni  Ni28  1  0.95865965  0.33605415  0.58426135  1
  Ni  Ni29  1  0.37911841  0.04875583  0.58601034  1
  Ni  Ni30  1  0.65484580  0.60958542  0.58669501  1
  Ni  Ni31  1  0.95348173  0.62135257  0.08752779  1
  Ni  Ni32  1  0.38825351  0.34357004  0.08668473  1
  Ni  Ni33  1  0.61328738  0.66491067  0.91699109  1
  Ni  Ni34  1  0.04141437  0.37512303  0.91578602  1
  Ni  Ni35  1  0.33598382  0.96040105  0.91827610  1
  Ni  Ni36  1  0.62331188  0.95618774  0.41617221  1
  Ni  Ni37  1  0.34185653  0.38353878  0.41551007  1
  Ni  Ni38  1  0.03916341  0.66593262  0.41732693  1
  Cu  Cu39  1  0.71235448  0.71930495  0.25047618  1
  Cu  Cu40  1  0.28073081  0.28710157  0.75097479  1
  Cu  Cu41  1  0.66628765  0.04264236  0.08373441  1
  C  C42  1  0.18160568  0.01388076  0.30625916  1
  C  C43  1  0.81827484  0.80384392  0.30365680  1
  C  C44  1  0.98039627  0.16783399  0.30726590  1
  C  C45  1  0.19701930  0.18263984  0.80384345  1
  C  C46  1  0.99125188  0.82241424  0.80594941  1
  C  C47  1  0.83362351  0.01844186  0.80696606  1
  C  C48  1  0.80552145  0.97365762  0.69268316  1
  C  C49  1  0.17600177  0.20509916  0.69695383  1
  C  C50  1  0.03493349  0.83336996  0.69176380  1
  C  C51  1  0.79257902  0.82314979  0.19684506  1
  C  C52  1  0.02373169  0.18618240  0.19355854  1
  C  C53  1  0.16415678  0.96474157  0.19243911  1
  C  C54  1  0.89203797  0.39127022  0.64041308  1
  C  C55  1  0.49110711  0.11307057  0.64520224  1
  C  C56  1  0.62704398  0.51429107  0.64797658  1
  C  C57  1  0.88605543  0.51861054  0.14763223  1
  C  C58  1  0.63900852  0.11594436  0.13644947  1
  C  C59  1  0.48397061  0.36553271  0.14760723  1
  C  C60  1  0.47780457  0.30880642  0.02830754  1
  C  C61  1  0.83293873  0.52015944  0.02890653  1
  C  C62  1  0.69434020  0.14858564  0.02977660  1
  C  C63  1  0.47390444  0.16879780  0.52796041  1
  C  C64  1  0.70105339  0.52617362  0.52963656  1
  C  C65  1  0.83086395  0.29296841  0.52623136  1
  C  C66  1  0.52263321  0.69435083  0.97339973  1
  C  C67  1  0.16304687  0.46814658  0.97343719  1
  C  C68  1  0.30479461  0.83304372  0.97310765  1
  C  C69  1  0.53504163  0.84263376  0.47532409  1
  C  C70  1  0.31105601  0.47800835  0.47154405  1
  C  C71  1  0.16107962  0.69714616  0.47475740  1
  C  C72  1  0.13422231  0.63791533  0.35855318  1
  C  C73  1  0.49743870  0.85514499  0.35944441  1
  C  C74  1  0.36121459  0.49481525  0.35576761  1
  C  C75  1  0.13915871  0.50163305  0.85899196  1
  C  C76  1  0.36403047  0.86886065  0.85803290  1
  C  C77  1  0.50227098  0.63827955  0.85649414  1
  C  C78  1  0.02045716  0.83539549  0.40743424  1
  C  C79  1  0.81117011  0.97165303  0.40776705  1
  C  C80  1  0.16695720  0.19182639  0.41070645  1
  C  C81  1  0.02893292  0.18908089  0.90751542  1
  C  C82  1  0.16765064  0.98133667  0.90775432  1
  C  C83  1  0.80844245  0.83344553  0.91090508  1
  C  C84  1  0.97253726  0.15887337  0.59177471  1
  C  C85  1  0.18144740  0.01945956  0.59028922  1
  C  C86  1  0.83611765  0.80967364  0.59057087  1
  C  C87  1  0.96617115  0.81445978  0.09014016  1
  C  C88  1  0.82276415  0.02171194  0.08929713  1
  C  C89  1  0.18729298  0.16634234  0.08900245  1
  C  C90  1  0.67203172  0.15912029  0.75076759  1
  C  C91  1  0.45262080  0.30482846  0.74694885  1
  C  C92  1  0.82168134  0.52779319  0.75096753  1
  C  C93  1  0.69353972  0.54663900  0.24742563  1
  C  C94  1  0.83784789  0.32391857  0.24913984  1
  C  C95  1  0.47424352  0.17560266  0.24821773  1
  C  C96  1  0.63807192  0.49618889  0.92329965  1
  C  C97  1  0.85270156  0.35431888  0.92525802  1
  C  C98  1  0.50938942  0.14614390  0.92595559  1
  C  C99  1  0.64011397  0.14456215  0.42229578  1
  C  C100  1  0.50882234  0.36148895  0.42327147  1
  C  C101  1  0.85344606  0.49279806  0.42391807  1
  C  C102  1  0.35720741  0.50766290  0.07462685  1
  C  C103  1  0.15157164  0.65770540  0.07445938  1
  C  C104  1  0.51274447  0.86608959  0.07568897  1
  C  C105  1  0.34797035  0.85152541  0.57408456  1
  C  C106  1  0.50423764  0.65978048  0.57503658  1
  C  C107  1  0.15134522  0.50242236  0.57204260  1
  C  C108  1  0.29904814  0.81933130  0.25559035  1
  C  C109  1  0.53639882  0.69888639  0.25517486  1
  C  C110  1  0.18118102  0.47478402  0.25531874  1
  C  C111  1  0.30051824  0.46262787  0.75493142  1
  C  C112  1  0.17936913  0.69929517  0.75562349  1
  C  C113  1  0.52286724  0.81598648  0.75597462  1
