# generated using pymatgen
data_Cu2Ni2C7
_symmetry_space_group_name_H-M   'P 1'
_cell_length_a   5.32887735
_cell_length_b   5.73805070
_cell_length_c   5.18364515
_cell_angle_alpha   113.13883465
_cell_angle_beta   59.00460880
_cell_angle_gamma   115.07782167
_symmetry_Int_Tables_number   1
_chemical_formula_structural   Cu2Ni2C7
_chemical_formula_sum   'Cu2 Ni2 C7'
_cell_volume   119.90599215
_cell_formula_units_Z   1
loop_
 _symmetry_equiv_pos_site_id
 _symmetry_equiv_pos_as_xyz
  1  'x, y, z'
loop_
 _atom_site_type_symbol
 _atom_site_label
 _atom_site_symmetry_multiplicity
 _atom_site_fract_x
 _atom_site_fract_y
 _atom_site_fract_z
 _atom_site_occupancy
  C  C0  1  0.71739272  0.10989526  0.69103624  1
  Ni  Ni1  1  0.35182619  0.01365410  0.32886112  1
  Ni  Ni2  1  0.50962744  0.55126267  0.49591203  1
  Cu  Cu3  1  0.11275205  0.44047961  0.14495961  1
  Cu  Cu4  1  0.99666213  0.86996369  0.92314402  1
  C  C5  1  0.12169985  0.32222806  0.42120314  1
  C  C6  1  0.33530319  0.19896773  0.78465986  1
  C  C7  1  0.73683559  0.29798393  0.11426898  1
  C  C8  1  0.27741033  0.74975671  0.94355821  1
  C  C9  1  0.65077024  0.84688135  0.28898640  1
  C  C10  1  0.91471927  0.78642689  0.58840939  1
