# generated using pymatgen
data_CuNiC2
_symmetry_space_group_name_H-M   'P 1'
_cell_length_a   9.57253458
_cell_length_b   9.57253458
_cell_length_c   9.57253458
_cell_angle_alpha   100.41070754
_cell_angle_beta   100.41070754
_cell_angle_gamma   129.68706423
_symmetry_Int_Tables_number   1
_chemical_formula_structural   CuNiC2
_chemical_formula_sum   'Cu10 Ni10 C20'
_cell_volume   610.99104019
_cell_formula_units_Z   10
loop_
 _symmetry_equiv_pos_site_id
 _symmetry_equiv_pos_as_xyz
  1  'x, y, z'
loop_
 _atom_site_type_symbol
 _atom_site_label
 _atom_site_symmetry_multiplicity
 _atom_site_fract_x
 _atom_site_fract_y
 _atom_site_fract_z
 _atom_site_occupancy
  Ni  Ni0  1  0.51929800  0.51929800  0.00000000  1
  Ni  Ni1  1  0.05311200  0.05311200  0.00000000  1
  Ni  Ni2  1  0.83615200  0.83615200  0.40107400  1
  Ni  Ni3  1  0.43507900  0.83615200  0.00000000  1
  Ni  Ni4  1  0.83615200  0.43507900  0.00000000  1
  Ni  Ni5  1  0.43507900  0.43507900  0.59892600  1
  Ni  Ni6  1  0.84389700  0.12420000  0.71969600  1
  Ni  Ni7  1  0.12420000  0.84389700  0.71969600  1
  Ni  Ni8  1  0.12420000  0.40450400  0.28030400  1
  Ni  Ni9  1  0.40450400  0.12420000  0.28030400  1
  C  C10  1  0.79875700  0.63638700  0.83763000  1
  C  C11  1  0.63638700  0.79875700  0.83763000  1
  C  C12  1  0.03250900  0.64856600  0.38394300  1
  C  C13  1  0.64856600  0.03250900  0.38394300  1
  C  C14  1  0.42270900  0.42270900  0.26179700  1
  C  C15  1  0.64856600  0.26462300  0.61605700  1
  C  C16  1  0.26462300  0.64856600  0.61605700  1
  C  C17  1  0.16091300  0.16091300  0.73820300  1
  C  C18  1  0.42270900  0.16091300  0.00000000  1
  C  C19  1  0.16091300  0.42270900  0.00000000  1
  C  C20  1  0.73847700  0.24620800  0.21084600  1
  C  C21  1  0.52763100  0.73847700  0.49226900  1
  C  C22  1  0.24620800  0.03536200  0.50773100  1
  C  C23  1  0.03536200  0.52763100  0.78915400  1
  C  C24  1  0.24620800  0.73847700  0.21084600  1
  C  C25  1  0.52763100  0.03536200  0.78915400  1
  C  C26  1  0.73847700  0.52763100  0.49226900  1
  C  C27  1  0.03536200  0.24620800  0.50773100  1
  C  C28  1  0.96112700  0.79875700  0.16237000  1
  C  C29  1  0.79875700  0.96112700  0.16237000  1
  Cu  Cu30  1  0.81981000  0.81981000  0.67531800  1
  Cu  Cu31  1  0.89839100  0.39839100  0.50000000  1
  Cu  Cu32  1  0.39839100  0.89839100  0.50000000  1
  Cu  Cu33  1  0.14449200  0.14449200  0.32468200  1
  Cu  Cu34  1  0.81981000  0.14449200  0.00000000  1
  Cu  Cu35  1  0.14449200  0.81981000  0.00000000  1
  Cu  Cu36  1  0.27204000  0.48790700  0.78413300  1
  Cu  Cu37  1  0.48790700  0.27204000  0.78413300  1
  Cu  Cu38  1  0.48790700  0.70377500  0.21586700  1
  Cu  Cu39  1  0.70377500  0.48790700  0.21586700  1
