# generated using pymatgen
data_Cu6NiC2
_symmetry_space_group_name_H-M   'P 1'
_cell_length_a   8.03987000
_cell_length_b   7.68905700
_cell_length_c   13.26051133
_cell_angle_alpha   54.80646793
_cell_angle_beta   90.00000000
_cell_angle_gamma   90.00000000
_symmetry_Int_Tables_number   1
_chemical_formula_structural   Cu6NiC2
_chemical_formula_sum   'Cu12 Ni2 C4'
_cell_volume   669.90933809
_cell_formula_units_Z   2
loop_
 _symmetry_equiv_pos_site_id
 _symmetry_equiv_pos_as_xyz
  1  'x, y, z'
loop_
 _atom_site_type_symbol
 _atom_site_label
 _atom_site_symmetry_multiplicity
 _atom_site_fract_x
 _atom_site_fract_y
 _atom_site_fract_z
 _atom_site_occupancy
  C  C0  1  0.07223100  0.26685400  0.24902300  1
  C  C1  1  0.57223100  0.73314600  0.25097700  1
  C  C2  1  0.92776900  0.73314600  0.75097700  1
  C  C3  1  0.42776900  0.26685400  0.74902300  1
  Ni  Ni4  1  0.50000000  0.00000000  0.50000000  1
  Ni  Ni5  1  0.00000000  0.00000000  0.00000000  1
  Cu  Cu6  1  0.51442700  0.83380800  0.74631100  1
  Cu  Cu7  1  0.48557300  0.16619200  0.25368900  1
  Cu  Cu8  1  0.81146900  0.66479200  0.04359200  1
  Cu  Cu9  1  0.98557300  0.83380800  0.24631100  1
  Cu  Cu10  1  0.18853100  0.33520800  0.95640800  1
  Cu  Cu11  1  0.68853100  0.66479200  0.54359200  1
  Cu  Cu12  1  0.28651200  0.77465100  0.03874200  1
  Cu  Cu13  1  0.78651200  0.22534900  0.46125800  1
  Cu  Cu14  1  0.71348800  0.22534900  0.96125800  1
  Cu  Cu15  1  0.21348800  0.77465100  0.53874200  1
  Cu  Cu16  1  0.31146900  0.33520800  0.45640800  1
  Cu  Cu17  1  0.01442700  0.16619200  0.75368900  1
