# generated using pymatgen
data_Cu2NiC12
_symmetry_space_group_name_H-M   'P 1'
_cell_length_a   5.17328066
_cell_length_b   5.47168029
_cell_length_c   7.40314154
_cell_angle_alpha   69.09851985
_cell_angle_beta   71.18602466
_cell_angle_gamma   90.01378441
_symmetry_Int_Tables_number   1
_chemical_formula_structural   Cu2NiC12
_chemical_formula_sum   'Cu2 Ni1 C12'
_cell_volume   183.72587232
_cell_formula_units_Z   1
loop_
 _symmetry_equiv_pos_site_id
 _symmetry_equiv_pos_as_xyz
  1  'x, y, z'
loop_
 _atom_site_type_symbol
 _atom_site_label
 _atom_site_symmetry_multiplicity
 _atom_site_fract_x
 _atom_site_fract_y
 _atom_site_fract_z
 _atom_site_occupancy
  Ni  Ni0  1  0.00000000  0.00000000  0.00000000  1
  Cu  Cu1  1  0.50000000  0.00000000  0.50000000  1
  Cu  Cu2  1  0.00000000  0.50000000  0.00000000  1
  C  C3  1  0.38786100  0.62073800  0.25398800  1
  C  C4  1  0.61213900  0.37926200  0.74601200  1
  C  C5  1  0.33777900  0.32730900  0.38626600  1
  C  C6  1  0.69337700  0.69689200  0.09523700  1
  C  C7  1  0.66222100  0.67269100  0.61373400  1
  C  C8  1  0.30662300  0.30310800  0.90476300  1
  C  C9  1  0.19290500  0.67991000  0.12342600  1
  C  C10  1  0.33725200  0.80617600  0.37058100  1
  C  C11  1  0.80709500  0.32009000  0.87657400  1
  C  C12  1  0.66274800  0.19382400  0.62941900  1
  C  C13  1  0.14281500  0.86422700  0.76526000  1
  C  C14  1  0.85718500  0.13577300  0.23474000  1
