# generated using pymatgen
data_CuNi3C17
_symmetry_space_group_name_H-M   'P 1'
_cell_length_a   9.41444352
_cell_length_b   9.41444317
_cell_length_c   22.52541169
_cell_angle_alpha   90.00000000
_cell_angle_beta   90.00000000
_cell_angle_gamma   120.00000122
_symmetry_Int_Tables_number   1
_chemical_formula_structural   CuNi3C17
_chemical_formula_sum   'Cu6 Ni18 C102'
_cell_volume   1728.99069566
_cell_formula_units_Z   6
loop_
 _symmetry_equiv_pos_site_id
 _symmetry_equiv_pos_as_xyz
  1  'x, y, z'
loop_
 _atom_site_type_symbol
 _atom_site_label
 _atom_site_symmetry_multiplicity
 _atom_site_fract_x
 _atom_site_fract_y
 _atom_site_fract_z
 _atom_site_occupancy
  Ni  Ni0  1  0.65812038  0.00000000  0.25000000  1
  Ni  Ni1  1  0.34187962  0.34187962  0.25000000  1
  Ni  Ni2  1  1.00000000  0.65812038  0.25000000  1
  Ni  Ni3  1  0.65812038  0.65812038  0.75000000  1
  Ni  Ni4  1  0.00000000  0.34187962  0.75000000  1
  Ni  Ni5  1  0.34187962  0.00000000  0.75000000  1
  Ni  Ni6  1  0.32478738  0.33333300  0.58333300  1
  Ni  Ni7  1  0.00854662  0.67521262  0.58333300  1
  Ni  Ni8  1  0.66666700  0.99145338  0.58333300  1
  Ni  Ni9  1  0.32478738  0.99145338  0.08333300  1
  Ni  Ni10  1  0.66666700  0.67521262  0.08333300  1
  Ni  Ni11  1  0.00854662  0.33333300  0.08333300  1
  Ni  Ni12  1  0.99145338  0.66666700  0.91666700  1
  Ni  Ni13  1  0.67521262  0.00854662  0.91666700  1
  Ni  Ni14  1  0.33333300  0.32478738  0.91666700  1
  Ni  Ni15  1  0.99145338  0.32478738  0.41666700  1
  Ni  Ni16  1  0.33333300  0.00854662  0.41666700  1
  Ni  Ni17  1  0.67521262  0.66666700  0.41666700  1
  Cu  Cu18  1  0.00000000  0.00000000  0.50000000  1
  Cu  Cu19  1  0.00000000  0.00000000  -0.00000000  1
  Cu  Cu20  1  0.66666700  0.33333300  0.83333300  1
  Cu  Cu21  1  0.66666700  0.33333300  0.33333300  1
  Cu  Cu22  1  0.33333300  0.66666700  0.16666700  1
  Cu  Cu23  1  0.33333300  0.66666700  0.66666700  1
  C  C24  1  0.00000000  0.00000000  0.35175149  1
  C  C25  1  0.00000000  0.00000000  0.85175149  1
  C  C26  1  0.00000000  0.00000000  0.64824851  1
  C  C27  1  0.00000000  0.00000000  0.14824851  1
  C  C28  1  0.66666700  0.33333300  0.68508449  1
  C  C29  1  0.66666700  0.33333300  0.18508449  1
  C  C30  1  0.66666700  0.33333300  0.98158151  1
  C  C31  1  0.66666700  0.33333300  0.48158151  1
  C  C32  1  0.33333300  0.66666700  0.01841849  1
  C  C33  1  0.33333300  0.66666700  0.51841849  1
  C  C34  1  0.33333300  0.66666700  0.31491551  1
  C  C35  1  0.33333300  0.66666700  0.81491551  1
  C  C36  1  0.29849964  0.00000000  0.25000000  1
  C  C37  1  0.70150036  0.70150036  0.25000000  1
  C  C38  1  0.00000000  0.29849964  0.25000000  1
  C  C39  1  0.29849964  0.29849964  0.75000000  1
  C  C40  1  1.00000000  0.70150036  0.75000000  1
  C  C41  1  0.70150036  0.00000000  0.75000000  1
  C  C42  1  0.96516664  0.33333300  0.58333300  1
  C  C43  1  0.36816736  0.03483336  0.58333300  1
  C  C44  1  0.66666700  0.63183264  0.58333300  1
  C  C45  1  0.96516664  0.63183264  0.08333300  1
  C  C46  1  0.66666700  0.03483336  0.08333300  1
  C  C47  1  0.36816736  0.33333300  0.08333300  1
  C  C48  1  0.63183264  0.66666700  0.91666700  1
  C  C49  1  0.03483336  0.36816736  0.91666700  1
  C  C50  1  0.33333300  0.96516664  0.91666700  1
  C  C51  1  0.63183264  0.96516664  0.41666700  1
  C  C52  1  0.33333300  0.36816736  0.41666700  1
  C  C53  1  0.03483336  0.66666700  0.41666700  1
  C  C54  1  0.19993383  0.02047487  0.30692957  1
  C  C55  1  0.82054104  0.80006617  0.30692957  1
  C  C56  1  0.97952513  0.17945896  0.30692957  1
  C  C57  1  0.19993383  0.17945896  0.80692957  1
  C  C58  1  0.97952513  0.80006617  0.80692957  1
  C  C59  1  0.82054104  0.02047487  0.80692957  1
  C  C60  1  0.80006617  0.97952513  0.69307043  1
  C  C61  1  0.17945896  0.19993383  0.69307043  1
  C  C62  1  0.02047487  0.82054104  0.69307043  1
  C  C63  1  0.80006617  0.82054104  0.19307043  1
  C  C64  1  0.02047487  0.19993383  0.19307043  1
  C  C65  1  0.17945896  0.97952513  0.19307043  1
  C  C66  1  0.86660083  0.35380787  0.64026257  1
  C  C67  1  0.48720804  0.13339917  0.64026257  1
  C  C68  1  0.64619213  0.51279196  0.64026257  1
  C  C69  1  0.86660083  0.51279196  0.14026257  1
  C  C70  1  0.64619213  0.13339917  0.14026257  1
  C  C71  1  0.48720804  0.35380787  0.14026257  1
  C  C72  1  0.46673317  0.31285813  0.02640343  1
  C  C73  1  0.84612596  0.53326683  0.02640343  1
  C  C74  1  0.68714187  0.15387404  0.02640343  1
  C  C75  1  0.46673317  0.15387404  0.52640343  1
  C  C76  1  0.68714187  0.53326683  0.52640343  1
  C  C77  1  0.84612596  0.31285813  0.52640343  1
  C  C78  1  0.53326683  0.68714187  0.97359657  1
  C  C79  1  0.15387404  0.46673317  0.97359657  1
  C  C80  1  0.31285813  0.84612596  0.97359657  1
  C  C81  1  0.53326683  0.84612596  0.47359657  1
  C  C82  1  0.31285813  0.46673317  0.47359657  1
  C  C83  1  0.15387404  0.68714187  0.47359657  1
  C  C84  1  0.13339917  0.64619213  0.35973743  1
  C  C85  1  0.51279196  0.86660083  0.35973743  1
  C  C86  1  0.35380787  0.48720804  0.35973743  1
  C  C87  1  0.13339917  0.48720804  0.85973743  1
  C  C88  1  0.35380787  0.86660083  0.85973743  1
  C  C89  1  0.51279196  0.64619213  0.85973743  1
  C  C90  1  0.01325972  0.82956272  0.41116484  1
  C  C91  1  0.81630300  0.98674028  0.41116484  1
  C  C92  1  0.17043728  0.18369700  0.41116484  1
  C  C93  1  0.01325972  0.18369700  0.91116484  1
  C  C94  1  0.17043728  0.98674028  0.91116484  1
  C  C95  1  0.81630300  0.82956272  0.91116484  1
  C  C96  1  0.98674028  0.17043728  0.58883516  1
  C  C97  1  0.18369700  0.01325972  0.58883516  1
  C  C98  1  0.82956272  0.81630300  0.58883516  1
  C  C99  1  0.98674028  0.81630300  0.08883516  1
  C  C100  1  0.82956272  0.01325972  0.08883516  1
  C  C101  1  0.18369700  0.17043728  0.08883516  1
  C  C102  1  0.67992672  0.16289572  0.74449784  1
  C  C103  1  0.48297000  0.32007328  0.74449784  1
  C  C104  1  0.83710428  0.51703000  0.74449784  1
  C  C105  1  0.67992672  0.51703000  0.24449784  1
  C  C106  1  0.83710428  0.32007328  0.24449784  1
  C  C107  1  0.48297000  0.16289572  0.24449784  1
  C  C108  1  0.65340728  0.50377028  0.92216816  1
  C  C109  1  0.85036400  0.34659272  0.92216816  1
  C  C110  1  0.49622972  0.14963600  0.92216816  1
  C  C111  1  0.65340728  0.14963600  0.42216816  1
  C  C112  1  0.49622972  0.34659272  0.42216816  1
  C  C113  1  0.85036400  0.50377028  0.42216816  1
  C  C114  1  0.34659272  0.49622972  0.07783184  1
  C  C115  1  0.14963600  0.65340728  0.07783184  1
  C  C116  1  0.50377028  0.85036400  0.07783184  1
  C  C117  1  0.34659272  0.85036400  0.57783184  1
  C  C118  1  0.50377028  0.65340728  0.57783184  1
  C  C119  1  0.14963600  0.49622972  0.57783184  1
  C  C120  1  0.32007328  0.83710428  0.25550216  1
  C  C121  1  0.51703000  0.67992672  0.25550216  1
  C  C122  1  0.16289572  0.48297000  0.25550216  1
  C  C123  1  0.32007328  0.48297000  0.75550216  1
  C  C124  1  0.16289572  0.67992672  0.75550216  1
  C  C125  1  0.51703000  0.83710428  0.75550216  1
