# generated using pymatgen
data_Cu2Ni6C49
_symmetry_space_group_name_H-M   'P 1'
_cell_length_a   9.12627101
_cell_length_b   9.12627068
_cell_length_c   23.02600742
_cell_angle_alpha   90.00000000
_cell_angle_beta   90.00000000
_cell_angle_gamma   120.00000115
_symmetry_Int_Tables_number   1
_chemical_formula_structural   Cu2Ni6C49
_chemical_formula_sum   'Cu4 Ni12 C98'
_cell_volume   1660.87127432
_cell_formula_units_Z   2
loop_
 _symmetry_equiv_pos_site_id
 _symmetry_equiv_pos_as_xyz
  1  'x, y, z'
loop_
 _atom_site_type_symbol
 _atom_site_label
 _atom_site_symmetry_multiplicity
 _atom_site_fract_x
 _atom_site_fract_y
 _atom_site_fract_z
 _atom_site_occupancy
  Ni  Ni0  1  0.96634191  0.67903555  0.91787744  1
  Ni  Ni1  1  0.71269264  0.03365809  0.91787744  1
  Ni  Ni2  1  0.32096445  0.28730736  0.91787744  1
  Ni  Ni3  1  0.96634191  0.28730736  0.41787744  1
  Ni  Ni4  1  0.32096445  0.03365809  0.41787744  1
  Ni  Ni5  1  0.71269264  0.67903555  0.41787744  1
  Ni  Ni6  1  -0.00000000  -0.00000000  0.49349013  1
  Ni  Ni7  1  -0.00000000  -0.00000000  0.99349013  1
  Ni  Ni8  1  0.66666700  0.33333300  0.82980278  1
  Ni  Ni9  1  0.66666700  0.33333300  0.32980278  1
  Ni  Ni10  1  0.33333300  0.66666700  0.16321514  1
  Ni  Ni11  1  0.33333300  0.66666700  0.66321514  1
  Cu  Cu12  1  -0.00000000  -0.00000000  0.35119229  1
  Cu  Cu13  1  -0.00000000  -0.00000000  0.85119229  1
  Cu  Cu14  1  0.66666700  0.33333300  0.68162211  1
  Cu  Cu15  1  0.66666700  0.33333300  0.18162211  1
  C  C16  1  -0.00000000  -0.00000000  0.63841058  1
  C  C17  1  -0.00000000  -0.00000000  0.13841058  1
  C  C18  1  0.66666700  0.33333300  0.98391327  1
  C  C19  1  0.66666700  0.33333300  0.48391327  1
  C  C20  1  0.33333300  0.66666700  0.02191008  1
  C  C21  1  0.33333300  0.66666700  0.52191008  1
  C  C22  1  0.33333300  0.66666700  0.31666296  1
  C  C23  1  0.33333300  0.66666700  0.81666296  1
  C  C24  1  0.96244142  0.33850365  0.58433292  1
  C  C25  1  0.37606323  0.03755858  0.58433292  1
  C  C26  1  0.66149635  0.62393677  0.58433292  1
  C  C27  1  0.96244142  0.62393677  0.08433292  1
  C  C28  1  0.66149635  0.03755858  0.08433292  1
  C  C29  1  0.37606323  0.33850365  0.08433292  1
  C  C30  1  0.61762159  0.65742031  0.91837168  1
  C  C31  1  0.03979772  0.38237841  0.91837168  1
  C  C32  1  0.34257969  0.96020228  0.91837168  1
  C  C33  1  0.61762159  0.96020228  0.41837168  1
  C  C34  1  0.34257969  0.38237841  0.41837168  1
  C  C35  1  0.03979772  0.65742031  0.41837168  1
  C  C36  1  0.29208738  0.99025532  0.25066021  1
  C  C37  1  0.69816793  0.70791262  0.25066021  1
  C  C38  1  0.00974468  0.30183207  0.25066021  1
  C  C39  1  0.29208738  0.30183207  0.75066021  1
  C  C40  1  0.00974468  0.70791262  0.75066021  1
  C  C41  1  0.69816793  0.99025532  0.75066021  1
  C  C42  1  0.21625563  0.00236853  0.30592659  1
  C  C43  1  0.78611290  0.78374437  0.30592659  1
  C  C44  1  0.99763147  0.21388710  0.30592659  1
  C  C45  1  0.21625563  0.21388710  0.80592659  1
  C  C46  1  0.99763147  0.78374437  0.80592659  1
  C  C47  1  0.78611290  0.00236853  0.80592659  1
  C  C48  1  0.79463392  0.97582181  0.70002225  1
  C  C49  1  0.18118789  0.20536608  0.70002225  1
  C  C50  1  0.02417819  0.81881211  0.70002225  1
  C  C51  1  0.79463392  0.81881211  0.20002225  1
  C  C52  1  0.02417819  0.20536608  0.20002225  1
  C  C53  1  0.18118789  0.97582181  0.20002225  1
  C  C54  1  0.89965523  0.37846163  0.64186862  1
  C  C55  1  0.47880740  0.10034477  0.64186862  1
  C  C56  1  0.62153837  0.52119260  0.64186862  1
  C  C57  1  0.89965523  0.52119260  0.14186862  1
  C  C58  1  0.62153837  0.10034477  0.14186862  1
  C  C59  1  0.47880740  0.37846163  0.14186862  1
  C  C60  1  0.46614871  0.30191488  0.02560958  1
  C  C61  1  0.83576717  0.53385129  0.02560958  1
  C  C62  1  0.69808512  0.16423283  0.02560958  1
  C  C63  1  0.46614871  0.16423283  0.52560958  1
  C  C64  1  0.69808512  0.53385129  0.52560958  1
  C  C65  1  0.83576717  0.30191488  0.52560958  1
  C  C66  1  0.51553847  0.67988732  0.97121612  1
  C  C67  1  0.16434785  0.48446153  0.97121612  1
  C  C68  1  0.32011268  0.83565215  0.97121612  1
  C  C69  1  0.51553847  0.83565215  0.47121612  1
  C  C70  1  0.32011268  0.48446153  0.47121612  1
  C  C71  1  0.16434785  0.67988732  0.47121612  1
  C  C72  1  0.13959237  0.63360171  0.35908935  1
  C  C73  1  0.49400834  0.86040763  0.35908935  1
  C  C74  1  0.36639829  0.50599166  0.35908935  1
  C  C75  1  0.13959237  0.50599166  0.85908935  1
  C  C76  1  0.36639829  0.86040763  0.85908935  1
  C  C77  1  0.49400834  0.63360171  0.85908935  1
  C  C78  1  0.01818485  0.82116058  0.41550081  1
  C  C79  1  0.80297573  0.98181515  0.41550081  1
  C  C80  1  0.17883942  0.19702427  0.41550081  1
  C  C81  1  0.01818485  0.19702427  0.91550081  1
  C  C82  1  0.17883942  0.98181515  0.91550081  1
  C  C83  1  0.80297573  0.82116058  0.91550081  1
  C  C84  1  0.97652049  0.16005455  0.59279523  1
  C  C85  1  0.18353406  0.02347951  0.59279523  1
  C  C86  1  0.83994545  0.81646594  0.59279523  1
  C  C87  1  0.97652049  0.81646594  0.09279523  1
  C  C88  1  0.83994545  0.02347951  0.09279523  1
  C  C89  1  0.18353406  0.16005455  0.09279523  1
  C  C90  1  0.67351606  0.13596701  0.74697450  1
  C  C91  1  0.46245196  0.32648394  0.74697450  1
  C  C92  1  0.86403299  0.53754804  0.74697450  1
  C  C93  1  0.67351606  0.53754804  0.24697450  1
  C  C94  1  0.86403299  0.32648394  0.24697450  1
  C  C95  1  0.46245196  0.13596701  0.24697450  1
  C  C96  1  0.62391085  0.48052475  0.92191856  1
  C  C97  1  0.85661490  0.37608915  0.92191856  1
  C  C98  1  0.51947525  0.14338510  0.92191856  1
  C  C99  1  0.62391085  0.14338510  0.42191856  1
  C  C100  1  0.51947525  0.37608915  0.42191856  1
  C  C101  1  0.85661490  0.48052475  0.42191856  1
  C  C102  1  0.33393208  0.48747507  0.06889799  1
  C  C103  1  0.15354199  0.66606792  0.06889799  1
  C  C104  1  0.51252493  0.84645801  0.06889799  1
  C  C105  1  0.33393208  0.84645801  0.56889799  1
  C  C106  1  0.51252493  0.66606792  0.56889799  1
  C  C107  1  0.15354199  0.48747507  0.56889799  1
  C  C108  1  0.29973358  0.82664885  0.25219872  1
  C  C109  1  0.52691428  0.70026642  0.25219872  1
  C  C110  1  0.17335115  0.47308572  0.25219872  1
  C  C111  1  0.29973358  0.47308572  0.75219872  1
  C  C112  1  0.17335115  0.70026642  0.75219872  1
  C  C113  1  0.52691428  0.82664885  0.75219872  1
