# generated using pymatgen
data_Cu8Ni9C61
_symmetry_space_group_name_H-M   'P 1'
_cell_length_a   17.31444209
_cell_length_b   8.66451526
_cell_length_c   21.62692011
_cell_angle_alpha   90.27589978
_cell_angle_beta   90.11950943
_cell_angle_gamma   119.91910256
_symmetry_Int_Tables_number   1
_chemical_formula_structural   Cu8Ni9C61
_chemical_formula_sum   'Cu24 Ni27 C183'
_cell_volume   2812.03469007
_cell_formula_units_Z   3
loop_
 _symmetry_equiv_pos_site_id
 _symmetry_equiv_pos_as_xyz
  1  'x, y, z'
loop_
 _atom_site_type_symbol
 _atom_site_label
 _atom_site_symmetry_multiplicity
 _atom_site_fract_x
 _atom_site_fract_y
 _atom_site_fract_z
 _atom_site_occupancy
  C  C0  1  0.31880974  0.00168520  0.24894589  1
  C  C1  1  0.81884086  0.00229139  0.24947208  1
  C  C2  1  0.18375758  0.99193774  0.74663958  1
  C  C3  1  0.68278491  0.99829051  0.74596305  1
  C  C4  1  0.01734766  0.69905113  0.57944156  1
  C  C5  1  0.51727451  0.69988911  0.57912433  1
  C  C6  1  0.01743233  0.33266364  0.07923369  1
  C  C7  1  0.51627794  0.33177457  0.07973906  1
  C  C8  1  0.48283592  0.66437053  0.91555516  1
  C  C9  1  0.34937369  0.03277006  0.91563382  1
  C  C10  1  0.85204043  0.03898235  0.91256026  1
  C  C11  1  0.16398240  0.30270929  0.91942196  1
  C  C12  1  0.48316426  0.30097972  0.41546758  1
  C  C13  1  0.98323251  0.30121894  0.41551378  1
  C  C14  1  0.16601738  0.03378503  0.41789461  1
  C  C15  1  0.66604882  0.03398124  0.41783681  1
  C  C16  1  0.35066797  0.66714209  0.41606691  1
  C  C17  1  0.85075581  0.66703599  0.41602527  1
  C  C18  1  0.00028034  0.00641440  0.50258033  1
  C  C19  1  0.50014763  0.00600704  0.50238823  1
  C  C20  1  0.00379583  0.98781077  0.00221337  1
  C  C21  1  0.50618942  0.00624956  0.00025460  1
  C  C22  1  0.34118552  0.34091139  0.83094191  1
  C  C23  1  0.84336887  0.35304972  0.83282319  1
  C  C24  1  0.33767572  0.35290419  0.33043849  1
  C  C25  1  0.83758889  0.35277254  0.33025911  1
  C  C26  1  0.17094496  0.66005516  0.16614459  1
  C  C27  1  0.67114824  0.65828521  0.16743285  1
  C  C28  1  0.17587024  0.66764325  0.66711319  1
  C  C29  1  0.67581893  0.66449368  0.66574721  1
  Ni  Ni30  1  0.35785776  0.71136969  0.24881779  1
  Ni  Ni31  1  0.85770619  0.71092272  0.24914814  1
  Ni  Ni32  1  0.00236567  0.29957149  0.25036068  1
  Ni  Ni33  1  0.50240368  0.29961114  0.25047770  1
  Ni  Ni34  1  0.99757881  0.70178107  0.75153874  1
  Ni  Ni35  1  0.49529953  0.70365559  0.75029309  1
  Ni  Ni36  1  0.35814697  0.99843844  0.74970283  1
  Ni  Ni37  1  0.85738206  0.99700183  0.75003930  1
  Ni  Ni38  1  0.18884555  0.04825435  0.58460030  1
  Ni  Ni39  1  0.68935846  0.04922232  0.58487074  1
  Ni  Ni40  1  0.32714652  0.61057370  0.58372827  1
  Ni  Ni41  1  0.82705498  0.61032531  0.58367368  1
  Ni  Ni42  1  0.32688466  0.04132623  0.08372132  1
  Ni  Ni43  1  0.82828577  0.03772959  0.08470732  1
  Ni  Ni44  1  0.18969034  0.33024299  0.08413490  1
  Ni  Ni45  1  0.69116746  0.33081737  0.08364522  1
  Ni  Ni46  1  0.30891465  0.66299095  0.91548552  1
  Ni  Ni47  1  0.02267582  0.38909822  0.91721124  1
  Ni  Ni48  1  0.52782614  0.38226468  0.91671883  1
  Ni  Ni49  1  0.15968492  0.94195659  0.91731952  1
  Ni  Ni50  1  0.66625271  0.95592116  0.91722805  1
  Ni  Ni51  1  0.30889268  0.95423270  0.41506147  1
  Ni  Ni52  1  0.80894229  0.95443301  0.41507987  1
  Ni  Ni53  1  0.16501959  0.38196505  0.41759902  1
  Ni  Ni54  1  0.66506919  0.38192221  0.41758738  1
  Ni  Ni55  1  0.02594409  0.66636416  0.41697125  1
  Ni  Ni56  1  0.52588434  0.66633574  0.41697755  1
  Cu  Cu57  1  0.99353528  0.99568979  0.35460911  1
  Cu  Cu58  1  0.49363968  0.99545153  0.35447869  1
  Cu  Cu59  1  0.99810273  0.99758333  0.85300103  1
  Cu  Cu60  1  0.49499549  0.99427991  0.85670657  1
  Cu  Cu61  1  0.99346676  0.96747345  0.64632284  1
  Cu  Cu62  1  0.49365821  0.97225083  0.64532659  1
  Cu  Cu63  1  0.99609306  0.01808838  0.14628743  1
  Cu  Cu64  1  0.49556339  0.01968474  0.14541636  1
  Cu  Cu65  1  0.33419666  0.33085729  0.68733796  1
  Cu  Cu66  1  0.83407202  0.33230509  0.68815653  1
  Cu  Cu67  1  0.33306542  0.33939583  0.18734379  1
  Cu  Cu68  1  0.83361541  0.34036863  0.18698566  1
  Cu  Cu69  1  0.32552784  0.31538016  0.97611376  1
  Cu  Cu70  1  0.82908937  0.31208686  0.98070718  1
  Cu  Cu71  1  0.32751132  0.33488116  0.47785192  1
  Cu  Cu72  1  0.82781568  0.33504669  0.47791868  1
  Cu  Cu73  1  0.17490614  0.67113074  0.01923357  1
  Cu  Cu74  1  0.66843057  0.66551808  0.02124346  1
  Cu  Cu75  1  0.17540262  0.67987439  0.51959069  1
  Cu  Cu76  1  0.67542188  0.68009311  0.51937115  1
  Cu  Cu77  1  0.16846478  0.65188912  0.31380298  1
  Cu  Cu78  1  0.66848690  0.65221605  0.31393084  1
  Cu  Cu79  1  0.16671847  0.67362827  0.81470436  1
  Cu  Cu80  1  0.66314936  0.68159327  0.81081314  1
  C  C81  1  0.14089350  -0.00032814  0.24948753  1
  C  C82  1  0.64093106  0.00008770  0.24930716  1
  C  C83  1  0.14200872  0.28958964  0.74885230  1
  C  C84  1  0.64216984  0.29069750  0.75091232  1
  C  C85  1  0.47747503  0.32720418  0.58361654  1
  C  C86  1  0.97712136  0.32628227  0.58392355  1
  C  C87  1  0.47795725  0.62847022  0.08379736  1
  C  C88  1  0.97564434  0.62386285  0.08367276  1
  C  C89  1  0.80978208  0.66127117  0.91631692  1
  C  C90  1  0.10250947  0.02559631  0.30768150  1
  C  C91  1  0.60247435  0.02550425  0.30764791  1
  C  C92  1  0.41555645  0.79172462  0.31320183  1
  C  C93  1  0.91559058  0.79211771  0.31337035  1
  C  C94  1  0.47958886  0.16507545  0.30995843  1
  C  C95  1  0.97936911  0.16524872  0.31000197  1
  C  C96  1  0.10478148  0.18314673  0.80729117  1
  C  C97  1  0.60269861  0.17556887  0.80583096  1
  C  C98  1  0.48362472  0.79826626  0.81179040  1
  C  C99  1  0.98171975  0.80378225  0.80948149  1
  C  C100  1  0.41740156  0.03947274  0.81291132  1
  C  C101  1  0.91482202  0.03365676  0.81417856  1
  C  C102  1  0.40701032  0.97322852  0.68928662  1
  C  C103  1  0.90645129  0.97021585  0.69043267  1
  C  C104  1  0.08747619  0.20040718  0.69421921  1
  C  C105  1  0.59006543  0.21402698  0.69391945  1
  C  C106  1  0.02441928  0.82826411  0.68914782  1
  C  C107  1  0.52354232  0.83306143  0.68928504  1
  C  C108  1  0.40569415  0.84960724  0.19132499  1
  C  C109  1  0.90546729  0.84894544  0.19175045  1
  C  C110  1  0.02080406  0.21863054  0.18730398  1
  C  C111  1  0.52120334  0.21989930  0.18709974  1
  C  C112  1  0.08652499  0.97806223  0.19425230  1
  C  C113  1  0.58645376  0.97872958  0.19412690  1
  C  C114  1  0.43591527  0.36083170  0.63850445  1
  C  C115  1  0.93528403  0.36027966  0.63869695  1
  C  C116  1  0.24919572  0.13200126  0.64667046  1
  C  C117  1  0.74942399  0.13247368  0.64717698  1
  C  C118  1  0.31704581  0.48966620  0.64313403  1
  C  C119  1  0.81672413  0.48988691  0.64326231  1
  C  C120  1  0.43802807  0.51021097  0.13814521  1
  C  C121  1  0.93706503  0.50732540  0.13923736  1
  C  C122  1  0.31751761  0.13678652  0.14653629  1
  C  C123  1  0.81512742  0.13168828  0.14625252  1
  C  C124  1  0.25447352  0.37192179  0.14338991  1
  C  C125  1  0.75377579  0.37200165  0.14414238  1
  C  C126  1  0.23129407  0.29968203  0.02026318  1
  C  C127  1  0.73716874  0.30282781  0.02199550  1
  C  C128  1  0.42663106  0.55230842  0.02599833  1
  C  C129  1  0.92037730  0.54433515  0.02745938  1
  C  C130  1  0.35430578  0.17497779  0.02323553  1
  C  C131  1  0.85668090  0.16759992  0.02372595  1
  C  C132  1  0.23223485  0.16429231  0.52195604  1
  C  C133  1  0.73253028  0.16470836  0.52215330  1
  C  C134  1  0.35476082  0.53608799  0.52189765  1
  C  C135  1  0.85471467  0.53648571  0.52178569  1
  C  C136  1  0.42485883  0.29901643  0.52584423  1
  C  C137  1  0.92463879  0.29860217  0.52592447  1
  C  C138  1  0.27256948  0.71842815  0.97598189  1
  C  C139  1  0.77202932  0.70069948  0.97242885  1
  C  C140  1  0.08644787  0.46286734  0.97898507  1
  C  C141  1  0.58400045  0.46591693  0.98081081  1
  C  C142  1  0.14277399  0.81843997  0.97674092  1
  C  C143  1  0.64562587  0.81845964  0.97436307  1
  C  C144  1  0.27162697  0.82251248  0.47409105  1
  C  C145  1  0.77165211  0.82269573  0.47408372  1
  C  C146  1  0.13852692  0.46458303  0.47595088  1
  C  C147  1  0.63851445  0.46466505  0.47590327  1
  C  C148  1  0.08708287  0.71242348  0.47989644  1
  C  C149  1  0.58706753  0.71262122  0.47993407  1
  C  C150  1  0.06934974  0.61820432  0.35878933  1
  C  C151  1  0.56934170  0.61818321  0.35885042  1
  C  C152  1  0.24485967  0.87665770  0.35372059  1
  C  C153  1  0.74487308  0.87674652  0.35376767  1
  C  C154  1  0.19704180  0.51256885  0.35791023  1
  C  C155  1  0.69702314  0.51266624  0.35793300  1
  C  C156  1  0.06699104  0.50593802  0.85624052  1
  C  C157  1  0.57310877  0.51977066  0.85893940  1
  C  C158  1  0.18870160  0.87682098  0.85496805  1
  C  C159  1  0.69379233  0.88345347  0.85484223  1
  C  C160  1  0.24180937  0.61143143  0.85650078  1
  C  C161  1  0.75623272  0.63360030  0.86024198  1
  C  C162  1  0.01525229  0.84424047  0.41036439  1
  C  C163  1  0.51524474  0.84423678  0.41037911  1
  C  C164  1  0.40852320  0.97645643  0.41134546  1
  C  C165  1  0.90850466  0.97652736  0.41144759  1
  C  C166  1  0.07885088  0.18145583  0.40804921  1
  C  C167  1  0.57886280  0.18142744  0.40807779  1
  C  C168  1  0.00888422  0.18274503  0.91096875  1
  C  C169  1  0.51461972  0.18344350  0.91087355  1
  C  C170  1  0.07637076  0.98188595  0.90943289  1
  C  C171  1  0.57688224  0.96976766  0.90942404  1
  C  C172  1  0.40769725  0.84004359  0.91146018  1
  C  C173  1  0.89914473  0.82791625  0.91362626  1
  C  C174  1  0.48736870  0.16954733  0.58928766  1
  C  C175  1  0.98686844  0.16905070  0.58988538  1
  C  C176  1  0.08836208  0.02909858  0.59048652  1
  C  C177  1  0.58894247  0.03097036  0.59058348  1
  C  C178  1  0.41914556  0.80938544  0.58724358  1
  C  C179  1  0.91877677  0.80914269  0.58757750  1
  C  C180  1  0.48816017  0.80570853  0.09107647  1
  C  C181  1  0.98481939  0.80050256  0.09073601  1
  C  C182  1  0.41924422  0.02662060  0.08674408  1
  C  C183  1  0.91961931  0.02237390  0.08778309  1
  C  C184  1  0.08981877  0.14716991  0.09027148  1
  C  C185  1  0.59059061  0.14990446  0.08950191  1
  C  C186  1  0.34193375  0.17175890  0.74366049  1
  C  C187  1  0.84042914  0.16839111  0.74453989  1
  C  C188  1  0.23111433  0.30208537  0.74698067  1
  C  C189  1  0.73210014  0.30493557  0.74798127  1
  C  C190  1  0.40725005  0.50904836  0.74295185  1
  C  C191  1  0.90796528  0.50831681  0.74351249  1
  C  C192  1  0.34718956  0.51436458  0.24300490  1
  C  C193  1  0.84699567  0.51415953  0.24336486  1
  C  C194  1  0.40833217  0.30391635  0.24375919  1
  C  C195  1  0.90813818  0.30337990  0.24324955  1
  C  C196  1  0.23163004  0.16128209  0.24783002  1
  C  C197  1  0.73162298  0.16134448  0.24778533  1
  C  C198  1  0.32240570  0.48887388  0.92309950  1
  C  C199  1  0.82121853  0.50591200  0.92271857  1
  C  C200  1  0.42710186  0.36166241  0.92228480  1
  C  C201  1  0.92284417  0.36734895  0.92503166  1
  C  C202  1  0.25054554  0.14280070  0.92102551  1
  C  C203  1  0.75663807  0.15085357  0.92198497  1
  C  C204  1  0.32217206  0.15409285  0.42389199  1
  C  C205  1  0.82209065  0.15407513  0.42388694  1
  C  C206  1  0.25315083  0.35836820  0.42246694  1
  C  C207  1  0.75316333  0.35829372  0.42255524  1
  C  C208  1  0.42607068  0.48912195  0.42343848  1
  C  C209  1  0.92607049  0.48909542  0.42338793  1
  C  C210  1  0.17303104  0.50193623  0.07862035  1
  C  C211  1  0.67444073  0.50293177  0.07761621  1
  C  C212  1  0.06349458  0.63560356  0.07980895  1
  C  C213  1  0.56707911  0.64051491  0.08111921  1
  C  C214  1  0.23720078  0.84783590  0.07906625  1
  C  C215  1  0.73983953  0.84328369  0.07617693  1
  C  C216  1  0.17419176  0.84449856  0.57917377  1
  C  C217  1  0.67415136  0.84495743  0.57939433  1
  C  C218  1  0.23784183  0.62641720  0.57788862  1
  C  C219  1  0.73794553  0.62683417  0.57764396  1
  C  C220  1  0.06445577  0.49184503  0.58126037  1
  C  C221  1  0.56475319  0.49237298  0.58110733  1
  C  C222  1  0.15132360  0.84110801  0.25122214  1
  C  C223  1  0.65121099  0.84119495  0.25106205  1
  C  C224  1  0.26144618  0.70671965  0.25459642  1
  C  C225  1  0.76139917  0.70712915  0.25475135  1
  C  C226  1  0.09087667  0.49473062  0.25542560  1
  C  C227  1  0.59087246  0.49481432  0.25554728  1
  C  C228  1  0.15053265  0.46616147  0.75210821  1
  C  C229  1  0.65363044  0.47051435  0.75756662  1
  C  C230  1  0.08889069  0.68901697  0.75646823  1
  C  C231  1  0.58753646  0.69058784  0.75354319  1
  C  C232  1  0.25869933  0.81932460  0.75481302  1
  C  C233  1  0.75776396  0.81448626  0.75553190  1
