# generated using pymatgen
data_CuNiC2
_symmetry_space_group_name_H-M   'P 1'
_cell_length_a   6.87043980
_cell_length_b   6.87043980
_cell_length_c   9.75211341
_cell_angle_alpha   76.04816378
_cell_angle_beta   76.04816378
_cell_angle_gamma   52.76865893
_symmetry_Int_Tables_number   1
_chemical_formula_structural   CuNiC2
_chemical_formula_sum   'Cu4 Ni4 C8'
_cell_volume   352.98896768
_cell_formula_units_Z   4
loop_
 _symmetry_equiv_pos_site_id
 _symmetry_equiv_pos_as_xyz
  1  'x, y, z'
loop_
 _atom_site_type_symbol
 _atom_site_label
 _atom_site_symmetry_multiplicity
 _atom_site_fract_x
 _atom_site_fract_y
 _atom_site_fract_z
 _atom_site_occupancy
  C  C0  1  0.24409200  0.85668900  0.60376300  1
  C  C1  1  0.14331100  0.75590800  0.89623700  1
  C  C2  1  0.75590800  0.14331100  0.39623700  1
  C  C3  1  0.85668900  0.24409200  0.10376300  1
  C  C4  1  0.59433100  0.40566900  0.75000000  1
  C  C5  1  0.40566900  0.59433100  0.25000000  1
  C  C6  1  0.00000000  0.50000000  0.50000000  1
  C  C7  1  0.50000000  0.00000000  0.00000000  1
  Ni  Ni8  1  0.10917600  0.51108500  0.14056000  1
  Ni  Ni9  1  0.48891500  0.89082400  0.35944000  1
  Ni  Ni10  1  0.89082400  0.48891500  0.85944000  1
  Ni  Ni11  1  0.51108500  0.10917600  0.64056000  1
  Cu  Cu12  1  0.09560300  0.74503300  0.43928300  1
  Cu  Cu13  1  0.25496700  0.90439700  0.06071700  1
  Cu  Cu14  1  0.90439700  0.25496700  0.56071700  1
  Cu  Cu15  1  0.74503300  0.09560300  0.93928300  1
