# generated using pymatgen
data_Cu10Ni14C13
_symmetry_space_group_name_H-M   'P 1'
_cell_length_a   4.81258546
_cell_length_b   5.71602192
_cell_length_c   15.31686641
_cell_angle_alpha   89.05139906
_cell_angle_beta   90.18498079
_cell_angle_gamma   88.94637614
_symmetry_Int_Tables_number   1
_chemical_formula_structural   Cu10Ni14C13
_chemical_formula_sum   'Cu10 Ni14 C13'
_cell_volume   421.21768120
_cell_formula_units_Z   1
loop_
 _symmetry_equiv_pos_site_id
 _symmetry_equiv_pos_as_xyz
  1  'x, y, z'
loop_
 _atom_site_type_symbol
 _atom_site_label
 _atom_site_symmetry_multiplicity
 _atom_site_fract_x
 _atom_site_fract_y
 _atom_site_fract_z
 _atom_site_occupancy
  C  C0  1  0.97916800  0.61230000  0.75206200  1
  C  C1  1  0.01318500  0.14887000  0.40391900  1
  C  C2  1  0.01626600  0.84194200  0.23927800  1
  C  C3  1  0.02636900  0.18673200  0.08427300  1
  C  C4  1  0.03594900  0.14275700  0.74367300  1
  C  C5  1  0.01947200  0.83587300  0.56907300  1
  C  C6  1  0.01905700  0.86866500  0.92580500  1
  C  C7  1  0.49361100  0.35258200  0.58932400  1
  C  C8  1  0.49363700  0.33743800  0.92541200  1
  C  C9  1  0.50150500  0.34435100  0.25505400  1
  C  C10  1  0.50854500  0.64223900  0.09617800  1
  C  C11  1  0.51565300  0.64738900  0.42156700  1
  C  C12  1  0.46954700  0.63730400  0.74820600  1
  Ni  Ni13  1  0.21910400  0.11076800  0.29726600  1
  Ni  Ni14  1  0.22208900  0.11417900  0.63618600  1
  Ni  Ni15  1  0.21293400  0.14070300  0.97652700  1
  Ni  Ni16  1  0.23123400  0.88667200  0.13550200  1
  Ni  Ni17  1  0.23670400  0.88104700  0.46265200  1
  Ni  Ni18  1  0.21710900  0.86456900  0.80199100  1
  Ni  Ni19  1  0.28997900  0.40651300  0.14814300  1
  Ni  Ni20  1  0.22614500  0.62317700  0.64302900  1
  Ni  Ni21  1  0.26400600  0.39559500  0.81056800  1
  Ni  Ni22  1  0.72721500  0.39760300  0.02983900  1
  Ni  Ni23  1  0.72690400  0.61733000  0.19648900  1
  Ni  Ni24  1  0.71865400  0.37313700  0.36194400  1
  Ni  Ni25  1  0.71226600  0.60432400  0.53100500  1
  Ni  Ni26  1  0.71925800  0.39066300  0.70080900  1
  Cu  Cu27  1  0.26602700  0.61365000  0.31790500  1
  Cu  Cu28  1  0.26142500  0.37206400  0.47994300  1
  Cu  Cu29  1  0.28494900  0.63016600  0.98461000  1
  Cu  Cu30  1  0.74534100  0.62468800  0.86113100  1
  Cu  Cu31  1  0.77580900  0.12941800  0.18331800  1
  Cu  Cu32  1  0.78082700  0.09749400  0.51752900  1
  Cu  Cu33  1  0.77201800  0.87281300  0.34499900  1
  Cu  Cu34  1  0.74098500  0.88030700  0.02968900  1
  Cu  Cu35  1  0.77907500  0.12481200  0.85275500  1
  Cu  Cu36  1  0.75020000  0.86891200  0.69651200  1
