# generated using pymatgen
data_Cu3NiC9
_symmetry_space_group_name_H-M   'P 1'
_cell_length_a   3.18987700
_cell_length_b   3.18988213
_cell_length_c   43.86906100
_cell_angle_alpha   90.00015652
_cell_angle_beta   90.00093491
_cell_angle_gamma   120.00003455
_symmetry_Int_Tables_number   1
_chemical_formula_structural   Cu3NiC9
_chemical_formula_sum   'Cu3 Ni1 C9'
_cell_volume   386.57822909
_cell_formula_units_Z   1
loop_
 _symmetry_equiv_pos_site_id
 _symmetry_equiv_pos_as_xyz
  1  'x, y, z'
loop_
 _atom_site_type_symbol
 _atom_site_label
 _atom_site_symmetry_multiplicity
 _atom_site_fract_x
 _atom_site_fract_y
 _atom_site_fract_z
 _atom_site_occupancy
  C  C0  1  0.00000100  0.99998300  0.18440900  1
  Ni  Ni1  1  0.33333200  0.66666100  0.08615600  1
  Cu  Cu2  1  0.33332200  0.66662700  0.46973400  1
  Cu  Cu3  1  0.66669200  0.33341100  0.28993300  1
  Cu  Cu4  1  0.66665800  0.33331100  0.65784200  1
  C  C5  1  0.33336700  0.66675000  0.32578200  1
  C  C6  1  0.33333800  0.66665600  0.69368900  1
  C  C7  1  0.66665100  0.33331400  0.05061200  1
  C  C8  1  0.66663800  0.33328600  0.43390900  1
  C  C9  1  0.66668000  0.33334100  0.12226500  1
  C  C10  1  0.66667000  0.33330800  0.50562300  1
  C  C11  1  0.33334100  0.66672700  0.25383700  1
  C  C12  1  0.33330800  0.66662700  0.62199600  1
