# generated using pymatgen
data_Cu4NiC3
_symmetry_space_group_name_H-M   'P 1'
_cell_length_a   7.01933500
_cell_length_b   7.01933500
_cell_length_c   7.15256600
_cell_angle_alpha   90.00000000
_cell_angle_beta   90.00000000
_cell_angle_gamma   90.00000000
_symmetry_Int_Tables_number   1
_chemical_formula_structural   Cu4NiC3
_chemical_formula_sum   'Cu8 Ni2 C6'
_cell_volume   352.41453602
_cell_formula_units_Z   2
loop_
 _symmetry_equiv_pos_site_id
 _symmetry_equiv_pos_as_xyz
  1  'x, y, z'
loop_
 _atom_site_type_symbol
 _atom_site_label
 _atom_site_symmetry_multiplicity
 _atom_site_fract_x
 _atom_site_fract_y
 _atom_site_fract_z
 _atom_site_occupancy
  C  C0  1  0.00000000  0.50000000  0.42070500  1
  C  C1  1  0.50000000  0.00000000  0.57929500  1
  C  C2  1  0.50000000  0.00000000  0.07929500  1
  C  C3  1  0.00000000  0.50000000  0.92070500  1
  C  C4  1  0.00000000  0.00000000  0.00000000  1
  C  C5  1  0.50000000  0.50000000  0.50000000  1
  Ni  Ni6  1  0.00000000  0.00000000  0.50000000  1
  Ni  Ni7  1  0.50000000  0.50000000  0.00000000  1
  Cu  Cu8  1  0.31169300  0.34857100  0.16536700  1
  Cu  Cu9  1  0.34857100  0.68830700  0.83463300  1
  Cu  Cu10  1  0.65142900  0.31169300  0.83463300  1
  Cu  Cu11  1  0.81169300  0.15142900  0.33463300  1
  Cu  Cu12  1  0.18830700  0.84857100  0.33463300  1
  Cu  Cu13  1  0.68830700  0.65142900  0.16536700  1
  Cu  Cu14  1  0.15142900  0.18830700  0.66536700  1
  Cu  Cu15  1  0.84857100  0.81169300  0.66536700  1
