# generated using pymatgen
data_Cu2NiC5
_symmetry_space_group_name_H-M   'P 1'
_cell_length_a   3.39128646
_cell_length_b   3.39128646
_cell_length_c   11.31617048
_cell_angle_alpha   81.38654806
_cell_angle_beta   81.38654806
_cell_angle_gamma   59.98135840
_symmetry_Int_Tables_number   1
_chemical_formula_structural   Cu2NiC5
_chemical_formula_sum   'Cu2 Ni1 C5'
_cell_volume   110.99039131
_cell_formula_units_Z   1
loop_
 _symmetry_equiv_pos_site_id
 _symmetry_equiv_pos_as_xyz
  1  'x, y, z'
loop_
 _atom_site_type_symbol
 _atom_site_label
 _atom_site_symmetry_multiplicity
 _atom_site_fract_x
 _atom_site_fract_y
 _atom_site_fract_z
 _atom_site_occupancy
  C  C0  1  0.00794342  0.00794342  0.97404949  1
  Ni  Ni1  1  0.59076010  0.59076010  0.22917169  1
  Cu  Cu2  1  0.18472248  0.18472248  0.44450050  1
  Cu  Cu3  1  0.77140010  0.77140010  0.68560100  1
  C  C4  1  0.30352167  0.30352167  0.08718633  1
  C  C5  1  0.70671607  0.70671607  0.87773608  1
  C  C6  1  0.12331514  0.12331514  0.62961882  1
  C  C7  1  0.90090701  0.90090701  0.29869809  1
