# generated using pymatgen
data_Cu2NiC18
_symmetry_space_group_name_H-M   'P 1'
_cell_length_a   9.58085051
_cell_length_b   9.58297145
_cell_length_c   22.99957504
_cell_angle_alpha   90.00942850
_cell_angle_beta   90.00000000
_cell_angle_gamma   119.99267897
_symmetry_Int_Tables_number   1
_chemical_formula_structural   Cu2NiC18
_chemical_formula_sum   'Cu12 Ni6 C108'
_cell_volume   1828.88638813
_cell_formula_units_Z   6
loop_
 _symmetry_equiv_pos_site_id
 _symmetry_equiv_pos_as_xyz
  1  'x, y, z'
loop_
 _atom_site_type_symbol
 _atom_site_label
 _atom_site_symmetry_multiplicity
 _atom_site_fract_x
 _atom_site_fract_y
 _atom_site_fract_z
 _atom_site_occupancy
  C  C0  1  0.61225962  0.99532141  0.26066355  1
  C  C1  1  0.36115845  0.33370495  0.25399907  1
  C  C2  1  0.01769264  0.65751225  0.23418114  1
  C  C3  1  0.63981961  0.65751225  0.73418114  1
  C  C4  1  0.97254650  0.33370495  0.75399907  1
  C  C5  1  0.38306179  0.99532141  0.76066355  1
  C  C6  1  0.32918868  0.35745081  0.58729551  1
  C  C7  1  0.00457900  0.69451989  0.57915379  1
  C  C8  1  0.66759079  0.94645718  0.58317281  1
  C  C9  1  0.27886739  0.94645718  0.08317281  1
  C  C10  1  0.68994189  0.69451989  0.07915379  1
  C  C11  1  0.02826313  0.35745081  0.08729551  1
  C  C12  1  0.99334916  0.68653203  0.93236495  1
  C  C13  1  0.67321970  0.02740152  0.90104765  1
  C  C14  1  0.33244514  0.28244261  0.91652633  1
  C  C15  1  0.94999646  0.28244261  0.41652633  1
  C  C16  1  0.35418082  0.02740152  0.40104765  1
  C  C17  1  0.69318187  0.68653203  0.43236495  1
  C  C18  1  0.96105535  0.98006143  0.49961800  1
  C  C19  1  0.01900607  0.98006143  0.99961800  1
  C  C20  1  0.64892217  0.29632508  0.83336270  1
  C  C21  1  0.64740391  0.29632508  0.33336270  1
  C  C22  1  0.31406099  0.68668397  0.16676149  1
  C  C23  1  0.37262198  0.68668397  0.66676149  1
  C  C24  1  0.00283831  0.99637128  0.34704387  1
  C  C25  1  0.99353297  0.99637128  0.84704387  1
  C  C26  1  0.98721716  0.99314400  0.65277646  1
  C  C27  1  0.00592684  0.99314400  0.15277646  1
  C  C28  1  0.66424185  0.33198144  0.68039899  1
  C  C29  1  0.66774059  0.33198144  0.18039899  1
  C  C30  1  0.66818806  0.33245915  0.98609833  1
  C  C31  1  0.66427209  0.33245915  0.48609833  1
  C  C32  1  0.32805954  0.67778992  0.01371591  1
  C  C33  1  0.34972938  0.67778992  0.51371591  1
  C  C34  1  0.33994028  0.68022347  0.31963002  1
  C  C35  1  0.34028219  0.68022347  0.81963002  1
  Ni  Ni36  1  0.31144836  0.00103914  0.25063176  1
  Ni  Ni37  1  0.68959078  0.00103914  0.75063176  1
  Ni  Ni38  1  0.66647800  0.64031769  0.58328647  1
  Ni  Ni39  1  0.97384068  0.64031769  0.08328647  1
  Ni  Ni40  1  0.33254583  0.98062168  0.91634807  1
  Ni  Ni41  1  0.64807485  0.98062168  0.41634807  1
  Cu  Cu42  1  0.69224785  0.69169074  0.25000853  1
  Cu  Cu43  1  0.00110189  0.30411188  0.24991830  1
  Cu  Cu44  1  0.30300999  0.30411188  0.74991830  1
  Cu  Cu45  1  -0.00055711  0.69169074  0.75000853  1
  Cu  Cu46  1  0.97584123  0.33760749  0.58316122  1
  Cu  Cu47  1  0.35764499  0.02859357  0.58328147  1
  Cu  Cu48  1  0.67094958  0.02859357  0.08328147  1
  Cu  Cu49  1  0.36176726  0.33760749  0.08316122  1
  Cu  Cu50  1  0.63567081  0.66304078  0.91777018  1
  Cu  Cu51  1  0.03076508  0.36086628  0.91601420  1
  Cu  Cu52  1  0.33010019  0.36086628  0.41601420  1
  Cu  Cu53  1  0.02736897  0.66304078  0.41777018  1
  C  C54  1  0.22821269  0.02260440  0.31010373  1
  C  C55  1  0.78906131  0.77523571  0.30183365  1
  C  C56  1  0.98661271  0.20632606  0.30177889  1
  C  C57  1  0.21971335  0.20632606  0.80177889  1
  C  C58  1  0.98617440  0.77523571  0.80183365  1
  C  C59  1  0.79439170  0.02260440  0.81010373  1
  C  C60  1  0.78395667  0.98866776  0.69301529  1
  C  C61  1  0.21176937  0.22326662  0.69620305  1
  C  C62  1  0.02323245  0.79118235  0.69723631  1
  C  C63  1  0.76794990  0.79118235  0.19723631  1
  C  C64  1  0.01149725  0.22326662  0.19620305  1
  C  C65  1  0.20471109  0.98866776  0.19301529  1
  C  C66  1  0.89435038  0.34949078  0.63609510  1
  C  C67  1  0.45811727  0.10500300  0.63538604  1
  C  C68  1  0.65147894  0.53582175  0.64198252  1
  C  C69  1  0.88434380  0.53582175  0.14198252  1
  C  C70  1  0.64688673  0.10500300  0.13538604  1
  C  C71  1  0.45514140  0.34949078  0.13609510  1
  C  C72  1  0.43860142  0.31368546  0.03120926  1
  C  C73  1  0.87001783  0.55068862  0.02453191  1
  C  C74  1  0.68311367  0.12185951  0.03068397  1
  C  C75  1  0.43874684  0.12185951  0.53068397  1
  C  C76  1  0.68067179  0.55068862  0.52453191  1
  C  C77  1  0.87508504  0.31368546  0.53120926  1
  C  C78  1  0.55493441  0.67570029  0.97118771  1
  C  C79  1  0.12854584  0.44408778  0.96844340  1
  C  C80  1  0.31179391  0.87307542  0.97478478  1
  C  C81  1  0.56128051  0.87307542  0.47478478  1
  C  C82  1  0.31554094  0.44408778  0.46844340  1
  C  C83  1  0.12076488  0.67570029  0.47118771  1
  C  C84  1  0.11075223  0.64793981  0.36591745  1
  C  C85  1  0.53984618  0.89355298  0.35795711  1
  C  C86  1  0.34184229  0.45454014  0.36300796  1
  C  C87  1  0.11269685  0.45454014  0.86300796  1
  C  C88  1  0.35370580  0.89355298  0.85795711  1
  C  C89  1  0.53718657  0.64793981  0.86591745  1
  C  C90  1  0.01262604  0.81147397  0.41492761  1
  C  C91  1  0.83003433  0.99782657  0.41519749  1
  C  C92  1  0.18406252  0.19698060  0.41435364  1
  C  C93  1  0.01291808  0.19698060  0.91435364  1
  C  C94  1  0.16779223  0.99782657  0.91519749  1
  C  C95  1  0.79884793  0.81147397  0.91492761  1
  C  C96  1  0.00633624  0.19840730  0.58637257  1
  C  C97  1  0.19817162  0.02202825  0.58787140  1
  C  C98  1  0.83265728  0.82181496  0.58244101  1
  C  C99  1  0.98915768  0.82181496  0.08244101  1
  C  C100  1  0.82385663  0.02202825  0.08787140  1
  C  C101  1  0.19207106  0.19840730  0.08637257  1
  C  C102  1  0.66805433  0.16339749  0.74970302  1
  C  C103  1  0.46856700  0.32501813  0.74846717  1
  C  C104  1  0.84879770  0.53091418  0.74626748  1
  C  C105  1  0.68211748  0.53091418  0.24626748  1
  C  C106  1  0.85645212  0.32501813  0.24846717  1
  C  C107  1  0.49534416  0.16339749  0.24970302  1
  C  C108  1  0.65430521  0.51757495  0.91967147  1
  C  C109  1  0.86769139  0.34606924  0.91860031  1
  C  C110  1  0.49730953  0.16258115  0.91712146  1
  C  C111  1  0.66527263  0.16258115  0.41712146  1
  C  C112  1  0.47837885  0.34606924  0.41860031  1
  C  C113  1  0.86327074  0.51757495  0.41967147  1
  C  C114  1  0.35543229  0.49063200  0.07865469  1
  C  C115  1  0.15574842  0.65645049  0.08444901  1
  C  C116  1  0.53164714  0.85887987  0.08008652  1
  C  C117  1  0.32723173  0.85887987  0.58008652  1
  C  C118  1  0.50070107  0.65645049  0.58444901  1
  C  C119  1  0.13519871  0.49063200  0.57865469  1
  C  C120  1  0.32200359  0.83255693  0.24944562  1
  C  C121  1  0.52404667  0.66415368  0.25393678  1
  C  C122  1  0.15145519  0.46624018  0.25284387  1
  C  C123  1  0.31478399  0.46624018  0.75284387  1
  C  C124  1  0.14010601  0.66415368  0.75393678  1
  C  C125  1  0.51055234  0.83255693  0.74944562  1
