# generated using pymatgen
data_Cu2Ni3C32
_symmetry_space_group_name_H-M   'P 1'
_cell_length_a   17.59047099
_cell_length_b   8.78661302
_cell_length_c   22.64163209
_cell_angle_alpha   90.22493537
_cell_angle_beta   89.42437696
_cell_angle_gamma   119.86528613
_symmetry_Int_Tables_number   1
_chemical_formula_structural   Cu2Ni3C32
_chemical_formula_sum   'Cu12 Ni18 C192'
_cell_volume   3034.61092527
_cell_formula_units_Z   6
loop_
 _symmetry_equiv_pos_site_id
 _symmetry_equiv_pos_as_xyz
  1  'x, y, z'
loop_
 _atom_site_type_symbol
 _atom_site_label
 _atom_site_symmetry_multiplicity
 _atom_site_fract_x
 _atom_site_fract_y
 _atom_site_fract_z
 _atom_site_occupancy
  Ni  Ni0  1  0.00386739  0.63957508  0.25479383  1
  Ni  Ni1  1  0.50211265  0.36793744  0.74315060  1
  Ni  Ni2  1  0.16280693  0.30540009  0.91127958  1
  Ni  Ni3  1  0.66229722  0.30162457  0.91094039  1
  Ni  Ni4  1  0.16357512  0.02633766  0.41732149  1
  Ni  Ni5  1  0.66165481  0.01614946  0.41678613  1
  Ni  Ni6  1  0.99291224  0.98792745  0.49844289  1
  Ni  Ni7  1  0.49163276  0.00094336  0.50074818  1
  Ni  Ni8  1  0.99306240  0.99694459  0.99527283  1
  Ni  Ni9  1  0.49256195  0.99699070  0.99581356  1
  Ni  Ni10  1  0.33318825  0.33259773  0.82977194  1
  Ni  Ni11  1  0.84010304  0.33494190  0.83269095  1
  Ni  Ni12  1  0.34080086  0.34681610  0.33639789  1
  Ni  Ni13  1  0.83094475  0.32976162  0.33494353  1
  Ni  Ni14  1  0.17555599  0.68000515  0.17096187  1
  Ni  Ni15  1  0.66515399  0.67836144  0.17101172  1
  Ni  Ni16  1  0.16901876  0.65612630  0.66911665  1
  Ni  Ni17  1  0.66594992  0.65656517  0.66548555  1
  Cu  Cu18  1  0.00389833  0.01181367  0.64873169  1
  Cu  Cu19  1  0.50537665  0.01962250  0.64660677  1
  Cu  Cu20  1  0.00671824  -0.00104975  0.14960413  1
  Cu  Cu21  1  0.50342294  0.99427164  0.14976655  1
  Cu  Cu22  1  0.82993404  0.33637551  0.69001707  1
  Cu  Cu23  1  0.33068680  0.32552797  0.19124198  1
  Cu  Cu24  1  0.16093398  0.65314392  0.01578850  1
  Cu  Cu25  1  0.66227802  0.65363268  0.01562729  1
  Cu  Cu26  1  0.16393279  0.67188302  0.51631728  1
  Cu  Cu27  1  0.65201925  0.65450219  0.52085168  1
  Cu  Cu28  1  0.65855723  0.66933624  0.31494053  1
  Cu  Cu29  1  0.15896135  0.64744666  0.81292292  1
  C  C30  1  0.00248541  0.99158831  0.35278854  1
  C  C31  1  0.50595592  0.99082411  0.34950829  1
  C  C32  1  0.00680908  0.02603075  0.84576303  1
  C  C33  1  0.50292370  0.01745782  0.84803851  1
  C  C34  1  0.32883987  0.33511458  0.68171063  1
  C  C35  1  0.82472348  0.31677915  0.18679434  1
  C  C36  1  0.34135705  0.33279819  0.97985442  1
  C  C37  1  0.83833380  0.33080667  0.98100608  1
  C  C38  1  0.35115511  0.35474783  0.48524444  1
  C  C39  1  0.84126076  0.34863730  0.48093658  1
  C  C40  1  0.16255347  0.67379425  0.31859985  1
  C  C41  1  0.65957753  0.65125306  0.81539480  1
  C  C42  1  0.14737186  0.99632297  0.25453445  1
  C  C43  1  0.65010775  0.00578883  0.25049094  1
  C  C44  1  0.15362245  0.29408681  0.74904889  1
  C  C45  1  0.64834078  0.29918825  0.75458408  1
  C  C46  1  0.47343704  0.33008415  0.58725274  1
  C  C47  1  0.01223382  0.36029362  0.91668576  1
  C  C48  1  0.51512488  0.36595438  0.91436937  1
  C  C49  1  0.01487462  0.66193511  0.41487978  1
  C  C50  1  0.51190653  0.66572147  0.41653450  1
  C  C51  1  0.35126498  0.71055413  0.25277307  1
  C  C52  1  0.85418138  0.70603543  0.24884106  1
  C  C53  1  0.00042085  0.28959665  0.25102909  1
  C  C54  1  0.50066443  0.28479519  0.25173830  1
  C  C55  1  0.00027302  0.71707691  0.75210308  1
  C  C56  1  0.50156217  0.71706722  0.75354387  1
  C  C57  1  0.35333338  0.99837952  0.75158579  1
  C  C58  1  0.85131055  0.99253379  0.75302087  1
  C  C59  1  0.97693669  0.33159030  0.58179523  1
  C  C60  1  0.18987458  0.04753964  0.58032583  1
  C  C61  1  0.69374128  0.05063860  0.58011049  1
  C  C62  1  0.33123939  0.62151341  0.58311738  1
  C  C63  1  0.83449211  0.62601964  0.58168209  1
  C  C64  1  0.47642210  0.62172851  0.08175627  1
  C  C65  1  0.97327383  0.61455234  0.08508762  1
  C  C66  1  0.33290955  0.04149536  0.08177715  1
  C  C67  1  0.83337141  0.04498380  0.08354438  1
  C  C68  1  0.19145710  0.33477610  0.08081811  1
  C  C69  1  0.69301520  0.33518644  0.08138789  1
  C  C70  1  0.31726150  0.66917363  0.91730775  1
  C  C71  1  0.81569195  0.66966500  0.91598371  1
  C  C72  1  0.16664686  0.96253342  0.91785036  1
  C  C73  1  0.66612161  0.95597922  0.91593227  1
  C  C74  1  0.31561999  0.96132894  0.41414024  1
  C  C75  1  0.81735412  0.96302855  0.41706420  1
  C  C76  1  0.16495034  0.37590559  0.41409938  1
  C  C77  1  0.66683435  0.37066751  0.41677994  1
  C  C78  1  0.10213044  0.02877277  0.31271525  1
  C  C79  1  0.60790976  0.03702298  0.31083492  1
  C  C80  1  0.40554711  0.79517273  0.30509587  1
  C  C81  1  0.90950087  0.78712969  0.30182511  1
  C  C82  1  0.48571181  0.17500807  0.30476636  1
  C  C83  1  0.98304690  0.17909870  0.30383738  1
  C  C84  1  0.11275018  0.18205097  0.81130627  1
  C  C85  1  0.60755521  0.18405225  0.81500892  1
  C  C86  1  0.48830213  0.80003470  0.80747884  1
  C  C87  1  0.98574205  0.79864369  0.80579680  1
  C  C88  1  0.40800540  0.02365481  0.80530687  1
  C  C89  1  0.90578761  0.01830403  0.80618822  1
  C  C90  1  0.39225646  0.96781810  0.69821012  1
  C  C91  1  0.88958632  0.96148097  0.69895031  1
  C  C92  1  0.08747145  0.19665339  0.69392501  1
  C  C93  1  0.58353430  0.20798503  0.69877334  1
  C  C94  1  0.00694999  0.81373871  0.69742389  1
  C  C95  1  0.51006095  0.81450824  0.69922084  1
  C  C96  1  0.38899276  0.81581847  0.19801430  1
  C  C97  1  0.89331204  0.81591281  0.19543047  1
  C  C98  1  0.00961195  0.20594425  0.19654123  1
  C  C99  1  0.50727709  0.20094677  0.19647293  1
  C  C100  1  0.08363392  0.95726733  0.19659516  1
  C  C101  1  0.58878011  0.97716233  0.19275312  1
  C  C102  1  0.42901416  0.35711080  0.64889047  1
  C  C103  1  0.93671502  0.35317900  0.63602241  1
  C  C104  1  0.24100576  0.13105580  0.63367570  1
  C  C105  1  0.74501483  0.13974978  0.63309172  1
  C  C106  1  0.31514641  0.51321702  0.63696390  1
  C  C107  1  0.82427282  0.52092949  0.63534184  1
  C  C108  1  0.43601442  0.52023125  0.13580235  1
  C  C109  1  0.93315892  0.51229482  0.14039869  1
  C  C110  1  0.32286739  0.12650762  0.13550689  1
  C  C111  1  0.82246400  0.12922744  0.13781348  1
  C  C112  1  0.24271180  0.35129832  0.13378321  1
  C  C113  1  0.74659502  0.35792380  0.13410612  1
  C  C114  1  0.23271824  0.31494809  0.02540442  1
  C  C115  1  0.73340182  0.31245516  0.02562982  1
  C  C116  1  0.42361974  0.53710876  0.02818225  1
  C  C117  1  0.92031450  0.53107398  0.03195530  1
  C  C118  1  0.34362468  0.14795809  0.02786298  1
  C  C119  1  0.84456872  0.15107840  0.02959137  1
  C  C120  1  0.22824924  0.14870285  0.52458195  1
  C  C121  1  0.73472192  0.15590734  0.52470286  1
  C  C122  1  0.33945420  0.53675778  0.52814965  1
  C  C123  1  0.84641986  0.54123076  0.52767652  1
  C  C124  1  0.41507734  0.29569946  0.52871814  1
  C  C125  1  0.92415321  0.30962030  0.52820498  1
  C  C126  1  0.27807565  0.70188159  0.97111007  1
  C  C127  1  0.77799986  0.70338167  0.97028852  1
  C  C128  1  0.07873909  0.44939649  0.97372473  1
  C  C129  1  0.58256909  0.45548211  0.97085759  1
  C  C130  1  0.15750611  0.85794506  0.97167861  1
  C  C131  1  0.65820806  0.85456186  0.96994345  1
  C  C132  1  0.27748205  0.85207887  0.46776360  1
  C  C133  1  0.78000450  0.85486205  0.47014100  1
  C  C134  1  0.15564863  0.46037319  0.46807646  1
  C  C135  1  0.65843685  0.45700730  0.47026203  1
  C  C136  1  0.08376737  0.70742192  0.46955855  1
  C  C137  1  0.57885175  0.70952205  0.47194093  1
  C  C138  1  0.05748048  0.62983506  0.35428203  1
  C  C139  1  0.55869482  0.63646593  0.35854532  1
  C  C140  1  0.25795228  0.87513688  0.36199086  1
  C  C141  1  0.76205542  0.88203960  0.36435846  1
  C  C142  1  0.18053290  0.48662243  0.36062228  1
  C  C143  1  0.68412582  0.47832842  0.36344030  1
  C  C144  1  0.06009723  0.48440782  0.85997978  1
  C  C145  1  0.56008545  0.48849616  0.85615308  1
  C  C146  1  0.18394172  0.88817862  0.86502505  1
  C  C147  1  0.68368724  0.87999761  0.86274194  1
  C  C148  1  0.26082036  0.63813358  0.86567125  1
  C  C149  1  0.75777034  0.63644331  0.86452712  1
  C  C150  1  0.00750583  0.84360225  0.41074708  1
  C  C151  1  0.50655365  0.84869077  0.41018400  1
  C  C152  1  0.40473618  0.99049698  0.40540260  1
  C  C153  1  0.90794031  0.99428945  0.40730526  1
  C  C154  1  0.08192600  0.20177722  0.41025406  1
  C  C155  1  0.58489722  0.19623685  0.41228268  1
  C  C156  1  0.00645709  0.16631946  0.90958607  1
  C  C157  1  0.50669238  0.16874713  0.91000487  1
  C  C158  1  0.08526555  0.97468672  0.91409088  1
  C  C159  1  0.58487685  0.96757347  0.91256626  1
  C  C160  1  0.40663637  0.81856924  0.90959487  1
  C  C161  1  0.90493587  0.81725422  0.90783357  1
  C  C162  1  0.48577001  0.15700773  0.58951920  1
  C  C163  1  0.98441798  0.17002586  0.58476835  1
  C  C164  1  0.09940392  0.02105489  0.58556103  1
  C  C165  1  0.60432893  0.02516186  0.58445628  1
  C  C166  1  0.41195505  0.79284518  0.58844199  1
  C  C167  1  0.91465055  0.80114573  0.58603957  1
  C  C168  1  0.48432901  0.79855056  0.08463466  1
  C  C169  1  0.98164985  0.79132325  0.08816601  1
  C  C170  1  0.41241993  0.02397740  0.08543589  1
  C  C171  1  0.91287848  0.02802447  0.08779398  1
  C  C172  1  0.10208381  0.17718493  0.08498560  1
  C  C173  1  0.60429919  0.17955251  0.08591009  1
  C  C174  1  0.34989010  0.16366045  0.74766390  1
  C  C175  1  0.84638144  0.15580283  0.74657550  1
  C  C176  1  0.25082216  0.31043440  0.74054335  1
  C  C177  1  0.74533977  0.31919956  0.74714868  1
  C  C178  1  0.42572036  0.53535493  0.75125320  1
  C  C179  1  0.92446397  0.53560812  0.74812505  1
  C  C180  1  0.34591173  0.53687899  0.24592153  1
  C  C181  1  0.85382499  0.53482498  0.24157019  1
  C  C182  1  0.42457201  0.31467613  0.24711215  1
  C  C183  1  0.92515863  0.32375733  0.24440803  1
  C  C184  1  0.24341325  0.17016285  0.24622096  1
  C  C185  1  0.74755530  0.18595707  0.24391135  1
  C  C186  1  0.31867743  0.50023671  0.92503256  1
  C  C187  1  0.81649232  0.49956488  0.92388246  1
  C  C188  1  0.41890302  0.34918902  0.92297437  1
  C  C189  1  0.91639635  0.34535817  0.92520033  1
  C  C190  1  0.24202703  0.14791981  0.92508329  1
  C  C191  1  0.74146167  0.14095721  0.92238994  1
  C  C192  1  0.31596901  0.13120603  0.42039072  1
  C  C193  1  0.82035048  0.13708838  0.42365188  1
  C  C194  1  0.23895284  0.34130750  0.41935198  1
  C  C195  1  0.74201173  0.33451487  0.42304604  1
  C  C196  1  0.41437977  0.49214380  0.42292251  1
  C  C197  1  0.91855108  0.48671786  0.42314684  1
  C  C198  1  0.18346185  0.49565151  0.07833038  1
  C  C199  1  0.68585150  0.49631632  0.07808825  1
  C  C200  1  0.06222212  0.63575770  0.07980757  1
  C  C201  1  0.56591128  0.64360247  0.07641201  1
  C  C202  1  0.25328657  0.86533805  0.07748736  1
  C  C203  1  0.75421500  0.86954219  0.07897645  1
  C  C204  1  0.18258044  0.87079890  0.57752565  1
  C  C205  1  0.69038448  0.87943499  0.57688691  1
  C  C206  1  0.25365185  0.64598427  0.57783727  1
  C  C207  1  0.75626242  0.64496560  0.57683268  1
  C  C208  1  0.06618184  0.48810412  0.57625082  1
  C  C209  1  0.57134472  0.50697275  0.58226715  1
  C  C210  1  0.15547387  0.81637552  0.25808179  1
  C  C211  1  0.66265878  0.83395632  0.25400027  1
  C  C212  1  0.26126424  0.68332011  0.25978260  1
  C  C213  1  0.76503321  0.67454853  0.25589720  1
  C  C214  1  0.08196000  0.46383964  0.25493894  1
  C  C215  1  0.58240827  0.45663996  0.25491764  1
  C  C216  1  0.16328460  0.48910616  0.75413879  1
  C  C217  1  0.65623896  0.49580062  0.75781501  1
  C  C218  1  0.08200245  0.70818751  0.75576764  1
  C  C219  1  0.58398173  0.70515913  0.75770358  1
  C  C220  1  0.26468022  0.84790205  0.75893244  1
  C  C221  1  0.76205894  0.84023151  0.76112497  1
