# generated using pymatgen
data_CuNiC5
_symmetry_space_group_name_H-M   'P 1'
_cell_length_a   3.02453127
_cell_length_b   5.60975794
_cell_length_c   5.60975794
_cell_angle_alpha   103.19550848
_cell_angle_beta   90.00000000
_cell_angle_gamma   90.00000000
_symmetry_Int_Tables_number   1
_chemical_formula_structural   CuNiC5
_chemical_formula_sum   'Cu1 Ni1 C5'
_cell_volume   92.66707638
_cell_formula_units_Z   1
loop_
 _symmetry_equiv_pos_site_id
 _symmetry_equiv_pos_as_xyz
  1  'x, y, z'
loop_
 _atom_site_type_symbol
 _atom_site_label
 _atom_site_symmetry_multiplicity
 _atom_site_fract_x
 _atom_site_fract_y
 _atom_site_fract_z
 _atom_site_occupancy
  Ni  Ni0  1  0.00000000  0.69181314  0.30818686  1
  Cu  Cu1  1  0.50000000  0.42433944  0.57566056  1
  C  C2  1  0.00000000  0.03623183  0.96376817  1
  C  C3  1  0.00000000  0.66318587  0.66931110  1
  C  C4  1  0.50000000  0.22302251  0.77697749  1
  C  C5  1  0.50000000  0.82516231  0.17483769  1
  C  C6  1  0.00000000  0.33068890  0.33681413  1
