# generated using pymatgen
data_Cu6NiC30
_symmetry_space_group_name_H-M   'P 1'
_cell_length_a   8.78961272
_cell_length_b   8.78048256
_cell_length_c   22.74377444
_cell_angle_alpha   90.02121642
_cell_angle_beta   89.98596280
_cell_angle_gamma   120.15729582
_symmetry_Int_Tables_number   1
_chemical_formula_structural   Cu6NiC30
_chemical_formula_sum   'Cu18 Ni3 C90'
_cell_volume   1517.71671321
_cell_formula_units_Z   3
loop_
 _symmetry_equiv_pos_site_id
 _symmetry_equiv_pos_as_xyz
  1  'x, y, z'
loop_
 _atom_site_type_symbol
 _atom_site_label
 _atom_site_symmetry_multiplicity
 _atom_site_fract_x
 _atom_site_fract_y
 _atom_site_fract_z
 _atom_site_occupancy
  C  C0  1  0.36594031  0.36266157  0.24747436  1
  C  C1  1  0.63856896  0.63460402  0.74793523  1
  C  C2  1  0.97169589  0.30104599  0.41412518  1
  C  C3  1  0.00069437  0.99185840  0.49764633  1
  C  C4  1  0.99983823  0.99984451  0.00132017  1
  C  C5  1  0.66722034  0.32526240  0.83212997  1
  C  C6  1  0.66743756  0.33350145  0.32850851  1
  C  C7  1  0.33265590  0.67474287  0.16515701  1
  C  C8  1  0.32562245  0.66728708  0.66536884  1
  C  C9  1  0.00086527  0.00184857  0.85238725  1
  C  C10  1  0.00166521  0.00230665  0.64534914  1
  C  C11  1  0.99775038  0.99773213  0.14638271  1
  C  C12  1  0.66665024  0.33371826  0.98113134  1
  C  C13  1  0.66119286  0.33381205  0.48075465  1
  C  C14  1  0.33352493  0.66676143  0.02338070  1
  C  C15  1  0.33414490  0.66869334  0.52102394  1
  C  C16  1  0.33457311  0.67346217  0.31217273  1
  C  C17  1  0.32816628  0.66732693  0.81378650  1
  Ni  Ni18  1  0.99884825  0.99266168  0.34885945  1
  Ni  Ni19  1  0.66738675  0.32775432  0.68431271  1
  Ni  Ni20  1  0.67344655  0.33280180  0.18512847  1
  Cu  Cu21  1  0.29140540  0.00728648  0.25075608  1
  Cu  Cu22  1  0.71760489  0.70726719  0.25147401  1
  Cu  Cu23  1  0.98780043  0.28288862  0.25177322  1
  Cu  Cu24  1  0.30090904  0.29120888  0.74824876  1
  Cu  Cu25  1  0.99340071  0.69977068  0.74765180  1
  Cu  Cu26  1  0.70895433  0.01112836  0.74821633  1
  Cu  Cu27  1  0.95005911  0.33486617  0.58545628  1
  Cu  Cu28  1  0.38369808  0.04894527  0.58667916  1
  Cu  Cu29  1  0.66488359  0.61668587  0.58701936  1
  Cu  Cu30  1  0.94989694  0.61585335  0.08668595  1
  Cu  Cu31  1  0.66652755  0.05097133  0.08676141  1
  Cu  Cu32  1  0.38370442  0.33362378  0.08730018  1
  Cu  Cu33  1  0.62388698  0.66652582  0.91635068  1
  Cu  Cu34  1  0.04176928  0.37521229  0.91751310  1
  Cu  Cu35  1  0.33288597  0.95779955  0.91735720  1
  Cu  Cu36  1  0.63400383  0.95722786  0.41547808  1
  Cu  Cu37  1  0.32656214  0.36701776  0.41408339  1
  Cu  Cu38  1  0.04277756  0.67821660  0.41534214  1
  C  C39  1  0.20231559  0.03713415  0.30478200  1
  C  C40  1  0.83016736  0.79875869  0.30561315  1
  C  C41  1  0.96790332  0.17410139  0.30790761  1
  C  C42  1  0.21329652  0.17896081  0.80342928  1
  C  C43  1  0.96054561  0.78519688  0.80257768  1
  C  C44  1  0.82145056  0.03493892  0.80352351  1
  C  C45  1  0.79257013  0.96853055  0.69549041  1
  C  C46  1  0.18016426  0.20720427  0.69494106  1
  C  C47  1  0.02610131  0.82068892  0.69449666  1
  C  C48  1  0.79436485  0.82141139  0.19627392  1
  C  C49  1  0.03099413  0.20390679  0.19792379  1
  C  C50  1  0.17739398  0.97358378  0.19573981  1
  C  C51  1  0.85909300  0.35915664  0.63876818  1
  C  C52  1  0.49806269  0.13916198  0.64021077  1
  C  C53  1  0.64089982  0.50587579  0.64217876  1
  C  C54  1  0.86003594  0.50118428  0.14042723  1
  C  C55  1  0.64079108  0.14012615  0.14051624  1
  C  C56  1  0.49492362  0.35845257  0.14259126  1
  C  C57  1  0.46436497  0.30670545  0.03070354  1
  C  C58  1  0.84387861  0.53756451  0.02951094  1
  C  C59  1  0.69414731  0.15687433  0.02957523  1
  C  C60  1  0.46234499  0.15587610  0.52968975  1
  C  C61  1  0.69305913  0.53566087  0.53074416  1
  C  C62  1  0.84675767  0.30690512  0.52731681  1
  C  C63  1  0.53585338  0.69332553  0.97031384  1
  C  C64  1  0.15566659  0.46164321  0.97178688  1
  C  C65  1  0.30546105  0.84386946  0.97165747  1
  C  C66  1  0.54546328  0.84467315  0.47077038  1
  C  C67  1  0.29527890  0.45542185  0.46868939  1
  C  C68  1  0.15575741  0.70183265  0.47076159  1
  C  C69  1  0.12605740  0.63531138  0.36256298  1
  C  C70  1  0.51354445  0.87356969  0.36214811  1
  C  C71  1  0.35891940  0.48362359  0.35945145  1
  C  C72  1  0.12726708  0.48749936  0.86191890  1
  C  C73  1  0.36046324  0.87279765  0.86180867  1
  C  C74  1  0.51561949  0.64023352  0.85944898  1
  C  C75  1  0.02342287  0.83962587  0.40570118  1
  C  C76  1  0.81922168  0.98213269  0.40687794  1
  C  C77  1  0.15821669  0.18585457  0.40640428  1
  C  C78  1  0.02368101  0.19212996  0.91045328  1
  C  C79  1  0.16804118  0.97550994  0.91000030  1
  C  C80  1  0.80772117  0.83160697  0.90998022  1
  C  C81  1  0.97211769  0.17091315  0.59065286  1
  C  C82  1  0.19770837  0.02656970  0.59081903  1
  C  C83  1  0.82903263  0.80308082  0.59087858  1
  C  C84  1  0.97289943  0.80215644  0.09086096  1
  C  C85  1  0.82952464  0.02805931  0.09122174  1
  C  C86  1  0.19697505  0.17053413  0.09110723  1
  C  C87  1  0.68929821  0.17245434  0.73939917  1
  C  C88  1  0.48630353  0.31639411  0.74019517  1
  C  C89  1  0.82521908  0.51873287  0.73972820  1
  C  C90  1  0.68853101  0.51880418  0.24300268  1
  C  C91  1  0.82778694  0.30580481  0.24204727  1
  C  C92  1  0.47500552  0.17442548  0.24269792  1
  C  C93  1  0.64242036  0.50187149  0.92186796  1
  C  C94  1  0.85853617  0.35627504  0.92216381  1
  C  C95  1  0.49761243  0.14149065  0.92215257  1
  C  C96  1  0.65671586  0.14445451  0.42269289  1
  C  C97  1  0.49174224  0.35101618  0.42189525  1
  C  C98  1  0.86171427  0.50561796  0.42292608  1
  C  C99  1  0.36377154  0.49847039  0.07999639  1
  C  C100  1  0.13496876  0.63670389  0.07984532  1
  C  C101  1  0.50197433  0.86521769  0.07989054  1
  C  C102  1  0.36288395  0.86372142  0.57936924  1
  C  C103  1  0.50033114  0.63640872  0.57907629  1
  C  C104  1  0.13618999  0.49926047  0.57876554  1
  C  C105  1  0.31149596  0.84262409  0.25719721  1
  C  C106  1  0.52730291  0.68141596  0.25787121  1
  C  C107  1  0.16047017  0.46782480  0.25803925  1
  C  C108  1  0.32330731  0.47821672  0.75550787  1
  C  C109  1  0.15831439  0.68362963  0.75492400  1
  C  C110  1  0.52797741  0.83841317  0.75572484  1
