# generated using pymatgen
data_Cu4NiC14
_symmetry_space_group_name_H-M   'P 1'
_cell_length_a   6.89616134
_cell_length_b   6.89901914
_cell_length_c   5.74690577
_cell_angle_alpha   73.13188307
_cell_angle_beta   106.78499841
_cell_angle_gamma   99.91411823
_symmetry_Int_Tables_number   1
_chemical_formula_structural   Cu4NiC14
_chemical_formula_sum   'Cu4 Ni1 C14'
_cell_volume   249.33937259
_cell_formula_units_Z   1
loop_
 _symmetry_equiv_pos_site_id
 _symmetry_equiv_pos_as_xyz
  1  'x, y, z'
loop_
 _atom_site_type_symbol
 _atom_site_label
 _atom_site_symmetry_multiplicity
 _atom_site_fract_x
 _atom_site_fract_y
 _atom_site_fract_z
 _atom_site_occupancy
  C  C0  1  0.27955700  0.27999300  0.24886000  1
  Ni  Ni1  1  0.08218100  0.08219800  0.74999200  1
  Cu  Cu2  1  0.19477400  0.61718500  0.75597700  1
  Cu  Cu3  1  0.39472700  0.81753300  0.25057000  1
  Cu  Cu4  1  0.61692000  0.19446200  0.74372500  1
  Cu  Cu5  1  0.81712100  0.39465500  0.24816700  1
  C  C6  1  0.92501600  0.92489200  0.25029300  1
  C  C7  1  0.03053600  0.80538800  0.64322300  1
  C  C8  1  0.07845600  0.37202700  0.78284600  1
  C  C9  1  0.20947600  0.00579000  0.15463600  1
  C  C10  1  0.36171300  0.65488100  0.56656200  1
  C  C11  1  0.37243500  0.07701500  0.71930700  1
  C  C12  1  0.31705700  0.59590800  0.08626200  1
  C  C13  1  0.65444200  0.36151200  0.93279600  1
  C  C14  1  0.64158200  0.90478800  0.28196200  1
  C  C15  1  0.59537600  0.31685600  0.41328000  1
  C  C16  1  0.80549600  0.03066600  0.85688700  1
  C  C17  1  0.90412200  0.64138000  0.21878200  1
  C  C18  1  0.00605000  0.20990800  0.34587500  1
