# generated using pymatgen
data_CuNi2C13
_symmetry_space_group_name_H-M   'P 1'
_cell_length_a   6.19243940
_cell_length_b   5.91650530
_cell_length_c   7.49076760
_cell_angle_alpha   90.06144669
_cell_angle_beta   84.97021090
_cell_angle_gamma   118.48260183
_symmetry_Int_Tables_number   1
_chemical_formula_structural   CuNi2C13
_chemical_formula_sum   'Cu1 Ni2 C13'
_cell_volume   240.03647989
_cell_formula_units_Z   1
loop_
 _symmetry_equiv_pos_site_id
 _symmetry_equiv_pos_as_xyz
  1  'x, y, z'
loop_
 _atom_site_type_symbol
 _atom_site_label
 _atom_site_symmetry_multiplicity
 _atom_site_fract_x
 _atom_site_fract_y
 _atom_site_fract_z
 _atom_site_occupancy
  C  C0  1  0.66854500  0.33575700  0.34417100  1
  C  C1  1  0.07367500  0.03826900  0.05412000  1
  C  C2  1  0.22826000  0.61557100  0.63106800  1
  C  C3  1  0.67579000  0.83650600  0.82010700  1
  Ni  Ni4  1  0.33786800  0.66966300  0.17738000  1
  Ni  Ni5  1  0.65737200  0.32758200  0.82981800  1
  Cu  Cu6  1  0.00128400  0.00097400  0.49014600  1
  C  C7  1  0.50928000  0.52001000  0.99184300  1
  C  C8  1  0.17261700  0.34404700  0.32479000  1
  C  C9  1  0.82582300  0.66545800  0.67429500  1
  C  C10  1  0.99957300  0.50006000  0.00346300  1
  C  C11  1  0.17275200  0.83051500  0.32426900  1
  C  C12  1  0.37768700  0.18681200  0.69146400  1
  C  C13  1  0.82861900  0.15919500  0.67652900  1
  C  C14  1  0.62816900  0.81473900  0.30832500  1
  C  C15  1  0.50935300  0.98817500  0.99154400  1
