# generated using pymatgen
data_Cu2NiC4
_symmetry_space_group_name_H-M   'P 1'
_cell_length_a   3.06994310
_cell_length_b   10.10489030
_cell_length_c   3.07335199
_cell_angle_alpha   90.00144808
_cell_angle_beta   59.95925268
_cell_angle_gamma   98.80044262
_symmetry_Int_Tables_number   1
_chemical_formula_structural   Cu2NiC4
_chemical_formula_sum   'Cu2 Ni1 C4'
_cell_volume   81.23380106
_cell_formula_units_Z   1
loop_
 _symmetry_equiv_pos_site_id
 _symmetry_equiv_pos_as_xyz
  1  'x, y, z'
loop_
 _atom_site_type_symbol
 _atom_site_label
 _atom_site_symmetry_multiplicity
 _atom_site_fract_x
 _atom_site_fract_y
 _atom_site_fract_z
 _atom_site_occupancy
  Ni  Ni0  1  0.16922800  0.25661700  0.91537700  1
  Cu  Cu1  1  0.01052000  0.51638300  0.49476300  1
  Cu  Cu2  1  0.98997100  0.98397700  0.00502300  1
  C  C3  1  0.26948600  0.90368300  0.36526200  1
  C  C4  1  0.39749700  0.59618800  0.80127500  1
  C  C5  1  0.57991900  0.37211800  0.21002300  1
  C  C6  1  0.75004500  0.12728200  0.62494500  1
