# generated using pymatgen
data_CuNiC19
_symmetry_space_group_name_H-M   'P 1'
_cell_length_a   9.11884184
_cell_length_b   9.05913967
_cell_length_c   22.04802638
_cell_angle_alpha   91.00429725
_cell_angle_beta   90.00000000
_cell_angle_gamma   120.21824486
_symmetry_Int_Tables_number   1
_chemical_formula_structural   CuNiC19
_chemical_formula_sum   'Cu6 Ni6 C114'
_cell_volume   1573.54197756
_cell_formula_units_Z   6
loop_
 _symmetry_equiv_pos_site_id
 _symmetry_equiv_pos_as_xyz
  1  'x, y, z'
loop_
 _atom_site_type_symbol
 _atom_site_label
 _atom_site_symmetry_multiplicity
 _atom_site_fract_x
 _atom_site_fract_y
 _atom_site_fract_z
 _atom_site_occupancy
  C  C0  1  0.64385325  0.01787409  0.25339558  1
  C  C1  1  0.36515470  0.35653203  0.24611667  1
  C  C2  1  0.99230817  0.62223734  0.24235684  1
  C  C3  1  0.62992916  0.62223734  0.74235684  1
  C  C4  1  0.99137733  0.35653203  0.74611667  1
  C  C5  1  0.37402084  0.01787409  0.75339558  1
  C  C6  1  0.31052025  0.35120709  0.58672858  1
  C  C7  1  0.03182170  0.68986503  0.57944967  1
  C  C8  1  0.65897517  0.95557034  0.57568984  1
  C  C9  1  0.29659616  0.95557034  0.07568984  1
  C  C10  1  0.65804433  0.68986503  0.07944967  1
  C  C11  1  0.04068784  0.35120709  0.08672858  1
  C  C12  1  0.97718625  0.68454109  0.92006258  1
  C  C13  1  0.69848770  0.02319903  0.91278367  1
  C  C14  1  0.32564117  0.28890434  0.90902384  1
  C  C15  1  0.96326216  0.28890434  0.40902384  1
  C  C16  1  0.32471033  0.02319903  0.41278367  1
  C  C17  1  0.70735384  0.68454109  0.42006258  1
  C  C18  1  0.98534746  0.98781880  0.49583848  1
  C  C19  1  0.00247134  0.98781880  0.99583848  1
  C  C20  1  0.65201446  0.32115180  0.82917148  1
  C  C21  1  0.66913834  0.32115180  0.32917148  1
  C  C22  1  0.31868046  0.65448580  0.16250548  1
  C  C23  1  0.33580434  0.65448580  0.66250548  1
  Ni  Ni24  1  0.99946578  0.00234748  0.35109754  1
  Ni  Ni25  1  0.00288170  0.00234748  0.85109754  1
  Ni  Ni26  1  0.66613278  0.33568048  0.68443054  1
  Ni  Ni27  1  0.66954870  0.33568048  0.18443054  1
  Ni  Ni28  1  0.33279878  0.66901448  0.01776454  1
  Ni  Ni29  1  0.33621470  0.66901448  0.51776454  1
  Cu  Cu30  1  0.98145232  0.01069550  0.64731081  1
  Cu  Cu31  1  0.02924318  0.01069550  0.14731081  1
  Cu  Cu32  1  0.64811932  0.34402850  0.98064381  1
  Cu  Cu33  1  0.69591018  0.34402850  0.48064381  1
  Cu  Cu34  1  0.31478532  0.67736250  0.31397781  1
  Cu  Cu35  1  0.36257618  0.67736250  0.81397781  1
  C  C36  1  0.29857088  0.00486991  0.25353885  1
  C  C37  1  0.00184238  0.29276578  0.25264096  1
  C  C38  1  0.29092341  0.29276578  0.75264096  1
  C  C39  1  0.70629903  0.00486991  0.75353885  1
  C  C40  1  0.96523788  0.33820291  0.58687185  1
  C  C41  1  0.66850938  0.62609878  0.58597396  1
  C  C42  1  0.95759041  0.62609878  0.08597396  1
  C  C43  1  0.37296603  0.33820291  0.08687185  1
  C  C44  1  0.63190388  0.67153691  0.92020585  1
  C  C45  1  0.33517538  0.95943278  0.91930796  1
  C  C46  1  0.62425641  0.95943278  0.41930796  1
  C  C47  1  0.03963203  0.67153691  0.42020585  1
  C  C48  1  0.70754443  0.71024918  0.25019102  1
  C  C49  1  0.00270475  0.71024918  0.75019102  1
  C  C50  1  0.37421143  0.04358218  0.58352402  1
  C  C51  1  0.66937175  0.04358218  0.08352402  1
  C  C52  1  0.04087743  0.37691618  0.91685802  1
  C  C53  1  0.33603775  0.37691618  0.41685802  1
  C  C54  1  0.20880959  0.02904968  0.31160599  1
  C  C55  1  0.80902366  0.79011446  0.30526219  1
  C  C56  1  0.96935444  0.17863502  0.31102052  1
  C  C57  1  0.20928058  0.17863502  0.81102052  1
  C  C58  1  0.98109081  0.79011446  0.80526219  1
  C  C59  1  0.82024009  0.02904968  0.81160599  1
  C  C60  1  0.79678895  0.97032683  0.69151674  1
  C  C61  1  0.16052081  0.19032463  0.69195737  1
  C  C62  1  0.02663140  0.81514757  0.69553297  1
  C  C63  1  0.78851617  0.81514757  0.19553297  1
  C  C64  1  0.02980382  0.19032463  0.19195737  1
  C  C65  1  0.17353787  0.97032683  0.19151674  1
  C  C66  1  0.87547659  0.36238268  0.64493899  1
  C  C67  1  0.47569066  0.12344746  0.63859519  1
  C  C68  1  0.63602144  0.51196802  0.64435352  1
  C  C69  1  0.87594758  0.51196802  0.14435352  1
  C  C70  1  0.64775781  0.12344746  0.13859519  1
  C  C71  1  0.48690709  0.36238268  0.14493899  1
  C  C72  1  0.46345595  0.30365983  0.02484974  1
  C  C73  1  0.82718781  0.52365763  0.02529037  1
  C  C74  1  0.69329840  0.14848057  0.02886597  1
  C  C75  1  0.45518317  0.14848057  0.52886597  1
  C  C76  1  0.69647082  0.52365763  0.52529037  1
  C  C77  1  0.84020487  0.30365983  0.52484974  1
  C  C78  1  0.54214259  0.69571668  0.97827299  1
  C  C79  1  0.14235666  0.45678146  0.97192919  1
  C  C80  1  0.30268744  0.84530202  0.97768752  1
  C  C81  1  0.54261358  0.84530202  0.47768752  1
  C  C82  1  0.31442381  0.45678146  0.47192919  1
  C  C83  1  0.15357309  0.69571668  0.47827299  1
  C  C84  1  0.13012195  0.63699383  0.35818374  1
  C  C85  1  0.49385381  0.85699163  0.35862437  1
  C  C86  1  0.35996440  0.48181457  0.36219997  1
  C  C87  1  0.12184917  0.48181457  0.86219997  1
  C  C88  1  0.36313682  0.85699163  0.85862437  1
  C  C89  1  0.50687087  0.63699383  0.85818374  1
  C  C90  1  0.01035434  0.83142366  0.41198491  1
  C  C91  1  0.81472251  0.99018045  0.41179565  1
  C  C92  1  0.18348579  0.20346221  0.41216893  1
  C  C93  1  0.01997642  0.20346221  0.91216893  1
  C  C94  1  0.17545794  0.99018045  0.91179565  1
  C  C95  1  0.82106932  0.83142366  0.91198491  1
  C  C96  1  0.97272778  0.15566726  0.58781985  1
  C  C97  1  0.20108854  0.02543499  0.58737208  1
  C  C98  1  0.85212774  0.81484315  0.58947605  1
  C  C99  1  0.96271541  0.81484315  0.08947605  1
  C  C100  1  0.82434645  0.02543499  0.08737208  1
  C  C101  1  0.18293948  0.15566726  0.08781985  1
  C  C102  1  0.67702134  0.16475666  0.74531791  1
  C  C103  1  0.48138951  0.32351345  0.74512865  1
  C  C104  1  0.85015279  0.53679521  0.74550193  1
  C  C105  1  0.68664342  0.53679521  0.24550193  1
  C  C106  1  0.84212494  0.32351345  0.24512865  1
  C  C107  1  0.48773632  0.16475666  0.24531791  1
  C  C108  1  0.63939478  0.48900026  0.92115285  1
  C  C109  1  0.86775554  0.35876799  0.92070508  1
  C  C110  1  0.51879474  0.14817615  0.92280905  1
  C  C111  1  0.62938241  0.14817615  0.42280905  1
  C  C112  1  0.49101345  0.35876799  0.42070508  1
  C  C113  1  0.84960648  0.48900026  0.42115285  1
  C  C114  1  0.34368734  0.49809066  0.07865191  1
  C  C115  1  0.14805551  0.65684745  0.07846265  1
  C  C116  1  0.51681879  0.87012921  0.07883593  1
  C  C117  1  0.35330942  0.87012921  0.57883593  1
  C  C118  1  0.50879094  0.65684745  0.57846265  1
  C  C119  1  0.15440232  0.49809066  0.57865191  1
  C  C120  1  0.30606078  0.82233426  0.25448685  1
  C  C121  1  0.53442154  0.69210199  0.25403908  1
  C  C122  1  0.18546074  0.48151015  0.25614305  1
  C  C123  1  0.29604841  0.48151015  0.75614305  1
  C  C124  1  0.15767945  0.69210199  0.75403908  1
  C  C125  1  0.51627248  0.82233426  0.75448685  1
