# generated using pymatgen
data_Cu3Ni3C
_symmetry_space_group_name_H-M   'P 1'
_cell_length_a   7.13287682
_cell_length_b   7.13287682
_cell_length_c   7.13287673
_cell_angle_alpha   93.11222868
_cell_angle_beta   93.11222868
_cell_angle_gamma   93.11222260
_symmetry_Int_Tables_number   1
_chemical_formula_structural   Cu3Ni3C
_chemical_formula_sum   'Cu12 Ni12 C4'
_cell_volume   361.23955507
_cell_formula_units_Z   4
loop_
 _symmetry_equiv_pos_site_id
 _symmetry_equiv_pos_as_xyz
  1  'x, y, z'
loop_
 _atom_site_type_symbol
 _atom_site_label
 _atom_site_symmetry_multiplicity
 _atom_site_fract_x
 _atom_site_fract_y
 _atom_site_fract_z
 _atom_site_occupancy
  C  C0  1  0.00000000  0.50000000  0.50000000  1
  C  C1  1  0.50000000  0.00000000  0.50000000  1
  C  C2  1  0.50000000  0.50000000  0.00000000  1
  Ni  Ni3  1  0.11997300  0.84199900  0.11997300  1
  Ni  Ni4  1  0.88002700  0.15800100  0.88002700  1
  Ni  Ni5  1  0.15800100  0.88002700  0.88002700  1
  Ni  Ni6  1  0.88002700  0.88002700  0.15800100  1
  Ni  Ni7  1  0.05811200  0.05811200  0.22951600  1
  Ni  Ni8  1  0.22951600  0.05811200  0.05811200  1
  Ni  Ni9  1  0.05811200  0.22951600  0.05811200  1
  Ni  Ni10  1  0.94188800  0.77048400  0.94188800  1
  Ni  Ni11  1  0.94188800  0.94188800  0.77048400  1
  Ni  Ni12  1  0.77048400  0.94188800  0.94188800  1
  Ni  Ni13  1  0.11997300  0.11997300  0.84199900  1
  Ni  Ni14  1  0.84199900  0.11997300  0.11997300  1
  Cu  Cu15  1  0.79369000  0.79369000  0.26939600  1
  Cu  Cu16  1  0.26939600  0.79369000  0.79369000  1
  Cu  Cu17  1  0.79369000  0.26939600  0.79369000  1
  Cu  Cu18  1  0.20631000  0.73060400  0.20631000  1
  Cu  Cu19  1  0.90051000  0.90051000  0.60735300  1
  Cu  Cu20  1  0.60735300  0.90051000  0.90051000  1
  Cu  Cu21  1  0.90051000  0.60735300  0.90051000  1
  Cu  Cu22  1  0.09949000  0.39264700  0.09949000  1
  Cu  Cu23  1  0.09949000  0.09949000  0.39264700  1
  Cu  Cu24  1  0.39264700  0.09949000  0.09949000  1
  Cu  Cu25  1  0.20631000  0.20631000  0.73060400  1
  Cu  Cu26  1  0.73060400  0.20631000  0.20631000  1
  C  C27  1  0.50000000  0.50000000  0.50000000  1
