# generated using pymatgen
data_Cu4NiC8
_symmetry_space_group_name_H-M   'P 1'
_cell_length_a   5.90213120
_cell_length_b   5.90352221
_cell_length_c   6.31567186
_cell_angle_alpha   57.67752863
_cell_angle_beta   57.66941686
_cell_angle_gamma   57.16897830
_symmetry_Int_Tables_number   1
_chemical_formula_structural   Cu4NiC8
_chemical_formula_sum   'Cu4 Ni1 C8'
_cell_volume   146.66935845
_cell_formula_units_Z   1
loop_
 _symmetry_equiv_pos_site_id
 _symmetry_equiv_pos_as_xyz
  1  'x, y, z'
loop_
 _atom_site_type_symbol
 _atom_site_label
 _atom_site_symmetry_multiplicity
 _atom_site_fract_x
 _atom_site_fract_y
 _atom_site_fract_z
 _atom_site_occupancy
  Ni  Ni0  1  0.92224800  0.92251900  0.57774700  1
  Cu  Cu1  1  0.00431400  0.00412400  0.99645200  1
  Cu  Cu2  1  0.26584300  0.26530200  0.23477300  1
  Cu  Cu3  1  0.61109100  0.61088200  0.14764100  1
  Cu  Cu4  1  0.61032800  0.61012600  0.63140900  1
  C  C5  1  0.37431400  0.37482100  0.36260900  1
  C  C6  1  0.35433800  0.85599000  0.39483800  1
  C  C7  1  0.37364500  0.37409000  0.88909300  1
  C  C8  1  0.85619500  0.35429500  0.39475800  1
  C  C9  1  0.39539800  0.84705100  0.87884900  1
  C  C10  1  0.84709700  0.39509200  0.87898100  1
  C  C11  1  0.85477600  0.85506100  0.35539100  1
  C  C12  1  0.85541200  0.85564700  0.93454100  1
