# generated using pymatgen
data_Cu4NiC
_symmetry_space_group_name_H-M   'P 1'
_cell_length_a   8.71070054
_cell_length_b   8.71070027
_cell_length_c   22.68130913
_cell_angle_alpha   90.00000000
_cell_angle_beta   90.00000000
_cell_angle_gamma   120.00000103
_symmetry_Int_Tables_number   1
_chemical_formula_structural   Cu4NiC
_chemical_formula_sum   'Cu72 Ni18 C18'
_cell_volume   1490.40705869
_cell_formula_units_Z   18
loop_
 _symmetry_equiv_pos_site_id
 _symmetry_equiv_pos_as_xyz
  1  'x, y, z'
loop_
 _atom_site_type_symbol
 _atom_site_label
 _atom_site_symmetry_multiplicity
 _atom_site_fract_x
 _atom_site_fract_y
 _atom_site_fract_z
 _atom_site_occupancy
  C  C0  1  0.00000000  -0.00000000  0.50320177  1
  C  C1  1  0.00000000  -0.00000000  0.00320177  1
  C  C2  1  0.66666700  0.33333300  0.83335808  1
  C  C3  1  0.66666700  0.33333300  0.33335808  1
  C  C4  1  0.33333300  0.66666700  0.15995737  1
  C  C5  1  0.33333300  0.66666700  0.65995737  1
  C  C6  1  0.33333300  0.66666700  0.31376735  1
  C  C7  1  0.33333300  0.66666700  0.81376735  1
  C  C8  1  0.00000000  -0.00000000  0.35023510  1
  C  C9  1  0.00000000  -0.00000000  0.85023510  1
  C  C10  1  0.00000000  -0.00000000  0.64540735  1
  C  C11  1  0.00000000  -0.00000000  0.14540735  1
  C  C12  1  0.66666700  0.33333300  0.67844524  1
  C  C13  1  0.66666700  0.33333300  0.17844524  1
  C  C14  1  0.66666700  0.33333300  0.98762909  1
  C  C15  1  0.66666700  0.33333300  0.48762909  1
  C  C16  1  0.33333300  0.66666700  0.02170135  1
  C  C17  1  0.33333300  0.66666700  0.52170135  1
  Ni  Ni18  1  0.29229660  0.00628356  0.25033302  1
  Ni  Ni19  1  0.71398696  0.70770340  0.25033302  1
  Ni  Ni20  1  0.99371644  0.28601304  0.25033302  1
  Ni  Ni21  1  0.29229660  0.28601304  0.75033302  1
  Ni  Ni22  1  0.99371644  0.70770340  0.75033302  1
  Ni  Ni23  1  0.71398696  0.00628356  0.75033302  1
  Ni  Ni24  1  0.95946734  0.33295071  0.58330233  1
  Ni  Ni25  1  0.37348436  0.04053266  0.58330233  1
  Ni  Ni26  1  0.66704929  0.62651564  0.58330233  1
  Ni  Ni27  1  0.95946734  0.62651564  0.08330233  1
  Ni  Ni28  1  0.66704929  0.04053266  0.08330233  1
  Ni  Ni29  1  0.37348436  0.33295071  0.08330233  1
  Ni  Ni30  1  0.62792350  0.66753073  0.91836592  1
  Ni  Ni31  1  0.03960623  0.37207650  0.91836592  1
  Ni  Ni32  1  0.33246927  0.96039377  0.91836592  1
  Ni  Ni33  1  0.62792350  0.96039377  0.41836592  1
  Ni  Ni34  1  0.33246927  0.37207650  0.41836592  1
  Ni  Ni35  1  0.03960623  0.66753073  0.41836592  1
  Cu  Cu36  1  0.21379726  0.02832448  0.30439804  1
  Cu  Cu37  1  0.81452722  0.78620274  0.30439804  1
  Cu  Cu38  1  0.97167552  0.18547278  0.30439804  1
  Cu  Cu39  1  0.21379726  0.18547278  0.80439804  1
  Cu  Cu40  1  0.97167552  0.78620274  0.80439804  1
  Cu  Cu41  1  0.81452722  0.02832448  0.80439804  1
  Cu  Cu42  1  0.78160427  0.96403838  0.69762657  1
  Cu  Cu43  1  0.18243411  0.21839574  0.69762657  1
  Cu  Cu44  1  0.03596162  0.81756589  0.69762657  1
  Cu  Cu45  1  0.78160427  0.81756589  0.19762657  1
  Cu  Cu46  1  0.03596162  0.21839574  0.19762657  1
  Cu  Cu47  1  0.18243411  0.96403838  0.19762657  1
  Cu  Cu48  1  0.88217344  0.36286164  0.63721242  1
  Cu  Cu49  1  0.48068919  0.11782655  0.63721242  1
  Cu  Cu50  1  0.63713836  0.51931081  0.63721242  1
  Cu  Cu51  1  0.88217345  0.51931081  0.13721242  1
  Cu  Cu52  1  0.63713836  0.11782655  0.13721242  1
  Cu  Cu53  1  0.48068919  0.36286164  0.13721242  1
  Cu  Cu54  1  0.45113966  0.30346601  0.02939135  1
  Cu  Cu55  1  0.85232735  0.54886034  0.02939135  1
  Cu  Cu56  1  0.69653399  0.14767265  0.02939135  1
  Cu  Cu57  1  0.45113966  0.14767265  0.52939135  1
  Cu  Cu58  1  0.69653399  0.54886034  0.52939135  1
  Cu  Cu59  1  0.85232735  0.30346601  0.52939135  1
  Cu  Cu60  1  0.54335383  0.69549090  0.96938912  1
  Cu  Cu61  1  0.15213607  0.45664617  0.96938912  1
  Cu  Cu62  1  0.30450910  0.84786393  0.96938912  1
  Cu  Cu63  1  0.54335383  0.84786393  0.46938912  1
  Cu  Cu64  1  0.30450910  0.45664617  0.46938912  1
  Cu  Cu65  1  0.15213607  0.69549090  0.46938912  1
  Cu  Cu66  1  0.13386490  0.64342756  0.36288043  1
  Cu  Cu67  1  0.50956166  0.86613510  0.36288043  1
  Cu  Cu68  1  0.35657244  0.49043834  0.36288043  1
  Cu  Cu69  1  0.13386490  0.49043834  0.86288043  1
  Cu  Cu70  1  0.35657244  0.86613510  0.86288043  1
  Cu  Cu71  1  0.50956166  0.64342756  0.86288043  1
  Cu  Cu72  1  0.02527486  0.82645119  0.40867237  1
  Cu  Cu73  1  0.80117634  0.97472514  0.40867237  1
  Cu  Cu74  1  0.17354881  0.19882366  0.40867237  1
  Cu  Cu75  1  0.02527486  0.19882366  0.90867237  1
  Cu  Cu76  1  0.17354881  0.97472514  0.90867237  1
  Cu  Cu77  1  0.80117634  0.82645119  0.90867237  1
  Cu  Cu78  1  0.97707119  0.17231276  0.58916520  1
  Cu  Cu79  1  0.19524157  0.02292881  0.58916520  1
  Cu  Cu80  1  0.82768724  0.80475843  0.58916520  1
  Cu  Cu81  1  0.97707119  0.80475843  0.08916520  1
  Cu  Cu82  1  0.82768724  0.02292881  0.08916520  1
  Cu  Cu83  1  0.19524157  0.17231276  0.08916520  1
  Cu  Cu84  1  0.68331047  0.15647657  0.74446098  1
  Cu  Cu85  1  0.47316711  0.31668953  0.74446098  1
  Cu  Cu86  1  0.84352343  0.52683289  0.74446098  1
  Cu  Cu87  1  0.68331047  0.52683289  0.24446098  1
  Cu  Cu88  1  0.84352343  0.31668953  0.24446098  1
  Cu  Cu89  1  0.47316711  0.15647657  0.24446098  1
  Cu  Cu90  1  0.63755082  0.50426354  0.91972300  1
  Cu  Cu91  1  0.86671372  0.36244918  0.91972300  1
  Cu  Cu92  1  0.49573646  0.13328628  0.91972300  1
  Cu  Cu93  1  0.63755082  0.13328628  0.41972300  1
  Cu  Cu94  1  0.49573646  0.36244918  0.41972300  1
  Cu  Cu95  1  0.86671372  0.50426354  0.41972300  1
  Cu  Cu96  1  0.35581371  0.49369230  0.07761721  1
  Cu  Cu97  1  0.13787759  0.64418629  0.07761721  1
  Cu  Cu98  1  0.50630770  0.86212241  0.07761721  1
  Cu  Cu99  1  0.35581371  0.86212241  0.57761721  1
  Cu  Cu100  1  0.50630770  0.64418629  0.57761721  1
  Cu  Cu101  1  0.13787759  0.49369230  0.57761721  1
  Cu  Cu102  1  0.31111002  0.83729844  0.25956115  1
  Cu  Cu103  1  0.52618741  0.68888998  0.25956115  1
  Cu  Cu104  1  0.16270156  0.47381259  0.25956115  1
  Cu  Cu105  1  0.31111002  0.47381259  0.75956115  1
  Cu  Cu106  1  0.16270156  0.68888998  0.75956115  1
  Cu  Cu107  1  0.52618741  0.83729844  0.75956115  1
