# generated using pymatgen
data_CuNiC6
_symmetry_space_group_name_H-M   'P 1'
_cell_length_a   6.15687906
_cell_length_b   6.16803730
_cell_length_c   8.61096638
_cell_angle_alpha   66.49819569
_cell_angle_beta   67.31670466
_cell_angle_gamma   60.54590369
_symmetry_Int_Tables_number   1
_chemical_formula_structural   CuNiC6
_chemical_formula_sum   'Cu2 Ni2 C12'
_cell_volume   253.65948765
_cell_formula_units_Z   2
loop_
 _symmetry_equiv_pos_site_id
 _symmetry_equiv_pos_as_xyz
  1  'x, y, z'
loop_
 _atom_site_type_symbol
 _atom_site_label
 _atom_site_symmetry_multiplicity
 _atom_site_fract_x
 _atom_site_fract_y
 _atom_site_fract_z
 _atom_site_occupancy
  C  C0  1  0.46262500  0.54164100  0.50359800  1
  C  C1  1  0.49186200  0.50808000  0.99999200  1
  Ni  Ni2  1  0.98753000  0.51029000  0.00393200  1
  Ni  Ni3  1  0.49052900  0.01095900  0.99737800  1
  Cu  Cu4  1  0.07965000  0.09691500  0.74553600  1
  Cu  Cu5  1  0.90299200  0.92051900  0.25350300  1
  C  C6  1  0.68671400  0.72854000  0.89951700  1
  C  C7  1  0.29573400  0.28880900  0.09977900  1
  C  C8  1  0.14461400  0.17734400  0.51900800  1
  C  C9  1  0.85155500  0.82166300  0.47980000  1
  C  C10  1  0.75726100  0.27050200  0.17909300  1
  C  C11  1  0.72892200  0.22056900  0.84011700  1
  C  C12  1  0.22204300  0.74768400  0.82619900  1
  C  C13  1  0.25188200  0.80101600  0.15491500  1
  C  C14  1  0.22097500  0.23603300  0.81159200  1
  C  C15  1  0.75844600  0.78610400  0.18604300  1
