# generated using pymatgen
data_Cu12Ni3C2
_symmetry_space_group_name_H-M   'P 1'
_cell_length_a   8.78233221
_cell_length_b   8.78233192
_cell_length_c   22.58552695
_cell_angle_alpha   90.00000000
_cell_angle_beta   90.00000000
_cell_angle_gamma   120.00000104
_symmetry_Int_Tables_number   1
_chemical_formula_structural   Cu12Ni3C2
_chemical_formula_sum   'Cu72 Ni18 C12'
_cell_volume   1508.62243871
_cell_formula_units_Z   6
loop_
 _symmetry_equiv_pos_site_id
 _symmetry_equiv_pos_as_xyz
  1  'x, y, z'
loop_
 _atom_site_type_symbol
 _atom_site_label
 _atom_site_symmetry_multiplicity
 _atom_site_fract_x
 _atom_site_fract_y
 _atom_site_fract_z
 _atom_site_occupancy
  C  C0  1  -0.00000000  0.00000000  0.64437775  1
  C  C1  1  -0.00000000  0.00000000  0.14437775  1
  C  C2  1  0.66666700  0.33333300  0.97771075  1
  C  C3  1  0.66666700  0.33333300  0.47771075  1
  C  C4  1  0.33333300  0.66666700  0.31104475  1
  C  C5  1  0.33333300  0.66666700  0.81104475  1
  C  C6  1  -0.00000000  0.00000000  0.35328420  1
  C  C7  1  -0.00000000  0.00000000  0.85328420  1
  C  C8  1  0.66666700  0.33333300  0.68661720  1
  C  C9  1  0.66666700  0.33333300  0.18661720  1
  C  C10  1  0.33333300  0.66666700  0.01995120  1
  C  C11  1  0.33333300  0.66666700  0.51995120  1
  Ni  Ni12  1  0.29312788  0.00609146  0.25102804  1
  Ni  Ni13  1  0.71296358  0.70687212  0.25102804  1
  Ni  Ni14  1  0.99390854  0.28703642  0.25102804  1
  Ni  Ni15  1  0.29312788  0.28703642  0.75102804  1
  Ni  Ni16  1  0.99390854  0.70687212  0.75102804  1
  Ni  Ni17  1  0.71296358  0.00609146  0.75102804  1
  Ni  Ni18  1  0.95979488  0.33942446  0.58436104  1
  Ni  Ni19  1  0.37963058  0.04020512  0.58436104  1
  Ni  Ni20  1  0.66057554  0.62036942  0.58436104  1
  Ni  Ni21  1  0.95979488  0.62036942  0.08436104  1
  Ni  Ni22  1  0.66057554  0.04020512  0.08436104  1
  Ni  Ni23  1  0.37963058  0.33942446  0.08436104  1
  Ni  Ni24  1  0.62646088  0.67275846  0.91769504  1
  Ni  Ni25  1  0.04629658  0.37353912  0.91769504  1
  Ni  Ni26  1  0.32724154  0.95370342  0.91769504  1
  Ni  Ni27  1  0.62646088  0.95370342  0.41769504  1
  Ni  Ni28  1  0.32724154  0.37353912  0.41769504  1
  Ni  Ni29  1  0.04629658  0.67275846  0.41769504  1
  Cu  Cu30  1  0.21059598  0.03005171  0.30317433  1
  Cu  Cu31  1  0.81945573  0.78940402  0.30317433  1
  Cu  Cu32  1  0.96994829  0.18054427  0.30317433  1
  Cu  Cu33  1  0.21059598  0.18054427  0.80317433  1
  Cu  Cu34  1  0.96994829  0.78940402  0.80317433  1
  Cu  Cu35  1  0.81945573  0.03005171  0.80317433  1
  Cu  Cu36  1  0.79129425  0.96835590  0.69713852  1
  Cu  Cu37  1  0.17706164  0.20870575  0.69713852  1
  Cu  Cu38  1  0.03164410  0.82293836  0.69713852  1
  Cu  Cu39  1  0.79129425  0.82293836  0.19713852  1
  Cu  Cu40  1  0.03164410  0.20870575  0.19713852  1
  Cu  Cu41  1  0.17706164  0.96835590  0.19713852  1
  Cu  Cu42  1  0.87726298  0.36338471  0.63650733  1
  Cu  Cu43  1  0.48612273  0.12273702  0.63650733  1
  Cu  Cu44  1  0.63661529  0.51387727  0.63650733  1
  Cu  Cu45  1  0.87726298  0.51387727  0.13650733  1
  Cu  Cu46  1  0.63661529  0.12273702  0.13650733  1
  Cu  Cu47  1  0.48612273  0.36338471  0.13650733  1
  Cu  Cu48  1  0.45796125  0.30168890  0.03047152  1
  Cu  Cu49  1  0.84372864  0.54203875  0.03047152  1
  Cu  Cu50  1  0.69831110  0.15627136  0.03047152  1
  Cu  Cu51  1  0.45796125  0.15627136  0.53047152  1
  Cu  Cu52  1  0.69831110  0.54203875  0.53047152  1
  Cu  Cu53  1  0.84372864  0.30168890  0.53047152  1
  Cu  Cu54  1  0.54392898  0.69671871  0.96984133  1
  Cu  Cu55  1  0.15278873  0.45607102  0.96984133  1
  Cu  Cu56  1  0.30328129  0.84721127  0.96984133  1
  Cu  Cu57  1  0.54392898  0.84721127  0.46984133  1
  Cu  Cu58  1  0.30328129  0.45607102  0.46984133  1
  Cu  Cu59  1  0.15278873  0.69671871  0.46984133  1
  Cu  Cu60  1  0.12462725  0.63502290  0.36380552  1
  Cu  Cu61  1  0.51039464  0.87537275  0.36380552  1
  Cu  Cu62  1  0.36497710  0.48960536  0.36380552  1
  Cu  Cu63  1  0.12462725  0.48960536  0.86380552  1
  Cu  Cu64  1  0.36497710  0.87537275  0.86380552  1
  Cu  Cu65  1  0.51039464  0.63502290  0.86380552  1
  Cu  Cu66  1  0.02248381  0.82267855  0.40778233  1
  Cu  Cu67  1  0.80019474  0.97751619  0.40778233  1
  Cu  Cu68  1  0.17732145  0.19980526  0.40778233  1
  Cu  Cu69  1  0.02248381  0.19980526  0.90778233  1
  Cu  Cu70  1  0.17732145  0.97751619  0.90778233  1
  Cu  Cu71  1  0.80019474  0.82267855  0.90778233  1
  Cu  Cu72  1  0.97359204  0.17536578  0.59165613  1
  Cu  Cu73  1  0.20177374  0.02640796  0.59165613  1
  Cu  Cu74  1  0.82463422  0.79822626  0.59165613  1
  Cu  Cu75  1  0.97359204  0.79822626  0.09165613  1
  Cu  Cu76  1  0.82463422  0.02640796  0.09165613  1
  Cu  Cu77  1  0.20177374  0.17536578  0.09165613  1
  Cu  Cu78  1  0.68915081  0.15601155  0.74111533  1
  Cu  Cu79  1  0.46686174  0.31084919  0.74111533  1
  Cu  Cu80  1  0.84398845  0.53313826  0.74111533  1
  Cu  Cu81  1  0.68915081  0.53313826  0.24111533  1
  Cu  Cu82  1  0.84398845  0.31084919  0.24111533  1
  Cu  Cu83  1  0.46686174  0.15601155  0.24111533  1
  Cu  Cu84  1  0.64025904  0.50869878  0.92498913  1
  Cu  Cu85  1  0.86844074  0.35974096  0.92498913  1
  Cu  Cu86  1  0.49130122  0.13155926  0.92498913  1
  Cu  Cu87  1  0.64025904  0.13155926  0.42498913  1
  Cu  Cu88  1  0.49130122  0.35974096  0.42498913  1
  Cu  Cu89  1  0.86844074  0.50869878  0.42498913  1
  Cu  Cu90  1  0.35581681  0.48934555  0.07444933  1
  Cu  Cu91  1  0.13352774  0.64418319  0.07444933  1
  Cu  Cu92  1  0.51065445  0.86647226  0.07444933  1
  Cu  Cu93  1  0.35581681  0.86647226  0.57444933  1
  Cu  Cu94  1  0.51065445  0.64418319  0.57444933  1
  Cu  Cu95  1  0.13352774  0.48934555  0.57444933  1
  Cu  Cu96  1  0.30692504  0.84203278  0.25832313  1
  Cu  Cu97  1  0.53510674  0.69307496  0.25832313  1
  Cu  Cu98  1  0.15796722  0.46489326  0.25832313  1
  Cu  Cu99  1  0.30692504  0.46489326  0.75832313  1
  Cu  Cu100  1  0.15796722  0.69307496  0.75832313  1
  Cu  Cu101  1  0.53510674  0.84203278  0.75832313  1
