# generated using pymatgen
data_Cu3NiC16
_symmetry_space_group_name_H-M   'P 1'
_cell_length_a   15.07420275
_cell_length_b   8.65868876
_cell_length_c   8.69827222
_cell_angle_alpha   89.96497116
_cell_angle_beta   124.68463086
_cell_angle_gamma   90.03413823
_symmetry_Int_Tables_number   1
_chemical_formula_structural   Cu3NiC16
_chemical_formula_sum   'Cu12 Ni4 C64'
_cell_volume   933.57224544
_cell_formula_units_Z   4
loop_
 _symmetry_equiv_pos_site_id
 _symmetry_equiv_pos_as_xyz
  1  'x, y, z'
loop_
 _atom_site_type_symbol
 _atom_site_label
 _atom_site_symmetry_multiplicity
 _atom_site_fract_x
 _atom_site_fract_y
 _atom_site_fract_z
 _atom_site_occupancy
  C  C0  1  0.24804183  0.76519973  0.99989318  1
  C  C1  1  0.74681473  0.73604213  0.49782537  1
  C  C2  1  0.74665505  0.26452744  0.99783876  1
  C  C3  1  0.24850421  0.23630585  0.50030375  1
  C  C4  1  0.50086460  0.09531479  0.74939359  1
  C  C5  1  0.50078398  0.90454005  0.24885542  1
  C  C6  1  0.00059035  0.59320381  0.74909661  1
  C  C7  1  0.00105712  0.40711897  0.24902644  1
  C  C8  1  0.81480431  0.92693724  0.20800294  1
  C  C9  1  0.81576364  0.07244134  0.71007294  1
  C  C10  1  0.31729073  0.42605921  0.21251611  1
  C  C11  1  0.31631295  0.57338386  0.70903855  1
  C  C12  1  0.10418569  0.75576224  0.56089714  1
  C  C13  1  0.60327320  0.25662122  0.56035572  1
  C  C14  1  0.39778294  0.74992805  0.44060559  1
  C  C15  1  0.60317816  0.74339012  0.06012174  1
  Ni  Ni16  1  0.89758397  0.75026423  0.94068899  1
  Ni  Ni17  1  0.89718645  0.24974305  0.44016405  1
  Ni  Ni18  1  0.10361534  0.24241093  0.06010717  1
  Ni  Ni19  1  0.39785390  0.25059955  0.94109213  1
  Cu  Cu20  1  0.00345375  0.95479196  0.74776244  1
  Cu  Cu21  1  0.00355201  0.04057564  0.25169526  1
  Cu  Cu22  1  0.50402754  0.46175847  0.74829861  1
  Cu  Cu23  1  0.50344842  0.54289844  0.25163435  1
  Cu  Cu24  1  0.35465277  0.89350380  0.75128579  1
  Cu  Cu25  1  0.64497629  0.89262260  0.74606334  1
  Cu  Cu26  1  0.64697148  0.10602604  0.24754138  1
  Cu  Cu27  1  0.35623363  0.10207094  0.25688656  1
  Cu  Cu28  1  0.85125075  0.39567558  0.75168254  1
  Cu  Cu29  1  0.14807787  0.39550582  0.74567082  1
  Cu  Cu30  1  0.14958308  0.60991792  0.25078830  1
  Cu  Cu31  1  0.85343457  0.60517223  0.25338964  1
  C  C32  1  0.15245694  0.57524214  0.73234090  1
  C  C33  1  0.84803239  0.57347955  0.75995426  1
  C  C34  1  0.84918610  0.42707814  0.26094084  1
  C  C35  1  0.15570860  0.42940437  0.24473559  1
  C  C36  1  0.65040892  0.07314366  0.73453631  1
  C  C37  1  0.35041047  0.07183788  0.75832802  1
  C  C38  1  0.35295705  0.92450771  0.27087521  1
  C  C39  1  0.65152758  0.92580429  0.23575140  1
  C  C40  1  0.43093015  0.56153837  0.57119069  1
  C  C41  1  0.56883640  0.56410733  0.92217652  1
  C  C42  1  0.56823864  0.43528768  0.41988744  1
  C  C43  1  0.42565409  0.44864402  0.07026899  1
  C  C44  1  0.92835173  0.05301965  0.57035126  1
  C  C45  1  0.07071044  0.05480768  0.92288427  1
  C  C46  1  0.06587076  0.93398485  0.42107643  1
  C  C47  1  0.92854918  0.94778909  0.06845702  1
  C  C48  1  0.25641010  0.81777396  0.73470942  1
  C  C49  1  0.74321833  0.82672831  0.75537613  1
  C  C50  1  0.74537958  0.17217301  0.25792366  1
  C  C51  1  0.26069090  0.18150632  0.24525079  1
  C  C52  1  0.75324369  0.31771332  0.73273851  1
  C  C53  1  0.24618052  0.32757838  0.75683245  1
  C  C54  1  0.24990302  0.67604481  0.26741229  1
  C  C55  1  0.75561822  0.68272332  0.23602655  1
  C  C56  1  0.35843830  0.85419051  0.58222798  1
  C  C57  1  0.64610142  0.86195856  0.92354240  1
  C  C58  1  0.64607809  0.13788172  0.42230705  1
  C  C59  1  0.35501414  0.13403541  0.08084911  1
  C  C60  1  0.85531598  0.36063463  0.58213470  1
  C  C61  1  0.14919420  0.36874195  0.92371028  1
  C  C62  1  0.14562285  0.64231275  0.42232816  1
  C  C63  1  0.85498824  0.63925163  0.08068150  1
  C  C64  1  0.45806849  0.82764586  0.93155001  1
  C  C65  1  0.54045462  0.82991407  0.57083561  1
  C  C66  1  0.54432730  0.16867482  0.06789239  1
  C  C67  1  0.46041567  0.17129725  0.43151116  1
  C  C68  1  0.95331500  0.32859857  0.93309228  1
  C  C69  1  0.04481421  0.33181006  0.56906644  1
  C  C70  1  0.04692788  0.66943222  0.06853911  1
  C  C71  1  0.95746733  0.67142484  0.43107350  1
  C  C72  1  0.08049071  0.84701007  0.73455876  1
  C  C73  1  0.92113269  0.85043308  0.75576211  1
  C  C74  1  0.92139710  0.14605003  0.25854516  1
  C  C75  1  0.08334562  0.14862164  0.24632751  1
  C  C76  1  0.58045702  0.35259776  0.73472196  1
  C  C77  1  0.42182703  0.35624381  0.75625755  1
  C  C78  1  0.42441152  0.64872160  0.26742936  1
  C  C79  1  0.58011551  0.65028604  0.23643572  1
