# generated using pymatgen
data_Cu3NiC17
_symmetry_space_group_name_H-M   'P 1'
_cell_length_a   9.01877902
_cell_length_b   9.01877871
_cell_length_c   21.95583689
_cell_angle_alpha   90.00000000
_cell_angle_beta   90.00000000
_cell_angle_gamma   120.00000112
_symmetry_Int_Tables_number   1
_chemical_formula_structural   Cu3NiC17
_chemical_formula_sum   'Cu18 Ni6 C102'
_cell_volume   1546.59321158
_cell_formula_units_Z   6
loop_
 _symmetry_equiv_pos_site_id
 _symmetry_equiv_pos_as_xyz
  1  'x, y, z'
loop_
 _atom_site_type_symbol
 _atom_site_label
 _atom_site_symmetry_multiplicity
 _atom_site_fract_x
 _atom_site_fract_y
 _atom_site_fract_z
 _atom_site_occupancy
  C  C0  1  0.63519244  0.00971840  0.24696571  1
  C  C1  1  0.37452596  0.36480756  0.24696571  1
  C  C2  1  0.99028160  0.62547404  0.24696571  1
  C  C3  1  0.63519244  0.62547404  0.74696571  1
  C  C4  1  0.99028160  0.36480756  0.74696571  1
  C  C5  1  0.37452596  0.00971840  0.74696571  1
  C  C6  1  0.30185944  0.34305140  0.58029871  1
  C  C7  1  0.04119296  0.69814056  0.58029871  1
  C  C8  1  0.65694860  0.95880704  0.58029871  1
  C  C9  1  0.30185944  0.95880704  0.08029871  1
  C  C10  1  0.65694860  0.69814056  0.08029871  1
  C  C11  1  0.04119296  0.34305140  0.08029871  1
  C  C12  1  0.96852544  0.67638540  0.91363271  1
  C  C13  1  0.70785896  0.03147456  0.91363271  1
  C  C14  1  0.32361460  0.29214104  0.91363271  1
  C  C15  1  0.96852544  0.29214104  0.41363271  1
  C  C16  1  0.32361460  0.03147456  0.41363271  1
  C  C17  1  0.70785896  0.67638540  0.41363271  1
  C  C18  1  0.00000000  -0.00000000  0.49440154  1
  C  C19  1  0.00000000  -0.00000000  0.99440154  1
  C  C20  1  0.66666700  0.33333300  0.82773454  1
  C  C21  1  0.66666700  0.33333300  0.32773454  1
  C  C22  1  0.33333300  0.66666700  0.16106854  1
  C  C23  1  0.33333300  0.66666700  0.66106854  1
  C  C24  1  0.00000000  -0.00000000  0.64571453  1
  C  C25  1  0.00000000  -0.00000000  0.14571453  1
  C  C26  1  0.66666700  0.33333300  0.97904753  1
  C  C27  1  0.66666700  0.33333300  0.47904753  1
  C  C28  1  0.33333300  0.66666700  0.31238153  1
  C  C29  1  0.33333300  0.66666700  0.81238153  1
  Ni  Ni30  1  0.00000000  -0.00000000  0.35326857  1
  Ni  Ni31  1  0.00000000  -0.00000000  0.85326857  1
  Ni  Ni32  1  0.66666700  0.33333300  0.68660157  1
  Ni  Ni33  1  0.66666700  0.33333300  0.18660157  1
  Ni  Ni34  1  0.33333300  0.66666700  0.01993557  1
  Ni  Ni35  1  0.33333300  0.66666700  0.51993557  1
  Cu  Cu36  1  0.29289701  0.00746850  0.25297513  1
  Cu  Cu37  1  0.71457149  0.70710299  0.25297513  1
  Cu  Cu38  1  0.99253150  0.28542851  0.25297513  1
  Cu  Cu39  1  0.29289701  0.28542851  0.75297513  1
  Cu  Cu40  1  0.99253150  0.70710299  0.75297513  1
  Cu  Cu41  1  0.71457149  0.00746850  0.75297513  1
  Cu  Cu42  1  0.95956401  0.34080150  0.58630813  1
  Cu  Cu43  1  0.38123849  0.04043599  0.58630813  1
  Cu  Cu44  1  0.65919850  0.61876151  0.58630813  1
  Cu  Cu45  1  0.95956401  0.61876151  0.08630813  1
  Cu  Cu46  1  0.65919850  0.04043599  0.08630813  1
  Cu  Cu47  1  0.38123849  0.34080150  0.08630813  1
  Cu  Cu48  1  0.62623001  0.67413550  0.91964213  1
  Cu  Cu49  1  0.04790449  0.37376999  0.91964213  1
  Cu  Cu50  1  0.32586450  0.95209551  0.91964213  1
  Cu  Cu51  1  0.62623001  0.95209551  0.41964213  1
  Cu  Cu52  1  0.32586450  0.37376999  0.41964213  1
  Cu  Cu53  1  0.04790449  0.67413550  0.41964213  1
  C  C54  1  0.19865753  0.03388504  0.31119733  1
  C  C55  1  0.83522751  0.80134247  0.31119733  1
  C  C56  1  0.96611496  0.16477249  0.31119733  1
  C  C57  1  0.19865753  0.16477249  0.81119733  1
  C  C58  1  0.96611496  0.80134247  0.81119733  1
  C  C59  1  0.83522751  0.03388504  0.81119733  1
  C  C60  1  0.80007921  0.96777887  0.69176313  1
  C  C61  1  0.16769966  0.19992079  0.69176313  1
  C  C62  1  0.03222113  0.83230034  0.69176313  1
  C  C63  1  0.80007921  0.83230034  0.19176313  1
  C  C64  1  0.03222113  0.19992079  0.19176313  1
  C  C65  1  0.16769966  0.96777887  0.19176313  1
  C  C66  1  0.86532453  0.36721804  0.64453033  1
  C  C67  1  0.50189451  0.13467547  0.64453033  1
  C  C68  1  0.63278196  0.49810549  0.64453033  1
  C  C69  1  0.86532453  0.49810549  0.14453033  1
  C  C70  1  0.63278196  0.13467547  0.14453033  1
  C  C71  1  0.50189451  0.36721804  0.14453033  1
  C  C72  1  0.46674621  0.30111187  0.02509613  1
  C  C73  1  0.83436666  0.53325379  0.02509613  1
  C  C74  1  0.69888813  0.16563334  0.02509613  1
  C  C75  1  0.46674621  0.16563334  0.52509613  1
  C  C76  1  0.69888813  0.53325379  0.52509613  1
  C  C77  1  0.83436666  0.30111187  0.52509613  1
  C  C78  1  0.53199053  0.70055204  0.97786433  1
  C  C79  1  0.16856051  0.46800947  0.97786433  1
  C  C80  1  0.29944796  0.83143949  0.97786433  1
  C  C81  1  0.53199053  0.83143949  0.47786433  1
  C  C82  1  0.29944796  0.46800947  0.47786433  1
  C  C83  1  0.16856051  0.70055204  0.47786433  1
  C  C84  1  0.13341221  0.63444587  0.35843013  1
  C  C85  1  0.50103266  0.86658779  0.35843013  1
  C  C86  1  0.36555413  0.49896734  0.35843013  1
  C  C87  1  0.13341221  0.49896734  0.85843013  1
  C  C88  1  0.36555413  0.86658779  0.85843013  1
  C  C89  1  0.50103266  0.63444587  0.85843013  1
  C  C90  1  0.02466440  0.84062064  0.41161027  1
  C  C91  1  0.81595624  0.97533560  0.41161027  1
  C  C92  1  0.15937936  0.18404376  0.41161027  1
  C  C93  1  0.02466440  0.18404376  0.91161027  1
  C  C94  1  0.15937936  0.97533560  0.91161027  1
  C  C95  1  0.81595624  0.84062064  0.91161027  1
  C  C96  1  0.97454189  0.16374666  0.58769356  1
  C  C97  1  0.18920478  0.02545811  0.58769356  1
  C  C98  1  0.83625334  0.81079522  0.58769356  1
  C  C99  1  0.97454189  0.81079522  0.08769356  1
  C  C100  1  0.83625334  0.02545811  0.08769356  1
  C  C101  1  0.18920478  0.16374666  0.08769356  1
  C  C102  1  0.69133140  0.17395364  0.74494327  1
  C  C103  1  0.48262324  0.30866860  0.74494327  1
  C  C104  1  0.82604636  0.51737676  0.74494327  1
  C  C105  1  0.69133140  0.51737676  0.24494327  1
  C  C106  1  0.82604636  0.30866860  0.24494327  1
  C  C107  1  0.48262324  0.17395364  0.24494327  1
  C  C108  1  0.64120889  0.49707966  0.92102656  1
  C  C109  1  0.85587178  0.35879111  0.92102656  1
  C  C110  1  0.50292034  0.14412822  0.92102656  1
  C  C111  1  0.64120889  0.14412822  0.42102656  1
  C  C112  1  0.50292034  0.35879111  0.42102656  1
  C  C113  1  0.85587178  0.49707966  0.42102656  1
  C  C114  1  0.35799740  0.50728764  0.07827727  1
  C  C115  1  0.14928924  0.64200260  0.07827727  1
  C  C116  1  0.49271236  0.85071076  0.07827727  1
  C  C117  1  0.35799740  0.85071076  0.57827727  1
  C  C118  1  0.49271236  0.64200260  0.57827727  1
  C  C119  1  0.14928924  0.50728764  0.57827727  1
  C  C120  1  0.30787489  0.83041366  0.25436056  1
  C  C121  1  0.52253778  0.69212511  0.25436056  1
  C  C122  1  0.16958634  0.47746222  0.25436056  1
  C  C123  1  0.30787489  0.47746222  0.75436056  1
  C  C124  1  0.16958634  0.69212511  0.75436056  1
  C  C125  1  0.52253778  0.83041366  0.75436056  1
