# generated using pymatgen
data_CuNiC16
_symmetry_space_group_name_H-M   'P 1'
_cell_length_a   8.78505407
_cell_length_b   8.78505378
_cell_length_c   22.86617482
_cell_angle_alpha   90.00000000
_cell_angle_beta   90.00000000
_cell_angle_gamma   120.00000104
_symmetry_Int_Tables_number   1
_chemical_formula_structural   CuNiC16
_chemical_formula_sum   'Cu6 Ni6 C96'
_cell_volume   1528.31547329
_cell_formula_units_Z   6
loop_
 _symmetry_equiv_pos_site_id
 _symmetry_equiv_pos_as_xyz
  1  'x, y, z'
loop_
 _atom_site_type_symbol
 _atom_site_label
 _atom_site_symmetry_multiplicity
 _atom_site_fract_x
 _atom_site_fract_y
 _atom_site_fract_z
 _atom_site_occupancy
  Ni  Ni0  1  -0.00000000  0.00000000  0.49691401  1
  Ni  Ni1  1  -0.00000000  0.00000000  0.99691401  1
  Ni  Ni2  1  0.66666700  0.33333300  0.83024701  1
  Ni  Ni3  1  0.66666700  0.33333300  0.33024701  1
  Ni  Ni4  1  0.33333300  0.66666700  0.16358101  1
  Ni  Ni5  1  0.33333300  0.66666700  0.66358101  1
  Cu  Cu6  1  -0.00000000  0.00000000  0.35299423  1
  Cu  Cu7  1  -0.00000000  0.00000000  0.85299423  1
  Cu  Cu8  1  0.66666700  0.33333300  0.68632723  1
  Cu  Cu9  1  0.66666700  0.33333300  0.18632723  1
  Cu  Cu10  1  0.33333300  0.66666700  0.01966123  1
  Cu  Cu11  1  0.33333300  0.66666700  0.51966123  1
  C  C12  1  -0.00000000  0.00000000  0.64617944  1
  C  C13  1  -0.00000000  0.00000000  0.14617944  1
  C  C14  1  0.66666700  0.33333300  0.97951244  1
  C  C15  1  0.66666700  0.33333300  0.47951244  1
  C  C16  1  0.33333300  0.66666700  0.31284644  1
  C  C17  1  0.33333300  0.66666700  0.81284644  1
  C  C18  1  0.28986342  0.00097514  0.25080777  1
  C  C19  1  0.71111172  0.71013658  0.25080777  1
  C  C20  1  0.99902486  0.28888828  0.25080777  1
  C  C21  1  0.28986342  0.28888828  0.75080777  1
  C  C22  1  0.99902486  0.71013658  0.75080777  1
  C  C23  1  0.71111172  0.00097514  0.75080777  1
  C  C24  1  0.95653042  0.33430814  0.58414077  1
  C  C25  1  0.37777872  0.04346958  0.58414077  1
  C  C26  1  0.66569186  0.62222128  0.58414077  1
  C  C27  1  0.95653042  0.62222128  0.08414077  1
  C  C28  1  0.66569186  0.04346958  0.08414077  1
  C  C29  1  0.37777872  0.33430814  0.08414077  1
  C  C30  1  0.62319642  0.66764214  0.91747477  1
  C  C31  1  0.04444472  0.37680358  0.91747477  1
  C  C32  1  0.33235786  0.95555528  0.91747477  1
  C  C33  1  0.62319642  0.95555528  0.41747477  1
  C  C34  1  0.33235786  0.37680358  0.41747477  1
  C  C35  1  0.04444472  0.66764214  0.41747477  1
  C  C36  1  0.20541852  0.02638489  0.30458753  1
  C  C37  1  0.82096637  0.79458148  0.30458753  1
  C  C38  1  0.97361511  0.17903363  0.30458753  1
  C  C39  1  0.20541852  0.17903363  0.80458753  1
  C  C40  1  0.97361511  0.79458148  0.80458753  1
  C  C41  1  0.82096637  0.02638489  0.80458753  1
  C  C42  1  0.79913612  0.96899895  0.69521576  1
  C  C43  1  0.16986283  0.20086388  0.69521576  1
  C  C44  1  0.03100105  0.83013717  0.69521576  1
  C  C45  1  0.79913612  0.83013717  0.19521576  1
  C  C46  1  0.03100105  0.20086388  0.19521576  1
  C  C47  1  0.16986283  0.96899895  0.19521576  1
  C  C48  1  0.87208552  0.35971789  0.63792053  1
  C  C49  1  0.48763337  0.12791448  0.63792053  1
  C  C50  1  0.64028211  0.51236663  0.63792053  1
  C  C51  1  0.87208552  0.51236663  0.13792053  1
  C  C52  1  0.64028211  0.12791448  0.13792053  1
  C  C53  1  0.48763337  0.35971789  0.13792053  1
  C  C54  1  0.46580312  0.30233195  0.02854876  1
  C  C55  1  0.83652983  0.53419688  0.02854876  1
  C  C56  1  0.69766805  0.16347017  0.02854876  1
  C  C57  1  0.46580312  0.16347017  0.52854876  1
  C  C58  1  0.69766805  0.53419688  0.52854876  1
  C  C59  1  0.83652983  0.30233195  0.52854876  1
  C  C60  1  0.53875152  0.69305189  0.97125453  1
  C  C61  1  0.15429937  0.46124848  0.97125453  1
  C  C62  1  0.30694811  0.84570063  0.97125453  1
  C  C63  1  0.53875152  0.84570063  0.47125453  1
  C  C64  1  0.30694811  0.46124848  0.47125453  1
  C  C65  1  0.15429937  0.69305189  0.47125453  1
  C  C66  1  0.13246912  0.63566595  0.36188276  1
  C  C67  1  0.50319583  0.86753088  0.36188276  1
  C  C68  1  0.36433405  0.49680417  0.36188276  1
  C  C69  1  0.13246912  0.49680417  0.86188276  1
  C  C70  1  0.36433405  0.86753088  0.86188276  1
  C  C71  1  0.50319583  0.63566595  0.86188276  1
  C  C72  1  0.01876156  0.82405094  0.40947090  1
  C  C73  1  0.80528938  0.98123844  0.40947090  1
  C  C74  1  0.17594906  0.19471062  0.40947090  1
  C  C75  1  0.01876156  0.19471062  0.90947090  1
  C  C76  1  0.17594906  0.98123844  0.90947090  1
  C  C77  1  0.80528938  0.82405094  0.90947090  1
  C  C78  1  0.97061598  0.16292990  0.59122215  1
  C  C79  1  0.19231392  0.02938402  0.59122215  1
  C  C80  1  0.83707010  0.80768608  0.59122215  1
  C  C81  1  0.97061598  0.80768608  0.09122215  1
  C  C82  1  0.83707010  0.02938402  0.09122215  1
  C  C83  1  0.19231392  0.16292990  0.09122215  1
  C  C84  1  0.68542856  0.15738394  0.74280390  1
  C  C85  1  0.47195638  0.31457144  0.74280390  1
  C  C86  1  0.84261606  0.52804362  0.74280390  1
  C  C87  1  0.68542856  0.52804362  0.24280390  1
  C  C88  1  0.84261606  0.31457144  0.24280390  1
  C  C89  1  0.47195638  0.15738394  0.24280390  1
  C  C90  1  0.63728298  0.49626290  0.92455515  1
  C  C91  1  0.85898092  0.36271702  0.92455515  1
  C  C92  1  0.50373710  0.14101908  0.92455515  1
  C  C93  1  0.63728298  0.14101908  0.42455515  1
  C  C94  1  0.50373710  0.36271702  0.42455515  1
  C  C95  1  0.85898092  0.49626290  0.42455515  1
  C  C96  1  0.35209456  0.49071794  0.07613790  1
  C  C97  1  0.13862238  0.64790544  0.07613790  1
  C  C98  1  0.50928206  0.86137762  0.07613790  1
  C  C99  1  0.35209456  0.86137762  0.57613790  1
  C  C100  1  0.50928206  0.64790544  0.57613790  1
  C  C101  1  0.13862238  0.49071794  0.57613790  1
  C  C102  1  0.30394898  0.82959690  0.25788915  1
  C  C103  1  0.52564692  0.69605102  0.25788915  1
  C  C104  1  0.17040310  0.47435308  0.25788915  1
  C  C105  1  0.30394898  0.47435308  0.75788915  1
  C  C106  1  0.17040310  0.69605102  0.75788915  1
  C  C107  1  0.52564692  0.82959690  0.75788915  1
