# generated using pymatgen
data_Cu6NiC10
_symmetry_space_group_name_H-M   'P 1'
_cell_length_a   3.80442601
_cell_length_b   5.39214059
_cell_length_c   10.12074619
_cell_angle_alpha   87.24306980
_cell_angle_beta   89.99665862
_cell_angle_gamma   69.34733600
_symmetry_Int_Tables_number   1
_chemical_formula_structural   Cu6NiC10
_chemical_formula_sum   'Cu6 Ni1 C10'
_cell_volume   194.01802847
_cell_formula_units_Z   1
loop_
 _symmetry_equiv_pos_site_id
 _symmetry_equiv_pos_as_xyz
  1  'x, y, z'
loop_
 _atom_site_type_symbol
 _atom_site_label
 _atom_site_symmetry_multiplicity
 _atom_site_fract_x
 _atom_site_fract_y
 _atom_site_fract_z
 _atom_site_occupancy
  Ni  Ni0  1  0.49785900  0.00399900  0.27161000  1
  Cu  Cu1  1  0.13913200  0.72151200  0.94483700  1
  Cu  Cu2  1  0.12501800  0.74933500  0.54691100  1
  Cu  Cu3  1  0.20544400  0.58827400  0.23820700  1
  Cu  Cu4  1  0.80348000  0.39251700  0.74787100  1
  Cu  Cu5  1  0.87320400  0.25308900  0.03442700  1
  Cu  Cu6  1  0.85225900  0.29481800  0.45386700  1
  C  C7  1  0.03060400  0.93824300  0.37439700  1
  C  C8  1  0.68985800  0.61964800  0.56689000  1
  C  C9  1  0.33596300  0.32738800  0.09934000  1
  C  C10  1  0.95891500  0.08162600  0.87164900  1
  C  C11  1  0.05221300  0.89459400  0.11777100  1
  C  C12  1  0.69003500  0.61946400  0.92355100  1
  C  C13  1  0.70909800  0.58093000  0.26649200  1
  C  C14  1  0.24420100  0.51100900  0.75606500  1
  C  C15  1  0.32371500  0.35200000  0.41202400  1
  C  C16  1  0.95114600  0.09655400  0.61784200  1
