# generated using pymatgen
data_CuNiC11
_symmetry_space_group_name_H-M   'P 1'
_cell_length_a   17.86424586
_cell_length_b   8.93642797
_cell_length_c   22.17879606
_cell_angle_alpha   89.93738193
_cell_angle_beta   89.53021940
_cell_angle_gamma   119.96579004
_symmetry_Int_Tables_number   1
_chemical_formula_structural   CuNiC11
_chemical_formula_sum   'Cu18 Ni18 C198'
_cell_volume   3067.21674100
_cell_formula_units_Z   18
loop_
 _symmetry_equiv_pos_site_id
 _symmetry_equiv_pos_as_xyz
  1  'x, y, z'
loop_
 _atom_site_type_symbol
 _atom_site_label
 _atom_site_symmetry_multiplicity
 _atom_site_fract_x
 _atom_site_fract_y
 _atom_site_fract_z
 _atom_site_occupancy
  C  C0  1  0.31794390  0.00536013  0.24609216  1
  C  C1  1  0.19400898  0.36924601  0.24310080  1
  C  C2  1  0.68911879  0.36737687  0.24235135  1
  C  C3  1  0.99755560  0.63129483  0.25009001  1
  C  C4  1  0.31582057  0.61887037  0.75203125  1
  C  C5  1  0.81714083  0.62286464  0.74963238  1
  C  C6  1  0.99390210  0.36556840  0.74732874  1
  C  C7  1  0.49305631  0.37071337  0.74100732  1
  C  C8  1  0.18726097  0.00905026  0.74843231  1
  C  C9  1  0.68959150  0.01274699  0.75062334  1
  C  C10  1  0.65016485  0.34628510  0.57510921  1
  C  C11  1  0.32383035  0.68583871  0.07831704  1
  C  C12  1  0.82628446  0.69139869  0.08619387  1
  C  C13  1  0.16128521  0.31046212  0.92242085  1
  C  C14  1  0.99533302  0.30587940  0.42072133  1
  C  C15  1  0.16519535  0.02895101  0.42088439  1
  C  C16  1  0.66028584  0.02062560  0.41445799  1
  C  C17  1  0.84418205  0.67337359  0.41993708  1
  C  C18  1  0.00259945  0.00574226  0.50371839  1
  C  C19  1  0.48852881  0.99892589  0.49518545  1
  C  C20  1  0.00172895  0.01352309  0.99868064  1
  C  C21  1  0.50262156  0.02196696  0.99635415  1
  C  C22  1  0.34226291  0.34730989  0.83351531  1
  C  C23  1  0.83604311  0.33610954  0.83155213  1
  C  C24  1  0.34295560  0.36766492  0.32861301  1
  C  C25  1  0.83210398  0.32564708  0.32597608  1
  C  C26  1  0.16423842  0.66052371  0.15740595  1
  C  C27  1  0.65963288  0.66740463  0.15968656  1
  C  C28  1  0.16333408  0.66362236  0.65806769  1
  C  C29  1  0.66169159  0.67171224  0.65796412  1
  C  C30  1  0.00138421  0.99105737  0.35502543  1
  C  C31  1  0.99795561  0.00688123  0.84917208  1
  C  C32  1  0.50240442  0.99792641  0.85725739  1
  C  C33  1  0.00151566  0.00071373  0.65332131  1
  C  C34  1  0.50513251  0.01343184  0.64650505  1
  C  C35  1  0.00744954  0.99444366  0.14741789  1
  C  C36  1  0.49827419  0.00232079  0.14499316  1
  C  C37  1  0.33220660  0.34359987  0.97621605  1
  C  C38  1  0.82663091  0.32158117  0.98090940  1
  C  C39  1  0.33767783  0.33821485  0.48433482  1
  C  C40  1  0.83386966  0.33740627  0.47328456  1
  C  C41  1  0.17245000  0.66237777  0.31465649  1
  C  C42  1  0.67754551  0.67446243  0.31657199  1
  C  C43  1  0.15605716  0.63953354  0.81758112  1
  C  C44  1  0.65582390  0.65317939  0.80933625  1
  C  C45  1  0.49957109  0.00247005  0.35026627  1
  C  C46  1  0.33780113  0.35094105  0.68282589  1
  C  C47  1  0.83664959  0.33694623  0.69065978  1
  C  C48  1  0.32946542  0.34395637  0.18565014  1
  C  C49  1  0.83056115  0.33906400  0.18026215  1
  C  C50  1  0.16628114  0.63760667  0.01202421  1
  C  C51  1  0.65722791  0.63479804  0.01559886  1
  C  C52  1  0.15844341  0.65178109  0.51106829  1
  C  C53  1  0.66163001  0.64997676  0.51416390  1
  Ni  Ni54  1  0.14758592  0.99353832  0.25237890  1
  Ni  Ni55  1  0.35896555  0.71310437  0.25281726  1
  Ni  Ni56  1  0.85531033  0.71352895  0.24905551  1
  Ni  Ni57  1  0.14622894  0.29119209  0.74988865  1
  Ni  Ni58  1  0.64328641  0.28751033  0.75071263  1
  Ni  Ni59  1  0.00508986  0.71706911  0.75253299  1
  Ni  Ni60  1  0.49948732  0.71727272  0.75020665  1
  Ni  Ni61  1  0.85284006  0.99344339  0.75000164  1
  Ni  Ni62  1  0.48097361  0.33475395  0.58796245  1
  Ni  Ni63  1  0.18335247  0.32998247  0.08520756  1
  Ni  Ni64  1  0.68414928  0.33390923  0.08701414  1
  Ni  Ni65  1  0.31471816  0.67513423  0.91841728  1
  Ni  Ni66  1  0.01146039  0.35916239  0.91910349  1
  Ni  Ni67  1  0.51707592  0.36830205  0.91693651  1
  Ni  Ni68  1  0.81195582  0.95599163  0.42019655  1
  Ni  Ni69  1  0.17080979  0.37387663  0.41752513  1
  Ni  Ni70  1  0.65950062  0.36205496  0.41869894  1
  Ni  Ni71  1  0.02514770  0.66995161  0.41661438  1
  Cu  Cu72  1  0.64535436  0.99137555  0.24984533  1
  Cu  Cu73  1  0.99954905  0.28535200  0.25004422  1
  Cu  Cu74  1  0.50323315  0.29733574  0.24935511  1
  Cu  Cu75  1  0.35589279  0.99360946  0.75124146  1
  Cu  Cu76  1  0.97859438  0.32874856  0.58344381  1
  Cu  Cu77  1  0.18566787  0.03937060  0.58434871  1
  Cu  Cu78  1  0.68774860  0.04196741  0.58374298  1
  Cu  Cu79  1  0.33239019  0.63106529  0.58352636  1
  Cu  Cu80  1  0.83898313  0.63087876  0.58424350  1
  Cu  Cu81  1  0.47896223  0.62657070  0.08414199  1
  Cu  Cu82  1  0.97993159  0.62575045  0.08349933  1
  Cu  Cu83  1  0.33529028  0.04779172  0.08599486  1
  Cu  Cu84  1  0.83449100  0.04584837  0.08339521  1
  Cu  Cu85  1  0.81446555  0.66641380  0.91733903  1
  Cu  Cu86  1  0.16604358  0.95506040  0.91728217  1
  Cu  Cu87  1  0.66811984  0.95708803  0.91778047  1
  Cu  Cu88  1  0.31353790  0.96126138  0.41878917  1
  Cu  Cu89  1  0.51914378  0.65839644  0.41716846  1
  C  C90  1  0.09583406  0.02083654  0.30881019  1
  C  C91  1  0.61214951  0.02431593  0.30668116  1
  C  C92  1  0.41204240  0.81289030  0.31019499  1
  C  C93  1  0.91461519  0.81797083  0.30707813  1
  C  C94  1  0.49072380  0.19805207  0.30463641  1
  C  C95  1  0.99003444  0.19170119  0.30712261  1
  C  C96  1  0.10032047  0.17377297  0.81018016  1
  C  C97  1  0.59273558  0.15708032  0.80553460  1
  C  C98  1  0.48739229  0.81486353  0.80734160  1
  C  C99  1  0.98982918  0.81535477  0.80883103  1
  C  C100  1  0.40964615  0.02084081  0.80453222  1
  C  C101  1  0.91869361  0.03074793  0.80637468  1
  C  C102  1  0.39744958  0.97079950  0.69573728  1
  C  C103  1  0.90071221  0.95624203  0.69178758  1
  C  C104  1  0.07856293  0.19880742  0.69303445  1
  C  C105  1  0.58263348  0.20571605  0.68902187  1
  C  C106  1  0.02275022  0.84638549  0.69295209  1
  C  C107  1  0.51382273  0.84294184  0.69087653  1
  C  C108  1  0.40543210  0.84086253  0.19129980  1
  C  C109  1  0.90013488  0.82568238  0.18725539  1
  C  C110  1  0.01049696  0.19605247  0.19714037  1
  C  C111  1  0.51871524  0.20883924  0.19592578  1
  C  C112  1  0.08209973  0.96876886  0.19429082  1
  C  C113  1  0.59001049  0.98014859  0.19763264  1
  C  C114  1  0.43681848  0.34784020  0.64948850  1
  C  C115  1  0.93586568  0.34050481  0.63918048  1
  C  C116  1  0.23291605  0.12285108  0.63990500  1
  C  C117  1  0.73523397  0.12356602  0.63942990  1
  C  C118  1  0.31873758  0.53643403  0.64123196  1
  C  C119  1  0.82927684  0.52603081  0.63872475  1
  C  C120  1  0.44185433  0.52370074  0.13876181  1
  C  C121  1  0.94576128  0.53373903  0.14188036  1
  C  C122  1  0.33170155  0.12718162  0.14341814  1
  C  C123  1  0.82796072  0.12884686  0.13843454  1
  C  C124  1  0.23847097  0.35809669  0.14524632  1
  C  C125  1  0.73971033  0.36833813  0.14786275  1
  C  C126  1  0.23607298  0.31098409  0.02444359  1
  C  C127  1  0.73965100  0.30924622  0.02890070  1
  C  C128  1  0.42320348  0.54144160  0.03009731  1
  C  C129  1  0.92084989  0.52970604  0.03296716  1
  C  C130  1  0.34708229  0.15695519  0.03280093  1
  C  C131  1  0.84488629  0.15693745  0.02856763  1
  C  C132  1  0.23192537  0.14897596  0.52899594  1
  C  C133  1  0.73250457  0.15430772  0.52933618  1
  C  C134  1  0.34035305  0.52855019  0.53178242  1
  C  C135  1  0.84326630  0.53743029  0.52834696  1
  C  C136  1  0.41553723  0.31748693  0.52974265  1
  C  C137  1  0.92721302  0.31817255  0.52832018  1
  C  C138  1  0.28213330  0.71152288  0.98068290  1
  C  C139  1  0.77865609  0.69578233  0.97310069  1
  C  C140  1  0.07856787  0.43920912  0.97227064  1
  C  C141  1  0.57529114  0.44122473  0.97431160  1
  C  C142  1  0.15624227  0.85456973  0.97092518  1
  C  C143  1  0.65954617  0.85564196  0.97108558  1
  C  C144  1  0.27213604  0.85796939  0.47270584  1
  C  C145  1  0.77079404  0.82644431  0.47548931  1
  C  C146  1  0.14009528  0.44455914  0.47289870  1
  C  C147  1  0.64820239  0.43520000  0.48102325  1
  C  C148  1  0.08722149  0.73137771  0.47320752  1
  C  C149  1  0.57165165  0.68863595  0.47135194  1
  C  C150  1  0.06681618  0.62628083  0.35729475  1
  C  C151  1  0.56109802  0.63347778  0.36244342  1
  C  C152  1  0.25835912  0.87770440  0.36300281  1
  C  C153  1  0.74647551  0.86660248  0.36053123  1
  C  C154  1  0.18510521  0.49768099  0.35634181  1
  C  C155  1  0.68178158  0.50113800  0.36066575  1
  C  C156  1  0.05891861  0.48123844  0.85590138  1
  C  C157  1  0.56534704  0.49856989  0.85637881  1
  C  C158  1  0.17541850  0.87251192  0.86065836  1
  C  C159  1  0.67968774  0.88053509  0.86089089  1
  C  C160  1  0.24601558  0.63561994  0.86111033  1
  C  C161  1  0.76077876  0.64417611  0.86309737  1
  C  C162  1  0.00312498  0.82745860  0.40771197  1
  C  C163  1  0.50786212  0.81020287  0.41115550  1
  C  C164  1  0.40139007  0.99230261  0.41224326  1
  C  C165  1  0.91004165  0.99412585  0.40756612  1
  C  C166  1  0.08523069  0.18018301  0.40585458  1
  C  C167  1  0.58566531  0.16497814  0.40790876  1
  C  C168  1  0.00470087  0.16935808  0.90899727  1
  C  C169  1  0.50493173  0.17724576  0.90318765  1
  C  C170  1  0.09072287  0.98530735  0.91232511  1
  C  C171  1  0.59166301  0.98234545  0.91315998  1
  C  C172  1  0.41195505  0.83301404  0.90591364  1
  C  C173  1  0.90324731  0.81704540  0.90975321  1
  C  C174  1  0.48725400  0.15147882  0.58806834  1
  C  C175  1  0.98399574  0.16627608  0.58416877  1
  C  C176  1  0.09871672  0.02837639  0.58446429  1
  C  C177  1  0.60128492  0.03789844  0.58526640  1
  C  C178  1  0.41486940  0.79904896  0.58405527  1
  C  C179  1  0.92048195  0.80121069  0.58497223  1
  C  C180  1  0.47942375  0.79840967  0.08841978  1
  C  C181  1  0.97858794  0.79598167  0.08529976  1
  C  C182  1  0.41643800  0.02609188  0.08742463  1
  C  C183  1  0.91306434  0.02583226  0.08331002  1
  C  C184  1  0.08620402  0.14834619  0.09074160  1
  C  C185  1  0.58859057  0.15277172  0.09210130  1
  C  C186  1  0.34257564  0.14365306  0.74728405  1
  C  C187  1  0.84303170  0.16237947  0.74603985  1
  C  C188  1  0.24033937  0.30857555  0.74408378  1
  C  C189  1  0.73905541  0.31403920  0.74572109  1
  C  C190  1  0.41728339  0.52404298  0.74964346  1
  C  C191  1  0.92147196  0.52715761  0.74762067  1
  C  C192  1  0.34156175  0.51945980  0.24806345  1
  C  C193  1  0.84615413  0.52162295  0.25107006  1
  C  C194  1  0.42589577  0.31195484  0.24000787  1
  C  C195  1  0.92548230  0.31430158  0.24453513  1
  C  C196  1  0.24361888  0.15700628  0.25036401  1
  C  C197  1  0.73438658  0.14120301  0.24285792  1
  C  C198  1  0.31768265  0.48896026  0.92191760  1
  C  C199  1  0.82186948  0.50541041  0.92232221  1
  C  C200  1  0.42028233  0.34986422  0.92548886  1
  C  C201  1  0.91723609  0.34696493  0.92601842  1
  C  C202  1  0.24558725  0.13422999  0.91842752  1
  C  C203  1  0.74738155  0.13603111  0.92124604  1
  C  C204  1  0.31607494  0.13367851  0.42184714  1
  C  C205  1  0.81982538  0.14923948  0.42581742  1
  C  C206  1  0.25467242  0.34631424  0.42597852  1
  C  C207  1  0.75508685  0.35892455  0.42404730  1
  C  C208  1  0.43095404  0.49827398  0.42317700  1
  C  C209  1  0.92756189  0.49406323  0.42555554  1
  C  C210  1  0.17449269  0.50167619  0.08127881  1
  C  C211  1  0.67978965  0.51016164  0.08048123  1
  C  C212  1  0.06864573  0.66301177  0.07493139  1
  C  C213  1  0.56854767  0.66600313  0.07614419  1
  C  C214  1  0.25988585  0.87310300  0.08222305  1
  C  C215  1  0.75742321  0.87309192  0.07690037  1
  C  C216  1  0.17737787  0.86768464  0.57952657  1
  C  C217  1  0.67463373  0.86866101  0.57750000  1
  C  C218  1  0.25779233  0.65641070  0.57496235  1
  C  C219  1  0.76208789  0.65060685  0.58223946  1
  C  C220  1  0.06564141  0.48372280  0.58098732  1
  C  C221  1  0.57836691  0.49729584  0.58207502  1
  C  C222  1  0.14827900  0.81129499  0.25646738  1
  C  C223  1  0.64707219  0.82615668  0.25251421  1
  C  C224  1  0.25961338  0.69951720  0.25599442  1
  C  C225  1  0.75656816  0.68972867  0.25750393  1
  C  C226  1  0.08170746  0.45947912  0.25145789  1
  C  C227  1  0.58364645  0.47061130  0.25218645  1
  C  C228  1  0.15408028  0.48386294  0.75547343  1
  C  C229  1  0.64957640  0.47850474  0.75694523  1
  C  C230  1  0.09477142  0.70703444  0.75749589  1
  C  C231  1  0.59062665  0.70869491  0.75573635  1
  C  C232  1  0.26954569  0.83330133  0.75547886  1
  C  C233  1  0.75956512  0.81791367  0.75911106  1
