# generated using pymatgen
data_Cu3(NiC17)2
_symmetry_space_group_name_H-M   'P 1'
_cell_length_a   8.82733741
_cell_length_b   8.82055240
_cell_length_c   22.08020128
_cell_angle_alpha   89.54156737
_cell_angle_beta   90.45607602
_cell_angle_gamma   119.88460999
_symmetry_Int_Tables_number   1
_chemical_formula_structural   Cu3(NiC17)2
_chemical_formula_sum   'Cu9 Ni6 C102'
_cell_volume   1490.54300090
_cell_formula_units_Z   3
loop_
 _symmetry_equiv_pos_site_id
 _symmetry_equiv_pos_as_xyz
  1  'x, y, z'
loop_
 _atom_site_type_symbol
 _atom_site_label
 _atom_site_symmetry_multiplicity
 _atom_site_fract_x
 _atom_site_fract_y
 _atom_site_fract_z
 _atom_site_occupancy
  C  C0  1  0.99300622  0.62682893  0.24608167  1
  C  C1  1  0.37173682  0.00746934  0.74629143  1
  C  C2  1  0.03652996  0.69879903  0.57945325  1
  C  C3  1  0.65265226  0.95847724  0.58075924  1
  C  C4  1  0.30014551  0.96289244  0.07934739  1
  C  C5  1  0.03931224  0.34615597  0.08191062  1
  C  C6  1  0.97143485  0.67160632  0.91595393  1
  C  C7  1  0.96724894  0.29482846  0.41137584  1
  C  C8  1  0.33190255  0.02866058  0.41533972  1
  C  C9  1  0.99558126  0.99280359  0.49374762  1
  C  C10  1  0.99402307  0.00158434  0.99250131  1
  C  C11  1  0.66998795  0.33028782  0.82729804  1
  C  C12  1  0.66071603  0.33046067  0.32603330  1
  C  C13  1  0.35097568  0.66237584  0.16184982  1
  C  C14  1  0.33592346  0.64677519  0.66136059  1
  C  C15  1  0.99668430  0.99955874  0.64584505  1
  C  C16  1  -0.00006537  0.00244431  0.14512571  1
  C  C17  1  0.65687936  0.32971287  0.97774512  1
  C  C18  1  0.66632473  0.33997503  0.47849973  1
  C  C19  1  0.33287138  0.66669723  0.31130240  1
  C  C20  1  0.34052665  0.67169421  0.81110147  1
  Ni  Ni21  1  0.98547515  0.99036630  0.35317530  1
  Ni  Ni22  1  0.00495988  0.01084397  0.85358401  1
  Ni  Ni23  1  0.66759020  0.33142349  0.68654393  1
  Ni  Ni24  1  0.66915253  0.33250959  0.18604676  1
  Ni  Ni25  1  0.32999088  0.66393719  0.01949338  1
  Ni  Ni26  1  0.34058443  0.67475594  0.52019755  1
  Cu  Cu27  1  0.98595268  0.28156040  0.25302282  1
  Cu  Cu28  1  0.72290381  0.01714841  0.75332919  1
  Cu  Cu29  1  0.37984972  0.04285042  0.58629766  1
  Cu  Cu30  1  0.64926670  0.60947316  0.58793669  1
  Cu  Cu31  1  0.95652065  0.61804860  0.08491602  1
  Cu  Cu32  1  0.39029734  0.35073469  0.08733050  1
  Cu  Cu33  1  0.32393579  0.95346913  0.91825093  1
  Cu  Cu34  1  0.62948857  0.94951046  0.41972254  1
  Cu  Cu35  1  0.04795710  0.67698930  0.41835842  1
  C  C36  1  0.29690543  0.01427905  0.25243491  1
  C  C37  1  0.71391455  0.70850774  0.25169091  1
  C  C38  1  0.28985357  0.28472847  0.75274621  1
  C  C39  1  0.98624264  0.70152100  0.75291121  1
  C  C40  1  0.95887348  0.34120502  0.58486164  1
  C  C41  1  0.65838511  0.04194301  0.08499219  1
  C  C42  1  0.62300176  0.67715987  0.91974306  1
  C  C43  1  0.05000882  0.37246357  0.91836156  1
  C  C44  1  0.32933730  0.38198865  0.41926496  1
  C  C45  1  0.20458075  0.02844989  0.30873099  1
  C  C46  1  0.83318728  0.79747444  0.30630726  1
  C  C47  1  0.97490512  0.16739783  0.31175794  1
  C  C48  1  0.20160838  0.16468559  0.80702303  1
  C  C49  1  0.97173566  0.79325835  0.80921849  1
  C  C50  1  0.84254324  0.02855251  0.80926211  1
  C  C51  1  0.80143573  0.97794484  0.69063495  1
  C  C52  1  0.17322627  0.19724463  0.69513258  1
  C  C53  1  0.02898817  0.82487266  0.69536142  1
  C  C54  1  0.80235436  0.82528470  0.19444418  1
  C  C55  1  0.02004185  0.19501235  0.19148859  1
  C  C56  1  0.17490166  0.97316282  0.19482669  1
  C  C57  1  0.87016951  0.36845049  0.63898202  1
  C  C58  1  0.50421460  0.13241962  0.64411079  1
  C  C59  1  0.64063821  0.49354140  0.64429145  1
  C  C60  1  0.86831012  0.49495130  0.14337104  1
  C  C61  1  0.62965441  0.12735196  0.13995631  1
  C  C62  1  0.50675270  0.36146260  0.14387967  1
  C  C63  1  0.46834679  0.29713033  0.02698005  1
  C  C64  1  0.83736892  0.53049760  0.02321479  1
  C  C65  1  0.69959662  0.16346101  0.02801760  1
  C  C66  1  0.46882357  0.16298494  0.52440986  1
  C  C67  1  0.70243339  0.53238427  0.52731915  1
  C  C68  1  0.84226826  0.30067048  0.52616250  1
  C  C69  1  0.52769908  0.69283358  0.97387973  1
  C  C70  1  0.15482737  0.45784224  0.97636620  1
  C  C71  1  0.29653976  0.83006696  0.97654612  1
  C  C72  1  0.53665870  0.83944534  0.47976658  1
  C  C73  1  0.30075446  0.47079128  0.47305923  1
  C  C74  1  0.16783669  0.70137503  0.47724713  1
  C  C75  1  0.13276695  0.63324631  0.35794997  1
  C  C76  1  0.49644583  0.85892586  0.36089417  1
  C  C77  1  0.36085380  0.49410587  0.36080709  1
  C  C78  1  0.13900007  0.49578776  0.86293892  1
  C  C79  1  0.35569458  0.86070269  0.85773473  1
  C  C80  1  0.50820308  0.64259732  0.86140684  1
  C  C81  1  0.03663371  0.85219763  0.40696452  1
  C  C82  1  0.82539626  0.98352435  0.41084010  1
  C  C83  1  0.17217004  0.19676765  0.41200581  1
  C  C84  1  0.02924369  0.19144345  0.91014252  1
  C  C85  1  0.14931109  0.96820486  0.90782834  1
  C  C86  1  0.80805164  0.83250000  0.91198954  1
  C  C87  1  0.97068784  0.17018813  0.58919171  1
  C  C88  1  0.18181370  0.01913452  0.58927871  1
  C  C89  1  0.83124466  0.80945890  0.59118983  1
  C  C90  1  0.98148382  0.81691583  0.08925455  1
  C  C91  1  0.82908871  0.02946342  0.08899947  1
  C  C92  1  0.19056685  0.16889111  0.09088790  1
  C  C93  1  0.68601586  0.17806208  0.74442019  1
  C  C94  1  0.47003069  0.30311162  0.74486135  1
  C  C95  1  0.82948776  0.52230804  0.74338904  1
  C  C96  1  0.69732352  0.52874794  0.24442834  1
  C  C97  1  0.82089252  0.31262211  0.24437823  1
  C  C98  1  0.47644132  0.17043311  0.24337866  1
  C  C99  1  0.64396808  0.50887227  0.92222773  1
  C  C100  1  0.86722279  0.36317804  0.92116039  1
  C  C101  1  0.50425818  0.14591826  0.92067798  1
  C  C102  1  0.64323550  0.14631621  0.42170666  1
  C  C103  1  0.49534745  0.36099033  0.42176792  1
  C  C104  1  0.85711585  0.49486844  0.42135310  1
  C  C105  1  0.35469145  0.51025872  0.07503841  1
  C  C106  1  0.15286642  0.64581055  0.07684291  1
  C  C107  1  0.49849426  0.86186134  0.07525643  1
  C  C108  1  0.35123577  0.84632688  0.57872761  1
  C  C109  1  0.48690304  0.64118911  0.57730538  1
  C  C110  1  0.13872180  0.50142347  0.57579050  1
  C  C111  1  0.30505689  0.83877670  0.25500378  1
  C  C112  1  0.53203692  0.69479340  0.25532986  1
  C  C113  1  0.16506580  0.48152919  0.25480955  1
  C  C114  1  0.30280938  0.46670892  0.75678125  1
  C  C115  1  0.16002451  0.69030137  0.75605247  1
  C  C116  1  0.52151738  0.83576264  0.75645647  1
