# generated using pymatgen
data_CuNi4C7
_symmetry_space_group_name_H-M   'P 1'
_cell_length_a   8.90660200
_cell_length_b   3.80535400
_cell_length_c   12.52561740
_cell_angle_alpha   72.60991084
_cell_angle_beta   90.00000000
_cell_angle_gamma   90.00000000
_symmetry_Int_Tables_number   1
_chemical_formula_structural   CuNi4C7
_chemical_formula_sum   'Cu4 Ni16 C28'
_cell_volume   405.12360981
_cell_formula_units_Z   4
loop_
 _symmetry_equiv_pos_site_id
 _symmetry_equiv_pos_as_xyz
  1  'x, y, z'
loop_
 _atom_site_type_symbol
 _atom_site_label
 _atom_site_symmetry_multiplicity
 _atom_site_fract_x
 _atom_site_fract_y
 _atom_site_fract_z
 _atom_site_occupancy
  C  C0  1  0.52814600  0.45721600  0.16599900  1
  C  C1  1  0.02814600  0.54278400  0.33400100  1
  C  C2  1  0.47185400  0.54278400  0.83400100  1
  C  C3  1  0.97185400  0.45721600  0.66599900  1
  C  C4  1  0.45558000  0.78063700  0.21332700  1
  C  C5  1  0.95558000  0.21936300  0.28667300  1
  C  C6  1  0.54442000  0.21936300  0.78667300  1
  C  C7  1  0.04442000  0.78063700  0.71332700  1
  C  C8  1  0.70911100  0.68178900  0.26787600  1
  C  C9  1  0.20911100  0.31821100  0.23212400  1
  C  C10  1  0.29088900  0.31821100  0.73212400  1
  C  C11  1  0.79088900  0.68178900  0.76787600  1
  C  C12  1  0.86953900  0.54972800  0.95280300  1
  C  C13  1  0.87137200  0.09111400  0.47959500  1
  C  C14  1  0.13046100  0.45027200  0.04719700  1
  C  C15  1  0.63046100  0.54972800  0.45280300  1
  C  C16  1  0.92147100  0.20979800  0.90447300  1
  C  C17  1  0.42147100  0.79020200  0.59552700  1
  C  C18  1  0.07852900  0.79020200  0.09552700  1
  C  C19  1  0.57852900  0.20979800  0.40447300  1
  C  C20  1  0.62862800  0.09111400  0.97959500  1
  C  C21  1  0.12862800  0.90888600  0.52040500  1
  C  C22  1  0.37137200  0.90888600  0.02040500  1
  C  C23  1  0.36953900  0.45027200  0.54719700  1
  C  C24  1  0.72093500  0.99992700  0.61225800  1
  C  C25  1  0.27906500  0.00007300  0.38774200  1
  C  C26  1  0.22093500  0.00007300  0.88774200  1
  C  C27  1  0.77906500  0.99992700  0.11225800  1
  Ni  Ni28  1  0.17307800  0.17164700  0.31145400  1
  Ni  Ni29  1  0.02994000  0.26480200  0.34416600  1
  Ni  Ni30  1  0.47006000  0.26480200  0.84416600  1
  Ni  Ni31  1  0.97006000  0.73519800  0.65583400  1
  Ni  Ni32  1  0.67307800  0.82835300  0.18854600  1
  Ni  Ni33  1  0.52994000  0.73519800  0.15583400  1
  Ni  Ni34  1  0.32692200  0.17164700  0.81145400  1
  Ni  Ni35  1  0.82692200  0.82835300  0.68854600  1
  Ni  Ni36  1  0.76127100  0.10383400  0.50189500  1
  Ni  Ni37  1  0.32936000  0.65041900  0.57917800  1
  Ni  Ni38  1  0.82936000  0.34958100  0.92082200  1
  Ni  Ni39  1  0.67064000  0.34958100  0.42082200  1
  Ni  Ni40  1  0.73872900  0.10383400  0.00189500  1
  Ni  Ni41  1  0.23872900  0.89616600  0.49810500  1
  Ni  Ni42  1  0.26127100  0.89616600  0.99810500  1
  Ni  Ni43  1  0.17064000  0.65041900  0.07917800  1
  Cu  Cu44  1  0.90843900  0.05979500  0.14398500  1
  Cu  Cu45  1  0.40843900  0.94020500  0.35601500  1
  Cu  Cu46  1  0.09156100  0.94020500  0.85601500  1
  Cu  Cu47  1  0.59156100  0.05979500  0.64398500  1
