# generated using pymatgen
data_Cu2Ni2C9
_symmetry_space_group_name_H-M   'P 1'
_cell_length_a   3.19138000
_cell_length_b   3.19137690
_cell_length_c   44.42692900
_cell_angle_alpha   90.00106428
_cell_angle_beta   90.00000000
_cell_angle_gamma   120.00007078
_symmetry_Int_Tables_number   1
_chemical_formula_structural   Cu2Ni2C9
_chemical_formula_sum   'Cu2 Ni2 C9'
_cell_volume   391.86207365
_cell_formula_units_Z   1
loop_
 _symmetry_equiv_pos_site_id
 _symmetry_equiv_pos_as_xyz
  1  'x, y, z'
loop_
 _atom_site_type_symbol
 _atom_site_label
 _atom_site_symmetry_multiplicity
 _atom_site_fract_x
 _atom_site_fract_y
 _atom_site_fract_z
 _atom_site_occupancy
  C  C0  1  0.99998700  0.99997400  0.18388200  1
  Ni  Ni1  1  0.33333300  0.66666500  0.08600000  1
  Ni  Ni2  1  0.66667300  0.33334700  0.65764000  1
  Cu  Cu3  1  0.33333200  0.66666500  0.46968000  1
  Cu  Cu4  1  0.66666500  0.33333000  0.29056100  1
  C  C5  1  0.33333500  0.66666900  0.32591400  1
  C  C6  1  0.33335100  0.66670400  0.69284200  1
  C  C7  1  0.66666000  0.33331800  0.05095800  1
  C  C8  1  0.66666100  0.33332200  0.43433400  1
  C  C9  1  0.66667400  0.33334700  0.12151800  1
  C  C10  1  0.66667000  0.33333900  0.50503300  1
  C  C11  1  0.33332700  0.66665600  0.25498500  1
  C  C12  1  0.33333100  0.66666300  0.62243800  1
