# generated using pymatgen
data_Cu6Ni6C7
_symmetry_space_group_name_H-M   'P 1'
_cell_length_a   14.63181332
_cell_length_b   5.27050420
_cell_length_c   3.09801242
_cell_angle_alpha   90.45490130
_cell_angle_beta   88.30485205
_cell_angle_gamma   92.87059615
_symmetry_Int_Tables_number   1
_chemical_formula_structural   Cu6Ni6C7
_chemical_formula_sum   'Cu6 Ni6 C7'
_cell_volume   238.50032824
_cell_formula_units_Z   1
loop_
 _symmetry_equiv_pos_site_id
 _symmetry_equiv_pos_as_xyz
  1  'x, y, z'
loop_
 _atom_site_type_symbol
 _atom_site_label
 _atom_site_symmetry_multiplicity
 _atom_site_fract_x
 _atom_site_fract_y
 _atom_site_fract_z
 _atom_site_occupancy
  C  C0  1  0.84399075  0.02713467  0.86092747  1
  C  C1  1  0.05709179  0.98962402  0.06168274  1
  C  C2  1  0.15826486  0.51738706  0.53170356  1
  C  C3  1  0.35256370  0.97188590  0.01504092  1
  C  C4  1  0.50214804  0.55452423  0.50156336  1
  C  C5  1  0.65367043  0.00576662  0.99593144  1
  C  C6  1  0.77507425  0.52048307  0.45165271  1
  Ni  Ni7  1  0.07576901  0.77251022  0.56090100  1
  Ni  Ni8  1  0.12549672  0.31949353  0.03257041  1
  Ni  Ni9  1  0.40887007  0.81252168  0.50758837  1
  Ni  Ni10  1  0.56703749  0.69244423  0.99501960  1
  Ni  Ni11  1  0.72710165  0.87193337  0.48200034  1
  Ni  Ni12  1  0.74924090  0.28208175  0.96116367  1
  Cu  Cu13  1  0.24735607  0.70055611  0.02683941  1
  Cu  Cu14  1  0.28963940  0.14838260  0.52264121  1
  Cu  Cu15  1  0.43536479  0.32399591  0.00674088  1
  Cu  Cu16  1  0.58228559  0.19256089  0.49464582  1
  Cu  Cu17  1  0.86913738  0.67591549  0.92693819  1
  Cu  Cu18  1  0.92249411  0.12080066  0.35611590  1
