# generated using pymatgen
data_CuNiC11
_symmetry_space_group_name_H-M   'P 1'
_cell_length_a   5.55122300
_cell_length_b   5.55122313
_cell_length_c   6.90583300
_cell_angle_alpha   90.00000000
_cell_angle_beta   90.00000000
_cell_angle_gamma   120.00000519
_symmetry_Int_Tables_number   1
_chemical_formula_structural   CuNiC11
_chemical_formula_sum   'Cu1 Ni1 C11'
_cell_volume   184.29944976
_cell_formula_units_Z   1
loop_
 _symmetry_equiv_pos_site_id
 _symmetry_equiv_pos_as_xyz
  1  'x, y, z'
loop_
 _atom_site_type_symbol
 _atom_site_label
 _atom_site_symmetry_multiplicity
 _atom_site_fract_x
 _atom_site_fract_y
 _atom_site_fract_z
 _atom_site_occupancy
  C  C0  1  0.00000000  0.00000000  0.49853500  1
  Ni  Ni1  1  0.66666700  0.33333300  0.16204800  1
  Cu  Cu2  1  0.00000000  0.00000000  0.01542600  1
  C  C3  1  0.33333300  0.66666700  0.29941400  1
  C  C4  1  0.66666700  0.33333300  0.71896800  1
  C  C5  1  0.33075100  0.16537600  0.83382500  1
  C  C6  1  0.83462400  0.16537600  0.83382500  1
  C  C7  1  0.83462400  0.66924900  0.83382500  1
  C  C8  1  0.15727000  0.84273000  0.15897900  1
  C  C9  1  0.33333300  0.66666700  0.56190600  1
  C  C10  1  0.66666700  0.33333300  0.45047700  1
  C  C11  1  0.15727000  0.31454000  0.15897900  1
  C  C12  1  0.68546000  0.84273000  0.15897900  1
