# generated using pymatgen
data_CuNiC
_symmetry_space_group_name_H-M   'P 1'
_cell_length_a   4.78195100
_cell_length_b   8.27696000
_cell_length_c   37.31282100
_cell_angle_alpha   90.00000000
_cell_angle_beta   90.00000000
_cell_angle_gamma   90.00000000
_symmetry_Int_Tables_number   1
_chemical_formula_structural   CuNiC
_chemical_formula_sum   'Cu20 Ni20 C20'
_cell_volume   1476.84209506
_cell_formula_units_Z   20
loop_
 _symmetry_equiv_pos_site_id
 _symmetry_equiv_pos_as_xyz
  1  'x, y, z'
loop_
 _atom_site_type_symbol
 _atom_site_label
 _atom_site_symmetry_multiplicity
 _atom_site_fract_x
 _atom_site_fract_y
 _atom_site_fract_z
 _atom_site_occupancy
  C  C0  1  0.25000000  0.71630700  0.99918200  1
  C  C1  1  0.75000000  0.28369300  0.00081800  1
  C  C2  1  0.75000000  0.21630700  0.50081800  1
  C  C3  1  0.25000000  0.78369300  0.49918200  1
  C  C4  1  0.25000000  0.79178700  0.10022300  1
  C  C5  1  0.75000000  0.20821300  0.89977700  1
  C  C6  1  0.75000000  0.29178700  0.39977700  1
  C  C7  1  0.25000000  0.70821300  0.60022300  1
  C  C8  1  0.25000000  0.71257800  0.20120100  1
  C  C9  1  0.75000000  0.28742200  0.79879900  1
  C  C10  1  0.75000000  0.21257800  0.29879900  1
  C  C11  1  0.25000000  0.78742200  0.70120100  1
  C  C12  1  0.25000000  0.78995000  0.30070500  1
  C  C13  1  0.75000000  0.21005000  0.69929500  1
  C  C14  1  0.75000000  0.28995000  0.19929500  1
  C  C15  1  0.25000000  0.71005000  0.80070500  1
  C  C16  1  0.25000000  0.71032500  0.40000400  1
  C  C17  1  0.75000000  0.28967500  0.59999600  1
  C  C18  1  0.75000000  0.21032500  0.09999600  1
  C  C19  1  0.25000000  0.78967500  0.90000400  1
  Ni  Ni20  1  0.25000000  0.41510000  0.05940800  1
  Ni  Ni21  1  0.75000000  0.58490000  0.94059200  1
  Ni  Ni22  1  0.75000000  0.91510000  0.44059200  1
  Ni  Ni23  1  0.25000000  0.08490000  0.55940800  1
  Ni  Ni24  1  0.25000000  0.41576700  0.14015800  1
  Ni  Ni25  1  0.75000000  0.58423300  0.85984200  1
  Ni  Ni26  1  0.75000000  0.91576700  0.35984200  1
  Ni  Ni27  1  0.25000000  0.08423300  0.64015800  1
  Ni  Ni28  1  0.25000000  0.08820300  0.23974800  1
  Ni  Ni29  1  0.75000000  0.91179700  0.76025200  1
  Ni  Ni30  1  0.75000000  0.58820300  0.26025200  1
  Ni  Ni31  1  0.25000000  0.41179700  0.73974800  1
  Ni  Ni32  1  0.25000000  0.41551300  0.34060500  1
  Ni  Ni33  1  0.75000000  0.58448700  0.65939500  1
  Ni  Ni34  1  0.75000000  0.91551300  0.15939500  1
  Ni  Ni35  1  0.25000000  0.08448700  0.84060500  1
  Ni  Ni36  1  0.25000000  0.41410900  0.45883800  1
  Ni  Ni37  1  0.75000000  0.58589100  0.54116200  1
  Ni  Ni38  1  0.75000000  0.91410900  0.04116200  1
  Ni  Ni39  1  0.25000000  0.08589100  0.95883800  1
  Cu  Cu40  1  0.25000000  0.08620700  0.04030300  1
  Cu  Cu41  1  0.75000000  0.91379300  0.95969700  1
  Cu  Cu42  1  0.75000000  0.58620700  0.45969700  1
  Cu  Cu43  1  0.25000000  0.41379300  0.54030300  1
  Cu  Cu44  1  0.25000000  0.08723900  0.15982600  1
  Cu  Cu45  1  0.75000000  0.91276100  0.84017400  1
  Cu  Cu46  1  0.75000000  0.58723900  0.34017400  1
  Cu  Cu47  1  0.25000000  0.41276100  0.65982600  1
  Cu  Cu48  1  0.25000000  0.41588600  0.25861500  1
  Cu  Cu49  1  0.75000000  0.58411400  0.74138500  1
  Cu  Cu50  1  0.75000000  0.91588600  0.24138500  1
  Cu  Cu51  1  0.25000000  0.08411400  0.75861500  1
  Cu  Cu52  1  0.25000000  0.08736500  0.35556000  1
  Cu  Cu53  1  0.75000000  0.91263500  0.64444000  1
  Cu  Cu54  1  0.75000000  0.58736500  0.14444000  1
  Cu  Cu55  1  0.25000000  0.41263500  0.85556000  1
  Cu  Cu56  1  0.25000000  0.08561700  0.44444000  1
  Cu  Cu57  1  0.75000000  0.91438300  0.55556000  1
  Cu  Cu58  1  0.75000000  0.58561700  0.05556000  1
  Cu  Cu59  1  0.25000000  0.41438300  0.94444000  1
