# generated using pymatgen
data_Cu3Ni5C34
_symmetry_space_group_name_H-M   'P 1'
_cell_length_a   9.02787048
_cell_length_b   9.00896072
_cell_length_c   21.99189042
_cell_angle_alpha   92.18693360
_cell_angle_beta   89.23421432
_cell_angle_gamma   120.27852197
_symmetry_Int_Tables_number   1
_chemical_formula_structural   Cu3Ni5C34
_chemical_formula_sum   'Cu9 Ni15 C102'
_cell_volume   1543.47987965
_cell_formula_units_Z   3
loop_
 _symmetry_equiv_pos_site_id
 _symmetry_equiv_pos_as_xyz
  1  'x, y, z'
loop_
 _atom_site_type_symbol
 _atom_site_label
 _atom_site_symmetry_multiplicity
 _atom_site_fract_x
 _atom_site_fract_y
 _atom_site_fract_z
 _atom_site_occupancy
  C  C0  1  0.64616931  0.01465001  0.24508869  1
  C  C1  1  0.36084940  0.35915914  0.23968190  1
  C  C2  1  0.99980619  0.63191383  0.24361137  1
  C  C3  1  0.62386069  0.60963035  0.75054992  1
  C  C4  1  0.98532271  0.37052460  0.75548625  1
  C  C5  1  0.39320750  0.01041130  0.74923912  1
  C  C6  1  0.31062170  0.33483296  0.59222081  1
  C  C7  1  0.02791180  0.69660424  0.58095135  1
  C  C8  1  0.66357864  0.97499318  0.59666793  1
  C  C9  1  0.31491037  0.97516908  0.07736373  1
  C  C10  1  0.66153337  0.69029447  0.07538129  1
  C  C11  1  0.02860197  0.35447439  0.07436206  1
  C  C12  1  0.96139774  0.66750619  0.91233228  1
  C  C13  1  0.70205757  0.03595823  0.91188493  1
  C  C14  1  0.33494698  0.29595698  0.91332780  1
  C  C15  1  0.95841768  0.27899409  0.41568126  1
  C  C16  1  0.31504909  0.02907806  0.42124817  1
  C  C17  1  0.71588999  0.68388874  0.42215952  1
  C  C18  1  0.00093578  0.00029955  0.50130469  1
  C  C19  1  0.00036197  0.00033777  0.99344795  1
  C  C20  1  0.66544521  0.33282276  0.83060645  1
  C  C21  1  0.68289352  0.33282314  0.33227349  1
  C  C22  1  0.33473398  0.66917248  0.15875742  1
  C  C23  1  0.34496904  0.67539223  0.67050749  1
  C  C24  1  0.00173236  0.00027890  0.35609367  1
  C  C25  1  0.65923541  0.33236117  0.68695236  1
  C  C26  1  0.67276311  0.33706090  0.17134923  1
  Ni  Ni27  1  0.00899368  0.30471278  0.25296453  1
  Ni  Ni28  1  0.27003299  0.28163711  0.75489407  1
  Ni  Ni29  1  0.01642312  0.71831060  0.75620708  1
  Ni  Ni30  1  0.71446364  0.98505099  0.75507066  1
  Ni  Ni31  1  0.36710733  0.03280100  0.58226147  1
  Ni  Ni32  1  0.66264942  0.63499230  0.58413949  1
  Ni  Ni33  1  0.97405697  0.64260619  0.08325530  1
  Ni  Ni34  1  0.66041776  0.03317805  0.08071799  1
  Ni  Ni35  1  0.37278439  0.34728368  0.07978334  1
  Ni  Ni36  1  0.61962764  0.66140610  0.91417069  1
  Ni  Ni37  1  0.04355824  0.38140023  0.91510850  1
  Ni  Ni38  1  0.33856776  0.95738714  0.91623371  1
  Ni  Ni39  1  0.60464420  0.95541603  0.41700729  1
  Ni  Ni40  1  0.34398898  0.38632443  0.42183069  1
  Ni  Ni41  1  0.03347854  0.64419639  0.42276326  1
  Cu  Cu42  1  0.99877981  0.00120786  0.85598829  1
  Cu  Cu43  1  0.00185622  0.97383992  0.65562278  1
  Cu  Cu44  1  0.00939195  0.03399002  0.13235712  1
  Cu  Cu45  1  0.66913831  0.33710446  0.98026074  1
  Cu  Cu46  1  0.64809120  0.33685371  0.47720726  1
  Cu  Cu47  1  0.33447615  0.67111133  0.01290703  1
  Cu  Cu48  1  0.34627998  0.68225363  0.51712357  1
  Cu  Cu49  1  0.31232384  0.63630409  0.32596189  1
  Cu  Cu50  1  0.33512452  0.66431789  0.81274109  1
  C  C51  1  0.29937025  0.99413978  0.24768068  1
  C  C52  1  0.69216320  0.70306606  0.24900033  1
  C  C53  1  0.96685779  0.33495355  0.57903532  1
  C  C54  1  0.21517134  0.99652881  0.30553581  1
  C  C55  1  0.78791644  0.78187878  0.30620902  1
  C  C56  1  0.98826825  0.20210168  0.31259660  1
  C  C57  1  0.18206990  0.16888820  0.81526724  1
  C  C58  1  0.98398099  0.81381971  0.81507358  1
  C  C59  1  0.82780223  0.01335250  0.81641218  1
  C  C60  1  0.80697669  0.95833152  0.69178217  1
  C  C61  1  0.15373894  0.18680378  0.69101742  1
  C  C62  1  0.04228710  0.82123911  0.69135078  1
  C  C63  1  0.78422701  0.80006047  0.19472727  1
  C  C64  1  0.03741613  0.20293157  0.18849990  1
  C  C65  1  0.19736152  0.98572970  0.19338273  1
  C  C66  1  0.89220957  0.35821171  0.63594108  1
  C  C67  1  0.48572293  0.08778163  0.64138965  1
  C  C68  1  0.60852483  0.52197060  0.64321610  1
  C  C69  1  0.92557486  0.54116447  0.14510656  1
  C  C70  1  0.61609110  0.07841939  0.14694055  1
  C  C71  1  0.46367742  0.38452301  0.14472721  1
  C  C72  1  0.47408401  0.30240454  0.02548909  1
  C  C73  1  0.82808859  0.54421521  0.02808062  1
  C  C74  1  0.70692140  0.17874083  0.02855945  1
  C  C75  1  0.46216915  0.17054710  0.52453745  1
  C  C76  1  0.70552742  0.53895617  0.52446429  1
  C  C77  1  0.85891914  0.31663231  0.52491467  1
  C  C78  1  0.52990003  0.69581765  0.97361144  1
  C  C79  1  0.16826636  0.47016880  0.97430267  1
  C  C80  1  0.30119560  0.83514964  0.97413033  1
  C  C81  1  0.52154894  0.84587954  0.47728558  1
  C  C82  1  0.31723093  0.48612072  0.47990017  1
  C  C83  1  0.15688565  0.66777452  0.47924011  1
  C  C84  1  0.11592978  0.61389080  0.35731239  1
  C  C85  1  0.47498895  0.85244253  0.35580996  1
  C  C86  1  0.37474718  0.49598553  0.35851762  1
  C  C87  1  0.12579428  0.50572400  0.85630513  1
  C  C88  1  0.38429613  0.87114057  0.85654091  1
  C  C89  1  0.49375243  0.61811365  0.85421550  1
  C  C90  1  0.01172620  0.81054138  0.42152110  1
  C  C91  1  0.79332035  0.98004950  0.41637351  1
  C  C92  1  0.18514383  0.19400353  0.42342843  1
  C  C93  1  0.01898168  0.18472071  0.91335961  1
  C  C94  1  0.16912588  0.98393975  0.91315608  1
  C  C95  1  0.81509852  0.83552141  0.91273857  1
  C  C96  1  0.98036396  0.17750768  0.57832952  1
  C  C97  1  0.17669359  0.02127724  0.58930310  1
  C  C98  1  0.84716943  0.82561083  0.58960590  1
  C  C99  1  0.98752434  0.83733993  0.09212353  1
  C  C100  1  0.83925969  0.01785510  0.08316947  1
  C  C101  1  0.17993714  0.16448147  0.07976285  1
  C  C102  1  0.69460959  0.15275423  0.75296583  1
  C  C103  1  0.45903659  0.30521992  0.75442274  1
  C  C104  1  0.84957077  0.52968277  0.75391132  1
  C  C105  1  0.66274676  0.52487916  0.24722216  1
  C  C106  1  0.84731204  0.33263317  0.24682139  1
  C  C107  1  0.47132792  0.15288575  0.24929974  1
  C  C108  1  0.64114491  0.48961904  0.92221410  1
  C  C109  1  0.85083950  0.36185183  0.92472700  1
  C  C110  1  0.51469314  0.15079371  0.92458792  1
  C  C111  1  0.61325151  0.14423473  0.42123509  1
  C  C112  1  0.52547193  0.38259460  0.42139123  1
  C  C113  1  0.84418142  0.46408155  0.42514758  1
  C  C114  1  0.34190328  0.50900178  0.06944821  1
  C  C115  1  0.16486554  0.66943462  0.06883628  1
  C  C116  1  0.49600409  0.83986770  0.06805931  1
  C  C117  1  0.32765528  0.83122818  0.57227725  1
  C  C118  1  0.49919674  0.66957305  0.57399659  1
  C  C119  1  0.14358242  0.49056590  0.57776634  1
  C  C120  1  0.31370636  0.83567523  0.24399854  1
  C  C121  1  0.52433844  0.70095976  0.25039230  1
  C  C122  1  0.19883596  0.49799301  0.25590117  1
  C  C123  1  0.27877070  0.47123962  0.75553480  1
  C  C124  1  0.19699907  0.71263304  0.75774875  1
  C  C125  1  0.52449723  0.80387431  0.75600411  1
