# generated using pymatgen
data_CuNiC9
_symmetry_space_group_name_H-M   'P 1'
_cell_length_a   5.85008405
_cell_length_b   5.85008405
_cell_length_c   6.46812526
_cell_angle_alpha   63.11353131
_cell_angle_beta   63.11353131
_cell_angle_gamma   60.00000000
_symmetry_Int_Tables_number   1
_chemical_formula_structural   CuNiC9
_chemical_formula_sum   'Cu1 Ni1 C9'
_cell_volume   163.49232646
_cell_formula_units_Z   1
loop_
 _symmetry_equiv_pos_site_id
 _symmetry_equiv_pos_as_xyz
  1  'x, y, z'
loop_
 _atom_site_type_symbol
 _atom_site_label
 _atom_site_symmetry_multiplicity
 _atom_site_fract_x
 _atom_site_fract_y
 _atom_site_fract_z
 _atom_site_occupancy
  C  C0  1  0.19895585  0.19895585  0.40313244  1
  C  C1  1  0.73784234  0.73784234  0.78647297  1
  C  C2  1  0.36561560  0.36561560  0.90315320  1
  Ni  Ni3  1  0.99318281  0.99318281  0.02045156  1
  Cu  Cu4  1  0.52262788  0.52262788  0.43211637  1
  C  C5  1  0.76446506  0.26450084  0.20656903  1
  C  C6  1  0.75127468  0.25603493  0.73665546  1
  C  C7  1  0.76446506  0.76446506  0.20656903  1
  C  C8  1  0.25603493  0.75127468  0.73665546  1
  C  C9  1  0.26450084  0.76446506  0.20656903  1
  C  C10  1  0.25603493  0.25603493  0.73665546  1
