# generated using pymatgen
data_Cu2NiC6
_symmetry_space_group_name_H-M   'P 1'
_cell_length_a   5.40831754
_cell_length_b   5.82154932
_cell_length_c   5.24372297
_cell_angle_alpha   118.25192250
_cell_angle_beta   62.55927902
_cell_angle_gamma   118.54272480
_symmetry_Int_Tables_number   1
_chemical_formula_structural   Cu2NiC6
_chemical_formula_sum   'Cu2 Ni1 C6'
_cell_volume   121.73903221
_cell_formula_units_Z   1
loop_
 _symmetry_equiv_pos_site_id
 _symmetry_equiv_pos_as_xyz
  1  'x, y, z'
loop_
 _atom_site_type_symbol
 _atom_site_label
 _atom_site_symmetry_multiplicity
 _atom_site_fract_x
 _atom_site_fract_y
 _atom_site_fract_z
 _atom_site_occupancy
  Ni  Ni0  1  0.93990200  0.76410400  0.90257200  1
  Cu  Cu1  1  0.69025400  0.15207900  0.75996800  1
  Cu  Cu2  1  0.26982600  0.65947600  0.19268200  1
  C  C3  1  0.04049100  0.45478500  0.90547500  1
  C  C4  1  0.47515900  0.41324300  0.05794200  1
  C  C5  1  0.32574700  0.90486600  0.60636400  1
  C  C6  1  0.62997900  0.90646700  0.96548400  1
  C  C7  1  0.86314300  0.44357300  0.50005100  1
  C  C8  1  0.97221300  0.93346600  0.32808200  1
