# generated using pymatgen
data_Cu2NiC12
_symmetry_space_group_name_H-M   'P 1'
_cell_length_a   5.59831765
_cell_length_b   5.59859669
_cell_length_c   7.78346098
_cell_angle_alpha   110.99230520
_cell_angle_beta   110.98973710
_cell_angle_gamma   100.66356512
_symmetry_Int_Tables_number   1
_chemical_formula_structural   Cu2NiC12
_chemical_formula_sum   'Cu2 Ni1 C12'
_cell_volume   198.43353942
_cell_formula_units_Z   1
loop_
 _symmetry_equiv_pos_site_id
 _symmetry_equiv_pos_as_xyz
  1  'x, y, z'
loop_
 _atom_site_type_symbol
 _atom_site_label
 _atom_site_symmetry_multiplicity
 _atom_site_fract_x
 _atom_site_fract_y
 _atom_site_fract_z
 _atom_site_occupancy
  Ni  Ni0  1  0.44234200  0.05772300  0.24998100  1
  Cu  Cu1  1  0.00375500  0.99790300  0.50468800  1
  Cu  Cu2  1  0.50207400  0.49623500  0.99530100  1
  C  C3  1  0.09062200  0.40939900  0.24999500  1
  C  C4  1  0.89889200  0.60109800  0.74997700  1
  C  C5  1  0.22349800  0.28455600  0.08801000  1
  C  C6  1  0.21547500  0.27650100  0.41206200  1
  C  C7  1  0.76089300  0.68237900  0.90977200  1
  C  C8  1  0.81757500  0.73912000  0.59021000  1
  C  C9  1  0.20349300  0.75289300  0.35752800  1
  C  C10  1  0.74709300  0.29651600  0.14251700  1
  C  C11  1  0.78310900  0.26289900  0.58182300  1
  C  C12  1  0.23709700  0.71687600  0.91812400  1
  C  C13  1  0.67092600  0.82906700  0.25000100  1
  C  C14  1  0.31982400  0.18016800  0.75000900  1
