# generated using pymatgen
data_Cu2NiC8
_symmetry_space_group_name_H-M   'P 1'
_cell_length_a   7.05323300
_cell_length_b   7.05323192
_cell_length_c   7.28816300
_cell_angle_alpha   90.00000000
_cell_angle_beta   90.00000000
_cell_angle_gamma   120.00000037
_symmetry_Int_Tables_number   1
_chemical_formula_structural   Cu2NiC8
_chemical_formula_sum   'Cu2 Ni1 C8'
_cell_volume   313.99671338
_cell_formula_units_Z   1
loop_
 _symmetry_equiv_pos_site_id
 _symmetry_equiv_pos_as_xyz
  1  'x, y, z'
loop_
 _atom_site_type_symbol
 _atom_site_label
 _atom_site_symmetry_multiplicity
 _atom_site_fract_x
 _atom_site_fract_y
 _atom_site_fract_z
 _atom_site_occupancy
  C  C0  1  0.33333300  0.66666700  0.75000000  1
  C  C1  1  0.66666700  0.33333300  0.25000000  1
  Ni  Ni2  1  0.00000000  0.00000000  0.25000000  1
  Cu  Cu3  1  0.00000000  0.00000000  0.91412200  1
  Cu  Cu4  1  0.00000000  0.00000000  0.58587800  1
  C  C5  1  0.83497200  0.16502800  0.75000000  1
  C  C6  1  0.63623900  0.81811900  0.25000000  1
  C  C7  1  0.18188100  0.36376100  0.25000000  1
  C  C8  1  0.83497200  0.66994600  0.75000000  1
  C  C9  1  0.18188100  0.81811900  0.25000000  1
  C  C10  1  0.33005400  0.16502800  0.75000000  1
