# generated using pymatgen
data_Cu6NiC12
_symmetry_space_group_name_H-M   'P 1'
_cell_length_a   5.19615421
_cell_length_b   7.72804416
_cell_length_c   5.82142829
_cell_angle_alpha   97.38370578
_cell_angle_beta   99.04630939
_cell_angle_gamma   83.89879160
_symmetry_Int_Tables_number   1
_chemical_formula_structural   Cu6NiC12
_chemical_formula_sum   'Cu6 Ni1 C12'
_cell_volume   228.05789698
_cell_formula_units_Z   1
loop_
 _symmetry_equiv_pos_site_id
 _symmetry_equiv_pos_as_xyz
  1  'x, y, z'
loop_
 _atom_site_type_symbol
 _atom_site_label
 _atom_site_symmetry_multiplicity
 _atom_site_fract_x
 _atom_site_fract_y
 _atom_site_fract_z
 _atom_site_occupancy
  Ni  Ni0  1  0.48793800  0.51190100  0.49585900  1
  Cu  Cu1  1  0.53662200  0.01569300  0.49875700  1
  Cu  Cu2  1  0.59894100  0.68667400  0.10820800  1
  Cu  Cu3  1  0.45109900  0.32083800  0.87501300  1
  Cu  Cu4  1  0.99781600  0.68139500  0.68126100  1
  Cu  Cu5  1  0.97482100  0.31093600  0.35039700  1
  Cu  Cu6  1  0.98065800  0.00646200  0.00437800  1
  C  C7  1  0.88376700  0.77518800  0.97218500  1
  C  C8  1  0.85754900  0.08386600  0.29531000  1
  C  C9  1  0.65744100  0.09949400  0.81800300  1
  C  C10  1  0.66334000  0.75283700  0.48781100  1
  C  C11  1  0.64145100  0.41983300  0.18642900  1
  C  C12  1  0.34596300  0.57214800  0.81837800  1
  C  C13  1  0.33722900  0.25832000  0.52756100  1
  C  C14  1  0.82957600  0.43024700  0.66472200  1
  C  C15  1  0.35598700  0.92622700  0.18368000  1
  C  C16  1  0.11448600  0.56249000  0.37060100  1
  C  C17  1  0.13859400  0.23693900  0.02612000  1
  C  C18  1  0.14671800  0.93184300  0.71866400  1
