# generated using pymatgen
data_Cu4Ni19C4
_symmetry_space_group_name_H-M   'P 1'
_cell_length_a   10.57329300
_cell_length_b   10.57329300
_cell_length_c   10.57329300
_cell_angle_alpha   90.00000000
_cell_angle_beta   90.00000000
_cell_angle_gamma   90.00000000
_symmetry_Int_Tables_number   1
_chemical_formula_structural   Cu4Ni19C4
_chemical_formula_sum   'Cu8 Ni38 C8'
_cell_volume   1182.03626718
_cell_formula_units_Z   2
loop_
 _symmetry_equiv_pos_site_id
 _symmetry_equiv_pos_as_xyz
  1  'x, y, z'
loop_
 _atom_site_type_symbol
 _atom_site_label
 _atom_site_symmetry_multiplicity
 _atom_site_fract_x
 _atom_site_fract_y
 _atom_site_fract_z
 _atom_site_occupancy
  Ni  Ni0  1  0.99772900  0.11847600  0.30679700  1
  Ni  Ni1  1  0.50227100  0.80679700  0.38152400  1
  Ni  Ni2  1  0.50227100  0.19320300  0.61847600  1
  Ni  Ni3  1  0.19320300  0.38152400  0.49772900  1
  Ni  Ni4  1  0.80679700  0.38152400  0.50227100  1
  Ni  Ni5  1  0.61847600  0.50227100  0.19320300  1
  Ni  Ni6  1  0.38152400  0.49772900  0.19320300  1
  Ni  Ni7  1  0.30679700  0.99772900  0.11847600  1
  Ni  Ni8  1  0.11847600  0.30679700  0.99772900  1
  Ni  Ni9  1  0.88152400  0.69320300  0.99772900  1
  Ni  Ni10  1  0.30679700  0.00227100  0.88152400  1
  Ni  Ni11  1  0.88152400  0.30679700  0.00227100  1
  Ni  Ni12  1  0.69320300  0.00227100  0.11847600  1
  Ni  Ni13  1  0.69320300  0.99772900  0.88152400  1
  Ni  Ni14  1  0.11847600  0.69320300  0.00227100  1
  Ni  Ni15  1  0.99772900  0.88152400  0.69320300  1
  Ni  Ni16  1  0.00227100  0.11847600  0.69320300  1
  Ni  Ni17  1  0.00227100  0.88152400  0.30679700  1
  Ni  Ni18  1  0.38152400  0.50227100  0.80679700  1
  Ni  Ni19  1  0.61847600  0.49772900  0.80679700  1
  Ni  Ni20  1  0.19320300  0.61847600  0.50227100  1
  Ni  Ni21  1  0.80679700  0.61847600  0.49772900  1
  Ni  Ni22  1  0.49772900  0.19320300  0.38152400  1
  Ni  Ni23  1  0.49772900  0.80679700  0.61847600  1
  Ni  Ni24  1  0.18477100  0.18477100  0.18477100  1
  Ni  Ni25  1  0.31522900  0.68477100  0.31522900  1
  Ni  Ni26  1  0.31522900  0.31522900  0.68477100  1
  Ni  Ni27  1  0.68477100  0.31522900  0.31522900  1
  Ni  Ni28  1  0.81522900  0.81522900  0.18477100  1
  Ni  Ni29  1  0.18477100  0.81522900  0.81522900  1
  Ni  Ni30  1  0.81522900  0.18477100  0.81522900  1
  Ni  Ni31  1  0.68477100  0.68477100  0.68477100  1
  Ni  Ni32  1  0.00000000  0.25000000  0.50000000  1
  Ni  Ni33  1  0.50000000  0.00000000  0.25000000  1
  Ni  Ni34  1  0.50000000  0.00000000  0.75000000  1
  Ni  Ni35  1  0.75000000  0.50000000  0.00000000  1
  Ni  Ni36  1  0.25000000  0.50000000  0.00000000  1
  Ni  Ni37  1  0.00000000  0.75000000  0.50000000  1
  Cu  Cu38  1  0.81545700  0.81545700  0.81545700  1
  Cu  Cu39  1  0.68454300  0.31545700  0.68454300  1
  Cu  Cu40  1  0.68454300  0.68454300  0.31545700  1
  Cu  Cu41  1  0.31545700  0.68454300  0.68454300  1
  Cu  Cu42  1  0.18454300  0.18454300  0.81545700  1
  Cu  Cu43  1  0.81545700  0.18454300  0.18454300  1
  Cu  Cu44  1  0.18454300  0.81545700  0.18454300  1
  Cu  Cu45  1  0.31545700  0.31545700  0.31545700  1
  C  C46  1  0.00000000  0.50000000  0.25000000  1
  C  C47  1  0.50000000  0.75000000  0.00000000  1
  C  C48  1  0.50000000  0.25000000  0.00000000  1
  C  C49  1  0.25000000  0.00000000  0.50000000  1
  C  C50  1  0.75000000  0.00000000  0.50000000  1
  C  C51  1  0.00000000  0.50000000  0.75000000  1
  C  C52  1  0.00000000  0.00000000  0.00000000  1
  C  C53  1  0.50000000  0.50000000  0.50000000  1
