# generated using pymatgen
data_CuNiC18
_symmetry_space_group_name_H-M   'P 1'
_cell_length_a   9.14295036
_cell_length_b   9.15183996
_cell_length_c   22.37633987
_cell_angle_alpha   90.00000000
_cell_angle_beta   90.14989249
_cell_angle_gamma   120.03217065
_symmetry_Int_Tables_number   1
_chemical_formula_structural   CuNiC18
_chemical_formula_sum   'Cu6 Ni6 C108'
_cell_volume   1620.95739422
_cell_formula_units_Z   6
loop_
 _symmetry_equiv_pos_site_id
 _symmetry_equiv_pos_as_xyz
  1  'x, y, z'
loop_
 _atom_site_type_symbol
 _atom_site_label
 _atom_site_symmetry_multiplicity
 _atom_site_fract_x
 _atom_site_fract_y
 _atom_site_fract_z
 _atom_site_occupancy
  C  C0  1  0.98444587  0.96548571  0.49807086  1
  C  C1  1  0.98444587  0.01896016  0.99807086  1
  C  C2  1  0.66620396  0.33583851  0.83157190  1
  C  C3  1  0.66620396  0.33036445  0.33157190  1
  C  C4  1  0.32919077  0.66331635  0.16496289  1
  C  C5  1  0.32919077  0.66587542  0.66496289  1
  C  C6  1  0.37028152  0.36618265  0.24896688  1
  C  C7  1  0.99305203  0.63311628  0.24836693  1
  C  C8  1  0.99305203  0.35993575  0.74836693  1
  C  C9  1  0.37028152  0.00409887  0.74896688  1
  C  C10  1  0.30374597  0.33927593  0.58172683  1
  C  C11  1  0.66402112  0.96605469  0.58132672  1
  C  C12  1  0.30374597  0.96446904  0.08172683  1
  C  C13  1  0.66402112  0.69796543  0.08132672  1
  C  C14  1  0.97261691  0.67545809  0.91496716  1
  C  C15  1  0.32938818  0.29588444  0.91558383  1
  C  C16  1  0.97261691  0.29715982  0.41496716  1
  C  C17  1  0.32938818  0.03350474  0.41558383  1
  Ni  Ni18  1  0.99434566  0.99675247  0.35481200  1
  Ni  Ni19  1  0.99434566  0.99759319  0.85481200  1
  Ni  Ni20  1  0.66772271  0.33930035  0.68837125  1
  Ni  Ni21  1  0.66772271  0.32842136  0.18837125  1
  Ni  Ni22  1  0.33021666  0.66191314  0.02175843  1
  Ni  Ni23  1  0.33021666  0.66830452  0.52175843  1
  Cu  Cu24  1  0.99766937  0.99496870  0.64506486  1
  Cu  Cu25  1  0.99766937  0.00270067  0.14506486  1
  Cu  Cu26  1  0.66897418  0.32914141  0.97815629  1
  Cu  Cu27  1  0.66897418  0.33983177  0.47815629  1
  Cu  Cu28  1  0.33914487  0.67057214  0.31162773  1
  Cu  Cu29  1  0.33914487  0.66857373  0.81162773  1
  C  C30  1  0.29046222  0.99782806  0.25109511  1
  C  C31  1  0.70575977  0.71097993  0.24784375  1
  C  C32  1  0.00170622  0.29407384  0.25310364  1
  C  C33  1  0.29046222  0.29263416  0.75109511  1
  C  C34  1  0.00170622  0.70763238  0.75310364  1
  C  C35  1  0.70575977  0.99477984  0.74784375  1
  C  C36  1  0.95885823  0.33203645  0.58481674  1
  C  C37  1  0.37330518  0.04252169  0.58456903  1
  C  C38  1  0.67116494  0.62696843  0.58312529  1
  C  C39  1  0.95885823  0.62682078  0.08481674  1
  C  C40  1  0.67116494  0.04419552  0.08312529  1
  C  C41  1  0.37330518  0.33078250  0.08456903  1
  C  C42  1  0.62534987  0.66660644  0.92055346  1
  C  C43  1  0.04004927  0.37727685  0.91424964  1
  C  C44  1  0.33917139  0.96103564  0.91731704  1
  C  C45  1  0.62534987  0.95874442  0.42055346  1
  C  C46  1  0.33917139  0.37813675  0.41731704  1
  C  C47  1  0.04004927  0.66277342  0.41424964  1
  C  C48  1  0.20117135  0.02185416  0.31029664  1
  C  C49  1  0.83078437  0.81071266  0.30317218  1
  C  C50  1  0.98851404  0.19443540  0.31469510  1
  C  C51  1  0.20117135  0.17931719  0.81029664  1
  C  C52  1  0.98851404  0.79407865  0.81469510  1
  C  C53  1  0.83078437  0.02007171  0.80317218  1
  C  C54  1  0.79701778  0.97862205  0.68589543  1
  C  C55  1  0.16669960  0.19476495  0.69212766  1
  C  C56  1  0.01543726  0.83418592  0.69646376  1
  C  C57  1  0.79701778  0.81839573  0.18589543  1
  C  C58  1  0.01543726  0.18125135  0.19646376  1
  C  C59  1  0.16669960  0.97193465  0.19212766  1
  C  C60  1  0.86689994  0.34473347  0.64483767  1
  C  C61  1  0.48535122  0.13285647  0.64382604  1
  C  C62  1  0.64369403  0.50657073  0.63957519  1
  C  C63  1  0.86689994  0.52216547  0.14483767  1
  C  C64  1  0.64369403  0.13712231  0.13957519  1
  C  C65  1  0.48535122  0.35249375  0.14382604  1
  C  C66  1  0.47430896  0.30951343  0.02567413  1
  C  C67  1  0.83856278  0.52592129  0.02544778  1
  C  C68  1  0.68774276  0.16003541  0.02315907  1
  C  C69  1  0.47430896  0.16479453  0.52567413  1
  C  C70  1  0.68774276  0.52770635  0.52315907  1
  C  C71  1  0.83856278  0.31264048  0.52544778  1
  C  C72  1  0.54164493  0.68290576  0.98180273  1
  C  C73  1  0.16259474  0.47634410  0.97016837  1
  C  C74  1  0.31785878  0.84897294  0.97602409  1
  C  C75  1  0.54164493  0.85874017  0.48180273  1
  C  C76  1  0.31785878  0.46888685  0.47602409  1
  C  C77  1  0.16259474  0.68625163  0.47016837  1
  C  C78  1  0.13068809  0.63800669  0.35350483  1
  C  C79  1  0.49752929  0.84963752  0.36343170  1
  C  C80  1  0.35053555  0.49047284  0.35710125  1
  C  C81  1  0.13068809  0.49268240  0.85350483  1
  C  C82  1  0.35053555  0.86006371  0.85710125  1
  C  C83  1  0.49752929  0.64789277  0.86343170  1
  C  C84  1  0.02190277  0.83030775  0.41188730  1
  C  C85  1  0.81710242  0.99299198  0.41444699  1
  C  C86  1  0.17394909  0.18741008  0.41464164  1
  C  C87  1  0.02190277  0.19159502  0.91188730  1
  C  C88  1  0.17394909  0.98653901  0.91464164  1
  C  C89  1  0.81710242  0.82411044  0.91444699  1
  C  C90  1  0.96778864  0.15493189  0.58528622  1
  C  C91  1  0.18997166  0.03617943  0.58765182  1
  C  C92  1  0.84259809  0.81349613  0.58646721  1
  C  C93  1  0.96778864  0.81285675  0.08528622  1
  C  C94  1  0.84259809  0.02910196  0.08646721  1
  C  C95  1  0.18997166  0.15379223  0.08765182  1
  C  C96  1  0.67983960  0.15873003  0.74708889  1
  C  C97  1  0.47483809  0.30860861  0.74656859  1
  C  C98  1  0.84526100  0.51582334  0.74775850  1
  C  C99  1  0.67983960  0.52110857  0.24708889  1
  C  C100  1  0.84526100  0.32943667  0.24775850  1
  C  C101  1  0.47483809  0.16622848  0.24656859  1
  C  C102  1  0.63122396  0.48838162  0.91962623  1
  C  C103  1  0.85794283  0.37278032  0.91986599  1
  C  C104  1  0.50779081  0.15127744  0.91914852  1
  C  C105  1  0.63122396  0.14284134  0.41962623  1
  C  C106  1  0.50779081  0.35651237  0.41914852  1
  C  C107  1  0.85794283  0.48516151  0.41986599  1
  C  C108  1  0.35452107  0.49718684  0.08042937  1
  C  C109  1  0.15164303  0.66252201  0.08098590  1
  C  C110  1  0.50618286  0.85587911  0.07996248  1
  C  C111  1  0.35452107  0.85733523  0.58042937  1
  C  C112  1  0.50618286  0.65030475  0.57996248  1
  C  C113  1  0.15164303  0.48912202  0.58098590  1
  C  C114  1  0.29897574  0.82234486  0.25430337  1
  C  C115  1  0.51829482  0.69389160  0.25382530  1
  C  C116  1  0.18099120  0.47719954  0.25084375  1
  C  C117  1  0.29897574  0.47663188  0.75430337  1
  C  C118  1  0.18099120  0.70379266  0.75084375  1
  C  C119  1  0.51829482  0.82440422  0.75382530  1
