# generated using pymatgen
data_Cu3Ni9C7
_symmetry_space_group_name_H-M   'P 1'
_cell_length_a   7.31426469
_cell_length_b   7.31426469
_cell_length_c   7.31426492
_cell_angle_alpha   97.40594456
_cell_angle_beta   97.40594456
_cell_angle_gamma   97.40594109
_symmetry_Int_Tables_number   1
_chemical_formula_structural   Cu3Ni9C7
_chemical_formula_sum   'Cu6 Ni18 C14'
_cell_volume   380.56451204
_cell_formula_units_Z   2
loop_
 _symmetry_equiv_pos_site_id
 _symmetry_equiv_pos_as_xyz
  1  'x, y, z'
loop_
 _atom_site_type_symbol
 _atom_site_label
 _atom_site_symmetry_multiplicity
 _atom_site_fract_x
 _atom_site_fract_y
 _atom_site_fract_z
 _atom_site_occupancy
  C  C0  1  0.50000000  0.50000000  0.50000000  1
  C  C1  1  0.00000000  0.00000000  0.00000000  1
  Ni  Ni2  1  0.64939900  0.45237200  0.20103400  1
  Ni  Ni3  1  0.20103400  0.64939900  0.45237200  1
  Ni  Ni4  1  0.79896600  0.35060100  0.54762800  1
  Ni  Ni5  1  0.54762800  0.79896600  0.35060100  1
  Ni  Ni6  1  0.43493400  0.33992300  0.16070400  1
  Ni  Ni7  1  0.16070400  0.43493400  0.33992300  1
  Ni  Ni8  1  0.33992300  0.16070400  0.43493400  1
  Ni  Ni9  1  0.56506600  0.66007700  0.83929600  1
  Ni  Ni10  1  0.83929600  0.56506600  0.66007700  1
  Ni  Ni11  1  0.66007700  0.83929600  0.56506600  1
  Ni  Ni12  1  0.60197900  0.24930600  0.27399000  1
  Ni  Ni13  1  0.35060100  0.54762800  0.79896600  1
  Ni  Ni14  1  0.24930600  0.27399000  0.60197900  1
  Ni  Ni15  1  0.39802100  0.75069400  0.72601000  1
  Ni  Ni16  1  0.72601000  0.39802100  0.75069400  1
  Ni  Ni17  1  0.75069400  0.72601000  0.39802100  1
  Ni  Ni18  1  0.45237200  0.20103400  0.64939900  1
  Ni  Ni19  1  0.27399000  0.60197900  0.24930600  1
  Cu  Cu20  1  0.22573200  0.95031800  0.12244200  1
  Cu  Cu21  1  0.77426800  0.04968200  0.87755800  1
  Cu  Cu22  1  0.95031800  0.12244200  0.22573200  1
  Cu  Cu23  1  0.87755800  0.77426800  0.04968200  1
  Cu  Cu24  1  0.04968200  0.87755800  0.77426800  1
  Cu  Cu25  1  0.12244200  0.22573200  0.95031800  1
  C  C26  1  0.25993200  0.55185100  0.37223100  1
  C  C27  1  0.74006800  0.44814900  0.62776900  1
  C  C28  1  0.62776900  0.74006800  0.44814900  1
  C  C29  1  0.44814900  0.62776900  0.74006800  1
  C  C30  1  0.07716500  0.79608400  0.63342000  1
  C  C31  1  0.63342000  0.07716500  0.79608400  1
  C  C32  1  0.79608400  0.63342000  0.07716500  1
  C  C33  1  0.55185100  0.37223100  0.25993200  1
  C  C34  1  0.36658000  0.92283500  0.20391600  1
  C  C35  1  0.20391600  0.36658000  0.92283500  1
  C  C36  1  0.37223100  0.25993200  0.55185100  1
  C  C37  1  0.92283500  0.20391600  0.36658000  1
