# generated using pymatgen
data_CuNiC4
_symmetry_space_group_name_H-M   'P 1'
_cell_length_a   7.90404422
_cell_length_b   7.90404422
_cell_length_c   9.15114863
_cell_angle_alpha   55.44844492
_cell_angle_beta   55.44844492
_cell_angle_gamma   62.67197143
_symmetry_Int_Tables_number   1
_chemical_formula_structural   CuNiC4
_chemical_formula_sum   'Cu4 Ni4 C16'
_cell_volume   379.77242311
_cell_formula_units_Z   4
loop_
 _symmetry_equiv_pos_site_id
 _symmetry_equiv_pos_as_xyz
  1  'x, y, z'
loop_
 _atom_site_type_symbol
 _atom_site_label
 _atom_site_symmetry_multiplicity
 _atom_site_fract_x
 _atom_site_fract_y
 _atom_site_fract_z
 _atom_site_occupancy
  C  C0  1  0.14065700  0.85934300  0.25000000  1
  C  C1  1  0.85934300  0.14065700  0.75000000  1
  Ni  Ni2  1  0.70840200  0.22735800  0.36234800  1
  Ni  Ni3  1  0.77264200  0.29159800  0.13765200  1
  Ni  Ni4  1  0.29159800  0.77264200  0.63765200  1
  Ni  Ni5  1  0.22735800  0.70840200  0.86234800  1
  Cu  Cu6  1  0.34640500  0.28399200  0.19306200  1
  Cu  Cu7  1  0.71600800  0.65359500  0.30693800  1
  Cu  Cu8  1  0.65359500  0.71600800  0.80693800  1
  Cu  Cu9  1  0.28399200  0.34640500  0.69306200  1
  C  C10  1  0.80916900  0.19083100  0.25000000  1
  C  C11  1  0.19083100  0.80916900  0.75000000  1
  C  C12  1  0.22422100  0.40738400  0.50005800  1
  C  C13  1  0.59261600  0.77577900  0.99994200  1
  C  C14  1  0.77577900  0.59261600  0.49994200  1
  C  C15  1  0.40738400  0.22422100  0.00005800  1
  C  C16  1  0.57194300  0.25795900  0.58669400  1
  C  C17  1  0.74204100  0.42805700  0.91330600  1
  C  C18  1  0.42805700  0.74204100  0.41330600  1
  C  C19  1  0.25795900  0.57194300  0.08669400  1
  C  C20  1  0.20016500  0.09689000  0.86592400  1
  C  C21  1  0.90311000  0.79983500  0.63407600  1
  C  C22  1  0.79983500  0.90311000  0.13407600  1
  C  C23  1  0.09689000  0.20016500  0.36592400  1
