# generated using pymatgen
data_Cu4NiC14
_symmetry_space_group_name_H-M   'P 1'
_cell_length_a   6.93014376
_cell_length_b   7.09159222
_cell_length_c   5.69975092
_cell_angle_alpha   73.78197267
_cell_angle_beta   109.36028362
_cell_angle_gamma   100.90286369
_symmetry_Int_Tables_number   1
_chemical_formula_structural   Cu4NiC14
_chemical_formula_sum   'Cu4 Ni1 C14'
_cell_volume   252.31631436
_cell_formula_units_Z   1
loop_
 _symmetry_equiv_pos_site_id
 _symmetry_equiv_pos_as_xyz
  1  'x, y, z'
loop_
 _atom_site_type_symbol
 _atom_site_label
 _atom_site_symmetry_multiplicity
 _atom_site_fract_x
 _atom_site_fract_y
 _atom_site_fract_z
 _atom_site_occupancy
  C  C0  1  0.73715400  0.71686800  0.78896000  1
  Ni  Ni1  1  0.09263200  0.08792000  0.74900800  1
  Cu  Cu2  1  0.18063100  0.61127700  0.75665800  1
  Cu  Cu3  1  0.38008900  0.79535800  0.28189000  1
  Cu  Cu4  1  0.62697900  0.20720900  0.73280400  1
  Cu  Cu5  1  0.84797100  0.38886000  0.28529800  1
  C  C6  1  0.91435800  0.91624600  0.24985100  1
  C  C7  1  0.99691500  0.79144800  0.65394900  1
  C  C8  1  0.04576300  0.39553300  0.65990800  1
  C  C9  1  0.20669600  0.96766900  0.16115000  1
  C  C10  1  0.40764200  0.68440100  0.61974400  1
  C  C11  1  0.39005900  0.10016500  0.74184300  1
  C  C12  1  0.30206100  0.61495500  0.09418100  1
  C  C13  1  0.70556500  0.39612400  0.90550100  1
  C  C14  1  0.62612400  0.88733700  0.30218200  1
  C  C15  1  0.61643500  0.31545100  0.41342100  1
  C  C16  1  0.79303800  0.01304100  0.84725500  1
  C  C17  1  0.88121300  0.65252800  0.17311500  1
  C  C18  1  0.97089900  0.17983100  0.33328200  1
