# generated using pymatgen
data_Cu2Ni3C35
_symmetry_space_group_name_H-M   'P 1'
_cell_length_a   8.83255666
_cell_length_b   8.87658098
_cell_length_c   21.98153220
_cell_angle_alpha   90.07652773
_cell_angle_beta   91.39193296
_cell_angle_gamma   118.96245681
_symmetry_Int_Tables_number   1
_chemical_formula_structural   Cu2Ni3C35
_chemical_formula_sum   'Cu6 Ni9 C105'
_cell_volume   1507.26674907
_cell_formula_units_Z   3
loop_
 _symmetry_equiv_pos_site_id
 _symmetry_equiv_pos_as_xyz
  1  'x, y, z'
loop_
 _atom_site_type_symbol
 _atom_site_label
 _atom_site_symmetry_multiplicity
 _atom_site_fract_x
 _atom_site_fract_y
 _atom_site_fract_z
 _atom_site_occupancy
  C  C0  1  0.37224323  0.35211162  0.24616700  1
  C  C1  1  0.00126353  0.63610606  0.23815889  1
  C  C2  1  0.99118627  0.35931031  0.74549122  1
  C  C3  1  0.38176227  0.02875711  0.74498066  1
  C  C4  1  0.29933408  0.34077044  0.58002936  1
  C  C5  1  0.64927752  0.97618821  0.59576578  1
  C  C6  1  0.30535200  0.96068058  0.06710106  1
  C  C7  1  0.65356261  0.68070870  0.08375564  1
  C  C8  1  0.98831060  0.67966765  0.91785733  1
  C  C9  1  0.32647976  0.29174278  0.90899285  1
  C  C10  1  0.98192720  0.30284447  0.43227881  1
  C  C11  1  0.32667738  0.03549539  0.41489198  1
  C  C12  1  -0.00156690  -0.01796469  0.50337895  1
  C  C13  1  -0.00079551  0.01625900  0.99437702  1
  C  C14  1  0.66028362  0.32028237  0.82845714  1
  C  C15  1  0.65892778  0.32385112  0.33380854  1
  C  C16  1  0.31524283  0.64672625  0.15891609  1
  C  C17  1  0.30781714  0.66320357  0.66134616  1
  C  C18  1  0.01430822  0.00941665  0.35151902  1
  C  C19  1  0.01935586  0.01057020  0.84917452  1
  C  C20  1  0.66355796  0.33059377  0.68875559  1
  C  C21  1  0.66114050  0.32426565  0.18529706  1
  C  C22  1  0.31395766  0.65206793  0.01979000  1
  C  C23  1  0.31690325  0.66102370  0.52261343  1
  Ni  Ni24  1  0.30552277  -0.00971689  0.25522747  1
  Ni  Ni25  1  0.30686145  0.31751683  0.75617694  1
  Ni  Ni26  1  0.71947230  0.00121096  0.74995126  1
  Ni  Ni27  1  0.94676130  0.33708797  0.58483796  1
  Ni  Ni28  1  0.35211928  0.03167889  0.59030194  1
  Ni  Ni29  1  0.94909571  0.61137233  0.08676940  1
  Ni  Ni30  1  0.37023153  0.33071013  0.08770904  1
  Ni  Ni31  1  0.34707957  0.96199414  0.91874146  1
  Ni  Ni32  1  0.34434432  0.38245179  0.41847239  1
  Cu  Cu33  1  0.01196479  0.05098429  0.64961684  1
  Cu  Cu34  1  0.03102416  0.98819701  0.14118580  1
  Cu  Cu35  1  0.64954465  0.31658988  0.98691499  1
  Cu  Cu36  1  0.62357589  0.32523010  0.49639678  1
  Cu  Cu37  1  0.34648440  0.66932325  0.31626043  1
  Cu  Cu38  1  0.37576320  0.70489753  0.80571696  1
  C  C39  1  0.70572466  0.71643091  0.25074033  1
  C  C40  1  0.00328873  0.28687164  0.25091796  1
  C  C41  1  0.00870475  0.71967383  0.75248531  1
  C  C42  1  0.67528810  0.63117982  0.58360353  1
  C  C43  1  0.68218018  0.04637523  0.08475234  1
  C  C44  1  0.62454476  0.66356241  0.91881840  1
  C  C45  1  0.02406980  0.36839010  0.91735505  1
  C  C46  1  0.62639113  0.95555541  0.41685326  1
  C  C47  1  0.04146092  0.66270672  0.41105009  1
  C  C48  1  0.21132175  0.01411168  0.31237386  1
  C  C49  1  0.80867878  0.82170474  0.30242250  1
  C  C50  1  0.99219898  0.20157349  0.30903460  1
  C  C51  1  0.22608501  0.19278558  0.81258779  1
  C  C52  1  0.99826398  0.78811579  0.81208679  1
  C  C53  1  0.82940632  0.00444143  0.80733188  1
  C  C54  1  0.80326160  0.97302059  0.68404450  1
  C  C55  1  0.16952897  0.23695420  0.69310967  1
  C  C56  1  0.03271639  0.83822809  0.70140207  1
  C  C57  1  0.77429982  0.80161076  0.19157810  1
  C  C58  1  0.02239067  0.19121326  0.19818496  1
  C  C59  1  0.16639963  0.94298208  0.19202567  1
  C  C60  1  0.86531389  0.35449194  0.64534134  1
  C  C61  1  0.47899548  0.12559696  0.64628065  1
  C  C62  1  0.65318974  0.51941571  0.63399940  1
  C  C63  1  0.86398992  0.51646440  0.14806777  1
  C  C64  1  0.65617558  0.13097607  0.13698858  1
  C  C65  1  0.47402377  0.35461513  0.15052677  1
  C  C66  1  0.45581669  0.27707909  0.02807444  1
  C  C67  1  0.81351806  0.51720648  0.02520384  1
  C  C68  1  0.70466065  0.14708946  0.02703390  1
  C  C69  1  0.42520006  0.16350929  0.52702518  1
  C  C70  1  0.68895504  0.54590083  0.52341830  1
  C  C71  1  0.80625915  0.29960932  0.52088660  1
  C  C72  1  0.54260021  0.67880132  0.97376590  1
  C  C73  1  0.13841754  0.45496530  0.97040212  1
  C  C74  1  0.32681194  0.84675728  0.97636667  1
  C  C75  1  0.54593709  0.86074452  0.47131829  1
  C  C76  1  0.31910754  0.47900197  0.47426409  1
  C  C77  1  0.15576266  0.69712248  0.46429055  1
  C  C78  1  0.12978517  0.64053175  0.35411878  1
  C  C79  1  0.51092093  0.86853326  0.35966679  1
  C  C80  1  0.37280855  0.49866403  0.35236462  1
  C  C81  1  0.09320530  0.46725421  0.86126984  1
  C  C82  1  0.37053104  0.86826628  0.85400327  1
  C  C83  1  0.51221356  0.63890330  0.86245646  1
  C  C84  1  0.01157510  0.81188106  0.40536813  1
  C  C85  1  0.80210302  0.97810662  0.41054712  1
  C  C86  1  0.17546793  0.19091768  0.41259214  1
  C  C87  1  0.00378085  0.19316927  0.91456372  1
  C  C88  1  0.17476465  0.98597347  0.91459484  1
  C  C89  1  0.80136852  0.80745653  0.91489868  1
  C  C90  1  0.95383472  0.14902922  0.58265633  1
  C  C91  1  0.15990392  0.02539755  0.59663375  1
  C  C92  1  0.83311691  0.79804471  0.58356529  1
  C  C93  1  0.95313642  0.81026614  0.08645837  1
  C  C94  1  0.84422168  0.03169046  0.08961671  1
  C  C95  1  0.17769512  0.14465500  0.08900500  1
  C  C96  1  0.69319838  0.16935471  0.74889757  1
  C  C97  1  0.49552060  0.34521221  0.74459484  1
  C  C98  1  0.86147316  0.54636667  0.74459735  1
  C  C99  1  0.69647919  0.54431837  0.25426502  1
  C  C100  1  0.85525336  0.31870697  0.24543414  1
  C  C101  1  0.49051069  0.15760685  0.24728264  1
  C  C102  1  0.63144286  0.49518521  0.91896819  1
  C  C103  1  0.85044968  0.36370809  0.92448118  1
  C  C104  1  0.52125731  0.16385203  0.92411435  1
  C  C105  1  0.63568609  0.12782422  0.41554084  1
  C  C106  1  0.52326322  0.35249756  0.42521904  1
  C  C107  1  0.87774229  0.50019361  0.41285173  1
  C  C108  1  0.35677884  0.50141079  0.07560355  1
  C  C109  1  0.14816396  0.66252789  0.07946279  1
  C  C110  1  0.53192583  0.87121704  0.07887707  1
  C  C111  1  0.34743867  0.85325419  0.57529809  1
  C  C112  1  0.52010738  0.65499711  0.57831250  1
  C  C113  1  0.14149475  0.48522188  0.57534721  1
  C  C114  1  0.30564182  0.79783964  0.25831257  1
  C  C115  1  0.51990737  0.68577328  0.25154691  1
  C  C116  1  0.16888011  0.46220917  0.25058086  1
  C  C117  1  0.29608179  0.50178289  0.76443047  1
  C  C118  1  0.17541904  0.70486693  0.75161240  1
  C  C119  1  0.51755613  0.82898983  0.74679207  1
