# generated using pymatgen
data_Cu2NiC14
_symmetry_space_group_name_H-M   'P 1'
_cell_length_a   5.18511612
_cell_length_b   5.36615264
_cell_length_c   7.50622979
_cell_angle_alpha   90.13379280
_cell_angle_beta   90.09573706
_cell_angle_gamma   89.97993662
_symmetry_Int_Tables_number   1
_chemical_formula_structural   Cu2NiC14
_chemical_formula_sum   'Cu2 Ni1 C14'
_cell_volume   208.85339904
_cell_formula_units_Z   1
loop_
 _symmetry_equiv_pos_site_id
 _symmetry_equiv_pos_as_xyz
  1  'x, y, z'
loop_
 _atom_site_type_symbol
 _atom_site_label
 _atom_site_symmetry_multiplicity
 _atom_site_fract_x
 _atom_site_fract_y
 _atom_site_fract_z
 _atom_site_occupancy
  Ni  Ni0  1  0.51872700  0.55773000  0.75173300  1
  Cu  Cu1  1  0.00291100  0.49777900  0.50459600  1
  Cu  Cu2  1  0.49742400  0.99991600  0.99691500  1
  C  C3  1  0.99969000  0.49424400  0.01408800  1
  C  C4  1  0.50026800  0.00266500  0.48843500  1
  C  C5  1  0.12730700  0.48152300  0.75249800  1
  C  C6  1  0.19647300  0.20124100  0.04358900  1
  C  C7  1  0.19674000  0.19899900  0.45781200  1
  C  C8  1  0.29694900  0.69996000  0.04290100  1
  C  C9  1  0.30667300  0.69992100  0.45706500  1
  C  C10  1  0.40933400  0.95818300  0.74695100  1
  C  C11  1  0.59364300  0.02279200  0.24751200  1
  C  C12  1  0.68063800  0.31135800  0.56380100  1
  C  C13  1  0.68567800  0.30860200  0.93700900  1
  C  C14  1  0.78528300  0.77460200  0.93909000  1
  C  C15  1  0.79561600  0.79202800  0.55251300  1
  C  C16  1  0.90664800  0.51095600  0.25349300  1
