# generated using pymatgen
data_CuNiC11
_symmetry_space_group_name_H-M   'P 1'
_cell_length_a   5.77554803
_cell_length_b   5.67003082
_cell_length_c   6.03612356
_cell_angle_alpha   61.17751686
_cell_angle_beta   60.39082190
_cell_angle_gamma   60.23574034
_symmetry_Int_Tables_number   1
_chemical_formula_structural   CuNiC11
_chemical_formula_sum   'Cu1 Ni1 C11'
_cell_volume   141.64911534
_cell_formula_units_Z   1
loop_
 _symmetry_equiv_pos_site_id
 _symmetry_equiv_pos_as_xyz
  1  'x, y, z'
loop_
 _atom_site_type_symbol
 _atom_site_label
 _atom_site_symmetry_multiplicity
 _atom_site_fract_x
 _atom_site_fract_y
 _atom_site_fract_z
 _atom_site_occupancy
  Ni  Ni0  1  0.00000000  0.00000000  0.50000000  1
  Cu  Cu1  1  0.00000000  0.00000000  0.00000000  1
  C  C2  1  0.50000000  0.00000000  0.00000000  1
  C  C3  1  0.00000000  0.50000000  0.00000000  1
  C  C4  1  0.50000000  0.50000000  0.00000000  1
  C  C5  1  0.23488100  0.23578900  0.80827500  1
  C  C6  1  0.74990000  0.22233600  0.79119900  1
  C  C7  1  0.22045300  0.74362300  0.78829900  1
  C  C8  1  0.75188600  0.73865700  0.79413700  1
  C  C9  1  0.24811400  0.26134300  0.20586300  1
  C  C10  1  0.77954700  0.25637700  0.21170100  1
  C  C11  1  0.25010000  0.77766400  0.20880100  1
  C  C12  1  0.76511900  0.76421100  0.19172500  1
