# generated using pymatgen
data_CuNiC7
_symmetry_space_group_name_H-M   'P 1'
_cell_length_a   3.92270290
_cell_length_b   3.92270331
_cell_length_c   16.13964604
_cell_angle_alpha   96.98005384
_cell_angle_beta   96.98005483
_cell_angle_gamma   89.99999574
_symmetry_Int_Tables_number   1
_chemical_formula_structural   CuNiC7
_chemical_formula_sum   'Cu2 Ni2 C14'
_cell_volume   244.65527439
_cell_formula_units_Z   2
loop_
 _symmetry_equiv_pos_site_id
 _symmetry_equiv_pos_as_xyz
  1  'x, y, z'
loop_
 _atom_site_type_symbol
 _atom_site_label
 _atom_site_symmetry_multiplicity
 _atom_site_fract_x
 _atom_site_fract_y
 _atom_site_fract_z
 _atom_site_occupancy
  Ni  Ni0  1  0.71565900  0.71565900  0.43131800  1
  Ni  Ni1  1  0.28434100  0.28434100  0.56868200  1
  Cu  Cu2  1  0.59609700  0.59609700  0.19219500  1
  Cu  Cu3  1  0.40390300  0.40390300  0.80780500  1
  C  C4  1  0.50000000  0.50000000  0.00000000  1
  C  C5  1  0.84313900  0.84313900  0.68627900  1
  C  C6  1  0.15686100  0.15686100  0.31372100  1
  C  C7  1  0.00000000  0.00000000  0.00000000  1
  C  C8  1  0.85816500  0.35816500  0.71633000  1
  C  C9  1  0.35816500  0.85816500  0.71633000  1
  C  C10  1  0.14183500  0.64183500  0.28367000  1
  C  C11  1  0.64183500  0.14183500  0.28367000  1
  C  C12  1  0.78790000  0.78790000  0.57579900  1
  C  C13  1  0.21210000  0.21210000  0.42420100  1
  C  C14  1  0.00000000  0.50000000  0.00000000  1
  C  C15  1  0.06836300  0.06836300  0.13672700  1
  C  C16  1  0.93163700  0.93163700  0.86327300  1
  C  C17  1  0.50000000  0.00000000  0.00000000  1
