# generated using pymatgen
data_Cu6Ni3C26
_symmetry_space_group_name_H-M   'P 1'
_cell_length_a   8.74522014
_cell_length_b   8.74521986
_cell_length_c   22.78363545
_cell_angle_alpha   90.00000000
_cell_angle_beta   90.00000000
_cell_angle_gamma   120.00000106
_symmetry_Int_Tables_number   1
_chemical_formula_structural   Cu6Ni3C26
_chemical_formula_sum   'Cu18 Ni9 C78'
_cell_volume   1509.02046217
_cell_formula_units_Z   3
loop_
 _symmetry_equiv_pos_site_id
 _symmetry_equiv_pos_as_xyz
  1  'x, y, z'
loop_
 _atom_site_type_symbol
 _atom_site_label
 _atom_site_symmetry_multiplicity
 _atom_site_fract_x
 _atom_site_fract_y
 _atom_site_fract_z
 _atom_site_occupancy
  C  C0  1  -0.00000000  -0.00000000  0.99824901  1
  C  C1  1  0.66666700  0.33333300  0.83391851  1
  C  C2  1  0.66666700  0.33333300  0.33312371  1
  C  C3  1  -0.00000000  -0.00000000  0.64500155  1
  C  C4  1  0.00000000  -0.00000000  0.14652724  1
  C  C5  1  0.33333300  0.66666700  0.52136538  1
  Ni  Ni6  1  -0.00000000  -0.00000000  0.35547731  1
  Ni  Ni7  1  -0.00000000  -0.00000000  0.85289237  1
  Ni  Ni8  1  0.66666700  0.33333300  0.68608397  1
  Ni  Ni9  1  0.66666700  0.33333300  0.18552061  1
  Ni  Ni10  1  0.66666700  0.33333300  0.98051243  1
  Ni  Ni11  1  0.66666700  0.33333300  0.48042566  1
  Ni  Ni12  1  0.33333300  0.66666700  0.02046394  1
  Ni  Ni13  1  0.33333300  0.66666700  0.31111562  1
  Ni  Ni14  1  0.33333300  0.66666700  0.81176275  1
  Cu  Cu15  1  0.29043277  0.00064213  0.25098425  1
  Cu  Cu16  1  0.71020935  0.70956723  0.25098425  1
  Cu  Cu17  1  0.99935787  0.28979065  0.25098425  1
  Cu  Cu18  1  0.29049880  0.29051191  0.75039055  1
  Cu  Cu19  1  0.00001311  0.70950120  0.75039055  1
  Cu  Cu20  1  0.70948809  -0.00001311  0.75039055  1
  Cu  Cu21  1  0.95416055  0.33343117  0.58327572  1
  Cu  Cu22  1  0.37927161  0.04583945  0.58327572  1
  Cu  Cu23  1  0.66656883  0.62072839  0.58327572  1
  Cu  Cu24  1  0.95740995  0.62190173  0.08308894  1
  Cu  Cu25  1  0.66449279  0.04259005  0.08308894  1
  Cu  Cu26  1  0.37809827  0.33550721  0.08308894  1
  Cu  Cu27  1  0.62309496  0.66661998  0.91647376  1
  Cu  Cu28  1  0.04352402  0.37690504  0.91647376  1
  Cu  Cu29  1  0.33338002  0.95647598  0.91647376  1
  Cu  Cu30  1  0.62257844  0.95623421  0.41581637  1
  Cu  Cu31  1  0.33365477  0.37742156  0.41581637  1
  Cu  Cu32  1  0.04376579  0.66634523  0.41581637  1
  C  C33  1  0.21118376  0.03765362  0.30559743  1
  C  C34  1  0.82646986  0.78881624  0.30559743  1
  C  C35  1  0.96234638  0.17353014  0.30559743  1
  C  C36  1  0.21241429  0.17457201  0.80532028  1
  C  C37  1  0.96215772  0.78758571  0.80532028  1
  C  C38  1  0.82542799  0.03784228  0.80532028  1
  C  C39  1  0.80259517  0.97561456  0.69560571  1
  C  C40  1  0.17301939  0.19740483  0.69560571  1
  C  C41  1  0.02438544  0.82698061  0.69560571  1
  C  C42  1  0.80251048  0.82690892  0.19593593  1
  C  C43  1  0.02439844  0.19748952  0.19593593  1
  C  C44  1  0.17309108  0.97560156  0.19593593  1
  C  C45  1  0.87984146  0.37292350  0.63818029  1
  C  C46  1  0.49308304  0.12015854  0.63818029  1
  C  C47  1  0.62707650  0.50691696  0.63818029  1
  C  C48  1  0.87761266  0.51060219  0.13843710  1
  C  C49  1  0.63299054  0.12238734  0.13843710  1
  C  C50  1  0.48939781  0.36700946  0.13843710  1
  C  C51  1  0.45162754  0.29181746  0.02812474  1
  C  C52  1  0.84019092  0.54837246  0.02812474  1
  C  C53  1  0.70818254  0.15980908  0.02812474  1
  C  C54  1  0.45350014  0.15978147  0.52850326  1
  C  C55  1  0.70628233  0.54649986  0.52850326  1
  C  C56  1  0.84021853  0.29371767  0.52850326  1
  C  C57  1  0.54534191  0.70040512  0.97206065  1
  C  C58  1  0.15506221  0.45465809  0.97206065  1
  C  C59  1  0.29959488  0.84493779  0.97206065  1
  C  C60  1  0.53061396  0.83970630  0.47100894  1
  C  C61  1  0.30909133  0.46938604  0.47100894  1
  C  C62  1  0.16029370  0.69090867  0.47100894  1
  C  C63  1  0.12223174  0.62911065  0.36119612  1
  C  C64  1  0.50687791  0.87776826  0.36119612  1
  C  C65  1  0.37088935  0.49312209  0.36119612  1
  C  C66  1  0.12171612  0.48896807  0.86097036  1
  C  C67  1  0.36725095  0.87828388  0.86097036  1
  C  C68  1  0.51103193  0.63274905  0.86097036  1
  C  C69  1  0.02941401  0.83241049  0.41071267  1
  C  C70  1  0.80299648  0.97058599  0.41071267  1
  C  C71  1  0.16758951  0.19700352  0.41071267  1
  C  C72  1  0.02408583  0.19105746  0.91109189  1
  C  C73  1  0.16697163  0.97591417  0.91109189  1
  C  C74  1  0.80894254  0.83302837  0.91109189  1
  C  C75  1  0.97744824  0.17140005  0.59413271  1
  C  C76  1  0.19395180  0.02255176  0.59413271  1
  C  C77  1  0.82859995  0.80604820  0.59413271  1
  C  C78  1  0.97564845  0.80791003  0.09229874  1
  C  C79  1  0.83226158  0.02435155  0.09229874  1
  C  C80  1  0.19208997  0.16773842  0.09229874  1
  C  C81  1  0.69252299  0.16662794  0.74325067  1
  C  C82  1  0.47410595  0.30747701  0.74325067  1
  C  C83  1  0.83337206  0.52589405  0.74325067  1
  C  C84  1  0.69240907  0.52550461  0.24348450  1
  C  C85  1  0.83309653  0.30759093  0.24348450  1
  C  C86  1  0.47449539  0.16690347  0.24348450  1
  C  C87  1  0.64239871  0.50013335  0.92217419  1
  C  C88  1  0.85773564  0.35760129  0.92217419  1
  C  C89  1  0.49986665  0.14226436  0.92217419  1
  C  C90  1  0.64056642  0.14059270  0.42323775  1
  C  C91  1  0.50002729  0.35943358  0.42323775  1
  C  C92  1  0.85940730  0.49997271  0.42323775  1
  C  C93  1  0.35492241  0.49550955  0.07540693  1
  C  C94  1  0.14058614  0.64507759  0.07540693  1
  C  C95  1  0.50449045  0.85941386  0.07540693  1
  C  C96  1  0.35579341  0.86051176  0.57255341  1
  C  C97  1  0.50471734  0.64420659  0.57255341  1
  C  C98  1  0.13948824  0.49528266  0.57255341  1
  C  C99  1  0.30394647  0.83425678  0.25615758  1
  C  C100  1  0.53030931  0.69605353  0.25615758  1
  C  C101  1  0.16574322  0.46969069  0.25615758  1
  C  C102  1  0.30423289  0.47024965  0.75593722  1
  C  C103  1  0.16601575  0.69576711  0.75593722  1
  C  C104  1  0.52975035  0.83398425  0.75593722  1
