# generated using pymatgen
data_Cu(NiC6)2
_symmetry_space_group_name_H-M   'P 1'
_cell_length_a   6.19861200
_cell_length_b   6.22052788
_cell_length_c   8.38343734
_cell_angle_alpha   93.47537620
_cell_angle_beta   90.00000000
_cell_angle_gamma   119.88352325
_symmetry_Int_Tables_number   1
_chemical_formula_structural   Cu(NiC6)2
_chemical_formula_sum   'Cu1 Ni2 C12'
_cell_volume   279.58825582
_cell_formula_units_Z   1
loop_
 _symmetry_equiv_pos_site_id
 _symmetry_equiv_pos_as_xyz
  1  'x, y, z'
loop_
 _atom_site_type_symbol
 _atom_site_label
 _atom_site_symmetry_multiplicity
 _atom_site_fract_x
 _atom_site_fract_y
 _atom_site_fract_z
 _atom_site_occupancy
  Ni  Ni0  1  0.70171400  0.40342600  0.74706000  1
  Ni  Ni1  1  0.29828600  0.59657400  0.25294000  1
  Cu  Cu2  1  0.00000000  0.00000000  0.50000000  1
  C  C3  1  0.00000000  0.00000000  0.00000000  1
  C  C4  1  0.50000000  0.00000000  0.00000000  1
  C  C5  1  0.69362900  0.38725700  0.24508300  1
  C  C6  1  0.30637100  0.61274300  0.75491600  1
  C  C7  1  0.81463400  0.19135400  0.13282400  1
  C  C8  1  0.85021000  0.70042100  0.18781000  1
  C  C9  1  0.37671900  0.19135400  0.13282400  1
  C  C10  1  0.62328100  0.80864600  0.86717600  1
  C  C11  1  0.14979000  0.29957900  0.81219000  1
  C  C12  1  0.18536600  0.80864600  0.86717600  1
  C  C13  1  0.32616900  0.65234000  0.55374100  1
  C  C14  1  0.67383100  0.34766000  0.44625900  1
