# generated using pymatgen
data_Cu3NiC36
_symmetry_space_group_name_H-M   'P 1'
_cell_length_a   9.14689618
_cell_length_b   9.13395876
_cell_length_c   22.57951377
_cell_angle_alpha   89.86470434
_cell_angle_beta   90.09985108
_cell_angle_gamma   119.88974750
_symmetry_Int_Tables_number   1
_chemical_formula_structural   Cu3NiC36
_chemical_formula_sum   'Cu9 Ni3 C108'
_cell_volume   1635.52855107
_cell_formula_units_Z   3
loop_
 _symmetry_equiv_pos_site_id
 _symmetry_equiv_pos_as_xyz
  1  'x, y, z'
loop_
 _atom_site_type_symbol
 _atom_site_label
 _atom_site_symmetry_multiplicity
 _atom_site_fract_x
 _atom_site_fract_y
 _atom_site_fract_z
 _atom_site_occupancy
  C  C0  1  0.00040058  0.99310026  0.49735631  1
  C  C1  1  0.99913485  0.99585253  0.99808281  1
  C  C2  1  0.64563257  0.29740782  0.82951612  1
  C  C3  1  0.64919358  0.33086772  0.32170358  1
  C  C4  1  0.32668777  0.66496572  0.16268477  1
  C  C5  1  0.32222505  0.66328920  0.66515941  1
  C  C6  1  0.64400323  0.01405089  0.24193119  1
  C  C7  1  0.98481215  0.61965718  0.23759815  1
  C  C8  1  0.63281859  0.61683211  0.73891973  1
  C  C9  1  0.98935839  0.36542883  0.74397299  1
  C  C10  1  0.66710519  0.97356162  0.58803082  1
  C  C11  1  0.66616084  0.68483017  0.08004492  1
  C  C12  1  0.02325695  0.33908503  0.08724458  1
  C  C13  1  0.96962559  0.66712603  0.91910721  1
  C  C14  1  0.33620386  0.30722629  0.91760791  1
  C  C15  1  0.96249564  0.28219638  0.40745026  1
  C  C16  1  0.32828395  0.02991400  0.40819435  1
  C  C17  1  0.71542481  0.68770996  0.41360711  1
  Ni  Ni18  1  0.99981104  0.00035049  0.34975626  1
  Ni  Ni19  1  0.65836386  0.33148383  0.68310669  1
  Ni  Ni20  1  0.66147352  0.33328386  0.18332062  1
  Cu  Cu21  1  0.99528394  0.00061148  0.85342787  1
  Cu  Cu22  1  0.00689658  0.99546804  0.64440981  1
  Cu  Cu23  1  0.01013942  0.00220723  0.14933628  1
  Cu  Cu24  1  0.66796203  0.33073993  0.98122630  1
  Cu  Cu25  1  0.66836059  0.33874110  0.48434882  1
  Cu  Cu26  1  0.33288499  0.67538447  0.01844278  1
  Cu  Cu27  1  0.33696450  0.66450933  0.52189823  1
  Cu  Cu28  1  0.33785977  0.66682787  0.31250410  1
  Cu  Cu29  1  0.33749884  0.67526265  0.81427600  1
  C  C30  1  0.66765556  0.63094568  0.58763288  1
  C  C31  1  0.96232743  0.62711671  0.08786572  1
  C  C32  1  0.62810401  0.66706277  0.91779473  1
  C  C33  1  0.03995956  0.37394938  0.91653811  1
  C  C34  1  0.33525397  0.96580528  0.91503243  1
  C  C35  1  0.63332621  0.96655215  0.41648747  1
  C  C36  1  0.29924428  0.00334955  0.25583944  1
  C  C37  1  0.70728273  0.70357635  0.25252074  1
  C  C38  1  0.99633822  0.29527433  0.25318762  1
  C  C39  1  0.29742796  0.29466869  0.75079451  1
  C  C40  1  0.99827199  0.69888259  0.75054068  1
  C  C41  1  0.70440051  0.00120645  0.74545190  1
  C  C42  1  0.96121152  0.33504994  0.58768292  1
  C  C43  1  0.37737281  0.04273620  0.58291769  1
  C  C44  1  0.66683551  0.03833268  0.09032277  1
  C  C45  1  0.37456174  0.33516618  0.08434914  1
  C  C46  1  0.33278469  0.37052317  0.41678370  1
  C  C47  1  0.04047334  0.66577901  0.41548907  1
  C  C48  1  0.21716371  0.01291215  0.31374675  1
  C  C49  1  0.80814077  0.78932267  0.30911448  1
  C  C50  1  0.98764954  0.19454276  0.30892832  1
  C  C51  1  0.20755474  0.20116283  0.80884474  1
  C  C52  1  0.99211237  0.79253834  0.80721234  1
  C  C53  1  0.81759715  0.01316690  0.79930903  1
  C  C54  1  0.79415803  0.98414785  0.68904439  1
  C  C55  1  0.17998683  0.19405716  0.69805851  1
  C  C56  1  0.00759748  0.81003386  0.69630680  1
  C  C57  1  0.79905512  0.81971485  0.19753678  1
  C  C58  1  0.01084280  0.20598758  0.19633961  1
  C  C59  1  0.18021189  0.98445536  0.20278074  1
  C  C60  1  0.87816545  0.35030303  0.64379880  1
  C  C61  1  0.49718253  0.12804091  0.63441580  1
  C  C62  1  0.65070964  0.52651477  0.64645696  1
  C  C63  1  0.87614255  0.51337569  0.14579437  1
  C  C64  1  0.64816990  0.11405624  0.14799357  1
  C  C65  1  0.48728731  0.35233255  0.13626019  1
  C  C66  1  0.44575655  0.31377846  0.02473234  1
  C  C67  1  0.84471164  0.53704263  0.02855144  1
  C  C68  1  0.68260580  0.15129632  0.03652709  1
  C  C69  1  0.45646349  0.14006552  0.52347176  1
  C  C70  1  0.67998351  0.53750556  0.52602897  1
  C  C71  1  0.84647131  0.31087118  0.53171690  1
  C  C72  1  0.54160534  0.68984007  0.97759836  1
  C  C73  1  0.15847833  0.46436857  0.97487203  1
  C  C74  1  0.30080614  0.84228735  0.97201217  1
  C  C75  1  0.53181579  0.84611549  0.47367863  1
  C  C76  1  0.30966464  0.45863920  0.47141245  1
  C  C77  1  0.15263672  0.68173166  0.46868120  1
  C  C78  1  0.12098440  0.63714997  0.35872697  1
  C  C79  1  0.50925026  0.87013897  0.35839015  1
  C  C80  1  0.35564130  0.48418245  0.36175163  1
  C  C81  1  0.13125857  0.49270874  0.85810266  1
  C  C82  1  0.36018965  0.87533512  0.85662730  1
  C  C83  1  0.51051469  0.64167075  0.85919658  1
  C  C84  1  0.02251627  0.82427357  0.41226289  1
  C  C85  1  0.81862375  0.98391250  0.41315564  1
  C  C86  1  0.17983625  0.19283507  0.41191984  1
  C  C87  1  0.02641862  0.18942587  0.91154714  1
  C  C88  1  0.16399630  0.98041208  0.91057031  1
  C  C89  1  0.82025241  0.82658831  0.91182514  1
  C  C90  1  0.97760222  0.17241472  0.58730480  1
  C  C91  1  0.20134977  0.02692300  0.58735007  1
  C  C92  1  0.83376349  0.82620648  0.58504802  1
  C  C93  1  0.97630844  0.81600050  0.09075198  1
  C  C94  1  0.83531211  0.02929807  0.08993687  1
  C  C95  1  0.18864253  0.18349624  0.09020351  1
  C  C96  1  0.68987366  0.16057063  0.74486608  1
  C  C97  1  0.47445117  0.31761313  0.74809460  1
  C  C98  1  0.83951055  0.52313402  0.74919484  1
  C  C99  1  0.68541081  0.52761118  0.24616199  1
  C  C100  1  0.83712219  0.31359243  0.25067496  1
  C  C101  1  0.47861985  0.14910422  0.24809887  1
  C  C102  1  0.64318324  0.49586438  0.92192556  1
  C  C103  1  0.85622300  0.35959349  0.92298985  1
  C  C104  1  0.49471838  0.15443778  0.92159182  1
  C  C105  1  0.64760149  0.15400434  0.41969422  1
  C  C106  1  0.49929022  0.36272938  0.42022913  1
  C  C107  1  0.86194103  0.50476217  0.42108218  1
  C  C108  1  0.35660520  0.49734678  0.08227080  1
  C  C109  1  0.15007830  0.64540686  0.08140230  1
  C  C110  1  0.52009977  0.85362931  0.08317361  1
  C  C111  1  0.35123879  0.86123125  0.57687301  1
  C  C112  1  0.50396851  0.66343003  0.58217554  1
  C  C113  1  0.13698531  0.49129705  0.57879325  1
  C  C114  1  0.30306096  0.83072091  0.25299709  1
  C  C115  1  0.53100439  0.69714600  0.25324031  1
  C  C116  1  0.15485397  0.47888327  0.25308986  1
  C  C117  1  0.30706980  0.47203532  0.74965157  1
  C  C118  1  0.15759279  0.67858832  0.74872075  1
  C  C119  1  0.53321980  0.83287272  0.74894729  1
