# generated using pymatgen
data_Cu2NiC15
_symmetry_space_group_name_H-M   'P 1'
_cell_length_a   3.96565121
_cell_length_b   7.78914125
_cell_length_c   7.69408210
_cell_angle_alpha   83.91865018
_cell_angle_beta   75.06589350
_cell_angle_gamma   75.25232056
_symmetry_Int_Tables_number   1
_chemical_formula_structural   Cu2NiC15
_chemical_formula_sum   'Cu2 Ni1 C15'
_cell_volume   221.86300262
_cell_formula_units_Z   1
loop_
 _symmetry_equiv_pos_site_id
 _symmetry_equiv_pos_as_xyz
  1  'x, y, z'
loop_
 _atom_site_type_symbol
 _atom_site_label
 _atom_site_symmetry_multiplicity
 _atom_site_fract_x
 _atom_site_fract_y
 _atom_site_fract_z
 _atom_site_occupancy
  Ni  Ni0  1  0.99966500  0.00486800  0.99580300  1
  C  C1  1  0.62691300  0.28582200  0.46035100  1
  C  C2  1  0.37359700  0.71797300  0.53483400  1
  C  C3  1  0.68564400  0.87570400  0.75300900  1
  C  C4  1  0.31463000  0.12802800  0.24271100  1
  Cu  Cu5  1  0.11006400  0.60980700  0.17006600  1
  Cu  Cu6  1  0.88899600  0.39597300  0.82603600  1
  C  C7  1  0.70548500  0.64648000  0.94255000  1
  C  C8  1  0.29323700  0.35877400  0.05475400  1
  C  C9  1  0.63800800  0.09609100  0.62789500  1
  C  C10  1  0.36351000  0.90695400  0.36602500  1
  C  C11  1  0.43177700  0.46494600  0.67149800  1
  C  C12  1  0.56774900  0.53932000  0.32518300  1
  C  C13  1  0.81481300  0.14480600  0.22556800  1
  C  C14  1  0.18554600  0.85950400  0.76940500  1
  C  C15  1  0.12849400  0.30182700  0.44118500  1
  C  C16  1  0.87188300  0.70153400  0.55470000  1
  C  C17  1  0.49999000  0.00325700  0.99676200  1
