# generated using pymatgen
data_Cu3NiC8
_symmetry_space_group_name_H-M   'P 1'
_cell_length_a   4.89025730
_cell_length_b   9.80758737
_cell_length_c   3.06046200
_cell_angle_alpha   90.00000000
_cell_angle_beta   90.00000000
_cell_angle_gamma   89.55221423
_symmetry_Int_Tables_number   1
_chemical_formula_structural   Cu3NiC8
_chemical_formula_sum   'Cu3 Ni1 C8'
_cell_volume   146.78025023
_cell_formula_units_Z   1
loop_
 _symmetry_equiv_pos_site_id
 _symmetry_equiv_pos_as_xyz
  1  'x, y, z'
loop_
 _atom_site_type_symbol
 _atom_site_label
 _atom_site_symmetry_multiplicity
 _atom_site_fract_x
 _atom_site_fract_y
 _atom_site_fract_z
 _atom_site_occupancy
  Ni  Ni0  1  0.44615300  0.09424900  0.75000000  1
  Cu  Cu1  1  0.03462700  0.84010600  0.75000000  1
  Cu  Cu2  1  0.41070000  0.38631900  0.75000000  1
  Cu  Cu3  1  0.55037400  0.63631800  0.25000000  1
  C  C4  1  0.27841400  0.48638600  0.25000000  1
  C  C5  1  0.36551100  0.73744700  0.75000000  1
  C  C6  1  0.69023200  0.52921900  0.75000000  1
  C  C7  1  0.86159400  0.75798700  0.25000000  1
  C  C8  1  0.15605500  0.23321300  0.75000000  1
  C  C9  1  0.27343000  0.98187000  0.25000000  1
  C  C10  1  0.57495900  0.23775900  0.25000000  1
  C  C11  1  0.78985300  0.00110900  0.75000000  1
