# generated using pymatgen
data_Cu6NiC13
_symmetry_space_group_name_H-M   'P 1'
_cell_length_a   10.28258652
_cell_length_b   5.96216041
_cell_length_c   8.72568268
_cell_angle_alpha   69.75877687
_cell_angle_beta   53.85837106
_cell_angle_gamma   89.99428046
_symmetry_Int_Tables_number   1
_chemical_formula_structural   Cu6NiC13
_chemical_formula_sum   'Cu6 Ni1 C13'
_cell_volume   390.35953962
_cell_formula_units_Z   1
loop_
 _symmetry_equiv_pos_site_id
 _symmetry_equiv_pos_as_xyz
  1  'x, y, z'
loop_
 _atom_site_type_symbol
 _atom_site_label
 _atom_site_symmetry_multiplicity
 _atom_site_fract_x
 _atom_site_fract_y
 _atom_site_fract_z
 _atom_site_occupancy
  Ni  Ni0  1  0.67365200  0.99947700  0.00122500  1
  Cu  Cu1  1  0.08235600  0.74735800  0.50313600  1
  Cu  Cu2  1  0.24695900  0.23774800  0.50672500  1
  Cu  Cu3  1  0.40816300  0.73819400  0.51558700  1
  Cu  Cu4  1  0.58428500  0.25170300  0.49923000  1
  Cu  Cu5  1  0.75203900  0.76066000  0.49595800  1
  Cu  Cu6  1  0.92227500  0.26081900  0.48679300  1
  C  C7  1  0.48653800  0.49943500  0.00124200  1
  C  C8  1  0.02772400  0.70070600  0.27787000  1
  C  C9  1  0.19124600  0.19123800  0.27732900  1
  C  C10  1  0.36404400  0.70336200  0.27332400  1
  C  C11  1  0.13503500  0.79956000  0.72835700  1
  C  C12  1  0.30433700  0.29821900  0.72466800  1
  C  C13  1  0.53345400  0.19253700  0.27162000  1
  C  C14  1  0.69702400  0.70021700  0.27264700  1
  C  C15  1  0.46733700  0.80754000  0.72531800  1
  C  C16  1  0.86208200  0.19932100  0.27414500  1
  C  C17  1  0.63617300  0.29552400  0.72910900  1
  C  C18  1  0.80385900  0.80654400  0.73091400  1
  C  C19  1  0.96838000  0.29912400  0.72986700  1
