# generated using pymatgen
data_Cu6NiC12
_symmetry_space_group_name_H-M   'P 1'
_cell_length_a   5.22354898
_cell_length_b   7.81734320
_cell_length_c   5.83392094
_cell_angle_alpha   97.61166350
_cell_angle_beta   99.95344867
_cell_angle_gamma   82.84365541
_symmetry_Int_Tables_number   1
_chemical_formula_structural   Cu6NiC12
_chemical_formula_sum   'Cu6 Ni1 C12'
_cell_volume   231.30591131
_cell_formula_units_Z   1
loop_
 _symmetry_equiv_pos_site_id
 _symmetry_equiv_pos_as_xyz
  1  'x, y, z'
loop_
 _atom_site_type_symbol
 _atom_site_label
 _atom_site_symmetry_multiplicity
 _atom_site_fract_x
 _atom_site_fract_y
 _atom_site_fract_z
 _atom_site_occupancy
  Ni  Ni0  1  0.99815400  0.49446000  0.99453600  1
  Cu  Cu1  1  0.52169100  0.00675600  0.47717900  1
  Cu  Cu2  1  0.50297600  0.67312700  0.15983200  1
  Cu  Cu3  1  0.49064200  0.31485500  0.84423500  1
  Cu  Cu4  1  0.03651800  0.68873000  0.62310400  1
  Cu  Cu5  1  0.96710700  0.30332400  0.37122200  1
  Cu  Cu6  1  0.98690800  0.99923100  0.01297800  1
  C  C7  1  0.82466000  0.09377800  0.27834900  1
  C  C8  1  0.69991300  0.09622800  0.79121800  1
  C  C9  1  0.69600400  0.77320800  0.44439500  1
  C  C10  1  0.70321900  0.42951000  0.13414500  1
  C  C11  1  0.30510800  0.55583300  0.87008200  1
  C  C12  1  0.30879100  0.22886900  0.53414600  1
  C  C13  1  0.29673600  0.89784200  0.20761400  1
  C  C14  1  0.83191000  0.44472700  0.66045300  1
  C  C15  1  0.83409000  0.73758900  0.96163800  1
  C  C16  1  0.16347000  0.53951500  0.33362800  1
  C  C17  1  0.17051500  0.25358500  0.02574400  1
  C  C18  1  0.17548000  0.91883200  0.74425200  1
