# generated using pymatgen
data_Cu3Ni2C31
_symmetry_space_group_name_H-M   'P 1'
_cell_length_a   9.08669752
_cell_length_b   9.08669720
_cell_length_c   24.06888614
_cell_angle_alpha   90.00000000
_cell_angle_beta   90.00000000
_cell_angle_gamma   120.00000116
_symmetry_Int_Tables_number   1
_chemical_formula_structural   Cu3Ni2C31
_chemical_formula_sum   'Cu9 Ni6 C93'
_cell_volume   1721.07084065
_cell_formula_units_Z   3
loop_
 _symmetry_equiv_pos_site_id
 _symmetry_equiv_pos_as_xyz
  1  'x, y, z'
loop_
 _atom_site_type_symbol
 _atom_site_label
 _atom_site_symmetry_multiplicity
 _atom_site_fract_x
 _atom_site_fract_y
 _atom_site_fract_z
 _atom_site_occupancy
  Ni  Ni0  1  -0.00000000  0.00000000  0.50897323  1
  Ni  Ni1  1  -0.00000000  0.00000000  0.00487612  1
  Ni  Ni2  1  0.66666700  0.33333300  0.82577277  1
  Ni  Ni3  1  0.66666700  0.33333300  0.33812400  1
  Ni  Ni4  1  0.33333300  0.66666700  0.17796245  1
  Ni  Ni5  1  0.33333300  0.66666700  0.65350420  1
  Cu  Cu6  1  -0.00000000  0.00000000  0.64571041  1
  Cu  Cu7  1  -0.00000000  0.00000000  0.14902745  1
  Cu  Cu8  1  0.66666700  0.33333300  0.68183197  1
  Cu  Cu9  1  0.66666700  0.33333300  0.18665083  1
  Cu  Cu10  1  0.66666700  0.33333300  0.98269597  1
  Cu  Cu11  1  0.66666700  0.33333300  0.48414897  1
  Cu  Cu12  1  0.33333300  0.66666700  0.51407775  1
  Cu  Cu13  1  0.33333300  0.66666700  0.31869393  1
  Cu  Cu14  1  0.33333300  0.66666700  0.81282050  1
  C  C15  1  -0.00000000  0.00000000  0.35121105  1
  C  C16  1  -0.00000000  0.00000000  0.85012601  1
  C  C17  1  0.33333300  0.66666700  0.01630071  1
  C  C18  1  0.29128973  0.00036049  0.25138007  1
  C  C19  1  0.70907076  0.70871027  0.25138007  1
  C  C20  1  -0.00036049  0.29092924  0.25138007  1
  C  C21  1  0.29110236  0.28691995  0.75287063  1
  C  C22  1  0.99581759  0.70889764  0.75287063  1
  C  C23  1  0.71308005  0.00418241  0.75287063  1
  C  C24  1  0.96925822  0.33648205  0.58336223  1
  C  C25  1  0.36722483  0.03074178  0.58336223  1
  C  C26  1  0.66351795  0.63277517  0.58336223  1
  C  C27  1  0.97348881  0.63299651  0.07986396  1
  C  C28  1  0.65950871  0.02651119  0.07986396  1
  C  C29  1  0.36700349  0.34049129  0.07986396  1
  C  C30  1  0.63109135  0.67568676  0.91659106  1
  C  C31  1  0.04459441  0.36890865  0.91659106  1
  C  C32  1  0.32431324  0.95540559  0.91659106  1
  C  C33  1  0.64095415  0.96903030  0.41335823  1
  C  C34  1  0.32807515  0.35904585  0.41335823  1
  C  C35  1  0.03096970  0.67192485  0.41335823  1
  C  C36  1  0.19277090  0.00981457  0.30084085  1
  C  C37  1  0.81704367  0.80722910  0.30084085  1
  C  C38  1  0.99018543  0.18295633  0.30084085  1
  C  C39  1  0.19106409  0.17824961  0.80480227  1
  C  C40  1  0.98718552  0.80893591  0.80480227  1
  C  C41  1  0.82175039  0.01281448  0.80480227  1
  C  C42  1  0.79315131  0.98887363  0.70312723  1
  C  C43  1  0.19572232  0.20684869  0.70312723  1
  C  C44  1  0.01112637  0.80427768  0.70312723  1
  C  C45  1  0.78746313  0.80204561  0.19998612  1
  C  C46  1  0.01458248  0.21253687  0.19998612  1
  C  C47  1  0.19795439  0.98541752  0.19998612  1
  C  C48  1  0.88599807  0.34942382  0.63482195  1
  C  C49  1  0.46342675  0.11400193  0.63482195  1
  C  C50  1  0.65057618  0.53657325  0.63482195  1
  C  C51  1  0.90663807  0.53259904  0.13069599  1
  C  C52  1  0.62596197  0.09336193  0.13069599  1
  C  C53  1  0.46740096  0.37403803  0.13069599  1
  C  C54  1  0.44885820  0.31754066  0.03091660  1
  C  C55  1  0.86868346  0.55114180  0.03091660  1
  C  C56  1  0.68245934  0.13131654  0.03091660  1
  C  C57  1  0.45266270  0.12991469  0.53332463  1
  C  C58  1  0.67725299  0.54733730  0.53332463  1
  C  C59  1  0.87008531  0.32274701  0.53332463  1
  C  C60  1  0.54314570  0.69863210  0.96682275  1
  C  C61  1  0.15548540  0.45685430  0.96682275  1
  C  C62  1  0.30136790  0.84451460  0.96682275  1
  C  C63  1  0.57356461  0.86744871  0.46381815  1
  C  C64  1  0.29388311  0.42643539  0.46381815  1
  C  C65  1  0.13255129  0.70611689  0.46381815  1
  C  C66  1  0.11290492  0.64984125  0.36426315  1
  C  C67  1  0.53693533  0.88709508  0.36426315  1
  C  C68  1  0.35015875  0.46306467  0.36426315  1
  C  C69  1  0.12200680  0.46908938  0.86690197  1
  C  C70  1  0.34708157  0.87799320  0.86690197  1
  C  C71  1  0.53091062  0.65291843  0.86690197  1
  C  C72  1  0.01437422  0.83042864  0.40391219  1
  C  C73  1  0.81605442  0.98562578  0.40391219  1
  C  C74  1  0.16957136  0.18394558  0.40391219  1
  C  C75  1  0.03433622  0.19727683  0.91254114  1
  C  C76  1  0.16294061  0.96566378  0.91254114  1
  C  C77  1  0.80272317  0.83705939  0.91254114  1
  C  C78  1  0.98657988  0.18204803  0.58525893  1
  C  C79  1  0.19546815  0.01342012  0.58525893  1
  C  C80  1  0.81795197  0.80453185  0.58525893  1
  C  C81  1  0.00208298  0.80689413  0.08428346  1
  C  C82  1  0.80481115  -0.00208298  0.08428346  1
  C  C83  1  0.19310587  0.19518885  0.08428346  1
  C  C84  1  0.70479666  0.16172553  0.75549145  1
  C  C85  1  0.45692988  0.29520334  0.75549145  1
  C  C86  1  0.83827447  0.54307012  0.75549145  1
  C  C87  1  0.70000295  0.54153298  0.25205527  1
  C  C88  1  0.84153103  0.29999705  0.25205527  1
  C  C89  1  0.45846702  0.15846897  0.25205527  1
  C  C90  1  0.65625433  0.53031223  0.92418794  1
  C  C91  1  0.87405890  0.34374567  0.92418794  1
  C  C92  1  0.46968777  0.12594110  0.92418794  1
  C  C93  1  0.66836105  0.14214423  0.41784530  1
  C  C94  1  0.47378419  0.33163895  0.41784530  1
  C  C95  1  0.85785577  0.52621581  0.41784530  1
  C  C96  1  0.35073777  0.49952764  0.06955653  1
  C  C97  1  0.14878887  0.64926223  0.06955653  1
  C  C98  1  0.50047236  0.85121113  0.06955653  1
  C  C99  1  0.34979264  0.85908573  0.58090216  1
  C  C100  1  0.50929209  0.65020736  0.58090216  1
  C  C101  1  0.14091427  0.49070791  0.58090216  1
  C  C102  1  0.30924959  0.84844658  0.25611470  1
  C  C103  1  0.53919599  0.69075041  0.25611470  1
  C  C104  1  0.15155342  0.46080401  0.25611470  1
  C  C105  1  0.30707521  0.45466533  0.75926700  1
  C  C106  1  0.14758913  0.69292479  0.75926700  1
  C  C107  1  0.54533467  0.85241087  0.75926700  1
