# generated using pymatgen
data_Cu2NiC4
_symmetry_space_group_name_H-M   'P 1'
_cell_length_a   3.16527879
_cell_length_b   3.27986621
_cell_length_c   10.12029002
_cell_angle_alpha   90.24954311
_cell_angle_beta   81.99003417
_cell_angle_gamma   120.87767055
_symmetry_Int_Tables_number   1
_chemical_formula_structural   Cu2NiC4
_chemical_formula_sum   'Cu2 Ni1 C4'
_cell_volume   89.01526278
_cell_formula_units_Z   1
loop_
 _symmetry_equiv_pos_site_id
 _symmetry_equiv_pos_as_xyz
  1  'x, y, z'
loop_
 _atom_site_type_symbol
 _atom_site_label
 _atom_site_symmetry_multiplicity
 _atom_site_fract_x
 _atom_site_fract_y
 _atom_site_fract_z
 _atom_site_occupancy
  Ni  Ni0  1  0.85362797  0.42421263  0.21226202  1
  Cu  Cu1  1  0.72807929  0.85872760  0.93509563  1
  Cu  Cu2  1  0.02673669  0.01908154  0.51463882  1
  C  C3  1  0.72448615  0.36312988  0.41231855  1
  C  C4  1  0.43958780  0.21526478  0.88781587  1
  C  C5  1  0.57432762  0.78462070  0.14563589  1
  C  C6  1  0.31962147  0.66829487  0.59848522  1
