# generated using pymatgen
data_Cu2Ni8C5
_symmetry_space_group_name_H-M   'P 1'
_cell_length_a   5.28730286
_cell_length_b   5.39460694
_cell_length_c   7.46777700
_cell_angle_alpha   108.46281951
_cell_angle_beta   108.01297745
_cell_angle_gamma   96.61808550
_symmetry_Int_Tables_number   1
_chemical_formula_structural   Cu2Ni8C5
_chemical_formula_sum   'Cu2 Ni8 C5'
_cell_volume   186.69394630
_cell_formula_units_Z   1
loop_
 _symmetry_equiv_pos_site_id
 _symmetry_equiv_pos_as_xyz
  1  'x, y, z'
loop_
 _atom_site_type_symbol
 _atom_site_label
 _atom_site_symmetry_multiplicity
 _atom_site_fract_x
 _atom_site_fract_y
 _atom_site_fract_z
 _atom_site_occupancy
  C  C0  1  0.01504200  0.67635700  0.28767800  1
  C  C1  1  0.99588400  0.99923000  0.98785500  1
  C  C2  1  0.51895200  0.49814800  0.51376200  1
  C  C3  1  0.41279400  0.09806600  0.74242700  1
  C  C4  1  0.58254900  0.90792800  0.25589000  1
  Ni  Ni5  1  0.26401500  0.12507800  0.89142600  1
  Ni  Ni6  1  0.31865000  0.80409500  0.57478300  1
  Ni  Ni7  1  0.34313000  0.29071200  0.63024100  1
  Ni  Ni8  1  0.26425200  0.81774200  0.15279300  1
  Ni  Ni9  1  0.72291400  0.17070200  0.86921300  1
  Ni  Ni10  1  0.68549000  0.72896300  0.38015100  1
  Ni  Ni11  1  0.66849200  0.21030900  0.38031900  1
  Ni  Ni12  1  0.74403400  0.84125300  0.10975500  1
  Cu  Cu13  1  0.15213300  0.35170900  0.25192700  1
  Cu  Cu14  1  0.84916700  0.65470800  0.74856600  1
