# generated using pymatgen
data_Cu12Ni3C4
_symmetry_space_group_name_H-M   'P 1'
_cell_length_a   8.85015418
_cell_length_b   8.85015389
_cell_length_c   22.57910055
_cell_angle_alpha   90.38228652
_cell_angle_beta   89.61771342
_cell_angle_gamma   120.51545977
_symmetry_Int_Tables_number   1
_chemical_formula_structural   Cu12Ni3C4
_chemical_formula_sum   'Cu72 Ni18 C24'
_cell_volume   1523.51528359
_cell_formula_units_Z   6
loop_
 _symmetry_equiv_pos_site_id
 _symmetry_equiv_pos_as_xyz
  1  'x, y, z'
loop_
 _atom_site_type_symbol
 _atom_site_label
 _atom_site_symmetry_multiplicity
 _atom_site_fract_x
 _atom_site_fract_y
 _atom_site_fract_z
 _atom_site_occupancy
  C  C0  1  0.36459025  0.36459025  0.25000000  1
  C  C1  1  0.63540975  0.63540975  0.75000000  1
  C  C2  1  0.03125725  0.69792325  0.58333300  1
  C  C3  1  0.30207675  0.96874275  0.08333300  1
  C  C4  1  0.69792325  0.03125725  0.91666700  1
  C  C5  1  0.96874275  0.30207675  0.41666700  1
  C  C6  1  -0.00000000  -0.00000000  0.50000000  1
  C  C7  1  -0.00000000  -0.00000000  0.00000000  1
  C  C8  1  0.66666700  0.33333300  0.83333300  1
  C  C9  1  0.66666700  0.33333300  0.33333300  1
  C  C10  1  0.33333300  0.66666700  0.16666700  1
  C  C11  1  0.33333300  0.66666700  0.66666700  1
  C  C12  1  0.99737910  0.99032262  0.34884624  1
  C  C13  1  0.00967738  0.00262090  0.84884624  1
  C  C14  1  0.00262090  0.00967738  0.65115376  1
  C  C15  1  0.99032262  0.99737910  0.15115376  1
  C  C16  1  0.66404610  0.32365562  0.68217924  1
  C  C17  1  0.67634438  0.33595390  0.18217924  1
  C  C18  1  0.66928790  0.34301038  0.98448676  1
  C  C19  1  0.65698962  0.33071210  0.48448676  1
  C  C20  1  0.33071210  0.65698962  0.01551324  1
  C  C21  1  0.34301038  0.66928790  0.51551324  1
  C  C22  1  0.33595390  0.67634438  0.31782076  1
  C  C23  1  0.32365562  0.66404610  0.81782076  1
  Ni  Ni24  1  0.29338730  0.99780585  0.24921740  1
  Ni  Ni25  1  0.70654930  0.70654930  0.25000000  1
  Ni  Ni26  1  0.99780585  0.29338730  0.25078260  1
  Ni  Ni27  1  0.29345070  0.29345070  0.75000000  1
  Ni  Ni28  1  0.00219415  0.70661270  0.74921740  1
  Ni  Ni29  1  0.70661270  0.00219415  0.75078260  1
  Ni  Ni30  1  0.96005430  0.33113885  0.58255040  1
  Ni  Ni31  1  0.37321630  0.03988230  0.58333300  1
  Ni  Ni32  1  0.66447285  0.62672030  0.58411560  1
  Ni  Ni33  1  0.96011770  0.62678370  0.08333300  1
  Ni  Ni34  1  0.66886115  0.03994570  0.08255040  1
  Ni  Ni35  1  0.37327970  0.33552715  0.08411560  1
  Ni  Ni36  1  0.62672030  0.66447285  0.91588440  1
  Ni  Ni37  1  0.03988230  0.37321630  0.91666700  1
  Ni  Ni38  1  0.33113885  0.96005430  0.91744960  1
  Ni  Ni39  1  0.62678370  0.96011770  0.41666700  1
  Ni  Ni40  1  0.33552715  0.37327970  0.41588440  1
  Ni  Ni41  1  0.03994570  0.66886115  0.41744960  1
  Cu  Cu42  1  0.21297460  0.03208833  0.30189697  1
  Cu  Cu43  1  0.81216895  0.78473698  0.30356271  1
  Cu  Cu44  1  0.97178167  0.18994165  0.30576153  1
  Cu  Cu45  1  0.21526302  0.18783105  0.80356271  1
  Cu  Cu46  1  0.96791167  0.78702540  0.80189697  1
  Cu  Cu47  1  0.81005835  0.02821833  0.80576153  1
  Cu  Cu48  1  0.78702540  0.96791167  0.69810303  1
  Cu  Cu49  1  0.18783105  0.21526302  0.69643729  1
  Cu  Cu50  1  0.02821833  0.81005835  0.69423847  1
  Cu  Cu51  1  0.78473698  0.81216895  0.19643729  1
  Cu  Cu52  1  0.03208833  0.21297460  0.19810303  1
  Cu  Cu53  1  0.18994165  0.97178167  0.19423847  1
  Cu  Cu54  1  0.87964160  0.36542133  0.63522997  1
  Cu  Cu55  1  0.47883595  0.11806998  0.63689571  1
  Cu  Cu56  1  0.63844867  0.52327465  0.63909453  1
  Cu  Cu57  1  0.88193002  0.52116405  0.13689571  1
  Cu  Cu58  1  0.63457867  0.12035840  0.13522997  1
  Cu  Cu59  1  0.47672535  0.36155133  0.13909453  1
  Cu  Cu60  1  0.45369240  0.30124467  0.03143603  1
  Cu  Cu61  1  0.85449805  0.54859602  0.02977029  1
  Cu  Cu62  1  0.69488533  0.14339135  0.02757147  1
  Cu  Cu63  1  0.45140398  0.14550195  0.52977029  1
  Cu  Cu64  1  0.69875533  0.54630760  0.53143603  1
  Cu  Cu65  1  0.85660865  0.30511467  0.52757147  1
  Cu  Cu66  1  0.54630760  0.69875533  0.96856397  1
  Cu  Cu67  1  0.14550195  0.45140398  0.97022971  1
  Cu  Cu68  1  0.30511467  0.85660865  0.97242853  1
  Cu  Cu69  1  0.54859602  0.85449805  0.47022971  1
  Cu  Cu70  1  0.30124467  0.45369240  0.46856397  1
  Cu  Cu71  1  0.14339135  0.69488533  0.47242853  1
  Cu  Cu72  1  0.12035840  0.63457867  0.36477003  1
  Cu  Cu73  1  0.52116405  0.88193002  0.36310429  1
  Cu  Cu74  1  0.36155133  0.47672535  0.36090547  1
  Cu  Cu75  1  0.11806998  0.47883595  0.86310429  1
  Cu  Cu76  1  0.36542133  0.87964160  0.86477003  1
  Cu  Cu77  1  0.52327465  0.63844867  0.86090547  1
  Cu  Cu78  1  0.02203391  0.82499521  0.41085209  1
  Cu  Cu79  1  0.80796390  0.98474568  0.41100401  1
  Cu  Cu80  1  0.17013079  0.19602221  0.41052737  1
  Cu  Cu81  1  0.01525432  0.19203610  0.91100401  1
  Cu  Cu82  1  0.17500479  0.97796609  0.91085209  1
  Cu  Cu83  1  0.80397779  0.82986921  0.91052737  1
  Cu  Cu84  1  0.97796609  0.17500479  0.58914791  1
  Cu  Cu85  1  0.19203610  0.01525432  0.58899599  1
  Cu  Cu86  1  0.82986921  0.80397779  0.58947263  1
  Cu  Cu87  1  0.98474568  0.80796390  0.08899599  1
  Cu  Cu88  1  0.82499521  0.02203391  0.08914791  1
  Cu  Cu89  1  0.19602221  0.17013079  0.08947263  1
  Cu  Cu90  1  0.68870091  0.15832821  0.74418509  1
  Cu  Cu91  1  0.47463090  0.31807868  0.74433701  1
  Cu  Cu92  1  0.83679779  0.52935521  0.74386037  1
  Cu  Cu93  1  0.68192132  0.52536910  0.24433701  1
  Cu  Cu94  1  0.84167179  0.31129909  0.24418509  1
  Cu  Cu95  1  0.47064479  0.16320221  0.24386037  1
  Cu  Cu96  1  0.64463309  0.50833779  0.92248091  1
  Cu  Cu97  1  0.85870310  0.34858732  0.92232899  1
  Cu  Cu98  1  0.49653621  0.13731079  0.92280563  1
  Cu  Cu99  1  0.65141268  0.14129690  0.42232899  1
  Cu  Cu100  1  0.49166221  0.35536691  0.42248091  1
  Cu  Cu101  1  0.86268921  0.50346379  0.42280563  1
  Cu  Cu102  1  0.35536691  0.49166221  0.07751909  1
  Cu  Cu103  1  0.14129690  0.65141268  0.07767101  1
  Cu  Cu104  1  0.50346379  0.86268921  0.07719437  1
  Cu  Cu105  1  0.34858732  0.85870310  0.57767101  1
  Cu  Cu106  1  0.50833779  0.64463309  0.57751909  1
  Cu  Cu107  1  0.13731079  0.49653621  0.57719437  1
  Cu  Cu108  1  0.31129909  0.84167179  0.25581491  1
  Cu  Cu109  1  0.52536910  0.68192132  0.25566299  1
  Cu  Cu110  1  0.16320221  0.47064479  0.25613963  1
  Cu  Cu111  1  0.31807868  0.47463090  0.75566299  1
  Cu  Cu112  1  0.15832821  0.68870091  0.75581491  1
  Cu  Cu113  1  0.52935521  0.83679779  0.75613963  1
