# generated using pymatgen
data_Cu8NiC9
_symmetry_space_group_name_H-M   'P 1'
_cell_length_a   13.61312900
_cell_length_b   6.09473600
_cell_length_c   10.00105163
_cell_angle_alpha   52.72076243
_cell_angle_beta   90.00000000
_cell_angle_gamma   90.00000000
_symmetry_Int_Tables_number   1
_chemical_formula_structural   Cu8NiC9
_chemical_formula_sum   'Cu32 Ni4 C36'
_cell_volume   660.24341352
_cell_formula_units_Z   4
loop_
 _symmetry_equiv_pos_site_id
 _symmetry_equiv_pos_as_xyz
  1  'x, y, z'
loop_
 _atom_site_type_symbol
 _atom_site_label
 _atom_site_symmetry_multiplicity
 _atom_site_fract_x
 _atom_site_fract_y
 _atom_site_fract_z
 _atom_site_occupancy
  C  C0  1  0.89628700  0.70602400  0.21969300  1
  C  C1  1  0.39628700  0.29397600  0.28030700  1
  C  C2  1  0.10371300  0.29397600  0.78030700  1
  C  C3  1  0.60371300  0.70602400  0.71969300  1
  C  C4  1  0.90000500  0.52390100  0.55127400  1
  C  C5  1  0.40000500  0.47609900  0.94872600  1
  C  C6  1  0.09999500  0.47609900  0.44872600  1
  C  C7  1  0.59999500  0.52390100  0.05127400  1
  C  C8  1  0.81416700  0.74652400  0.45195300  1
  C  C9  1  0.31416700  0.25347600  0.04804700  1
  C  C10  1  0.18583300  0.25347600  0.54804700  1
  C  C11  1  0.68583300  0.74652400  0.95195300  1
  C  C12  1  0.91625700  0.16163300  0.47320800  1
  C  C13  1  0.41625700  0.83836700  0.02679200  1
  C  C14  1  0.08374300  0.83836700  0.52679200  1
  C  C15  1  0.58374300  0.16163300  0.97320800  1
  C  C16  1  0.98403300  0.22543200  0.32351300  1
  C  C17  1  0.48403300  0.77456800  0.17648700  1
  C  C18  1  0.01596700  0.77456800  0.67648700  1
  C  C19  1  0.51596700  0.22543200  0.82351300  1
  C  C20  1  0.91479900  0.24787000  0.05254200  1
  C  C21  1  0.73495900  0.40300100  0.27891700  1
  C  C22  1  0.08520100  0.75213000  0.94745800  1
  C  C23  1  0.58520100  0.24787000  0.55254200  1
  C  C24  1  0.81419500  0.15197800  0.15456500  1
  C  C25  1  0.31419500  0.84802200  0.34543500  1
  C  C26  1  0.18580500  0.84802200  0.84543500  1
  C  C27  1  0.68580500  0.15197800  0.65456500  1
  C  C28  1  0.69293100  0.69271700  0.22288500  1
  C  C29  1  0.19293100  0.30728300  0.27711500  1
  C  C30  1  0.30706900  0.30728300  0.77711500  1
  C  C31  1  0.80706900  0.69271700  0.72288500  1
  C  C32  1  0.76504100  0.40300100  0.77891700  1
  C  C33  1  0.26504100  0.59699900  0.72108300  1
  C  C34  1  0.23495900  0.59699900  0.22108300  1
  C  C35  1  0.41479900  0.75213000  0.44745800  1
  Ni  Ni36  1  0.89139600  0.98760100  0.81681400  1
  Ni  Ni37  1  0.39139600  0.01239900  0.68318600  1
  Ni  Ni38  1  0.10860400  0.01239900  0.18318600  1
  Ni  Ni39  1  0.60860400  0.98760100  0.31681400  1
  Cu  Cu40  1  0.74931400  0.60178000  0.21185700  1
  Cu  Cu41  1  0.24931400  0.39822000  0.28814300  1
  Cu  Cu42  1  0.25068600  0.39822000  0.78814300  1
  Cu  Cu43  1  0.75068600  0.60178000  0.71185700  1
  Cu  Cu44  1  0.87568200  0.67775100  0.43844600  1
  Cu  Cu45  1  0.14258600  0.87096300  0.91543700  1
  Cu  Cu46  1  0.35741400  0.87096300  0.41543700  1
  Cu  Cu47  1  0.85741400  0.12903700  0.08456300  1
  Cu  Cu48  1  0.90615800  0.89819500  0.70692100  1
  Cu  Cu49  1  0.40615800  0.10180500  0.79307900  1
  Cu  Cu50  1  0.09384200  0.10180500  0.29307900  1
  Cu  Cu51  1  0.59384200  0.89819500  0.20692100  1
  Cu  Cu52  1  0.78613900  0.04728400  0.81745200  1
  Cu  Cu53  1  0.28613900  0.95271600  0.68254800  1
  Cu  Cu54  1  0.21386100  0.95271600  0.18254800  1
  Cu  Cu55  1  0.71386100  0.04728400  0.31745200  1
  Cu  Cu56  1  0.57533500  0.28659300  0.84988700  1
  Cu  Cu57  1  0.07533500  0.71340700  0.65011300  1
  Cu  Cu58  1  0.42466500  0.71340700  0.15011300  1
  Cu  Cu59  1  0.92466500  0.28659300  0.34988700  1
  Cu  Cu60  1  0.94955500  0.24558400  0.74703600  1
  Cu  Cu61  1  0.44955500  0.75441600  0.75296400  1
  Cu  Cu62  1  0.05044500  0.75441600  0.25296400  1
  Cu  Cu63  1  0.55044500  0.24558400  0.24703600  1
  Cu  Cu64  1  0.92823900  0.76231300  0.98908600  1
  Cu  Cu65  1  0.42823900  0.23768700  0.51091400  1
  Cu  Cu66  1  0.07176100  0.23768700  0.01091400  1
  Cu  Cu67  1  0.57176100  0.76231300  0.48908600  1
  Cu  Cu68  1  0.62431800  0.67775100  0.93844600  1
  Cu  Cu69  1  0.12431800  0.32224900  0.56155400  1
  Cu  Cu70  1  0.37568200  0.32224900  0.06155400  1
  Cu  Cu71  1  0.64258600  0.12903700  0.58456300  1
