# generated using pymatgen
data_Cu9Ni3C25
_symmetry_space_group_name_H-M   'P 1'
_cell_length_a   14.22982665
_cell_length_b   14.22982665
_cell_length_c   14.22982665
_cell_angle_alpha   90.00000000
_cell_angle_beta   90.00000000
_cell_angle_gamma   90.00000000
_symmetry_Int_Tables_number   1
_chemical_formula_structural   Cu9Ni3C25
_chemical_formula_sum   'Cu72 Ni24 C200'
_cell_volume   2881.36866185
_cell_formula_units_Z   8
loop_
 _symmetry_equiv_pos_site_id
 _symmetry_equiv_pos_as_xyz
  1  'x, y, z'
loop_
 _atom_site_type_symbol
 _atom_site_label
 _atom_site_symmetry_multiplicity
 _atom_site_fract_x
 _atom_site_fract_y
 _atom_site_fract_z
 _atom_site_occupancy
  C  C0  1  0.89733247  0.81427607  0.53030212  1
  C  C1  1  0.53030212  0.89733247  0.81427607  1
  C  C2  1  0.81427607  0.53030212  0.89733247  1
  C  C3  1  0.68572393  0.46969788  0.39733247  1
  C  C4  1  0.03030212  0.60266753  0.18572393  1
  C  C5  1  0.18572393  0.03030212  0.60266753  1
  C  C6  1  0.96969788  0.10266753  0.31427607  1
  C  C7  1  0.46969788  0.39733247  0.68572393  1
  C  C8  1  0.31427607  0.96969788  0.10266753  1
  C  C9  1  0.39733247  0.68572393  0.46969788  1
  C  C10  1  0.10266753  0.31427607  0.96969788  1
  C  C11  1  0.60266753  0.18572393  0.03030212  1
  C  C12  1  0.10266753  0.18572393  0.46969788  1
  C  C13  1  0.46969788  0.10266753  0.18572393  1
  C  C14  1  0.18572393  0.46969788  0.10266753  1
  C  C15  1  0.31427607  0.53030212  0.60266753  1
  C  C16  1  0.96969788  0.39733247  0.81427607  1
  C  C17  1  0.81427607  0.96969788  0.39733247  1
  C  C18  1  0.03030212  0.89733247  0.68572393  1
  C  C19  1  0.53030212  0.60266753  0.31427607  1
  C  C20  1  0.68572393  0.03030212  0.89733247  1
  C  C21  1  0.60266753  0.31427607  0.53030212  1
  C  C22  1  0.89733247  0.68572393  0.03030212  1
  C  C23  1  0.39733247  0.81427607  0.96969788  1
  C  C24  1  0.89868296  0.69303115  0.51227981  1
  C  C25  1  0.51227981  0.89868296  0.69303115  1
  C  C26  1  0.69303115  0.51227981  0.89868296  1
  C  C27  1  0.80696885  0.48772019  0.39868296  1
  C  C28  1  0.01227981  0.60131704  0.30696885  1
  C  C29  1  0.30696885  0.01227981  0.60131704  1
  C  C30  1  0.98772019  0.10131704  0.19303115  1
  C  C31  1  0.48772019  0.39868296  0.80696885  1
  C  C32  1  0.19303115  0.98772019  0.10131704  1
  C  C33  1  0.39868296  0.80696885  0.48772019  1
  C  C34  1  0.10131704  0.19303115  0.98772019  1
  C  C35  1  0.60131704  0.30696885  0.01227981  1
  C  C36  1  0.10131704  0.30696885  0.48772019  1
  C  C37  1  0.48772019  0.10131704  0.30696885  1
  C  C38  1  0.30696885  0.48772019  0.10131704  1
  C  C39  1  0.19303115  0.51227981  0.60131704  1
  C  C40  1  0.98772019  0.39868296  0.69303115  1
  C  C41  1  0.69303115  0.98772019  0.39868296  1
  C  C42  1  0.01227981  0.89868296  0.80696885  1
  C  C43  1  0.51227981  0.60131704  0.19303115  1
  C  C44  1  0.80696885  0.01227981  0.89868296  1
  C  C45  1  0.60131704  0.19303115  0.51227981  1
  C  C46  1  0.89868296  0.80696885  0.01227981  1
  C  C47  1  0.39868296  0.69303115  0.98772019  1
  C  C48  1  0.64883993  0.83690212  0.53635726  1
  C  C49  1  0.53635726  0.64883993  0.83690212  1
  C  C50  1  0.83690212  0.53635726  0.64883993  1
  C  C51  1  0.66309788  0.46364274  0.14883993  1
  C  C52  1  0.03635726  0.85116007  0.16309788  1
  C  C53  1  0.16309788  0.03635726  0.85116007  1
  C  C54  1  0.96364274  0.35116007  0.33690212  1
  C  C55  1  0.46364274  0.14883993  0.66309788  1
  C  C56  1  0.33690212  0.96364274  0.35116007  1
  C  C57  1  0.14883993  0.66309788  0.46364274  1
  C  C58  1  0.35116007  0.33690212  0.96364274  1
  C  C59  1  0.85116007  0.16309788  0.03635726  1
  C  C60  1  0.35116007  0.16309788  0.46364274  1
  C  C61  1  0.46364274  0.35116007  0.16309788  1
  C  C62  1  0.16309788  0.46364274  0.35116007  1
  C  C63  1  0.33690212  0.53635726  0.85116007  1
  C  C64  1  0.96364274  0.14883993  0.83690212  1
  C  C65  1  0.83690212  0.96364274  0.14883993  1
  C  C66  1  0.03635726  0.64883993  0.66309788  1
  C  C67  1  0.53635726  0.85116007  0.33690212  1
  C  C68  1  0.66309788  0.03635726  0.64883993  1
  C  C69  1  0.85116007  0.33690212  0.53635726  1
  C  C70  1  0.64883993  0.66309788  0.03635726  1
  C  C71  1  0.14883993  0.83690212  0.96364274  1
  C  C72  1  0.75848717  0.89216543  0.54187395  1
  C  C73  1  0.54187395  0.75848717  0.89216543  1
  C  C74  1  0.89216543  0.54187395  0.75848717  1
  C  C75  1  0.60783457  0.45812605  0.25848717  1
  C  C76  1  0.04187395  0.74151283  0.10783457  1
  C  C77  1  0.10783457  0.04187395  0.74151283  1
  C  C78  1  0.95812605  0.24151283  0.39216543  1
  C  C79  1  0.45812605  0.25848717  0.60783457  1
  C  C80  1  0.39216543  0.95812605  0.24151283  1
  C  C81  1  0.25848717  0.60783457  0.45812605  1
  C  C82  1  0.24151283  0.39216543  0.95812605  1
  C  C83  1  0.74151283  0.10783457  0.04187395  1
  C  C84  1  0.24151283  0.10783457  0.45812605  1
  C  C85  1  0.45812605  0.24151283  0.10783457  1
  C  C86  1  0.10783457  0.45812605  0.24151283  1
  C  C87  1  0.39216543  0.54187395  0.74151283  1
  C  C88  1  0.95812605  0.25848717  0.89216543  1
  C  C89  1  0.89216543  0.95812605  0.25848717  1
  C  C90  1  0.04187395  0.75848717  0.60783457  1
  C  C91  1  0.54187395  0.74151283  0.39216543  1
  C  C92  1  0.60783457  0.04187395  0.75848717  1
  C  C93  1  0.74151283  0.39216543  0.54187395  1
  C  C94  1  0.75848717  0.60783457  0.04187395  1
  C  C95  1  0.25848717  0.89216543  0.95812605  1
  C  C96  1  0.65088221  0.66356058  0.50938612  1
  C  C97  1  0.50938612  0.65088221  0.66356058  1
  C  C98  1  0.66356058  0.50938612  0.65088221  1
  C  C99  1  0.83643942  0.49061388  0.15088221  1
  C  C100  1  0.00938612  0.84911779  0.33643942  1
  C  C101  1  0.33643942  0.00938612  0.84911779  1
  C  C102  1  0.99061388  0.34911779  0.16356058  1
  C  C103  1  0.49061388  0.15088221  0.83643942  1
  C  C104  1  0.16356058  0.99061388  0.34911779  1
  C  C105  1  0.15088221  0.83643942  0.49061388  1
  C  C106  1  0.34911779  0.16356058  0.99061388  1
  C  C107  1  0.84911779  0.33643942  0.00938612  1
  C  C108  1  0.34911779  0.33643942  0.49061388  1
  C  C109  1  0.49061388  0.34911779  0.33643942  1
  C  C110  1  0.33643942  0.49061388  0.34911779  1
  C  C111  1  0.16356058  0.50938612  0.84911779  1
  C  C112  1  0.99061388  0.15088221  0.66356058  1
  C  C113  1  0.66356058  0.99061388  0.15088221  1
  C  C114  1  0.00938612  0.65088221  0.83643942  1
  C  C115  1  0.50938612  0.84911779  0.16356058  1
  C  C116  1  0.83643942  0.00938612  0.65088221  1
  C  C117  1  0.84911779  0.16356058  0.50938612  1
  C  C118  1  0.65088221  0.83643942  0.00938612  1
  C  C119  1  0.15088221  0.66356058  0.99061388  1
  C  C120  1  0.76212550  0.61063532  0.50694352  1
  C  C121  1  0.50694352  0.76212550  0.61063532  1
  C  C122  1  0.61063532  0.50694352  0.76212550  1
  C  C123  1  0.88936468  0.49305648  0.26212550  1
  C  C124  1  0.00694352  0.73787450  0.38936468  1
  C  C125  1  0.38936468  0.00694352  0.73787450  1
  C  C126  1  0.99305648  0.23787450  0.11063532  1
  C  C127  1  0.49305648  0.26212550  0.88936468  1
  C  C128  1  0.11063532  0.99305648  0.23787450  1
  C  C129  1  0.26212550  0.88936468  0.49305648  1
  C  C130  1  0.23787450  0.11063532  0.99305648  1
  C  C131  1  0.73787450  0.38936468  0.00694352  1
  C  C132  1  0.23787450  0.38936468  0.49305648  1
  C  C133  1  0.49305648  0.23787450  0.38936468  1
  C  C134  1  0.38936468  0.49305648  0.23787450  1
  C  C135  1  0.11063532  0.50694352  0.73787450  1
  C  C136  1  0.99305648  0.26212550  0.61063532  1
  C  C137  1  0.61063532  0.99305648  0.26212550  1
  C  C138  1  0.00694352  0.76212550  0.88936468  1
  C  C139  1  0.50694352  0.73787450  0.11063532  1
  C  C140  1  0.88936468  0.00694352  0.76212550  1
  C  C141  1  0.73787450  0.11063532  0.50694352  1
  C  C142  1  0.76212550  0.88936468  0.00694352  1
  C  C143  1  0.26212550  0.61063532  0.99305648  1
  Ni  Ni144  1  0.76701876  0.75136026  0.52659016  1
  Ni  Ni145  1  0.52659016  0.76701876  0.75136026  1
  Ni  Ni146  1  0.75136026  0.52659016  0.76701876  1
  Ni  Ni147  1  0.74863974  0.47340984  0.26701876  1
  Ni  Ni148  1  0.02659016  0.73298124  0.24863974  1
  Ni  Ni149  1  0.24863974  0.02659016  0.73298124  1
  Ni  Ni150  1  0.97340984  0.23298124  0.25136026  1
  Ni  Ni151  1  0.47340984  0.26701876  0.74863974  1
  Ni  Ni152  1  0.25136026  0.97340984  0.23298124  1
  Ni  Ni153  1  0.26701876  0.74863974  0.47340984  1
  Ni  Ni154  1  0.23298124  0.25136026  0.97340984  1
  Ni  Ni155  1  0.73298124  0.24863974  0.02659016  1
  Ni  Ni156  1  0.23298124  0.24863974  0.47340984  1
  Ni  Ni157  1  0.47340984  0.23298124  0.24863974  1
  Ni  Ni158  1  0.24863974  0.47340984  0.23298124  1
  Ni  Ni159  1  0.25136026  0.52659016  0.73298124  1
  Ni  Ni160  1  0.97340984  0.26701876  0.75136026  1
  Ni  Ni161  1  0.75136026  0.97340984  0.26701876  1
  Ni  Ni162  1  0.02659016  0.76701876  0.74863974  1
  Ni  Ni163  1  0.52659016  0.73298124  0.25136026  1
  Ni  Ni164  1  0.74863974  0.02659016  0.76701876  1
  Ni  Ni165  1  0.73298124  0.25136026  0.52659016  1
  Ni  Ni166  1  0.76701876  0.74863974  0.02659016  1
  Ni  Ni167  1  0.26701876  0.75136026  0.97340984  1
  Cu  Cu168  1  0.86110640  0.75279437  0.52433896  1
  Cu  Cu169  1  0.52433896  0.86110640  0.75279437  1
  Cu  Cu170  1  0.75279437  0.52433896  0.86110640  1
  Cu  Cu171  1  0.74720563  0.47566104  0.36110640  1
  Cu  Cu172  1  0.02433896  0.63889360  0.24720563  1
  Cu  Cu173  1  0.24720563  0.02433896  0.63889360  1
  Cu  Cu174  1  0.97566104  0.13889360  0.25279437  1
  Cu  Cu175  1  0.47566104  0.36110640  0.74720563  1
  Cu  Cu176  1  0.25279437  0.97566104  0.13889360  1
  Cu  Cu177  1  0.36110640  0.74720563  0.47566104  1
  Cu  Cu178  1  0.13889360  0.25279437  0.97566104  1
  Cu  Cu179  1  0.63889360  0.24720563  0.02433896  1
  Cu  Cu180  1  0.13889360  0.24720563  0.47566104  1
  Cu  Cu181  1  0.47566104  0.13889360  0.24720563  1
  Cu  Cu182  1  0.24720563  0.47566104  0.13889360  1
  Cu  Cu183  1  0.25279437  0.52433896  0.63889360  1
  Cu  Cu184  1  0.97566104  0.36110640  0.75279437  1
  Cu  Cu185  1  0.75279437  0.97566104  0.36110640  1
  Cu  Cu186  1  0.02433896  0.86110640  0.74720563  1
  Cu  Cu187  1  0.52433896  0.63889360  0.25279437  1
  Cu  Cu188  1  0.74720563  0.02433896  0.86110640  1
  Cu  Cu189  1  0.63889360  0.25279437  0.52433896  1
  Cu  Cu190  1  0.86110640  0.74720563  0.02433896  1
  Cu  Cu191  1  0.36110640  0.75279437  0.97566104  1
  Cu  Cu192  1  0.72039077  0.83161207  0.54172386  1
  Cu  Cu193  1  0.54172386  0.72039077  0.83161207  1
  Cu  Cu194  1  0.83161207  0.54172386  0.72039077  1
  Cu  Cu195  1  0.66838793  0.45827614  0.22039077  1
  Cu  Cu196  1  0.04172386  0.77960923  0.16838793  1
  Cu  Cu197  1  0.16838793  0.04172386  0.77960923  1
  Cu  Cu198  1  0.95827614  0.27960923  0.33161207  1
  Cu  Cu199  1  0.45827614  0.22039077  0.66838793  1
  Cu  Cu200  1  0.33161207  0.95827614  0.27960923  1
  Cu  Cu201  1  0.22039077  0.66838793  0.45827614  1
  Cu  Cu202  1  0.27960923  0.33161207  0.95827614  1
  Cu  Cu203  1  0.77960923  0.16838793  0.04172386  1
  Cu  Cu204  1  0.27960923  0.16838793  0.45827614  1
  Cu  Cu205  1  0.45827614  0.27960923  0.16838793  1
  Cu  Cu206  1  0.16838793  0.45827614  0.27960923  1
  Cu  Cu207  1  0.33161207  0.54172386  0.77960923  1
  Cu  Cu208  1  0.95827614  0.22039077  0.83161207  1
  Cu  Cu209  1  0.83161207  0.95827614  0.22039077  1
  Cu  Cu210  1  0.04172386  0.72039077  0.66838793  1
  Cu  Cu211  1  0.54172386  0.77960923  0.33161207  1
  Cu  Cu212  1  0.66838793  0.04172386  0.72039077  1
  Cu  Cu213  1  0.77960923  0.33161207  0.54172386  1
  Cu  Cu214  1  0.72039077  0.66838793  0.04172386  1
  Cu  Cu215  1  0.22039077  0.83161207  0.95827614  1
  Cu  Cu216  1  0.72233503  0.66954772  0.51547758  1
  Cu  Cu217  1  0.51547758  0.72233503  0.66954772  1
  Cu  Cu218  1  0.66954772  0.51547758  0.72233503  1
  Cu  Cu219  1  0.83045228  0.48452242  0.22233503  1
  Cu  Cu220  1  0.01547758  0.77766497  0.33045228  1
  Cu  Cu221  1  0.33045228  0.01547758  0.77766497  1
  Cu  Cu222  1  0.98452242  0.27766497  0.16954772  1
  Cu  Cu223  1  0.48452242  0.22233503  0.83045228  1
  Cu  Cu224  1  0.16954772  0.98452242  0.27766497  1
  Cu  Cu225  1  0.22233503  0.83045228  0.48452242  1
  Cu  Cu226  1  0.27766497  0.16954772  0.98452242  1
  Cu  Cu227  1  0.77766497  0.33045228  0.01547758  1
  Cu  Cu228  1  0.27766497  0.33045228  0.48452242  1
  Cu  Cu229  1  0.48452242  0.27766497  0.33045228  1
  Cu  Cu230  1  0.33045228  0.48452242  0.27766497  1
  Cu  Cu231  1  0.16954772  0.51547758  0.77766497  1
  Cu  Cu232  1  0.98452242  0.22233503  0.66954772  1
  Cu  Cu233  1  0.66954772  0.98452242  0.22233503  1
  Cu  Cu234  1  0.01547758  0.72233503  0.83045228  1
  Cu  Cu235  1  0.51547758  0.77766497  0.16954772  1
  Cu  Cu236  1  0.83045228  0.01547758  0.72233503  1
  Cu  Cu237  1  0.77766497  0.16954772  0.51547758  1
  Cu  Cu238  1  0.72233503  0.83045228  0.01547758  1
  Cu  Cu239  1  0.22233503  0.66954772  0.98452242  1
  C  C240  1  0.03042208  0.63032390  0.02613510  1
  C  C241  1  0.02613510  0.03042208  0.63032390  1
  C  C242  1  0.63032390  0.02613510  0.03042208  1
  C  C243  1  0.86967610  0.97386490  0.53042208  1
  C  C244  1  0.52613510  0.46957792  0.36967610  1
  C  C245  1  0.36967610  0.52613510  0.46957792  1
  C  C246  1  0.47386490  0.96957792  0.13032390  1
  C  C247  1  0.97386490  0.53042208  0.86967610  1
  C  C248  1  0.13032390  0.47386490  0.96957792  1
  C  C249  1  0.53042208  0.86967610  0.97386490  1
  C  C250  1  0.96957792  0.13032390  0.47386490  1
  C  C251  1  0.46957792  0.36967610  0.52613510  1
  C  C252  1  0.96957792  0.36967610  0.97386490  1
  C  C253  1  0.97386490  0.96957792  0.36967610  1
  C  C254  1  0.36967610  0.97386490  0.96957792  1
  C  C255  1  0.13032390  0.02613510  0.46957792  1
  C  C256  1  0.47386490  0.53042208  0.63032390  1
  C  C257  1  0.63032390  0.47386490  0.53042208  1
  C  C258  1  0.52613510  0.03042208  0.86967610  1
  C  C259  1  0.02613510  0.46957792  0.13032390  1
  C  C260  1  0.86967610  0.52613510  0.03042208  1
  C  C261  1  0.46957792  0.13032390  0.02613510  1
  C  C262  1  0.03042208  0.86967610  0.52613510  1
  C  C263  1  0.53042208  0.63032390  0.47386490  1
  C  C264  1  0.02145330  0.63186288  0.47257929  1
  C  C265  1  0.47257929  0.02145330  0.63186288  1
  C  C266  1  0.63186288  0.47257929  0.02145330  1
  C  C267  1  0.86813712  0.52742071  0.52145330  1
  C  C268  1  0.97257929  0.47854670  0.36813712  1
  C  C269  1  0.36813712  0.97257929  0.47854670  1
  C  C270  1  0.02742071  0.97854670  0.13186288  1
  C  C271  1  0.52742071  0.52145330  0.86813712  1
  C  C272  1  0.13186288  0.02742071  0.97854670  1
  C  C273  1  0.52145330  0.86813712  0.52742071  1
  C  C274  1  0.97854670  0.13186288  0.02742071  1
  C  C275  1  0.47854670  0.36813712  0.97257929  1
  C  C276  1  0.97854670  0.36813712  0.52742071  1
  C  C277  1  0.52742071  0.97854670  0.36813712  1
  C  C278  1  0.36813712  0.52742071  0.97854670  1
  C  C279  1  0.13186288  0.47257929  0.47854670  1
  C  C280  1  0.02742071  0.52145330  0.63186288  1
  C  C281  1  0.63186288  0.02742071  0.52145330  1
  C  C282  1  0.97257929  0.02145330  0.86813712  1
  C  C283  1  0.47257929  0.47854670  0.13186288  1
  C  C284  1  0.86813712  0.97257929  0.02145330  1
  C  C285  1  0.47854670  0.13186288  0.47257929  1
  C  C286  1  0.02145330  0.86813712  0.97257929  1
  C  C287  1  0.52145330  0.63186288  0.02742071  1
  C  C288  1  0.00000000  0.50000000  0.00000000  1
  C  C289  1  0.00000000  0.00000000  0.50000000  1
  C  C290  1  0.50000000  0.00000000  0.00000000  1
  C  C291  1  0.50000000  0.50000000  0.50000000  1
  C  C292  1  0.00000000  0.50000000  0.50000000  1
  C  C293  1  0.50000000  0.00000000  0.50000000  1
  C  C294  1  0.50000000  0.50000000  0.00000000  1
  C  C295  1  0.00000000  0.00000000  0.00000000  1
