# generated using pymatgen
data_Cu4NiC12
_symmetry_space_group_name_H-M   'P 1'
_cell_length_a   3.13687411
_cell_length_b   6.38285153
_cell_length_c   14.99825741
_cell_angle_alpha   99.31424444
_cell_angle_beta   83.92847428
_cell_angle_gamma   90.56209394
_symmetry_Int_Tables_number   1
_chemical_formula_structural   Cu4NiC12
_chemical_formula_sum   'Cu4 Ni1 C12'
_cell_volume   294.66841016
_cell_formula_units_Z   1
loop_
 _symmetry_equiv_pos_site_id
 _symmetry_equiv_pos_as_xyz
  1  'x, y, z'
loop_
 _atom_site_type_symbol
 _atom_site_label
 _atom_site_symmetry_multiplicity
 _atom_site_fract_x
 _atom_site_fract_y
 _atom_site_fract_z
 _atom_site_occupancy
  C  C0  1  0.10404000  0.57536800  0.04572400  1
  C  C1  1  0.22695100  0.04241600  0.67865100  1
  C  C2  1  0.70204900  0.58882500  0.81996300  1
  C  C3  1  0.82374700  0.86555600  0.46517400  1
  Ni  Ni4  1  0.44675200  0.99476900  0.24617400  1
  Cu  Cu5  1  0.07807200  0.07465900  0.06470000  1
  Cu  Cu6  1  0.66260400  0.11041700  0.89889800  1
  Cu  Cu7  1  0.84158500  0.32735800  0.42044600  1
  Cu  Cu8  1  0.25806400  0.49968800  0.59431000  1
  C  C9  1  0.98034900  0.92237100  0.17615500  1
  C  C10  1  0.19043200  0.25831100  0.84818200  1
  C  C11  1  0.36471100  0.12269800  0.37125800  1
  C  C12  1  0.73759900  0.69065000  0.64116100  1
  C  C13  1  0.59297100  0.26191000  0.04328600  1
  C  C14  1  0.14638300  0.90770100  0.92660300  1
  C  C15  1  0.76552900  0.28872500  0.57308800  1
  C  C16  1  0.32838000  0.53107700  0.45153800  1
