# generated using pymatgen
data_Cu2NiC16
_symmetry_space_group_name_H-M   'P 1'
_cell_length_a   9.12910962
_cell_length_b   9.12910929
_cell_length_c   22.80906518
_cell_angle_alpha   90.33108613
_cell_angle_beta   89.66891386
_cell_angle_gamma   119.46685413
_symmetry_Int_Tables_number   1
_chemical_formula_structural   Cu2NiC16
_chemical_formula_sum   'Cu12 Ni6 C96'
_cell_volume   1654.98255229
_cell_formula_units_Z   6
loop_
 _symmetry_equiv_pos_site_id
 _symmetry_equiv_pos_as_xyz
  1  'x, y, z'
loop_
 _atom_site_type_symbol
 _atom_site_label
 _atom_site_symmetry_multiplicity
 _atom_site_fract_x
 _atom_site_fract_y
 _atom_site_fract_z
 _atom_site_occupancy
  C  C0  1  0.98506191  0.64424746  0.24134154  1
  C  C1  1  0.35575254  0.01493809  0.74134154  1
  C  C2  1  0.64709674  0.96894557  0.58394888  1
  C  C3  1  0.03105443  0.35290326  0.08394888  1
  C  C4  1  -0.00000629  0.68927448  0.91600723  1
  C  C5  1  0.31072552  0.00000629  0.41600723  1
  C  C6  1  0.99132564  0.98235844  0.49837485  1
  C  C7  1  0.01764156  0.00867436  0.99837485  1
  C  C8  1  0.67759814  0.31902928  0.83263823  1
  C  C9  1  0.68097072  0.32240186  0.33263823  1
  C  C10  1  0.36614358  0.69620695  0.16470224  1
  C  C11  1  0.30379305  0.63385642  0.66470224  1
  C  C12  1  0.98917604  0.00474539  0.35419593  1
  C  C13  1  0.99525461  0.01082396  0.85419593  1
  C  C14  1  0.67464805  0.34142855  0.68755540  1
  C  C15  1  0.65857145  0.32535195  0.18755540  1
  C  C16  1  0.33987010  0.67507217  0.02091200  1
  C  C17  1  0.32492783  0.66012990  0.52091200  1
  C  C18  1  0.00149723  0.99903454  0.64736722  1
  C  C19  1  0.00096546  0.99850277  0.14736722  1
  C  C20  1  0.66060996  0.33072478  0.98067659  1
  C  C21  1  0.66927522  0.33939004  0.48067659  1
  C  C22  1  0.32509213  0.65245473  0.31386162  1
  C  C23  1  0.34754527  0.67490787  0.81386162  1
  Ni  Ni24  1  0.00993781  0.30371509  0.24870834  1
  Ni  Ni25  1  0.69628491  0.99006219  0.74870834  1
  Ni  Ni26  1  0.36791099  0.04512815  0.58565429  1
  Ni  Ni27  1  0.95487185  0.63208901  0.08565429  1
  Ni  Ni28  1  0.34444700  0.97026888  0.91683548  1
  Ni  Ni29  1  0.02973112  0.65555300  0.41683548  1
  Cu  Cu30  1  0.28511176  0.98438986  0.25346132  1
  Cu  Cu31  1  0.69951744  0.71952198  0.24890872  1
  Cu  Cu32  1  0.28047802  0.30048256  0.74890872  1
  Cu  Cu33  1  0.01561014  0.71488824  0.75346132  1
  Cu  Cu34  1  0.95347461  0.31368899  0.58253132  1
  Cu  Cu35  1  0.68581201  0.63750693  0.58357161  1
  Cu  Cu36  1  0.68631101  0.04652539  0.08253132  1
  Cu  Cu37  1  0.36249307  0.31418799  0.08357161  1
  Cu  Cu38  1  0.62151085  0.64738050  0.91612292  1
  Cu  Cu39  1  0.03526126  0.38487381  0.91994130  1
  Cu  Cu40  1  0.61512619  0.96473874  0.41994130  1
  Cu  Cu41  1  0.35261950  0.37848915  0.41612292  1
  C  C42  1  0.20646254  0.99295617  0.31102731  1
  C  C43  1  0.81326020  0.79192446  0.30167061  1
  C  C44  1  0.99260925  0.19923059  0.30566366  1
  C  C45  1  0.20807554  0.18673980  0.80167061  1
  C  C46  1  0.00704383  0.79353746  0.81102731  1
  C  C47  1  0.80076941  0.00739075  0.80566366  1
  C  C48  1  0.79704666  0.97268206  0.68819848  1
  C  C49  1  0.16276280  0.19879272  0.69420195  1
  C  C50  1  0.03012397  0.83794260  0.70071322  1
  C  C51  1  0.80120728  0.83723720  0.19420195  1
  C  C52  1  0.02731794  0.20295334  0.18819848  1
  C  C53  1  0.16205740  0.96987603  0.20071322  1
  C  C54  1  0.87643063  0.33379914  0.63871931  1
  C  C55  1  0.47338017  0.13242328  0.64339584  1
  C  C56  1  0.66434323  0.53984320  0.63863195  1
  C  C57  1  0.86757672  0.52661983  0.14339584  1
  C  C58  1  0.66620086  0.12356937  0.13871931  1
  C  C59  1  0.46015680  0.33565677  0.13863195  1
  C  C60  1  0.46431383  0.30072473  0.02855945  1
  C  C61  1  0.82793783  0.52455298  0.02723702  1
  C  C62  1  0.69715950  0.16440796  0.02924475  1
  C  C63  1  0.47544702  0.17206217  0.52723702  1
  C  C64  1  0.69927527  0.53568617  0.52855945  1
  C  C65  1  0.83559204  0.30284050  0.52924475  1
  C  C66  1  0.54338683  0.66950209  0.97097471  1
  C  C67  1  0.11996340  0.45602094  0.97848836  1
  C  C68  1  0.30669741  0.84442733  0.96965009  1
  C  C69  1  0.54397906  0.88003660  0.47848836  1
  C  C70  1  0.33049791  0.45661317  0.47097471  1
  C  C71  1  0.15557267  0.69330259  0.46965009  1
  C  C72  1  0.13564833  0.63407390  0.35672839  1
  C  C73  1  0.49482001  0.85820797  0.36820479  1
  C  C74  1  0.36428009  0.49224786  0.36113913  1
  C  C75  1  0.14179203  0.50517999  0.86820479  1
  C  C76  1  0.36592610  0.86435167  0.85672839  1
  C  C77  1  0.50775214  0.63571991  0.86113913  1
  C  C78  1  0.00400489  0.81724055  0.41247623  1
  C  C79  1  0.79605881  0.00148477  0.41432143  1
  C  C80  1  0.21274565  0.19578860  0.40946613  1
  C  C81  1  0.99851523  0.20394119  0.91432143  1
  C  C82  1  0.18275945  0.99599511  0.91247623  1
  C  C83  1  0.80421140  0.78725435  0.90946613  1
  C  C84  1  0.94549217  0.13709705  0.58271005  1
  C  C85  1  0.17955012  0.03323205  0.59085438  1
  C  C86  1  0.85668077  0.80938351  0.58630644  1
  C  C87  1  0.96676795  0.82044988  0.09085438  1
  C  C88  1  0.86290295  0.05450783  0.08271005  1
  C  C89  1  0.19061649  0.14331923  0.08630644  1
  C  C90  1  0.64385147  0.13520529  0.74756648  1
  C  C91  1  0.46005741  0.33393004  0.74017119  1
  C  C92  1  0.86855947  0.53814910  0.74712973  1
  C  C93  1  0.66606996  0.53994259  0.24017119  1
  C  C94  1  0.86479471  0.35614853  0.24756648  1
  C  C95  1  0.46185090  0.13144053  0.24712973  1
  C  C96  1  0.62367071  0.47625186  0.91849686  1
  C  C97  1  0.86189173  0.38724659  0.91975182  1
  C  C98  1  0.52360833  0.14934796  0.92419391  1
  C  C99  1  0.61275341  0.13810827  0.41975182  1
  C  C100  1  0.52374814  0.37632929  0.41849686  1
  C  C101  1  0.85065204  0.47639167  0.42419391  1
  C  C102  1  0.32136768  0.45605335  0.07649513  1
  C  C103  1  0.13904066  0.65031857  0.08202593  1
  C  C104  1  0.54666503  0.86502713  0.07736056  1
  C  C105  1  0.34968143  0.86095934  0.58202593  1
  C  C106  1  0.54394665  0.67863232  0.57649513  1
  C  C107  1  0.13497287  0.45333497  0.57736056  1
  C  C108  1  0.28651443  0.81237377  0.25110500  1
  C  C109  1  0.53178332  0.72392036  0.25539204  1
  C  C110  1  0.19618556  0.48834480  0.25441063  1
  C  C111  1  0.27607964  0.46821668  0.75539204  1
  C  C112  1  0.18762623  0.71348557  0.75110500  1
  C  C113  1  0.51165520  0.80381444  0.75441063  1
