# generated using pymatgen
data_CuNiC18
_symmetry_space_group_name_H-M   'P 1'
_cell_length_a   15.31969371
_cell_length_b   8.82274235
_cell_length_c   8.88606470
_cell_angle_alpha   90.00000000
_cell_angle_beta   124.92269124
_cell_angle_gamma   90.00000000
_symmetry_Int_Tables_number   1
_chemical_formula_structural   CuNiC18
_chemical_formula_sum   'Cu4 Ni4 C72'
_cell_volume   984.77586371
_cell_formula_units_Z   4
loop_
 _symmetry_equiv_pos_site_id
 _symmetry_equiv_pos_as_xyz
  1  'x, y, z'
loop_
 _atom_site_type_symbol
 _atom_site_label
 _atom_site_symmetry_multiplicity
 _atom_site_fract_x
 _atom_site_fract_y
 _atom_site_fract_z
 _atom_site_occupancy
  C  C0  1  0.25111506  0.72336811  0.99643677  1
  C  C1  1  0.75111506  0.77663189  0.49643677  1
  C  C2  1  0.75111506  0.22336811  0.99643677  1
  C  C3  1  0.25111506  0.27663189  0.49643677  1
  C  C4  1  0.50419983  0.10968153  0.76106065  1
  C  C5  1  0.50419983  0.89031847  0.26106065  1
  C  C6  1  0.00419983  0.60968153  0.76106065  1
  C  C7  1  0.00419983  0.39031847  0.26106065  1
  C  C8  1  0.18574287  0.93008480  0.27557958  1
  C  C9  1  0.18574287  0.06991520  0.77557958  1
  C  C10  1  0.68574287  0.43008480  0.27557958  1
  C  C11  1  0.68574287  0.56991520  0.77557958  1
  C  C12  1  0.10555993  0.74078952  0.56397150  1
  C  C13  1  0.10555993  0.25921048  0.06397150  1
  C  C14  1  0.60555993  0.24078952  0.56397150  1
  C  C15  1  0.60555993  0.75921048  0.06397150  1
  Ni  Ni16  1  0.64498689  0.90021587  0.75082951  1
  Ni  Ni17  1  0.64498689  0.09978413  0.25082951  1
  Ni  Ni18  1  0.14498689  0.40021587  0.75082951  1
  Ni  Ni19  1  0.14498689  0.59978413  0.25082951  1
  Cu  Cu20  1  0.89809033  0.75642654  0.94466500  1
  Cu  Cu21  1  0.89809033  0.24357346  0.44466500  1
  Cu  Cu22  1  0.39809033  0.25642654  0.94466500  1
  Cu  Cu23  1  0.39809033  0.74357346  0.44466500  1
  C  C24  1  0.00388893  0.95620340  0.75766344  1
  C  C25  1  0.00388893  0.04379660  0.25766344  1
  C  C26  1  0.50388893  0.45620340  0.75766344  1
  C  C27  1  0.50388893  0.54379660  0.25766344  1
  C  C28  1  0.35248372  0.88614479  0.76056641  1
  C  C29  1  0.35248372  0.11385521  0.26056641  1
  C  C30  1  0.85248372  0.38614479  0.76056641  1
  C  C31  1  0.85248372  0.61385521  0.26056641  1
  C  C32  1  0.14387912  0.58348551  0.73309942  1
  C  C33  1  0.84529397  0.56378357  0.76573143  1
  C  C34  1  0.84529397  0.43621643  0.26573143  1
  C  C35  1  0.14387912  0.41651449  0.23309942  1
  C  C36  1  0.64387912  0.08348551  0.73309942  1
  C  C37  1  0.34529397  0.06378357  0.76573143  1
  C  C38  1  0.34529397  0.93621643  0.26573143  1
  C  C39  1  0.64387912  0.91651449  0.23309942  1
  C  C40  1  0.43179850  0.54719267  0.57917991  1
  C  C41  1  0.56750034  0.55795689  0.92922611  1
  C  C42  1  0.56750034  0.44204311  0.42922611  1
  C  C43  1  0.43179850  0.45280733  0.07917991  1
  C  C44  1  0.93179850  0.04719267  0.57917991  1
  C  C45  1  0.06750034  0.05795689  0.92922611  1
  C  C46  1  0.06750034  0.94204311  0.42922611  1
  C  C47  1  0.93179850  0.95280733  0.07917991  1
  C  C48  1  0.25209625  0.82211477  0.73836080  1
  C  C49  1  0.74507338  0.81741964  0.76145290  1
  C  C50  1  0.74507338  0.18258036  0.26145290  1
  C  C51  1  0.25209625  0.17788523  0.23836080  1
  C  C52  1  0.75209625  0.32211477  0.73836080  1
  C  C53  1  0.24507338  0.31741964  0.76145290  1
  C  C54  1  0.24507338  0.68258036  0.26145290  1
  C  C55  1  0.75209625  0.67788523  0.23836080  1
  C  C56  1  0.34923198  0.86500343  0.58271550  1
  C  C57  1  0.63242615  0.85156529  0.91331802  1
  C  C58  1  0.63242615  0.14843471  0.41331802  1
  C  C59  1  0.34923198  0.13499657  0.08271550  1
  C  C60  1  0.84923198  0.36500343  0.58271550  1
  C  C61  1  0.13242615  0.35156529  0.91331802  1
  C  C62  1  0.13242615  0.64843471  0.41331802  1
  C  C63  1  0.84923198  0.63499657  0.08271550  1
  C  C64  1  0.45450347  0.82278537  0.93112127  1
  C  C65  1  0.54400027  0.82658101  0.55660387  1
  C  C66  1  0.54400027  0.17341899  0.05660387  1
  C  C67  1  0.45450347  0.17721463  0.43112127  1
  C  C68  1  0.95450347  0.32278537  0.93112127  1
  C  C69  1  0.04400027  0.32658101  0.55660387  1
  C  C70  1  0.04400027  0.67341899  0.05660387  1
  C  C71  1  0.95450347  0.67721463  0.43112127  1
  C  C72  1  0.08418763  0.86019404  0.74372508  1
  C  C73  1  0.92394137  0.84503925  0.75469284  1
  C  C74  1  0.92394137  0.15496075  0.25469284  1
  C  C75  1  0.08418763  0.13980596  0.24372508  1
  C  C76  1  0.58418763  0.36019404  0.74372508  1
  C  C77  1  0.42394137  0.34503925  0.75469284  1
  C  C78  1  0.42394137  0.65496075  0.25469284  1
  C  C79  1  0.58418763  0.63980596  0.24372508  1
