# generated using pymatgen
data_Cu3Ni3C31
_symmetry_space_group_name_H-M   'P 1'
_cell_length_a   9.03250743
_cell_length_b   9.02176541
_cell_length_c   23.75288415
_cell_angle_alpha   89.56877803
_cell_angle_beta   90.45788772
_cell_angle_gamma   120.29143734
_symmetry_Int_Tables_number   1
_chemical_formula_structural   Cu3Ni3C31
_chemical_formula_sum   'Cu9 Ni9 C93'
_cell_volume   1671.26957808
_cell_formula_units_Z   3
loop_
 _symmetry_equiv_pos_site_id
 _symmetry_equiv_pos_as_xyz
  1  'x, y, z'
loop_
 _atom_site_type_symbol
 _atom_site_label
 _atom_site_symmetry_multiplicity
 _atom_site_fract_x
 _atom_site_fract_y
 _atom_site_fract_z
 _atom_site_occupancy
  C  C0  1  0.35984390  0.35969745  0.25202058  1
  C  C1  1  0.68545588  0.01889810  0.91800322  1
  C  C2  1  0.97924250  0.30888665  0.41587025  1
  C  C3  1  0.00837119  0.99649523  0.49770712  1
  C  C4  1  0.00386443  0.98861566  0.00304590  1
  C  C5  1  0.65764944  0.33601191  0.83529422  1
  C  C6  1  0.66584089  0.33409921  0.33349802  1
  C  C7  1  0.33339625  0.68857695  0.16880776  1
  C  C8  1  0.33345457  0.66730275  0.66720771  1
  C  C9  1  0.00154835  0.99513741  0.85180532  1
  C  C10  1  0.99165629  0.00682698  0.64597621  1
  C  C11  1  0.67302622  0.32682330  0.68431163  1
  C  C12  1  0.33960554  0.67475888  0.02177520  1
  C  C13  1  0.32503350  0.66110870  0.51468467  1
  C  C14  1  0.34491308  0.67505778  0.81850372  1
  C  C15  1  0.01211850  0.00082723  0.34809952  1
  C  C16  1  0.99844870  0.00448163  0.15074877  1
  C  C17  1  0.67264994  0.31798740  0.18625491  1
  C  C18  1  0.66129316  0.33182349  0.98571929  1
  C  C19  1  0.66737135  0.33948127  0.47936140  1
  C  C20  1  0.31863613  0.66472690  0.31570050  1
  Ni  Ni21  1  0.29033017  0.99889143  0.24838855  1
  Ni  Ni22  1  0.00082874  0.28988263  0.25161887  1
  Ni  Ni23  1  0.69944073  0.99841121  0.75199597  1
  Ni  Ni24  1  0.95831897  0.33395470  0.57840922  1
  Ni  Ni25  1  0.67747999  0.04790908  0.08437936  1
  Ni  Ni26  1  0.63120802  0.65873088  0.91985831  1
  Ni  Ni27  1  0.34081038  0.97328980  0.91966317  1
  Ni  Ni28  1  0.33467558  0.36980691  0.41221066  1
  Ni  Ni29  1  0.03312128  0.66757618  0.41429107  1
  Cu  Cu30  1  0.70675855  0.70782187  0.24965413  1
  Cu  Cu31  1  0.29921837  0.30035260  0.74930763  1
  Cu  Cu32  1  0.00145443  0.70227993  0.74888570  1
  Cu  Cu33  1  0.37438239  0.04189102  0.58040692  1
  Cu  Cu34  1  0.66690510  0.62383156  0.58095975  1
  Cu  Cu35  1  0.94923901  0.62331875  0.08606350  1
  Cu  Cu36  1  0.37458057  0.32555567  0.08707293  1
  Cu  Cu37  1  0.02901017  0.36968441  0.91883516  1
  Cu  Cu38  1  0.63187259  0.96431898  0.41434778  1
  C  C39  1  0.20875057  0.03214704  0.30049962  1
  C  C40  1  0.81208027  0.78882781  0.30016294  1
  C  C41  1  0.97501560  0.18433619  0.30575781  1
  C  C42  1  0.21713640  0.19812836  0.80022762  1
  C  C43  1  0.98833474  0.78671189  0.80003854  1
  C  C44  1  0.79696883  0.01241131  0.80711953  1
  C  C45  1  0.79659087  0.98732034  0.70055850  1
  C  C46  1  0.19928417  0.21266581  0.69838101  1
  C  C47  1  0.01950190  0.80478569  0.69812910  1
  C  C48  1  0.78828962  0.81220762  0.19875780  1
  C  C49  1  0.03001526  0.20097308  0.20083579  1
  C  C50  1  0.17745146  0.97298883  0.19629080  1
  C  C51  1  0.87128760  0.34716061  0.63186046  1
  C  C52  1  0.46766759  0.12150664  0.63295325  1
  C  C53  1  0.64766910  0.52772471  0.63321195  1
  C  C54  1  0.86164341  0.51886180  0.13622915  1
  C  C55  1  0.65862759  0.14326756  0.13522894  1
  C  C56  1  0.47758355  0.34751818  0.13835121  1
  C  C57  1  0.45985614  0.30996829  0.03612471  1
  C  C58  1  0.84950093  0.54183450  0.03422570  1
  C  C59  1  0.69364798  0.14804641  0.02921707  1
  C  C60  1  0.46482128  0.14881629  0.53077792  1
  C  C61  1  0.67728731  0.53201924  0.53104776  1
  C  C62  1  0.85290983  0.32380561  0.52510556  1
  C  C63  1  0.54136342  0.68839644  0.96962807  1
  C  C64  1  0.13501867  0.45165508  0.96863563  1
  C  C65  1  0.31290865  0.85835117  0.97099446  1
  C  C66  1  0.55840514  0.86516373  0.46625760  1
  C  C67  1  0.29903012  0.45046295  0.46368336  1
  C  C68  1  0.14097922  0.70145739  0.46786653  1
  C  C69  1  0.12372784  0.63494301  0.36438576  1
  C  C70  1  0.52150598  0.87799647  0.36510296  1
  C  C71  1  0.35986288  0.48120710  0.35916430  1
  C  C72  1  0.10730798  0.46872059  0.86715950  1
  C  C73  1  0.37050922  0.89236941  0.86689702  1
  C  C74  1  0.52583351  0.63021355  0.86547113  1
  C  C75  1  0.00559008  0.82007348  0.40384296  1
  C  C76  1  0.80733763  0.99010668  0.40768496  1
  C  C77  1  0.16772765  0.19084148  0.40562089  1
  C  C78  1  0.00381047  0.19307364  0.91449173  1
  C  C79  1  0.18765616  0.00125240  0.91376818  1
  C  C80  1  0.80703256  0.82806629  0.91470511  1
  C  C81  1  0.97232381  0.16956381  0.58019284  1
  C  C82  1  0.20116465  0.02220678  0.58259572  1
  C  C83  1  0.82734572  0.79387313  0.58268556  1
  C  C84  1  0.96887377  0.79663602  0.09050165  1
  C  C85  1  0.83919559  0.03139025  0.09172946  1
  C  C86  1  0.20260852  0.16759750  0.09067664  1
  C  C87  1  0.68154014  0.15953835  0.74873140  1
  C  C88  1  0.47274855  0.32284624  0.74615199  1
  C  C89  1  0.84267697  0.53249600  0.74644564  1
  C  C90  1  0.68222467  0.53146472  0.24393861  1
  C  C91  1  0.84490418  0.31467167  0.24300160  1
  C  C92  1  0.46836324  0.16800023  0.24147386  1
  C  C93  1  0.65637870  0.50420927  0.92890743  1
  C  C94  1  0.85487968  0.34794712  0.92428294  1
  C  C95  1  0.50990607  0.14819274  0.92688080  1
  C  C96  1  0.65280453  0.13993263  0.41947529  1
  C  C97  1  0.49197641  0.34823464  0.42192144  1
  C  C98  1  0.85753230  0.49665910  0.42093843  1
  C  C99  1  0.35332377  0.47778469  0.08199758  1
  C  C100  1  0.12078183  0.63821386  0.08272562  1
  C  C101  1  0.51424501  0.86738795  0.08315722  1
  C  C102  1  0.36086473  0.87185303  0.57698890  1
  C  C103  1  0.51747099  0.64855390  0.57638757  1
  C  C104  1  0.13947213  0.49405507  0.57746649  1
  C  C105  1  0.31426741  0.84244337  0.25758579  1
  C  C106  1  0.53214395  0.68640148  0.25520836  1
  C  C107  1  0.16950400  0.46882965  0.25727795  1
  C  C108  1  0.30990525  0.46910363  0.75227567  1
  C  C109  1  0.15204405  0.67934336  0.75291664  1
  C  C110  1  0.51991136  0.83568670  0.75161744  1
