# generated using pymatgen
data_CuNi5C32
_symmetry_space_group_name_H-M   'P 1'
_cell_length_a   8.98089727
_cell_length_b   8.98615329
_cell_length_c   22.73298171
_cell_angle_alpha   90.12646232
_cell_angle_beta   89.95095729
_cell_angle_gamma   120.00762985
_symmetry_Int_Tables_number   1
_chemical_formula_structural   CuNi5C32
_chemical_formula_sum   'Cu3 Ni15 C96'
_cell_volume   1588.71543578
_cell_formula_units_Z   3
loop_
 _symmetry_equiv_pos_site_id
 _symmetry_equiv_pos_as_xyz
  1  'x, y, z'
loop_
 _atom_site_type_symbol
 _atom_site_label
 _atom_site_symmetry_multiplicity
 _atom_site_fract_x
 _atom_site_fract_y
 _atom_site_fract_z
 _atom_site_occupancy
  C  C0  1  0.64220262  0.99962247  0.25063418  1
  C  C1  1  0.99216898  0.35888773  0.74998310  1
  C  C2  1  0.29769068  0.33608392  0.58002906  1
  C  C3  1  0.66830617  0.96768905  0.57936599  1
  C  C4  1  0.02491123  0.33107544  0.08443510  1
  C  C5  1  0.96209095  0.66467119  0.91476218  1
  C  C6  1  0.99885937  0.99944005  0.49291235  1
  C  C7  1  0.97883211  0.99159991  0.00153755  1
  C  C8  1  0.65222436  0.32830640  0.83330620  1
  C  C9  1  0.65864613  0.33959550  0.33413234  1
  C  C10  1  0.32990493  0.67742887  0.16632209  1
  C  C11  1  0.33127075  0.67813630  0.66420214  1
  C  C12  1  0.99665351  0.99369907  0.64614683  1
  C  C13  1  0.66555033  0.33611097  0.68723659  1
  C  C14  1  0.67675835  0.33232867  0.18938937  1
  C  C15  1  0.65502617  0.32343366  0.47785140  1
  C  C16  1  0.34307834  0.66668090  0.31107895  1
  C  C17  1  0.33704865  0.65350990  0.80985932  1
  Ni  Ni18  1  0.28537094  0.00034971  0.25027843  1
  Ni  Ni19  1  0.71690739  0.70942306  0.25154613  1
  Ni  Ni20  1  0.00914169  0.29152698  0.24775640  1
  Ni  Ni21  1  0.28763488  0.27735183  0.75074565  1
  Ni  Ni22  1  0.00136639  0.71310446  0.75325809  1
  Ni  Ni23  1  0.70519234  0.99850308  0.74896879  1
  Ni  Ni24  1  0.95662023  0.33901934  0.58286938  1
  Ni  Ni25  1  0.37455505  0.04048870  0.58320847  1
  Ni  Ni26  1  0.67084338  0.62193555  0.58124875  1
  Ni  Ni27  1  0.96176062  0.63330302  0.08156305  1
  Ni  Ni28  1  0.66546529  0.03921657  0.08268500  1
  Ni  Ni29  1  0.62437609  0.66461923  0.91903500  1
  Ni  Ni30  1  0.04646712  0.37218900  0.91832689  1
  Ni  Ni31  1  0.62954945  0.95558348  0.41755193  1
  Ni  Ni32  1  0.32790650  0.37117606  0.41816935  1
  C  C33  1  0.00031658  0.00644625  0.35155372  1
  C  C34  1  0.98888159  0.00311759  0.85237490  1
  C  C35  1  0.99073532  0.98885376  0.14923715  1
  C  C36  1  0.68100722  0.34204807  0.97985361  1
  C  C37  1  0.33909209  0.67092541  0.02123125  1
  C  C38  1  0.33470705  0.66407154  0.51922040  1
  Cu  Cu39  1  0.37876691  0.33081530  0.08277783  1
  Cu  Cu40  1  0.33540970  0.95847655  0.91596734  1
  Cu  Cu41  1  0.04336670  0.66614209  0.41686870  1
  C  C42  1  0.21030975  0.03995198  0.30886324  1
  C  C43  1  0.83154022  0.78540960  0.30984176  1
  C  C44  1  0.94615498  0.16054932  0.30288633  1
  C  C45  1  0.20570682  0.16539535  0.80878052  1
  C  C46  1  0.96860542  0.78898344  0.81331645  1
  C  C47  1  0.83288373  0.05424281  0.80513276  1
  C  C48  1  0.79505098  0.96901308  0.68993819  1
  C  C49  1  0.16563048  0.19916105  0.69184509  1
  C  C50  1  0.02624714  0.83718480  0.69609063  1
  C  C51  1  0.77805553  0.83655395  0.19483444  1
  C  C52  1  0.04307771  0.21964442  0.18627275  1
  C  C53  1  0.17084817  0.96148402  0.19142729  1
  C  C54  1  0.86819422  0.36093983  0.64285849  1
  C  C55  1  0.50272518  0.13727410  0.63891757  1
  C  C56  1  0.64005242  0.49927482  0.63864611  1
  C  C57  1  0.85331373  0.49866621  0.13596553  1
  C  C58  1  0.64410056  0.13588525  0.14147195  1
  C  C59  1  0.48270755  0.34989055  0.13543995  1
  C  C60  1  0.45668772  0.31050337  0.02792510  1
  C  C61  1  0.85481164  0.55825814  0.01983975  1
  C  C62  1  0.69819230  0.16240244  0.02528095  1
  C  C63  1  0.46419058  0.16642228  0.52561802  1
  C  C64  1  0.69521733  0.52657729  0.52438613  1
  C  C65  1  0.82695597  0.30143642  0.52724502  1
  C  C66  1  0.54218867  0.70373633  0.97603269  1
  C  C67  1  0.15389967  0.46348117  0.97833225  1
  C  C68  1  0.30386197  0.85289548  0.97033097  1
  C  C69  1  0.54308849  0.85141779  0.47865444  1
  C  C70  1  0.29891524  0.44862017  0.47973228  1
  C  C71  1  0.14464324  0.69104780  0.47178807  1
  C  C72  1  0.12847968  0.64571388  0.36453478  1
  C  C73  1  0.50606031  0.86353754  0.35991154  1
  C  C74  1  0.34898406  0.49934968  0.36307217  1
  C  C75  1  0.14275434  0.49936823  0.86034917  1
  C  C76  1  0.35875700  0.87524711  0.86352925  1
  C  C77  1  0.50453356  0.64804561  0.86040201  1
  C  C78  1  0.02268869  0.81900825  0.41330509  1
  C  C79  1  0.81711286  0.97156012  0.41309129  1
  C  C80  1  0.16511020  0.17832114  0.41261250  1
  C  C81  1  0.03101814  0.18467152  0.91416045  1
  C  C82  1  0.17694121  0.97122411  0.91146981  1
  C  C83  1  0.82228717  0.82557424  0.91256887  1
  C  C84  1  0.97209386  0.16331734  0.58979779  1
  C  C85  1  0.19107156  0.03485981  0.59049404  1
  C  C86  1  0.83777820  0.81498815  0.58862543  1
  C  C87  1  0.98705813  0.82403489  0.08719270  1
  C  C88  1  0.84746701  0.03781854  0.08719446  1
  C  C89  1  0.20312933  0.18048543  0.08594940  1
  C  C90  1  0.68949222  0.17068687  0.74045271  1
  C  C91  1  0.48140296  0.31199073  0.74220908  1
  C  C92  1  0.83711770  0.51910872  0.74261355  1
  C  C93  1  0.68375094  0.51572549  0.23977301  1
  C  C94  1  0.83401827  0.31103352  0.24086759  1
  C  C95  1  0.48425682  0.16536376  0.24067326  1
  C  C96  1  0.63320594  0.48553236  0.92008270  1
  C  C97  1  0.85835132  0.36483850  0.91707908  1
  C  C98  1  0.48938648  0.13131338  0.92140454  1
  C  C99  1  0.64601383  0.14835436  0.42323504  1
  C  C100  1  0.51011757  0.36572195  0.42201513  1
  C  C101  1  0.87228969  0.50754193  0.42146297  1
  C  C102  1  0.36073912  0.48810127  0.08088742  1
  C  C103  1  0.14349551  0.62697740  0.08026161  1
  C  C104  1  0.49232623  0.85032951  0.08081373  1
  C  C105  1  0.36355422  0.85572740  0.57811097  1
  C  C106  1  0.49875873  0.64100698  0.58057530  1
  C  C107  1  0.15004689  0.50351819  0.57911246  1
  C  C108  1  0.31996391  0.83578453  0.25916436  1
  C  C109  1  0.52271300  0.68889081  0.25996260  1
  C  C110  1  0.16906874  0.48541930  0.25891569  1
  C  C111  1  0.29939243  0.46870264  0.75683287  1
  C  C112  1  0.16937892  0.68570139  0.75753300  1
  C  C113  1  0.51604563  0.82887951  0.75719087  1
