# generated using pymatgen
data_Cu6NiC12
_symmetry_space_group_name_H-M   'P 1'
_cell_length_a   5.13195403
_cell_length_b   7.66348243
_cell_length_c   5.68849023
_cell_angle_alpha   98.13418739
_cell_angle_beta   98.76134317
_cell_angle_gamma   84.30080165
_symmetry_Int_Tables_number   1
_chemical_formula_structural   Cu6NiC12
_chemical_formula_sum   'Cu6 Ni1 C12'
_cell_volume   218.19326828
_cell_formula_units_Z   1
loop_
 _symmetry_equiv_pos_site_id
 _symmetry_equiv_pos_as_xyz
  1  'x, y, z'
loop_
 _atom_site_type_symbol
 _atom_site_label
 _atom_site_symmetry_multiplicity
 _atom_site_fract_x
 _atom_site_fract_y
 _atom_site_fract_z
 _atom_site_occupancy
  Ni  Ni0  1  0.03970360  0.82839464  0.35135566  1
  Cu  Cu1  1  0.57518471  0.04038170  0.45902480  1
  Cu  Cu2  1  0.46859027  0.33031345  0.83996216  1
  Cu  Cu3  1  0.58657154  0.66468296  0.13387587  1
  Cu  Cu4  1  0.98576365  0.64572734  0.72021362  1
  Cu  Cu5  1  0.99212288  0.32222591  0.33529691  1
  Cu  Cu6  1  0.95752794  0.01953532  0.96308917  1
  C  C7  1  0.83603660  0.76331766  0.00010214  1
  C  C8  1  0.84946034  0.08203715  0.30549965  1
  C  C9  1  0.70393358  0.77199725  0.46643173  1
  C  C10  1  0.64823201  0.11321550  0.78847178  1
  C  C11  1  0.69425602  0.41677504  0.12704451  1
  C  C12  1  0.30190794  0.56104128  0.88277017  1
  C  C13  1  0.29811650  0.24829113  0.52942395  1
  C  C14  1  0.80862422  0.42845485  0.63011639  1
  C  C15  1  0.31825137  0.90111581  0.19624727  1
  C  C16  1  0.17829527  0.23203691  0.03946109  1
  C  C17  1  0.15742573  0.88361385  0.69949196  1
  C  C18  1  0.14513183  0.57600627  0.38926615  1
