# generated using pymatgen
data_Cu12Ni2C
_symmetry_space_group_name_H-M   'P 1'
_cell_length_a   8.44628166
_cell_length_b   8.44628166
_cell_length_c   8.44628247
_cell_angle_alpha   78.64562470
_cell_angle_beta   78.64562470
_cell_angle_gamma   78.64562177
_symmetry_Int_Tables_number   1
_chemical_formula_structural   Cu12Ni2C
_chemical_formula_sum   'Cu12 Ni2 C1'
_cell_volume   571.31011907
_cell_formula_units_Z   1
loop_
 _symmetry_equiv_pos_site_id
 _symmetry_equiv_pos_as_xyz
  1  'x, y, z'
loop_
 _atom_site_type_symbol
 _atom_site_label
 _atom_site_symmetry_multiplicity
 _atom_site_fract_x
 _atom_site_fract_y
 _atom_site_fract_z
 _atom_site_occupancy
  C  C0  1  0.00000000  0.00000000  0.00000000  1
  Ni  Ni1  1  0.20866600  0.20866600  0.20866600  1
  Ni  Ni2  1  0.79133400  0.79133400  0.79133400  1
  Cu  Cu3  1  0.83559000  0.83559000  0.54055600  1
  Cu  Cu4  1  0.87427100  0.18191600  0.18191600  1
  Cu  Cu5  1  0.18191600  0.18191600  0.87427100  1
  Cu  Cu6  1  0.18191600  0.87427100  0.18191600  1
  Cu  Cu7  1  0.81808400  0.12572900  0.81808400  1
  Cu  Cu8  1  0.12572900  0.81808400  0.81808400  1
  Cu  Cu9  1  0.81808400  0.81808400  0.12572900  1
  Cu  Cu10  1  0.45944400  0.16441000  0.16441000  1
  Cu  Cu11  1  0.16441000  0.16441000  0.45944400  1
  Cu  Cu12  1  0.16441000  0.45944400  0.16441000  1
  Cu  Cu13  1  0.83559000  0.54055600  0.83559000  1
  Cu  Cu14  1  0.54055600  0.83559000  0.83559000  1
