# generated using pymatgen
data_Cu(NiC11)3
_symmetry_space_group_name_H-M   'P 1'
_cell_length_a   17.42115421
_cell_length_b   8.71964375
_cell_length_c   22.68178439
_cell_angle_alpha   89.84769603
_cell_angle_beta   90.16102738
_cell_angle_gamma   119.80019877
_symmetry_Int_Tables_number   1
_chemical_formula_structural   Cu(NiC11)3
_chemical_formula_sum   'Cu6 Ni18 C198'
_cell_volume   2989.86930254
_cell_formula_units_Z   6
loop_
 _symmetry_equiv_pos_site_id
 _symmetry_equiv_pos_as_xyz
  1  'x, y, z'
loop_
 _atom_site_type_symbol
 _atom_site_label
 _atom_site_symmetry_multiplicity
 _atom_site_fract_x
 _atom_site_fract_y
 _atom_site_fract_z
 _atom_site_occupancy
  C  C0  1  0.68719322  0.36572729  0.24185803  1
  C  C1  1  0.99380759  0.63590246  0.25501018  1
  C  C2  1  0.33419726  0.96420427  0.59298251  1
  C  C3  1  0.83537444  0.96605702  0.59289882  1
  C  C4  1  0.33406766  0.69799273  0.08084139  1
  C  C5  1  0.34440146  0.66494052  0.41306577  1
  C  C6  1  0.00781516  0.99807996  0.49593542  1
  C  C7  1  0.51190331  0.01766961  0.50041845  1
  C  C8  1  0.99759856  0.99730264  0.99843011  1
  C  C9  1  0.51047240  0.01778960  0.00223971  1
  C  C10  1  0.33502800  0.31999304  0.83749802  1
  C  C11  1  0.83433726  0.32022383  0.83777853  1
  C  C12  1  0.32843709  0.31938835  0.32896247  1
  C  C13  1  0.83827355  0.34104238  0.33369522  1
  C  C14  1  0.16827763  0.67104778  0.16563039  1
  C  C15  1  0.67140468  0.67736072  0.15810494  1
  C  C16  1  0.16879266  0.66991051  0.67677157  1
  C  C17  1  0.67033902  0.67108148  0.67733912  1
  Ni  Ni18  1  0.99942325  0.99150089  0.35180603  1
  Ni  Ni19  1  0.49862948  0.00236948  0.34907307  1
  Ni  Ni20  1  0.99863273  0.99942425  0.65168950  1
  Ni  Ni21  1  0.49893333  0.99928053  0.65205921  1
  Ni  Ni22  1  0.50192009  0.00434370  0.14804178  1
  Ni  Ni23  1  0.33508024  0.33489493  0.18278371  1
  Ni  Ni24  1  0.83381042  0.33472507  0.18183727  1
  Ni  Ni25  1  0.33466712  0.32946191  0.98218668  1
  Ni  Ni26  1  0.83168185  0.33304680  0.98257298  1
  Ni  Ni27  1  0.32979540  0.32284727  0.48123487  1
  Ni  Ni28  1  0.83613682  0.34007607  0.47961698  1
  Ni  Ni29  1  0.16276805  0.67056861  0.01498200  1
  Ni  Ni30  1  0.66680840  0.66603967  0.01669643  1
  Ni  Ni31  1  0.16208613  0.65879550  0.51544657  1
  Ni  Ni32  1  0.66536196  0.66115558  0.51793495  1
  Ni  Ni33  1  0.16978701  0.66792292  0.31687700  1
  Ni  Ni34  1  0.17160332  0.67597006  0.81524719  1
  Ni  Ni35  1  0.67216826  0.67656045  0.81534871  1
  C  C36  1  0.85216917  0.70115798  0.25231494  1
  C  C37  1  0.34852933  0.99144122  0.74494568  1
  C  C38  1  0.84831325  0.99245932  0.74480655  1
  Cu  Cu39  1  0.99551364  0.00412472  0.85020716  1
  Cu  Cu40  1  0.49627457  0.00406851  0.85082188  1
  Cu  Cu41  1  0.99337697  0.99426651  0.15013773  1
  Cu  Cu42  1  0.33497075  0.32889621  0.68659023  1
  Cu  Cu43  1  0.83500060  0.32928064  0.68611043  1
  Cu  Cu44  1  0.66965272  0.67275054  0.31651460  1
  C  C45  1  0.14967516  0.00425189  0.25079092  1
  C  C46  1  0.64390159  0.99730767  0.25064465  1
  C  C47  1  0.35210328  0.70354187  0.25022446  1
  C  C48  1  0.00232738  0.29615381  0.25109200  1
  C  C49  1  0.49679906  0.29089195  0.25149209  1
  C  C50  1  0.14616936  0.29402561  0.74918199  1
  C  C51  1  0.64652250  0.29470677  0.74904024  1
  C  C52  1  0.00078379  0.70777764  0.74921833  1
  C  C53  1  0.50077129  0.70764287  0.74923468  1
  C  C54  1  0.48263138  0.33821631  0.58070888  1
  C  C55  1  0.98278347  0.33730534  0.58098449  1
  C  C56  1  0.18379022  0.03695876  0.58135240  1
  C  C57  1  0.68482639  0.03960002  0.58024261  1
  C  C58  1  0.33404040  0.62443652  0.58052148  1
  C  C59  1  0.83374767  0.62328249  0.58193995  1
  C  C60  1  0.48054488  0.62569333  0.08364178  1
  C  C61  1  0.98276091  0.62954109  0.08388352  1
  C  C62  1  0.33245124  0.03816645  0.08370822  1
  C  C63  1  0.83305007  0.04210332  0.08257373  1
  C  C64  1  0.18492361  0.33017794  0.08394049  1
  C  C65  1  0.68485314  0.33332820  0.08384182  1
  C  C66  1  0.31361762  0.66292035  0.91880512  1
  C  C67  1  0.81335474  0.66332582  0.91746600  1
  C  C68  1  0.02106320  0.37669271  0.91665281  1
  C  C69  1  0.52157542  0.37730269  0.91639511  1
  C  C70  1  0.16522539  0.96316184  0.91553107  1
  C  C71  1  0.66529315  0.96077770  0.91612674  1
  C  C72  1  0.31445215  0.96229982  0.41800024  1
  C  C73  1  0.81500270  0.96620180  0.42053568  1
  C  C74  1  0.16609698  0.37035120  0.41711998  1
  C  C75  1  0.66540912  0.36770849  0.41746920  1
  C  C76  1  0.01967785  0.66784031  0.41591415  1
  C  C77  1  0.51950980  0.66684548  0.41730806  1
  C  C78  1  0.10869265  0.03414012  0.30227269  1
  C  C79  1  0.60455230  0.02618466  0.30414006  1
  C  C80  1  0.40461767  0.78587647  0.30508314  1
  C  C81  1  0.91665189  0.79100505  0.30668718  1
  C  C82  1  0.48769140  0.19032118  0.30568479  1
  C  C83  1  0.99237009  0.18712795  0.30219996  1
  C  C84  1  0.11186782  0.18035506  0.80345173  1
  C  C85  1  0.61224647  0.18083580  0.80339139  1
  C  C86  1  0.48678686  0.78565296  0.80409314  1
  C  C87  1  0.98736455  0.78623887  0.80424133  1
  C  C88  1  0.41316357  0.03868713  0.80426449  1
  C  C89  1  0.91292444  0.04109905  0.80420794  1
  C  C90  1  0.39147379  0.97849853  0.68351073  1
  C  C91  1  0.89132201  0.97848087  0.68363680  1
  C  C92  1  0.09565825  0.20629967  0.69610833  1
  C  C93  1  0.59569885  0.20693931  0.69590771  1
  C  C94  1  0.01435180  0.81627372  0.69670081  1
  C  C95  1  0.51412309  0.81557483  0.69655842  1
  C  C96  1  0.39517516  0.81250942  0.19722435  1
  C  C97  1  0.88708263  0.81806214  0.19045968  1
  C  C98  1  0.02182928  0.22598772  0.19516767  1
  C  C99  1  0.51547956  0.21382206  0.19942161  1
  C  C100  1  0.09254185  0.96819673  0.19555082  1
  C  C101  1  0.59086620  0.97305554  0.19773594  1
  C  C102  1  0.44430625  0.36949426  0.63620514  1
  C  C103  1  0.94448484  0.36984233  0.63661082  1
  C  C104  1  0.24214643  0.11639304  0.63577920  1
  C  C105  1  0.74173605  0.11693113  0.63526400  1
  C  C106  1  0.32040473  0.51484495  0.63541527  1
  C  C107  1  0.81902950  0.51729252  0.63813905  1
  C  C108  1  0.43975418  0.51982974  0.13735360  1
  C  C109  1  0.94428127  0.53621922  0.14014522  1
  C  C110  1  0.32058494  0.11983959  0.13708764  1
  C  C111  1  0.82626900  0.12362712  0.13766746  1
  C  C112  1  0.23822493  0.35517501  0.13753584  1
  C  C113  1  0.73469295  0.35314847  0.13983521  1
  C  C114  1  0.22465251  0.30215822  0.03104739  1
  C  C115  1  0.72993186  0.31070152  0.03255344  1
  C  C116  1  0.42274737  0.54243570  0.03157376  1
  C  C117  1  0.92680750  0.54378379  0.03264237  1
  C  C118  1  0.34354121  0.14316048  0.03030990  1
  C  C119  1  0.84361620  0.14865508  0.03013273  1
  C  C120  1  0.22653773  0.14900752  0.52974408  1
  C  C121  1  0.72806818  0.15169877  0.52891625  1
  C  C122  1  0.34268319  0.53620773  0.52779540  1
  C  C123  1  0.84154468  0.53045385  0.53111846  1
  C  C124  1  0.42290873  0.30863489  0.53057263  1
  C  C125  1  0.92249622  0.30610139  0.53118804  1
  C  C126  1  0.27507169  0.68999749  0.97351827  1
  C  C127  1  0.77327085  0.69224947  0.97008286  1
  C  C128  1  0.07389856  0.45809020  0.97004666  1
  C  C129  1  0.57366034  0.45926987  0.96972894  1
  C  C130  1  0.15097118  0.85799216  0.96954813  1
  C  C131  1  0.65173265  0.85510755  0.96971419  1
  C  C132  1  0.27521137  0.85498670  0.47238219  1
  C  C133  1  0.77116557  0.85435806  0.47236982  1
  C  C134  1  0.15590683  0.45372795  0.47084892  1
  C  C135  1  0.65347128  0.46028136  0.46727394  1
  C  C136  1  0.07410371  0.68456337  0.46816065  1
  C  C137  1  0.57569180  0.69097404  0.46820606  1
  C  C138  1  0.05958670  0.64648805  0.36061520  1
  C  C139  1  0.55813783  0.63610775  0.36160487  1
  C  C140  1  0.25965171  0.87544734  0.36571556  1
  C  C141  1  0.75809785  0.88698752  0.36517512  1
  C  C142  1  0.18225172  0.48507197  0.36487285  1
  C  C143  1  0.67865128  0.47124812  0.36002119  1
  C  C144  1  0.06277332  0.47495448  0.86272407  1
  C  C145  1  0.56315234  0.47458196  0.86223591  1
  C  C146  1  0.17412862  0.87839518  0.86257965  1
  C  C147  1  0.67354495  0.87724645  0.86255071  1
  C  C148  1  0.26199084  0.64790241  0.86613081  1
  C  C149  1  0.76429127  0.64696849  0.86316262  1
  C  C150  1  0.01276026  0.83082018  0.41402639  1
  C  C151  1  0.50950579  0.82571644  0.41034461  1
  C  C152  1  0.40331868  0.97408264  0.41209520  1
  C  C153  1  0.90215093  0.98092989  0.41318142  1
  C  C154  1  0.08805628  0.19359132  0.41064451  1
  C  C155  1  0.58516368  0.19241462  0.41122722  1
  C  C156  1  0.01501800  0.19374670  0.91485171  1
  C  C157  1  0.51512835  0.19369395  0.91501105  1
  C  C158  1  0.08141914  0.98008128  0.91074629  1
  C  C159  1  0.58118676  0.97833838  0.91158848  1
  C  C160  1  0.40599394  0.82775855  0.91498115  1
  C  C161  1  0.90648044  0.82845406  0.91420781  1
  C  C162  1  0.49039383  0.17663581  0.58638376  1
  C  C163  1  0.99065725  0.17610830  0.58713993  1
  C  C164  1  0.09646976  0.02000760  0.58983622  1
  C  C165  1  0.59684299  0.02139701  0.58861685  1
  C  C166  1  0.41515344  0.80030160  0.58536066  1
  C  C167  1  0.91468034  0.79926395  0.58617552  1
  C  C168  1  0.48691939  0.80375852  0.08938389  1
  C  C169  1  0.99331363  0.81549607  0.08635658  1
  C  C170  1  0.41191033  0.01442398  0.08926723  1
  C  C171  1  0.91906940  0.03138396  0.08430178  1
  C  C172  1  0.09345596  0.16785137  0.08977662  1
  C  C173  1  0.59546044  0.17305204  0.08822498  1
  C  C174  1  0.34299315  0.17955081  0.74727751  1
  C  C175  1  0.84237582  0.17984877  0.74697762  1
  C  C176  1  0.23927192  0.32388539  0.74473015  1
  C  C177  1  0.73929169  0.32423665  0.74441055  1
  C  C178  1  0.41468880  0.53403938  0.74437289  1
  C  C179  1  0.91499447  0.53427028  0.74444661  1
  C  C180  1  0.34321686  0.52551374  0.24513011  1
  C  C181  1  0.83876141  0.50266152  0.24478145  1
  C  C182  1  0.41918808  0.31303460  0.24475142  1
  C  C183  1  0.92114171  0.30941015  0.24301343  1
  C  C184  1  0.23805119  0.15856174  0.24183310  1
  C  C185  1  0.73431731  0.14978563  0.24483617  1
  C  C186  1  0.32489473  0.50633771  0.92372184  1
  C  C187  1  0.82540636  0.50772324  0.92343371  1
  C  C188  1  0.43061856  0.34903558  0.92098478  1
  C  C189  1  0.93043761  0.34915093  0.92198619  1
  C  C190  1  0.24286278  0.14224306  0.92140985  1
  C  C191  1  0.74250643  0.14077467  0.92162667  1
  C  C192  1  0.32580750  0.14128302  0.42278631  1
  C  C193  1  0.82214324  0.14130368  0.42455083  1
  C  C194  1  0.24914546  0.35696357  0.42229454  1
  C  C195  1  0.74545775  0.35257084  0.42243799  1
  C  C196  1  0.42975724  0.50970203  0.42196058  1
  C  C197  1  0.93034668  0.50804294  0.42093272  1
  C  C198  1  0.17605055  0.49109697  0.07802411  1
  C  C199  1  0.67621873  0.49387269  0.07795512  1
  C  C200  1  0.07200809  0.65052679  0.07825528  1
  C  C201  1  0.56979710  0.64778819  0.07680078  1
  C  C202  1  0.25366458  0.85504364  0.07826233  1
  C  C203  1  0.75662524  0.86186773  0.07782989  1
  C  C204  1  0.17893787  0.86252320  0.57624748  1
  C  C205  1  0.67910928  0.86388559  0.57561171  1
  C  C206  1  0.25558831  0.64905093  0.57704402  1
  C  C207  1  0.75523513  0.64857045  0.57784867  1
  C  C208  1  0.07024525  0.49566295  0.57544731  1
  C  C209  1  0.57008410  0.49612457  0.57493013  1
  C  C210  1  0.15436673  0.83857373  0.25632426  1
  C  C211  1  0.64901655  0.82926758  0.25620873  1
  C  C212  1  0.26314012  0.68760934  0.25554076  1
  C  C213  1  0.74982075  0.67338382  0.25512516  1
  C  C214  1  0.07889141  0.47979826  0.25612921  1
  C  C215  1  0.57979144  0.47297491  0.25689290  1
  C  C216  1  0.14962517  0.46357841  0.75707468  1
  C  C217  1  0.64978332  0.46406239  0.75682185  1
  C  C218  1  0.07467820  0.67481356  0.75645115  1
  C  C219  1  0.57437799  0.67422816  0.75653449  1
  C  C220  1  0.25297245  0.82159504  0.75317043  1
  C  C221  1  0.75280425  0.82268828  0.75318825  1
