# generated using pymatgen
data_Cu8Ni4C93
_symmetry_space_group_name_H-M   'P 1'
_cell_length_a   17.62031119
_cell_length_b   8.80548491
_cell_length_c   22.77509414
_cell_angle_alpha   89.99636841
_cell_angle_beta   89.69846592
_cell_angle_gamma   119.97927897
_symmetry_Int_Tables_number   1
_chemical_formula_structural   Cu8Ni4C93
_chemical_formula_sum   'Cu16 Ni8 C186'
_cell_volume   3060.83693111
_cell_formula_units_Z   2
loop_
 _symmetry_equiv_pos_site_id
 _symmetry_equiv_pos_as_xyz
  1  'x, y, z'
loop_
 _atom_site_type_symbol
 _atom_site_label
 _atom_site_symmetry_multiplicity
 _atom_site_fract_x
 _atom_site_fract_y
 _atom_site_fract_z
 _atom_site_occupancy
  C  C0  1  0.99747281  0.99573601  0.49769156  1
  C  C1  1  0.49865090  0.00091481  0.00105824  1
  C  C2  1  0.33230431  0.33210033  0.84269565  1
  C  C3  1  0.83666407  0.33010228  0.84016699  1
  C  C4  1  0.33752556  0.34354162  0.33891971  1
  C  C5  1  0.83385768  0.34497255  0.33954303  1
  Ni  Ni6  1  0.99736791  0.99409681  0.34702228  1
  Ni  Ni7  1  0.50170531  0.99396026  0.85190014  1
  Ni  Ni8  1  0.99576462  0.98806622  0.64900644  1
  Ni  Ni9  1  0.49642614  0.00232846  0.14985840  1
  Ni  Ni10  1  0.33048357  0.32670377  0.97949776  1
  Ni  Ni11  1  0.83863296  0.32984344  0.97935976  1
  Ni  Ni12  1  0.33918781  0.34992097  0.47787241  1
  Ni  Ni13  1  0.83123093  0.33559728  0.47824216  1
  Cu  Cu14  1  0.49729140  0.99766928  0.35707267  1
  Cu  Cu15  1  0.99596513  0.99382175  0.85830408  1
  Cu  Cu16  1  0.50399847  0.99620663  0.64669683  1
  Cu  Cu17  1  0.99619179  0.00097158  0.15011411  1
  Cu  Cu18  1  0.33157545  0.34022531  0.68528159  1
  Cu  Cu19  1  0.83636775  0.34104086  0.69249834  1
  Cu  Cu20  1  0.33452354  0.33240671  0.19230559  1
  Cu  Cu21  1  0.83263172  0.32697682  0.18880891  1
  Cu  Cu22  1  0.16192596  0.66430445  0.02000355  1
  Cu  Cu23  1  0.66765808  0.66988266  0.02613685  1
  Cu  Cu24  1  0.16666634  0.66397224  0.52391641  1
  Cu  Cu25  1  0.66338173  0.66040506  0.51679825  1
  Cu  Cu26  1  0.16399888  0.66408611  0.30407742  1
  Cu  Cu27  1  0.66417503  0.65069821  0.30954476  1
  Cu  Cu28  1  0.16262574  0.67029133  0.81324835  1
  Cu  Cu29  1  0.66424034  0.66590541  0.80494066  1
  C  C30  1  0.13956024  0.00295619  0.25203438  1
  C  C31  1  0.36063663  0.71944890  0.24794790  1
  C  C32  1  0.85644408  0.71178930  0.25368184  1
  C  C33  1  0.99582972  0.27757848  0.25413499  1
  C  C34  1  0.50121914  0.27904863  0.24688488  1
  C  C35  1  0.64043980  0.27938913  0.75263268  1
  C  C36  1  0.00374050  0.72548229  0.74731487  1
  C  C37  1  0.49460779  0.71070365  0.75391245  1
  C  C38  1  0.86100473  0.00236528  0.74797567  1
  C  C39  1  0.33555945  0.62603386  0.57996994  1
  C  C40  1  0.83774686  0.05257599  0.08048432  1
  C  C41  1  0.01711311  0.37457980  0.91683707  1
  C  C42  1  0.17125523  0.96692899  0.91654804  1
  C  C43  1  0.67082288  0.37346679  0.41509817  1
  C  C44  1  0.51820195  0.65990205  0.41430118  1
  C  C45  1  0.64254565  0.99919864  0.24973741  1
  C  C46  1  0.14387145  0.28658469  0.74976248  1
  C  C47  1  0.35651134  0.00009689  0.75026664  1
  C  C48  1  0.47694596  0.33210419  0.58226943  1
  C  C49  1  0.97529078  0.32777109  0.58092428  1
  C  C50  1  0.18792855  0.04831281  0.57998515  1
  C  C51  1  0.69165154  0.04597211  0.58296202  1
  C  C52  1  0.83477936  0.62421873  0.58079266  1
  C  C53  1  0.47507256  0.62313711  0.08063607  1
  C  C54  1  0.97655690  0.62190279  0.08208853  1
  C  C55  1  0.33513773  0.04528844  0.08052130  1
  C  C56  1  0.19085359  0.33485664  0.08227013  1
  C  C57  1  0.68763025  0.32572488  0.07965711  1
  C  C58  1  0.31316684  0.67155765  0.91738712  1
  C  C59  1  0.80636682  0.66109567  0.91680827  1
  C  C60  1  0.52333996  0.37858187  0.91726591  1
  C  C61  1  0.66416077  0.95066477  0.91761048  1
  C  C62  1  0.30688738  0.95234626  0.41666930  1
  C  C63  1  0.81399916  0.95822051  0.41741649  1
  C  C64  1  0.16413206  0.37593126  0.41719604  1
  C  C65  1  0.02360837  0.66897558  0.41749171  1
  C  C66  1  0.10925874  0.05218198  0.31036210  1
  C  C67  1  0.60383609  0.03441604  0.30282085  1
  C  C68  1  0.41984707  0.80226252  0.30741345  1
  C  C69  1  0.91491861  0.77281181  0.31034908  1
  C  C70  1  0.48238460  0.15885045  0.30656308  1
  C  C71  1  0.97315240  0.16729682  0.31179160  1
  C  C72  1  0.10590489  0.17703787  0.80279428  1
  C  C73  1  0.60450339  0.16487410  0.80955839  1
  C  C74  1  0.46868258  0.77736363  0.80981600  1
  C  C75  1  0.98448900  0.80735698  0.80673505  1
  C  C76  1  0.40945916  0.04074971  0.80256907  1
  C  C77  1  0.92031099  0.03675886  0.80742448  1
  C  C78  1  0.39830162  0.97582886  0.69685685  1
  C  C79  1  0.89654736  0.96820745  0.68993047  1
  C  C80  1  0.09410113  0.21905140  0.69665141  1
  C  C81  1  0.58073606  0.19493794  0.69323627  1
  C  C82  1  0.02511580  0.83507863  0.68982463  1
  C  C83  1  0.51193020  0.83165598  0.69410938  1
  C  C84  1  0.39610454  0.82382783  0.18958899  1
  C  C85  1  0.90319915  0.83274074  0.19435754  1
  C  C86  1  0.01437915  0.19676256  0.19438673  1
  C  C87  1  0.52271829  0.21230095  0.18932141  1
  C  C88  1  0.08264622  0.96898765  0.19234303  1
  C  C89  1  0.59280395  0.97012671  0.19667855  1
  C  C90  1  0.43319311  0.35821771  0.63600954  1
  C  C91  1  0.93711428  0.36141749  0.63465389  1
  C  C92  1  0.24351156  0.12295742  0.63463140  1
  C  C93  1  0.74539310  0.12934098  0.63596815  1
  C  C94  1  0.31627561  0.49666509  0.63999440  1
  C  C95  1  0.82174479  0.51438972  0.63499043  1
  C  C96  1  0.43759759  0.51348408  0.13415242  1
  C  C97  1  0.93542718  0.51005202  0.13520882  1
  C  C98  1  0.32076557  0.12632601  0.13411458  1
  C  C99  1  0.81658609  0.13786176  0.13907627  1
  C  C100  1  0.24702288  0.36491189  0.13491993  1
  C  C101  1  0.74172030  0.36365884  0.13333058  1
  C  C102  1  0.23041244  0.30897065  0.03001588  1
  C  C103  1  0.73163179  0.31226248  0.02735413  1
  C  C104  1  0.42205405  0.53992221  0.02888511  1
  C  C105  1  0.92469831  0.54675554  0.02989174  1
  C  C106  1  0.34608409  0.15355686  0.02878618  1
  C  C107  1  0.85018579  0.16252173  0.02388300  1
  C  C108  1  0.23303460  0.15357300  0.52875864  1
  C  C109  1  0.72889887  0.15155174  0.53078008  1
  C  C110  1  0.35286238  0.53862033  0.52633646  1
  C  C111  1  0.84566225  0.53650325  0.52956370  1
  C  C112  1  0.42411024  0.29970138  0.53059510  1
  C  C113  1  0.92153125  0.30386859  0.52955535  1
  C  C114  1  0.26536388  0.68860050  0.97078786  1
  C  C115  1  0.76453145  0.68919993  0.97022201  1
  C  C116  1  0.08166007  0.47337252  0.97485424  1
  C  C117  1  0.58005148  0.46886419  0.96993126  1
  C  C118  1  0.15585849  0.83481516  0.97382616  1
  C  C119  1  0.65664047  0.83793036  0.97109223  1
  C  C120  1  0.26445794  0.83950999  0.47090564  1
  C  C121  1  0.76458742  0.84175412  0.47233483  1
  C  C122  1  0.15734073  0.47663024  0.47177801  1
  C  C123  1  0.65498342  0.47393728  0.47390022  1
  C  C124  1  0.08074547  0.68732768  0.47091416  1
  C  C125  1  0.58145300  0.68909341  0.47492455  1
  C  C126  1  0.06882309  0.64954986  0.36519339  1
  C  C127  1  0.57821828  0.65672453  0.36058311  1
  C  C128  1  0.25260471  0.86433318  0.36526408  1
  C  C129  1  0.76000594  0.87539396  0.36545263  1
  C  C130  1  0.17483789  0.48809351  0.36587344  1
  C  C131  1  0.68258494  0.50224940  0.35960178  1
  C  C132  1  0.07643005  0.49988737  0.86073124  1
  C  C133  1  0.56852951  0.48861814  0.86429859  1
  C  C134  1  0.18367309  0.86132932  0.85974193  1
  C  C135  1  0.67409036  0.85997355  0.86550994  1
  C  C136  1  0.25950902  0.64703886  0.86410661  1
  C  C137  1  0.75261037  0.64145397  0.86481459  1
  C  C138  1  0.01847274  0.82888064  0.41640229  1
  C  C139  1  0.51461564  0.84081798  0.40678015  1
  C  C140  1  0.39327726  0.96165062  0.41210926  1
  C  C141  1  0.89804394  0.96359643  0.41719363  1
  C  C142  1  0.08258546  0.20919543  0.41780643  1
  C  C143  1  0.57932746  0.19044210  0.40573279  1
  C  C144  1  0.01547097  0.18977969  0.90616584  1
  C  C145  1  0.51502998  0.20479023  0.91315085  1
  C  C146  1  0.08026532  0.96780048  0.90501576  1
  C  C147  1  0.58223163  0.95540936  0.91683900  1
  C  C148  1  0.39743174  0.83550186  0.91458089  1
  C  C149  1  0.89342499  0.82465149  0.91169506  1
  C  C150  1  0.48905810  0.18008643  0.59467313  1
  C  C151  1  0.99302881  0.18388586  0.58815302  1
  C  C152  1  0.10133711  0.02786922  0.58767946  1
  C  C153  1  0.60112663  0.02380783  0.59255994  1
  C  C154  1  0.41429335  0.82061770  0.59804866  1
  C  C155  1  0.91161216  0.80006899  0.58629505  1
  C  C156  1  0.49279880  0.80251258  0.08750346  1
  C  C157  1  0.99193387  0.79981593  0.09181852  1
  C  C158  1  0.41120569  0.02102115  0.08571074  1
  C  C159  1  0.91760772  0.01643968  0.09428441  1
  C  C160  1  0.10262140  0.18197876  0.09175678  1
  C  C161  1  0.59983858  0.17438952  0.08611175  1
  C  C162  1  0.34046009  0.15095703  0.73800793  1
  C  C163  1  0.84506125  0.17385836  0.73992646  1
  C  C164  1  0.23430052  0.29890770  0.74311423  1
  C  C165  1  0.73925814  0.31423971  0.73456787  1
  C  C166  1  0.41366916  0.50827379  0.73652592  1
  C  C167  1  0.91648178  0.52393026  0.74026146  1
  C  C168  1  0.34456255  0.51621819  0.24042973  1
  C  C169  1  0.83660832  0.51327789  0.23369731  1
  C  C170  1  0.41374014  0.30469652  0.23927582  1
  C  C171  1  0.91434402  0.31561475  0.23772973  1
  C  C172  1  0.23940516  0.16465980  0.23415440  1
  C  C173  1  0.73250911  0.16423516  0.24403976  1
  C  C174  1  0.32136131  0.51493161  0.92410492  1
  C  C175  1  0.81553845  0.50749672  0.92349834  1
  C  C176  1  0.43890894  0.37232264  0.92285060  1
  C  C177  1  0.92603862  0.36810567  0.91766423  1
  C  C178  1  0.25614283  0.15401867  0.92041609  1
  C  C179  1  0.74240799  0.12304661  0.92198526  1
  C  C180  1  0.31544038  0.12342736  0.42446674  1
  C  C181  1  0.82129258  0.12944781  0.42657116  1
  C  C182  1  0.24274504  0.36172569  0.42310695  1
  C  C183  1  0.75534865  0.35579670  0.42125579  1
  C  C184  1  0.42632576  0.48461348  0.41771788  1
  C  C185  1  0.93943671  0.50718343  0.42409602  1
  C  C186  1  0.18212945  0.49647646  0.07555461  1
  C  C187  1  0.67734510  0.48994653  0.07157848  1
  C  C188  1  0.06609104  0.63564519  0.07621213  1
  C  C189  1  0.56494771  0.63361911  0.07238398  1
  C  C190  1  0.25326406  0.86639499  0.07381574  1
  C  C191  1  0.74753550  0.84981707  0.07185675  1
  C  C192  1  0.17854362  0.86665583  0.57315846  1
  C  C193  1  0.67998153  0.86740702  0.57749194  1
  C  C194  1  0.24636408  0.64444134  0.57248216  1
  C  C195  1  0.75317572  0.63813287  0.57518286  1
  C  C196  1  0.06466959  0.49700986  0.57297341  1
  C  C197  1  0.56498612  0.49296169  0.57785631  1
  C  C198  1  0.15530549  0.83349150  0.26117721  1
  C  C199  1  0.65923141  0.85412355  0.26074026  1
  C  C200  1  0.26250975  0.68595316  0.26696813  1
  C  C201  1  0.76201766  0.70276026  0.25951908  1
  C  C202  1  0.08183456  0.47587166  0.26070686  1
  C  C203  1  0.58027023  0.47884932  0.26201689  1
  C  C204  1  0.16397106  0.46912991  0.76070531  1
  C  C205  1  0.65573913  0.47914666  0.76116800  1
  C  C206  1  0.08456088  0.68553666  0.76259451  1
  C  C207  1  0.58119987  0.68873339  0.76079519  1
  C  C208  1  0.26968043  0.83918794  0.75617878  1
  C  C209  1  0.76239990  0.84026416  0.76704271  1
