# generated using pymatgen
data_Cu(NiC3)3
_symmetry_space_group_name_H-M   'P 1'
_cell_length_a   5.89522539
_cell_length_b   5.95085949
_cell_length_c   6.00662282
_cell_angle_alpha   59.86597497
_cell_angle_beta   60.61044943
_cell_angle_gamma   60.30945466
_symmetry_Int_Tables_number   1
_chemical_formula_structural   Cu(NiC3)3
_chemical_formula_sum   'Cu1 Ni3 C9'
_cell_volume   149.87396756
_cell_formula_units_Z   1
loop_
 _symmetry_equiv_pos_site_id
 _symmetry_equiv_pos_as_xyz
  1  'x, y, z'
loop_
 _atom_site_type_symbol
 _atom_site_label
 _atom_site_symmetry_multiplicity
 _atom_site_fract_x
 _atom_site_fract_y
 _atom_site_fract_z
 _atom_site_occupancy
  C  C0  1  0.50000000  0.50000000  0.50000000  1
  Ni  Ni1  1  0.50000000  0.00000000  0.00000000  1
  Ni  Ni2  1  0.00000000  0.50000000  0.00000000  1
  Ni  Ni3  1  0.50000000  0.50000000  0.00000000  1
  Cu  Cu4  1  0.00000000  0.00000000  0.00000000  1
  C  C5  1  0.25322400  0.23332400  0.78346900  1
  C  C6  1  0.72998300  0.23332200  0.78347100  1
  C  C7  1  0.23715600  0.74764800  0.77805200  1
  C  C8  1  0.72578400  0.73305600  0.81538300  1
  C  C9  1  0.27421700  0.26694500  0.18461700  1
  C  C10  1  0.76284400  0.25235200  0.22194800  1
  C  C11  1  0.27001700  0.76667800  0.21652900  1
  C  C12  1  0.74677600  0.76667600  0.21653100  1
