# generated using pymatgen
data_CuNiC11
_symmetry_space_group_name_H-M   'P 1'
_cell_length_a   5.90731976
_cell_length_b   5.74232944
_cell_length_c   6.07221109
_cell_angle_alpha   61.27675257
_cell_angle_beta   123.26109876
_cell_angle_gamma   120.24036466
_symmetry_Int_Tables_number   1
_chemical_formula_structural   CuNiC11
_chemical_formula_sum   'Cu1 Ni1 C11'
_cell_volume   142.72028362
_cell_formula_units_Z   1
loop_
 _symmetry_equiv_pos_site_id
 _symmetry_equiv_pos_as_xyz
  1  'x, y, z'
loop_
 _atom_site_type_symbol
 _atom_site_label
 _atom_site_symmetry_multiplicity
 _atom_site_fract_x
 _atom_site_fract_y
 _atom_site_fract_z
 _atom_site_occupancy
  Ni  Ni0  1  0.00000000  0.00000000  0.00000000  1
  Cu  Cu1  1  0.50000000  0.50000000  0.50000000  1
  C  C2  1  0.50000000  0.50000000  0.00000000  1
  C  C3  1  0.50000000  0.00000000  0.00000000  1
  C  C4  1  0.00000000  0.50000000  0.00000000  1
  C  C5  1  0.75618000  0.71531800  0.76723800  1
  C  C6  1  0.72469700  0.23940100  0.78203100  1
  C  C7  1  0.24419900  0.72136000  0.81081300  1
  C  C8  1  0.27345000  0.23580300  0.79998300  1
  C  C9  1  0.72655000  0.76419700  0.20001700  1
  C  C10  1  0.75580100  0.27864000  0.18918700  1
  C  C11  1  0.27530300  0.76059900  0.21796900  1
  C  C12  1  0.24382000  0.28468200  0.23276200  1
