# generated using pymatgen
data_Cu2Ni2C9
_symmetry_space_group_name_H-M   'P 1'
_cell_length_a   3.39625606
_cell_length_b   3.39687359
_cell_length_c   45.91318109
_cell_angle_alpha   89.98150086
_cell_angle_beta   89.98249387
_cell_angle_gamma   119.99195763
_symmetry_Int_Tables_number   1
_chemical_formula_structural   Cu2Ni2C9
_chemical_formula_sum   'Cu2 Ni2 C9'
_cell_volume   458.75724016
_cell_formula_units_Z   1
loop_
 _symmetry_equiv_pos_site_id
 _symmetry_equiv_pos_as_xyz
  1  'x, y, z'
loop_
 _atom_site_type_symbol
 _atom_site_label
 _atom_site_symmetry_multiplicity
 _atom_site_fract_x
 _atom_site_fract_y
 _atom_site_fract_z
 _atom_site_occupancy
  C  C0  1  0.99802500  0.99709000  0.19638000  1
  C  C1  1  0.33305000  0.66638100  0.69852300  1
  C  C2  1  0.66680600  0.33357400  0.04601500  1
  C  C3  1  0.66656300  0.33333800  0.12802500  1
  C  C4  1  0.33344000  0.66668700  0.61701700  1
  C  C5  1  0.33339300  0.66692100  0.08683300  1
  C  C6  1  0.33334600  0.66672700  0.46967900  1
  C  C7  1  0.66714900  0.33391800  0.28974300  1
  C  C8  1  0.66651900  0.33303200  0.65777600  1
  Ni  Ni9  1  0.66689800  0.33349500  0.43375300  1
  Ni  Ni10  1  0.66640400  0.33315000  0.50560800  1
  Cu  Cu11  1  0.33344300  0.66688900  0.32223500  1
  Cu  Cu12  1  0.33496300  0.66879800  0.25681600  1
