# generated using pymatgen
data_CuNi2C7
_symmetry_space_group_name_H-M   'P 1'
_cell_length_a   3.34858101
_cell_length_b   3.34849053
_cell_length_c   37.76878728
_cell_angle_alpha   89.98749361
_cell_angle_beta   90.01043405
_cell_angle_gamma   120.00191141
_symmetry_Int_Tables_number   1
_chemical_formula_structural   CuNi2C7
_chemical_formula_sum   'Cu1 Ni2 C7'
_cell_volume   366.74582634
_cell_formula_units_Z   1
loop_
 _symmetry_equiv_pos_site_id
 _symmetry_equiv_pos_as_xyz
  1  'x, y, z'
loop_
 _atom_site_type_symbol
 _atom_site_label
 _atom_site_symmetry_multiplicity
 _atom_site_fract_x
 _atom_site_fract_y
 _atom_site_fract_z
 _atom_site_occupancy
  C  C0  1  0.99996700  0.00039600  0.44870600  1
  C  C1  1  0.66660200  0.33343300  0.53508700  1
  C  C2  1  0.66669300  0.33331500  0.63628000  1
  Ni  Ni3  1  0.33330100  0.66657500  0.11562000  1
  Ni  Ni4  1  0.66671100  0.33322900  0.33900100  1
  Cu  Cu5  1  0.33331000  0.66668700  0.58587500  1
  C  C6  1  0.66658100  0.33330800  0.07152900  1
  C  C7  1  0.66666900  0.33318700  0.15971000  1
  C  C8  1  0.33343100  0.66642400  0.37983500  1
  C  C9  1  0.33333600  0.66664300  0.29911400  1
