# generated using pymatgen
data_Cu3Ni3C35
_symmetry_space_group_name_H-M   'P 1'
_cell_length_a   8.93979995
_cell_length_b   8.91223295
_cell_length_c   21.98378270
_cell_angle_alpha   90.03062421
_cell_angle_beta   90.11329252
_cell_angle_gamma   120.08058074
_symmetry_Int_Tables_number   1
_chemical_formula_structural   Cu3Ni3C35
_chemical_formula_sum   'Cu9 Ni9 C105'
_cell_volume   1515.62809518
_cell_formula_units_Z   3
loop_
 _symmetry_equiv_pos_site_id
 _symmetry_equiv_pos_as_xyz
  1  'x, y, z'
loop_
 _atom_site_type_symbol
 _atom_site_label
 _atom_site_symmetry_multiplicity
 _atom_site_fract_x
 _atom_site_fract_y
 _atom_site_fract_z
 _atom_site_occupancy
  C  C0  1  0.62961986  0.99826235  0.25199395  1
  C  C1  1  0.36839748  0.37066975  0.25166188  1
  C  C2  1  0.00229601  0.63307483  0.25302581  1
  C  C3  1  0.63890424  0.62884804  0.74520703  1
  C  C4  1  0.99440769  0.35811735  0.74423602  1
  C  C5  1  0.29721749  0.33879742  0.58397764  1
  C  C6  1  0.03624878  0.70083216  0.58296727  1
  C  C7  1  0.66612495  0.96205338  0.58142716  1
  C  C8  1  0.29976799  0.96524916  0.08415331  1
  C  C9  1  0.66261684  0.70031916  0.08467997  1
  C  C10  1  0.03951924  0.33260780  0.08244101  1
  C  C11  1  0.32429453  0.29610829  0.91366230  1
  C  C12  1  0.97354055  0.29796797  0.41585645  1
  C  C13  1  0.32692366  0.02790645  0.41560571  1
  C  C14  1  0.70038315  0.67405296  0.41567250  1
  C  C15  1  0.99831205  0.00039763  0.49977056  1
  C  C16  1  0.99220108  0.99641918  0.99673076  1
  C  C17  1  0.66398620  0.32438186  0.82814676  1
  C  C18  1  0.66550409  0.33234913  0.33183320  1
  C  C19  1  0.33596316  0.66662288  0.16661318  1
  C  C20  1  0.33443689  0.67161945  0.66032152  1
  C  C21  1  0.66951161  0.32782700  0.97920272  1
  C  C22  1  0.67224873  0.33764502  0.48001999  1
  C  C23  1  0.32746918  0.66410826  0.81135525  1
  Ni  Ni24  1  0.99871568  0.99910308  0.35389466  1
  Ni  Ni25  1  0.00099389  0.00590080  0.85098526  1
  Ni  Ni26  1  0.99827952  0.00452111  0.64765154  1
  Ni  Ni27  1  0.00154300  0.00574629  0.14798119  1
  Ni  Ni28  1  0.65844586  0.33095856  0.68336084  1
  Ni  Ni29  1  0.66089574  0.32995169  0.18156291  1
  Ni  Ni30  1  0.33855489  0.66379297  0.01765093  1
  Ni  Ni31  1  0.33255357  0.66052820  0.51626722  1
  Ni  Ni32  1  0.33253354  0.66580207  0.32109253  1
  Cu  Cu33  1  0.29339891  0.27751701  0.74974164  1
  Cu  Cu34  1  0.96168945  0.33503168  0.58789539  1
  Cu  Cu35  1  0.66666244  0.63129854  0.58704277  1
  Cu  Cu36  1  0.66463349  0.03487747  0.08671183  1
  Cu  Cu37  1  0.37245602  0.33394753  0.08541924  1
  Cu  Cu38  1  0.04109501  0.37021286  0.91878860  1
  Cu  Cu39  1  0.62167322  0.95179236  0.41565799  1
  Cu  Cu40  1  0.32917580  0.37510624  0.41507256  1
  Cu  Cu41  1  0.04989900  0.67184455  0.41580388  1
  C  C42  1  0.28949859  0.99945076  0.24928569  1
  C  C43  1  0.71093721  0.70921658  0.24873367  1
  C  C44  1  0.99964675  0.29288552  0.24944446  1
  C  C45  1  0.99923953  0.71788648  0.75004832  1
  C  C46  1  0.71252027  0.00399971  0.74980083  1
  C  C47  1  0.37559775  0.04088292  0.58517011  1
  C  C48  1  0.95793410  0.62432268  0.08579573  1
  C  C49  1  0.63211505  0.67617821  0.91739548  1
  C  C50  1  0.32576525  0.95078668  0.91906583  1
  C  C51  1  0.20736391  0.03213487  0.30588057  1
  C  C52  1  0.82482152  0.79129851  0.30590969  1
  C  C53  1  0.96504086  0.17654517  0.30590132  1
  C  C54  1  0.20817344  0.17597727  0.81234042  1
  C  C55  1  0.96689900  0.80043644  0.80586194  1
  C  C56  1  0.82794324  0.03453115  0.80566766  1
  C  C57  1  0.78076471  0.95665442  0.69218399  1
  C  C58  1  0.16585693  0.20808281  0.69065622  1
  C  C59  1  0.03166279  0.82288492  0.69145904  1
  C  C60  1  0.79425559  0.82364893  0.19145151  1
  C  C61  1  0.03269804  0.21173094  0.19193180  1
  C  C62  1  0.17514276  0.96726883  0.19175335  1
  C  C63  1  0.86966428  0.36853277  0.64585645  1
  C  C64  1  0.49571825  0.12535969  0.63960012  1
  C  C65  1  0.62608723  0.50428852  0.64488642  1
  C  C66  1  0.87900252  0.50848768  0.14243159  1
  C  C67  1  0.62630804  0.12197181  0.14519575  1
  C  C68  1  0.49959102  0.37768646  0.14412714  1
  C  C69  1  0.46779261  0.30149279  0.02545371  1
  C  C70  1  0.83490747  0.53323999  0.02979012  1
  C  C71  1  0.70250714  0.17116607  0.02806779  1
  C  C72  1  0.45973844  0.15702886  0.52686310  1
  C  C73  1  0.69795865  0.53492129  0.52643355  1
  C  C74  1  0.83396732  0.30068607  0.52692605  1
  C  C75  1  0.55028895  0.70065990  0.97510890  1
  C  C76  1  0.16396234  0.46098561  0.97734308  1
  C  C77  1  0.30746953  0.84722457  0.97683835  1
  C  C78  1  0.54120858  0.83471986  0.47609072  1
  C  C79  1  0.28951253  0.45252998  0.47566039  1
  C  C80  1  0.16674493  0.70854398  0.47628952  1
  C  C81  1  0.11974072  0.62068040  0.35496848  1
  C  C82  1  0.50106043  0.87962264  0.35445239  1
  C  C83  1  0.37967680  0.49810136  0.35454006  1
  C  C84  1  0.13685591  0.49696130  0.85854829  1
  C  C85  1  0.35948582  0.86499735  0.86276686  1
  C  C86  1  0.50817900  0.64022463  0.86101437  1
  C  C87  1  0.01971517  0.83678694  0.40940601  1
  C  C88  1  0.81586879  0.97919450  0.40925738  1
  C  C89  1  0.16135974  0.18129909  0.40845048  1
  C  C90  1  0.02543873  0.18254256  0.91140560  1
  C  C91  1  0.17092587  0.97700009  0.91257235  1
  C  C92  1  0.81111625  0.83064930  0.90865243  1
  C  C93  1  0.97408752  0.15806187  0.58782287  1
  C  C94  1  0.19675482  0.02806020  0.58860461  1
  C  C95  1  0.84705411  0.81753308  0.58947353  1
  C  C96  1  0.97054118  0.80316081  0.08918644  1
  C  C97  1  0.83911279  0.02007838  0.08914903  1
  C  C98  1  0.18453580  0.15535023  0.08915282  1
  C  C99  1  0.69553404  0.16635902  0.74411951  1
  C  C100  1  0.49243855  0.31890552  0.74552531  1
  C  C101  1  0.84428011  0.52973831  0.74737083  1
  C  C102  1  0.69464846  0.52582834  0.24465855  1
  C  C103  1  0.83534048  0.31227461  0.24422772  1
  C  C104  1  0.47334052  0.16605226  0.24555562  1
  C  C105  1  0.63431795  0.50057792  0.92177409  1
  C  C106  1  0.85192765  0.36105872  0.92163354  1
  C  C107  1  0.49338856  0.13823966  0.92224003  1
  C  C108  1  0.64157170  0.14715031  0.42213617  1
  C  C109  1  0.50296632  0.35398861  0.42236225  1
  C  C110  1  0.85342367  0.49547612  0.42189209  1
  C  C111  1  0.35344197  0.50587335  0.07855387  1
  C  C112  1  0.13754308  0.64366998  0.07789466  1
  C  C113  1  0.49011163  0.84872074  0.07648414  1
  C  C114  1  0.35750760  0.86110262  0.57891190  1
  C  C115  1  0.49565196  0.64994350  0.57921968  1
  C  C116  1  0.14893772  0.50990345  0.57999909  1
  C  C117  1  0.30833722  0.83505467  0.25284509  1
  C  C118  1  0.52836957  0.69056713  0.25234863  1
  C  C119  1  0.16517569  0.47563465  0.25353015  1
  C  C120  1  0.31421753  0.48210337  0.75729971  1
  C  C121  1  0.16543454  0.69549685  0.75658611  1
  C  C122  1  0.52921641  0.83684140  0.75822993  1
