# generated using pymatgen
data_CuNiC19
_symmetry_space_group_name_H-M   'P 1'
_cell_length_a   8.88155600
_cell_length_b   8.88155571
_cell_length_c   21.91865742
_cell_angle_alpha   90.00000000
_cell_angle_beta   90.00000000
_cell_angle_gamma   120.00000107
_symmetry_Int_Tables_number   1
_chemical_formula_structural   CuNiC19
_chemical_formula_sum   'Cu6 Ni6 C114'
_cell_volume   1497.34776531
_cell_formula_units_Z   6
loop_
 _symmetry_equiv_pos_site_id
 _symmetry_equiv_pos_as_xyz
  1  'x, y, z'
loop_
 _atom_site_type_symbol
 _atom_site_label
 _atom_site_symmetry_multiplicity
 _atom_site_fract_x
 _atom_site_fract_y
 _atom_site_fract_z
 _atom_site_occupancy
  C  C0  1  0.63536281  0.00296188  0.24952945  1
  C  C1  1  0.36759906  0.36463719  0.24952945  1
  C  C2  1  0.99703812  0.63240094  0.24952945  1
  C  C3  1  0.63536281  0.63240094  0.74952945  1
  C  C4  1  0.99703812  0.36463719  0.74952945  1
  C  C5  1  0.36759906  0.00296188  0.74952945  1
  C  C6  1  0.30202981  0.33629488  0.58286245  1
  C  C7  1  0.03426606  0.69797019  0.58286245  1
  C  C8  1  0.66370512  0.96573394  0.58286245  1
  C  C9  1  0.30202981  0.96573394  0.08286245  1
  C  C10  1  0.66370512  0.69797019  0.08286245  1
  C  C11  1  0.03426606  0.33629488  0.08286245  1
  C  C12  1  0.96869581  0.66962888  0.91619645  1
  C  C13  1  0.70093206  0.03130419  0.91619645  1
  C  C14  1  0.33037112  0.29906794  0.91619645  1
  C  C15  1  0.96869581  0.29906794  0.41619645  1
  C  C16  1  0.33037112  0.03130419  0.41619645  1
  C  C17  1  0.70093206  0.66962888  0.41619645  1
  C  C18  1  -0.00000000  0.00000000  0.49902280  1
  C  C19  1  -0.00000000  0.00000000  0.99902280  1
  C  C20  1  0.66666700  0.33333300  0.83235580  1
  C  C21  1  0.66666700  0.33333300  0.33235580  1
  C  C22  1  0.33333300  0.66666700  0.16568980  1
  C  C23  1  0.33333300  0.66666700  0.66568980  1
  Ni  Ni24  1  -0.00000000  0.00000000  0.35054948  1
  Ni  Ni25  1  -0.00000000  0.00000000  0.85054948  1
  Ni  Ni26  1  0.66666700  0.33333300  0.68388248  1
  Ni  Ni27  1  0.66666700  0.33333300  0.18388248  1
  Ni  Ni28  1  0.33333300  0.66666700  0.01721648  1
  Ni  Ni29  1  0.33333300  0.66666700  0.51721648  1
  Cu  Cu30  1  -0.00000000  0.00000000  0.65183498  1
  Cu  Cu31  1  -0.00000000  0.00000000  0.15183498  1
  Cu  Cu32  1  0.66666700  0.33333300  0.98516798  1
  Cu  Cu33  1  0.66666700  0.33333300  0.48516798  1
  Cu  Cu34  1  0.33333300  0.66666700  0.31850198  1
  Cu  Cu35  1  0.33333300  0.66666700  0.81850198  1
  C  C36  1  0.29211504  0.99850795  0.25081994  1
  C  C37  1  0.70639291  0.70788496  0.25081994  1
  C  C38  1  0.00149205  0.29360709  0.25081994  1
  C  C39  1  0.29211504  0.29360709  0.75081994  1
  C  C40  1  0.00149205  0.70788496  0.75081994  1
  C  C41  1  0.70639291  0.99850795  0.75081994  1
  C  C42  1  0.95878204  0.33184095  0.58415294  1
  C  C43  1  0.37305991  0.04121796  0.58415294  1
  C  C44  1  0.66815905  0.62694009  0.58415294  1
  C  C45  1  0.95878204  0.62694009  0.08415294  1
  C  C46  1  0.66815905  0.04121796  0.08415294  1
  C  C47  1  0.37305991  0.33184095  0.08415294  1
  C  C48  1  0.62544804  0.66517495  0.91748694  1
  C  C49  1  0.03972591  0.37455196  0.91748694  1
  C  C50  1  0.33482505  0.96027409  0.91748694  1
  C  C51  1  0.62544804  0.96027409  0.41748694  1
  C  C52  1  0.33482505  0.37455196  0.41748694  1
  C  C53  1  0.03972591  0.66517495  0.41748694  1
  C  C54  1  0.21114397  0.03169168  0.30683038  1
  C  C55  1  0.82054771  0.78885603  0.30683038  1
  C  C56  1  0.96830832  0.17945229  0.30683038  1
  C  C57  1  0.21114397  0.17945229  0.80683038  1
  C  C58  1  0.96830832  0.78885603  0.80683038  1
  C  C59  1  0.82054771  0.03169168  0.80683038  1
  C  C60  1  0.78619265  0.96115494  0.69271785  1
  C  C61  1  0.17496230  0.21380735  0.69271785  1
  C  C62  1  0.03884506  0.82503770  0.69271785  1
  C  C63  1  0.78619265  0.82503770  0.19271785  1
  C  C64  1  0.03884506  0.21380735  0.19271785  1
  C  C65  1  0.17496230  0.96115494  0.19271785  1
  C  C66  1  0.87781097  0.36502468  0.64016338  1
  C  C67  1  0.48721471  0.12218903  0.64016338  1
  C  C68  1  0.63497532  0.51278529  0.64016338  1
  C  C69  1  0.87781097  0.51278529  0.14016338  1
  C  C70  1  0.63497532  0.12218903  0.14016338  1
  C  C71  1  0.48721471  0.36502468  0.14016338  1
  C  C72  1  0.45285965  0.29448794  0.02605085  1
  C  C73  1  0.84162930  0.54714035  0.02605085  1
  C  C74  1  0.70551206  0.15837070  0.02605085  1
  C  C75  1  0.45285965  0.15837070  0.52605085  1
  C  C76  1  0.70551206  0.54714035  0.52605085  1
  C  C77  1  0.84162930  0.29448794  0.52605085  1
  C  C78  1  0.54447697  0.69835868  0.97349738  1
  C  C79  1  0.15388071  0.45552303  0.97349738  1
  C  C80  1  0.30164132  0.84611929  0.97349738  1
  C  C81  1  0.54447697  0.84611929  0.47349738  1
  C  C82  1  0.30164132  0.45552303  0.47349738  1
  C  C83  1  0.15388071  0.69835868  0.47349738  1
  C  C84  1  0.11952565  0.62782194  0.35938485  1
  C  C85  1  0.50829530  0.88047435  0.35938485  1
  C  C86  1  0.37217806  0.49170470  0.35938485  1
  C  C87  1  0.11952565  0.49170470  0.85938485  1
  C  C88  1  0.37217806  0.88047435  0.85938485  1
  C  C89  1  0.50829530  0.62782194  0.85938485  1
  C  C90  1  0.01883328  0.82692555  0.41059636  1
  C  C91  1  0.80809227  0.98116672  0.41059636  1
  C  C92  1  0.17307445  0.19190773  0.41059636  1
  C  C93  1  0.01883328  0.19190773  0.91059636  1
  C  C94  1  0.17307445  0.98116672  0.91059636  1
  C  C95  1  0.80809227  0.82692555  0.91059636  1
  C  C96  1  0.97526589  0.16377714  0.58903693  1
  C  C97  1  0.18851125  0.02473411  0.58903693  1
  C  C98  1  0.83622286  0.81148875  0.58903693  1
  C  C99  1  0.97526589  0.81148875  0.08903693  1
  C  C100  1  0.83622286  0.02473411  0.08903693  1
  C  C101  1  0.18851125  0.16377714  0.08903693  1
  C  C102  1  0.68550028  0.16025855  0.74392936  1
  C  C103  1  0.47475927  0.31449972  0.74392936  1
  C  C104  1  0.83974145  0.52524073  0.74392936  1
  C  C105  1  0.68550028  0.52524073  0.24392936  1
  C  C106  1  0.83974145  0.31449972  0.24392936  1
  C  C107  1  0.47475927  0.16025855  0.24392936  1
  C  C108  1  0.64193289  0.49711014  0.92236993  1
  C  C109  1  0.85517825  0.35806711  0.92236993  1
  C  C110  1  0.50288986  0.14482175  0.92236993  1
  C  C111  1  0.64193289  0.14482175  0.42236993  1
  C  C112  1  0.50288986  0.35806711  0.42236993  1
  C  C113  1  0.85517825  0.49711014  0.42236993  1
  C  C114  1  0.35216628  0.49359255  0.07726336  1
  C  C115  1  0.14142527  0.64783372  0.07726336  1
  C  C116  1  0.50640745  0.85857473  0.07726336  1
  C  C117  1  0.35216628  0.85857473  0.57726336  1
  C  C118  1  0.50640745  0.64783372  0.57726336  1
  C  C119  1  0.14142527  0.49359255  0.57726336  1
  C  C120  1  0.30859889  0.83044414  0.25570393  1
  C  C121  1  0.52184425  0.69140111  0.25570393  1
  C  C122  1  0.16955586  0.47815575  0.25570393  1
  C  C123  1  0.30859889  0.47815575  0.75570393  1
  C  C124  1  0.16955586  0.69140111  0.75570393  1
  C  C125  1  0.52184425  0.83044414  0.75570393  1
