# generated using pymatgen
data_Cu4Ni2C9
_symmetry_space_group_name_H-M   'P 1'
_cell_length_a   6.19452800
_cell_length_b   5.92634679
_cell_length_c   6.06777112
_cell_angle_alpha   59.20740124
_cell_angle_beta   60.67461883
_cell_angle_gamma   66.70910680
_symmetry_Int_Tables_number   1
_chemical_formula_structural   Cu4Ni2C9
_chemical_formula_sum   'Cu4 Ni2 C9'
_cell_volume   163.68775915
_cell_formula_units_Z   1
loop_
 _symmetry_equiv_pos_site_id
 _symmetry_equiv_pos_as_xyz
  1  'x, y, z'
loop_
 _atom_site_type_symbol
 _atom_site_label
 _atom_site_symmetry_multiplicity
 _atom_site_fract_x
 _atom_site_fract_y
 _atom_site_fract_z
 _atom_site_occupancy
  C  C0  1  0.62500000  0.12500000  0.12500000  1
  Ni  Ni1  1  0.12500000  0.62500000  0.62500000  1
  Ni  Ni2  1  0.62500000  0.12500000  0.62500000  1
  Cu  Cu3  1  0.09186800  0.98026692  0.96393304  1
  Cu  Cu4  1  0.15813200  0.26973308  0.28606696  1
  Cu  Cu5  1  0.62500000  0.62500000  0.12500000  1
  Cu  Cu6  1  0.62500000  0.62500000  0.62500000  1
  C  C7  1  0.39859956  0.35877395  0.36731028  1
  C  C8  1  0.39859956  0.35877395  0.87531620  1
  C  C9  1  0.37516372  0.86994186  0.37744671  1
  C  C10  1  0.80588441  0.43994799  0.37708330  1
  C  C11  1  0.44411559  0.81005201  0.87291670  1
  C  C12  1  0.87483628  0.38005814  0.87255329  1
  C  C13  1  0.85140044  0.89122605  0.37468380  1
  C  C14  1  0.85140044  0.89122605  0.88268972  1
