# generated using pymatgen
data_Cu12Ni2C3
_symmetry_space_group_name_H-M   'P 1'
_cell_length_a   9.12225737
_cell_length_b   9.12462042
_cell_length_c   23.46797303
_cell_angle_alpha   89.87465525
_cell_angle_beta   90.00000000
_cell_angle_gamma   119.99143349
_symmetry_Int_Tables_number   1
_chemical_formula_structural   Cu12Ni2C3
_chemical_formula_sum   'Cu72 Ni12 C18'
_cell_volume   1691.84058008
_cell_formula_units_Z   6
loop_
 _symmetry_equiv_pos_site_id
 _symmetry_equiv_pos_as_xyz
  1  'x, y, z'
loop_
 _atom_site_type_symbol
 _atom_site_label
 _atom_site_symmetry_multiplicity
 _atom_site_fract_x
 _atom_site_fract_y
 _atom_site_fract_z
 _atom_site_occupancy
  C  C0  1  0.00162145  0.00149973  0.35852359  1
  C  C1  1  -0.00012173  0.00149973  0.85852359  1
  C  C2  1  0.67539415  0.33782224  0.69211134  1
  C  C3  1  0.66242909  0.33782224  0.19211134  1
  C  C4  1  0.32959052  0.65634672  0.02498225  1
  C  C5  1  0.32675520  0.65634672  0.52498225  1
  C  C6  1  0.99971834  0.99972323  0.64496819  1
  C  C7  1  0.00000489  0.99972323  0.14496819  1
  C  C8  1  0.66316702  0.33193068  0.97890328  1
  C  C9  1  0.66876466  0.33193068  0.47890328  1
  C  C10  1  0.34380970  0.66075896  0.31170063  1
  C  C11  1  0.31694826  0.66075896  0.81170063  1
  C  C12  1  0.71451736  0.72413768  0.25039290  1
  C  C13  1  0.00962032  0.72413768  0.75039290  1
  C  C14  1  0.94378145  0.31836616  0.58361078  1
  C  C15  1  0.37458571  0.31836616  0.08361078  1
  C  C16  1  0.03793953  0.38522895  0.91738566  1
  C  C17  1  0.34728843  0.38522895  0.41738566  1
  Ni  Ni18  1  0.27989990  0.98406662  0.25035825  1
  Ni  Ni19  1  0.01112171  0.29235613  0.24931909  1
  Ni  Ni20  1  0.28123442  0.29235613  0.74931909  1
  Ni  Ni21  1  0.70416672  0.98406662  0.75035825  1
  Ni  Ni22  1  0.37569382  0.05298748  0.58342096  1
  Ni  Ni23  1  0.67861420  0.62597455  0.58328722  1
  Ni  Ni24  1  0.94736136  0.62597455  0.08328722  1
  Ni  Ni25  1  0.67729466  0.05298748  0.08342096  1
  Ni  Ni26  1  0.61299955  0.65554529  0.91639174  1
  Ni  Ni27  1  0.34601151  0.95826849  0.91684361  1
  Ni  Ni28  1  0.61225598  0.95826849  0.41684361  1
  Ni  Ni29  1  0.04254474  0.65554529  0.41639174  1
  Cu  Cu30  1  0.20677979  0.01809367  0.30054779  1
  Cu  Cu31  1  0.82112557  0.80580314  0.30276192  1
  Cu  Cu32  1  0.98152878  0.18900051  0.30020525  1
  Cu  Cu33  1  0.20747173  0.18900051  0.80020525  1
  Cu  Cu34  1  0.98467757  0.80580314  0.80276192  1
  Cu  Cu35  1  0.81131388  0.01809367  0.80054779  1
  Cu  Cu36  1  0.78796576  0.95994057  0.69909255  1
  Cu  Cu37  1  0.17047752  0.21155548  0.69847223  1
  Cu  Cu38  1  0.03477781  0.83937086  0.69728615  1
  Cu  Cu39  1  0.80459306  0.83937086  0.19728615  1
  Cu  Cu40  1  0.04107796  0.21155548  0.19847223  1
  Cu  Cu41  1  0.17197482  0.95994057  0.19909255  1
  Cu  Cu42  1  0.86196011  0.34597369  0.63568140  1
  Cu  Cu43  1  0.47824404  0.12852446  0.63413526  1
  Cu  Cu44  1  0.64418410  0.51987923  0.63377234  1
  Cu  Cu45  1  0.87569613  0.51987923  0.13377234  1
  Cu  Cu46  1  0.65028142  0.12852446  0.13413526  1
  Cu  Cu47  1  0.48401458  0.34597369  0.13568140  1
  Cu  Cu48  1  0.46414689  0.29250272  0.03034977  1
  Cu  Cu49  1  0.83852237  0.54370678  0.03237176  1
  Cu  Cu50  1  0.70559463  0.16359404  0.03239754  1
  Cu  Cu51  1  0.45800041  0.16359404  0.53239754  1
  Cu  Cu52  1  0.70518540  0.54370678  0.53237176  1
  Cu  Cu53  1  0.82835683  0.29250272  0.53034977  1
  Cu  Cu54  1  0.53999695  0.68680880  0.96722708  1
  Cu  Cu55  1  0.15043708  0.46615796  0.96877072  1
  Cu  Cu56  1  0.31937252  0.85545966  0.96756132  1
  Cu  Cu57  1  0.53608614  0.85545966  0.46756132  1
  Cu  Cu58  1  0.31571989  0.46615796  0.46877072  1
  Cu  Cu59  1  0.14681085  0.68680880  0.46722708  1
  Cu  Cu60  1  0.12467935  0.62963988  0.36559374  1
  Cu  Cu61  1  0.50352278  0.87572898  0.36570455  1
  Cu  Cu62  1  0.37603202  0.50271228  0.36358164  1
  Cu  Cu63  1  0.12667926  0.50271228  0.86358164  1
  Cu  Cu64  1  0.37220520  0.87572898  0.86570455  1
  Cu  Cu65  1  0.50495953  0.62963988  0.86559374  1
  Cu  Cu66  1  0.01484444  0.79883764  0.40836108  1
  Cu  Cu67  1  0.78234404  0.98458722  0.40850585  1
  Cu  Cu68  1  0.19966575  0.21032625  0.40551705  1
  Cu  Cu69  1  0.01066050  0.21032625  0.90551705  1
  Cu  Cu70  1  0.20224318  0.98458722  0.90850585  1
  Cu  Cu71  1  0.78399320  0.79883764  0.90836108  1
  Cu  Cu72  1  0.95588720  0.15500880  0.59350112  1
  Cu  Cu73  1  0.20652324  0.04082577  0.59055416  1
  Cu  Cu74  1  0.83707004  0.79270785  0.59107004  1
  Cu  Cu75  1  0.95563781  0.79270785  0.09107004  1
  Cu  Cu76  1  0.83430253  0.04082577  0.09055416  1
  Cu  Cu77  1  0.19912160  0.15500880  0.09350112  1
  Cu  Cu78  1  0.67425872  0.12578250  0.74146874  1
  Cu  Cu79  1  0.44925294  0.31552628  0.73972941  1
  Cu  Cu80  1  0.86052399  0.54811484  0.74061774  1
  Cu  Cu81  1  0.68759184  0.54811484  0.24061774  1
  Cu  Cu82  1  0.86627434  0.31552628  0.23972941  1
  Cu  Cu83  1  0.45152478  0.12578250  0.24146874  1
  Cu  Cu84  1  0.62411042  0.49827015  0.92468547  1
  Cu  Cu85  1  0.86352405  0.37345087  0.92819701  1
  Cu  Cu86  1  0.50355592  0.12688812  0.92352206  1
  Cu  Cu87  1  0.62333320  0.12688812  0.42352206  1
  Cu  Cu88  1  0.50992783  0.37345087  0.42819701  1
  Cu  Cu89  1  0.87416073  0.49827015  0.42468547  1
  Cu  Cu90  1  0.34813850  0.46790572  0.07358420  1
  Cu  Cu91  1  0.11905586  0.65718134  0.07433363  1
  Cu  Cu92  1  0.53268398  0.88456592  0.07385284  1
  Cu  Cu93  1  0.35188094  0.88456592  0.57385284  1
  Cu  Cu94  1  0.53812448  0.65718134  0.57433363  1
  Cu  Cu95  1  0.11976621  0.46790572  0.57358420  1
  Cu  Cu96  1  0.28722314  0.82607605  0.25895271  1
  Cu  Cu97  1  0.53726932  0.71262732  0.25877174  1
  Cu  Cu98  1  0.16652659  0.46185173  0.25706265  1
  Cu  Cu99  1  0.29532414  0.46185173  0.75706265  1
  Cu  Cu100  1  0.17535700  0.71262732  0.75877174  1
  Cu  Cu101  1  0.53885190  0.82607605  0.75895271  1
