# generated using pymatgen
data_Cu(NiC)2
_symmetry_space_group_name_H-M   'P 1'
_cell_length_a   6.51049900
_cell_length_b   13.27109400
_cell_length_c   24.83441300
_cell_angle_alpha   90.00000000
_cell_angle_beta   90.00000000
_cell_angle_gamma   90.00000000
_symmetry_Int_Tables_number   1
_chemical_formula_structural   Cu(NiC)2
_chemical_formula_sum   'Cu16 Ni32 C32'
_cell_volume   2145.72914945
_cell_formula_units_Z   16
loop_
 _symmetry_equiv_pos_site_id
 _symmetry_equiv_pos_as_xyz
  1  'x, y, z'
loop_
 _atom_site_type_symbol
 _atom_site_label
 _atom_site_symmetry_multiplicity
 _atom_site_fract_x
 _atom_site_fract_y
 _atom_site_fract_z
 _atom_site_occupancy
  Ni  Ni0  1  0.61034600  0.85840700  0.40853800  1
  Ni  Ni1  1  0.61034600  0.64159300  0.59146200  1
  Ni  Ni2  1  0.88965400  0.35840700  0.09146200  1
  Ni  Ni3  1  0.88965400  0.14159300  0.90853800  1
  Ni  Ni4  1  0.38965400  0.14159300  0.59146200  1
  Ni  Ni5  1  0.38965400  0.35840700  0.40853800  1
  Ni  Ni6  1  0.11034600  0.64159300  0.90853800  1
  Ni  Ni7  1  0.11034600  0.85840700  0.09146200  1
  Ni  Ni8  1  0.40542400  0.77443200  0.39787700  1
  Ni  Ni9  1  0.40542400  0.72556800  0.60212300  1
  Ni  Ni10  1  0.09457600  0.27443200  0.10212300  1
  Ni  Ni11  1  0.09457600  0.22556800  0.89787700  1
  Ni  Ni12  1  0.59457600  0.22556800  0.60212300  1
  Ni  Ni13  1  0.59457600  0.27443200  0.39787700  1
  Ni  Ni14  1  0.90542400  0.72556800  0.89787700  1
  Ni  Ni15  1  0.90542400  0.77443200  0.10212300  1
  Ni  Ni16  1  0.61445000  0.78134700  0.35365700  1
  Ni  Ni17  1  0.61445000  0.71865300  0.64634300  1
  Ni  Ni18  1  0.88555000  0.28134700  0.14634300  1
  Ni  Ni19  1  0.88555000  0.21865300  0.85365700  1
  Ni  Ni20  1  0.38555000  0.21865300  0.64634300  1
  Ni  Ni21  1  0.38555000  0.28134700  0.35365700  1
  Ni  Ni22  1  0.11445000  0.71865300  0.85365700  1
  Ni  Ni23  1  0.11445000  0.78134700  0.14634300  1
  Ni  Ni24  1  0.58254900  0.91106700  0.34403700  1
  Ni  Ni25  1  0.58254900  0.58893300  0.65596300  1
  Ni  Ni26  1  0.91745100  0.41106700  0.15596300  1
  Ni  Ni27  1  0.91745100  0.08893300  0.84403700  1
  Ni  Ni28  1  0.41745100  0.08893300  0.65596300  1
  Ni  Ni29  1  0.41745100  0.41106700  0.34403700  1
  Ni  Ni30  1  0.08254900  0.58893300  0.84403700  1
  Ni  Ni31  1  0.08254900  0.91106700  0.15596300  1
  Cu  Cu32  1  0.34238500  0.82311100  0.32216400  1
  Cu  Cu33  1  0.34238500  0.67688900  0.67783600  1
  Cu  Cu34  1  0.15761500  0.32311100  0.17783600  1
  Cu  Cu35  1  0.15761500  0.17688900  0.82216400  1
  Cu  Cu36  1  0.65761500  0.17688900  0.67783600  1
  Cu  Cu37  1  0.65761500  0.32311100  0.32216400  1
  Cu  Cu38  1  0.84238500  0.67688900  0.82216400  1
  Cu  Cu39  1  0.84238500  0.82311100  0.17783600  1
  Cu  Cu40  1  0.33727200  0.92406600  0.39398400  1
  Cu  Cu41  1  0.33727200  0.57593400  0.60601600  1
  Cu  Cu42  1  0.16272800  0.42406600  0.10601600  1
  Cu  Cu43  1  0.16272800  0.07593400  0.89398400  1
  Cu  Cu44  1  0.66272800  0.07593400  0.60601600  1
  Cu  Cu45  1  0.66272800  0.42406600  0.39398400  1
  Cu  Cu46  1  0.83727200  0.57593400  0.89398400  1
  Cu  Cu47  1  0.83727200  0.92406600  0.10601600  1
  C  C48  1  0.77789200  0.88151000  0.46228600  1
  C  C49  1  0.77789200  0.61849000  0.53771400  1
  C  C50  1  0.72210800  0.38151000  0.03771400  1
  C  C51  1  0.72210800  0.11849000  0.96228600  1
  C  C52  1  0.22210800  0.11849000  0.53771400  1
  C  C53  1  0.22210800  0.38151000  0.46228600  1
  C  C54  1  0.27789200  0.61849000  0.96228600  1
  C  C55  1  0.27789200  0.88151000  0.03771400  1
  C  C56  1  0.28656300  0.67800900  0.43446200  1
  C  C57  1  0.28656300  0.82199100  0.56553800  1
  C  C58  1  0.21343700  0.17800900  0.06553800  1
  C  C59  1  0.21343700  0.32199100  0.93446200  1
  C  C60  1  0.71343700  0.32199100  0.56553800  1
  C  C61  1  0.71343700  0.17800900  0.43446200  1
  C  C62  1  0.78656300  0.82199100  0.93446200  1
  C  C63  1  0.78656300  0.67800900  0.06553800  1
  C  C64  1  0.78882000  0.69268500  0.32796400  1
  C  C65  1  0.78882000  0.80731500  0.67203600  1
  C  C66  1  0.71118000  0.19268500  0.17203600  1
  C  C67  1  0.71118000  0.30731500  0.82796400  1
  C  C68  1  0.21118000  0.30731500  0.67203600  1
  C  C69  1  0.21118000  0.19268500  0.32796400  1
  C  C70  1  0.28882000  0.80731500  0.82796400  1
  C  C71  1  0.28882000  0.69268500  0.17203600  1
  C  C72  1  0.71350300  0.00277100  0.30644500  1
  C  C73  1  0.71350300  0.49722900  0.69355500  1
  C  C74  1  0.78649700  0.50277100  0.19355500  1
  C  C75  1  0.78649700  0.99722900  0.80644500  1
  C  C76  1  0.28649700  0.99722900  0.69355500  1
  C  C77  1  0.28649700  0.50277100  0.30644500  1
  C  C78  1  0.21350300  0.49722900  0.80644500  1
  C  C79  1  0.21350300  0.00277100  0.19355500  1
