# generated using pymatgen
data_Cu2NiC14
_symmetry_space_group_name_H-M   'P 1'
_cell_length_a   3.62169970
_cell_length_b   5.43675405
_cell_length_c   11.95073193
_cell_angle_alpha   87.82123382
_cell_angle_beta   89.67653865
_cell_angle_gamma   98.20742261
_symmetry_Int_Tables_number   1
_chemical_formula_structural   Cu2NiC14
_chemical_formula_sum   'Cu2 Ni1 C14'
_cell_volume   232.72028669
_cell_formula_units_Z   1
loop_
 _symmetry_equiv_pos_site_id
 _symmetry_equiv_pos_as_xyz
  1  'x, y, z'
loop_
 _atom_site_type_symbol
 _atom_site_label
 _atom_site_symmetry_multiplicity
 _atom_site_fract_x
 _atom_site_fract_y
 _atom_site_fract_z
 _atom_site_occupancy
  Ni  Ni0  1  0.27255488  0.04754950  0.24916132  1
  C  C1  1  0.23302479  0.41640466  0.07491325  1
  C  C2  1  0.78627072  0.63919752  0.89074739  1
  C  C3  1  0.75834812  0.60028686  0.60393430  1
  C  C4  1  0.21877627  0.37650929  0.42749438  1
  Cu  Cu5  1  0.71638591  0.68964995  0.25584616  1
  Cu  Cu6  1  0.15871328  0.23556668  0.75904087  1
  C  C7  1  0.70527049  0.42206266  0.75693509  1
  C  C8  1  0.23696370  0.42774605  0.25083546  1
  C  C9  1  0.76186415  0.55749450  0.05748893  1
  C  C10  1  0.25280146  0.50923341  0.91359268  1
  C  C11  1  0.74765638  0.52084684  0.43792680  1
  C  C12  1  0.22701956  0.45268766  0.58945204  1
  C  C13  1  0.21376917  0.07077922  0.41815606  1
  C  C14  1  0.82845833  0.89992804  0.62768075  1
  C  C15  1  0.91659758  0.94333848  0.85544074  1
  C  C16  1  0.21551719  0.10738669  0.08135079  1
