# generated using pymatgen
data_Cu12Ni5C61
_symmetry_space_group_name_H-M   'P 1'
_cell_length_a   17.78112019
_cell_length_b   8.89972919
_cell_length_c   22.30206828
_cell_angle_alpha   89.99190357
_cell_angle_beta   89.95963010
_cell_angle_gamma   120.03658939
_symmetry_Int_Tables_number   1
_chemical_formula_structural   Cu12Ni5C61
_chemical_formula_sum   'Cu36 Ni15 C183'
_cell_volume   3055.28171747
_cell_formula_units_Z   3
loop_
 _symmetry_equiv_pos_site_id
 _symmetry_equiv_pos_as_xyz
  1  'x, y, z'
loop_
 _atom_site_type_symbol
 _atom_site_label
 _atom_site_symmetry_multiplicity
 _atom_site_fract_x
 _atom_site_fract_y
 _atom_site_fract_z
 _atom_site_occupancy
  C  C0  1  0.32139447  0.00968038  0.24931588  1
  C  C1  1  0.68475383  0.35740793  0.24912834  1
  C  C2  1  0.31839248  0.62621293  0.74980092  1
  C  C3  1  0.81834359  0.62591203  0.74956228  1
  C  C4  1  0.15400497  0.34590161  0.57827485  1
  C  C5  1  0.65418903  0.34613080  0.57769685  1
  C  C6  1  0.01803344  0.69209806  0.57872380  1
  C  C7  1  0.51868332  0.69256774  0.57899388  1
  C  C8  1  0.32700669  0.96214334  0.57856790  1
  C  C9  1  0.82747372  0.96433529  0.57847889  1
  C  C10  1  0.15401810  0.96246004  0.07834422  1
  C  C11  1  0.65436767  0.96398318  0.07965924  1
  C  C12  1  0.32733219  0.69096332  0.07967297  1
  C  C13  1  0.82728502  0.69169511  0.07850560  1
  C  C14  1  0.01780905  0.34528104  0.07888679  1
  C  C15  1  0.51819316  0.34463163  0.07984708  1
  C  C16  1  0.66153819  0.02863447  0.40982575  1
  C  C17  1  0.35193489  0.67575661  0.40914723  1
  C  C18  1  0.00024163  0.99833220  0.49348204  1
  C  C19  1  0.49922322  0.01758761  0.48846264  1
  C  C20  1  0.00009376  0.00018354  0.99480813  1
  C  C21  1  0.50009245  0.99959253  0.99537908  1
  C  C22  1  0.33390223  0.31747299  0.83063532  1
  C  C23  1  0.83391350  0.31762663  0.83059706  1
  C  C24  1  0.33507603  0.33817987  0.32510631  1
  C  C25  1  0.84645893  0.34360845  0.32569993  1
  C  C26  1  0.16111460  0.65103006  0.16658187  1
  C  C27  1  0.66519056  0.68050135  0.16633591  1
  C  C28  1  0.16016290  0.66789984  0.66732756  1
  C  C29  1  0.66047890  0.66772117  0.66741717  1
  C  C30  1  0.49917976  0.00561785  0.35084199  1
  C  C31  1  0.33365934  0.32715365  0.68790745  1
  C  C32  1  0.83372138  0.32716733  0.68774846  1
  C  C33  1  0.33391440  0.34174033  0.18677784  1
  C  C34  1  0.83577903  0.33009586  0.18712922  1
  C  C35  1  0.16665153  0.66697904  0.01475347  1
  C  C36  1  0.66650460  0.66651915  0.01474332  1
  C  C37  1  0.16439775  0.66493591  0.51505593  1
  C  C38  1  0.66805441  0.66567853  0.51521106  1
  Ni  Ni39  1  0.00038983  0.99918168  0.35178190  1
  Ni  Ni40  1  0.00152523  0.00298775  0.85385890  1
  Ni  Ni41  1  0.50151651  0.00310447  0.85383355  1
  Ni  Ni42  1  0.00158149  0.00372859  0.65271563  1
  Ni  Ni43  1  0.50177989  0.00272504  0.65189847  1
  Ni  Ni44  1  0.99976000  0.99955363  0.15241726  1
  Ni  Ni45  1  0.50031862  0.99771080  0.15323116  1
  Ni  Ni46  1  0.33319384  0.33422402  0.98056031  1
  Ni  Ni47  1  0.83347712  0.33436966  0.98062657  1
  Ni  Ni48  1  0.33252290  0.32510241  0.48139363  1
  Ni  Ni49  1  0.83603128  0.33970586  0.48100795  1
  Ni  Ni50  1  0.16379235  0.66146502  0.31675495  1
  Ni  Ni51  1  0.66528435  0.66717584  0.31760999  1
  Ni  Ni52  1  0.16443172  0.66736381  0.81899534  1
  Ni  Ni53  1  0.66441488  0.66720789  0.81905969  1
  Cu  Cu54  1  0.14862567  0.99836570  0.25044247  1
  Cu  Cu55  1  0.64888051  0.99709997  0.25245465  1
  Cu  Cu56  1  0.35038385  0.70273988  0.25397038  1
  Cu  Cu57  1  0.85047060  0.70226087  0.25079826  1
  Cu  Cu58  1  0.00052221  0.29650088  0.25087289  1
  Cu  Cu59  1  0.50114499  0.29800997  0.25057429  1
  Cu  Cu60  1  0.14878444  0.30003662  0.75078006  1
  Cu  Cu61  1  0.64868958  0.29966273  0.75069901  1
  Cu  Cu62  1  0.00158041  0.70499357  0.75000548  1
  Cu  Cu63  1  0.50157114  0.70509848  0.74992582  1
  Cu  Cu64  1  0.35115522  0.99771116  0.75139186  1
  Cu  Cu65  1  0.85092908  0.99763914  0.75157361  1
  Cu  Cu66  1  0.47941408  0.33180497  0.58578278  1
  Cu  Cu67  1  0.97909856  0.33232118  0.58527556  1
  Cu  Cu68  1  0.18617314  0.04133033  0.58558681  1
  Cu  Cu69  1  0.68678624  0.04220283  0.58398483  1
  Cu  Cu70  1  0.33438944  0.62812751  0.58551696  1
  Cu  Cu71  1  0.83479675  0.62981730  0.58743942  1
  Cu  Cu72  1  0.47906763  0.62623765  0.08472172  1
  Cu  Cu73  1  0.97876906  0.62631945  0.08527711  1
  Cu  Cu74  1  0.33423442  0.04062602  0.08664330  1
  Cu  Cu75  1  0.83417708  0.04187245  0.08465186  1
  Cu  Cu76  1  0.18632522  0.33081579  0.08468557  1
  Cu  Cu77  1  0.68626471  0.33118769  0.08672122  1
  Cu  Cu78  1  0.31508795  0.66519061  0.91751752  1
  Cu  Cu79  1  0.81505353  0.66503744  0.91756512  1
  Cu  Cu80  1  0.01733647  0.37015949  0.91915511  1
  Cu  Cu81  1  0.51743973  0.37015984  0.91925372  1
  Cu  Cu82  1  0.16767226  0.96511485  0.91906828  1
  Cu  Cu83  1  0.66762678  0.96520787  0.91908099  1
  Cu  Cu84  1  0.31342076  0.96239379  0.41790781  1
  Cu  Cu85  1  0.81546553  0.96437088  0.41981064  1
  Cu  Cu86  1  0.16650290  0.36947909  0.42003743  1
  Cu  Cu87  1  0.66758651  0.37037382  0.41857831  1
  Cu  Cu88  1  0.01802364  0.66711768  0.41870602  1
  Cu  Cu89  1  0.51767422  0.66383574  0.42000713  1
  C  C90  1  0.10241796  0.02186525  0.30464812  1
  C  C91  1  0.60190049  0.01591718  0.30640310  1
  C  C92  1  0.40299468  0.79499620  0.30868518  1
  C  C93  1  0.90870252  0.79589122  0.30488478  1
  C  C94  1  0.48937650  0.17723467  0.30140270  1
  C  C95  1  0.99005279  0.18084828  0.30531300  1
  C  C96  1  0.10118666  0.18141466  0.80374320  1
  C  C97  1  0.60112794  0.18146549  0.80378620  1
  C  C98  1  0.48665430  0.80099695  0.80203572  1
  C  C99  1  0.98669562  0.80093873  0.80215105  1
  C  C100  1  0.41000894  0.01939111  0.80471654  1
  C  C101  1  0.91000529  0.01984865  0.80478651  1
  C  C102  1  0.38853357  0.95658106  0.69231514  1
  C  C103  1  0.88824946  0.95680248  0.69252115  1
  C  C104  1  0.09518467  0.22676657  0.69086898  1
  C  C105  1  0.59500185  0.22610768  0.69082451  1
  C  C106  1  0.01819203  0.81293808  0.69005420  1
  C  C107  1  0.51833816  0.81278042  0.68978772  1
  C  C108  1  0.38863029  0.81918840  0.19446025  1
  C  C109  1  0.88871247  0.81097577  0.19161610  1
  C  C110  1  0.01610741  0.22040608  0.19116738  1
  C  C111  1  0.52153562  0.22731989  0.18994009  1
  C  C112  1  0.09430382  0.96747274  0.19148050  1
  C  C113  1  0.59470855  0.96541426  0.19201083  1
  C  C114  1  0.43616357  0.36187851  0.63890713  1
  C  C115  1  0.93604983  0.36220554  0.63862779  1
  C  C116  1  0.24426693  0.12866744  0.63876457  1
  C  C117  1  0.74584011  0.13413149  0.63623635  1
  C  C118  1  0.32215026  0.51789351  0.64059076  1
  C  C119  1  0.82167520  0.52182956  0.64326779  1
  C  C120  1  0.43596030  0.51027504  0.13785818  1
  C  C121  1  0.93545953  0.51121586  0.13847326  1
  C  C122  1  0.32089429  0.12120705  0.14266534  1
  C  C123  1  0.81913688  0.12698124  0.13791988  1
  C  C124  1  0.24376288  0.35893750  0.13799091  1
  C  C125  1  0.73983820  0.35784636  0.14263469  1
  C  C126  1  0.22279455  0.28677197  0.02710253  1
  C  C127  1  0.72607835  0.28917000  0.03070866  1
  C  C128  1  0.42033044  0.55512662  0.02716510  1
  C  C129  1  0.92016340  0.55498717  0.02761763  1
  C  C130  1  0.35507032  0.16230586  0.03068496  1
  C  C131  1  0.85637175  0.15910677  0.02708488  1
  C  C132  1  0.22182006  0.15801950  0.52786330  1
  C  C133  1  0.72237935  0.15283100  0.52456542  1
  C  C134  1  0.35267003  0.54896397  0.52778991  1
  C  C135  1  0.85582965  0.55076152  0.53123277  1
  C  C136  1  0.42071831  0.28456586  0.52810002  1
  C  C137  1  0.92045638  0.28683614  0.52770642  1
  C  C138  1  0.27189407  0.68402642  0.97308919  1
  C  C139  1  0.77186586  0.68380479  0.97312421  1
  C  C140  1  0.06757740  0.45117779  0.97595781  1
  C  C141  1  0.56768589  0.45118286  0.97602984  1
  C  C142  1  0.15774366  0.86459253  0.97591177  1
  C  C143  1  0.65773422  0.86462667  0.97586427  1
  C  C144  1  0.26921332  0.85382244  0.47370511  1
  C  C145  1  0.77660501  0.86535380  0.47760057  1
  C  C146  1  0.15547125  0.44771283  0.47751904  1
  C  C147  1  0.66067574  0.45731614  0.47535656  1
  C  C148  1  0.06649309  0.68708427  0.47678321  1
  C  C149  1  0.57050608  0.68574563  0.47648677  1
  C  C150  1  0.06141640  0.64231335  0.36262894  1
  C  C151  1  0.55936997  0.63259294  0.36367709  1
  C  C152  1  0.25875143  0.87774230  0.35983644  1
  C  C153  1  0.75544592  0.87864491  0.36475970  1
  C  C154  1  0.18346294  0.48812495  0.36466508  1
  C  C155  1  0.68074035  0.47934052  0.36032072  1
  C  C156  1  0.05998059  0.47935990  0.86178413  1
  C  C157  1  0.55972515  0.47964489  0.86186845  1
  C  C158  1  0.18003144  0.88044814  0.86174960  1
  C  C159  1  0.68013516  0.88074431  0.86170263  1
  C  C160  1  0.26291701  0.64382397  0.85840909  1
  C  C161  1  0.76284855  0.64328935  0.85846550  1
  C  C162  1  0.00891147  0.83221811  0.41191886  1
  C  C163  1  0.50752987  0.82529414  0.41296773  1
  C  C164  1  0.40262462  0.97718863  0.41178870  1
  C  C165  1  0.90705537  0.98567438  0.41163767  1
  C  C166  1  0.08607546  0.18603418  0.41195074  1
  C  C167  1  0.58928394  0.18690631  0.41240643  1
  C  C168  1  0.00869165  0.18673615  0.91293093  1
  C  C169  1  0.50861168  0.18665989  0.91303259  1
  C  C170  1  0.08446053  0.98216114  0.91261468  1
  C  C171  1  0.58434866  0.98211737  0.91257697  1
  C  C172  1  0.40721053  0.83110482  0.91229453  1
  C  C173  1  0.90726548  0.83068887  0.91230612  1
  C  C174  1  0.48816194  0.16348624  0.59039068  1
  C  C175  1  0.98795207  0.16398197  0.59005539  1
  C  C176  1  0.09317231  0.02422615  0.58971898  1
  C  C177  1  0.59422209  0.02719623  0.58830660  1
  C  C178  1  0.41924072  0.81418660  0.58846856  1
  C  C179  1  0.91899541  0.81603373  0.58988684  1
  C  C180  1  0.48757194  0.81227878  0.08991873  1
  C  C181  1  0.98805468  0.81329744  0.08970966  1
  C  C182  1  0.41866965  0.02269086  0.08984863  1
  C  C183  1  0.91874476  0.02428507  0.08920880  1
  C  C184  1  0.09293881  0.16206791  0.08894671  1
  C  C185  1  0.59313646  0.16147338  0.08937576  1
  C  C186  1  0.34046857  0.15447460  0.74621197  1
  C  C187  1  0.84017514  0.15433117  0.74600493  1
  C  C188  1  0.23969690  0.32540413  0.74655444  1
  C  C189  1  0.73956925  0.32466353  0.74672816  1
  C  C190  1  0.41951148  0.52872381  0.74556936  1
  C  C191  1  0.91965643  0.52837640  0.74576039  1
  C  C192  1  0.33832693  0.52270140  0.24654272  1
  C  C193  1  0.83801463  0.52107712  0.24660507  1
  C  C194  1  0.42090215  0.31628302  0.24367046  1
  C  C195  1  0.92118163  0.31565923  0.24726185  1
  C  C196  1  0.23998367  0.15397460  0.24644854  1
  C  C197  1  0.73721792  0.16171577  0.24610118  1
  C  C198  1  0.32471414  0.50057054  0.91895817  1
  C  C199  1  0.82458714  0.50032867  0.91918615  1
  C  C200  1  0.42494545  0.34844783  0.92027840  1
  C  C201  1  0.92504297  0.34924162  0.91992465  1
  C  C202  1  0.24968672  0.14922493  0.92003623  1
  C  C203  1  0.74925878  0.14988441  0.92018992  1
  C  C204  1  0.32183321  0.14617936  0.41970696  1
  C  C205  1  0.82164704  0.14644308  0.42122320  1
  C  C206  1  0.25213137  0.35957212  0.42170418  1
  C  C207  1  0.75108057  0.34934474  0.41957502  1
  C  C208  1  0.42341378  0.50196047  0.42220720  1
  C  C209  1  0.92565150  0.50183140  0.41935403  1
  C  C210  1  0.17310683  0.48798124  0.07672910  1
  C  C211  1  0.67357894  0.48828121  0.07727569  1
  C  C212  1  0.07074111  0.65333903  0.07709738  1
  C  C213  1  0.57111931  0.65451004  0.07651673  1
  C  C214  1  0.25583820  0.85753145  0.07746554  1
  C  C215  1  0.75603157  0.85746921  0.07662347  1
  C  C216  1  0.17265500  0.85784846  0.57771157  1
  C  C217  1  0.67279288  0.85793355  0.57747173  1
  C  C218  1  0.25567247  0.65420606  0.57784919  1
  C  C219  1  0.75581195  0.65422583  0.57878287  1
  C  C220  1  0.07088490  0.48888579  0.57714679  1
  C  C221  1  0.57130906  0.48790334  0.57754595  1
  C  C222  1  0.15665695  0.83183924  0.25501269  1
  C  C223  1  0.65817761  0.83189287  0.25573582  1
  C  C224  1  0.25935864  0.69529186  0.25527697  1
  C  C225  1  0.75876443  0.68458995  0.25605817  1
  C  C226  1  0.08532896  0.47586750  0.25585473  1
  C  C227  1  0.58673204  0.47834719  0.25544423  1
  C  C228  1  0.15754330  0.48325481  0.75617083  1
  C  C229  1  0.65758102  0.48309955  0.75623712  1
  C  C230  1  0.08458704  0.69218610  0.75639416  1
  C  C231  1  0.58449006  0.69205439  0.75637149  1
  C  C232  1  0.26196558  0.82480972  0.75663360  1
  C  C233  1  0.76182293  0.82473717  0.75675926  1
