# generated using pymatgen
data_Cu(NiC9)2
_symmetry_space_group_name_H-M   'P 1'
_cell_length_a   9.48053720
_cell_length_b   9.48053685
_cell_length_c   21.80287588
_cell_angle_alpha   91.80721254
_cell_angle_beta   88.19278747
_cell_angle_gamma   120.62281848
_symmetry_Int_Tables_number   1
_chemical_formula_structural   Cu(NiC9)2
_chemical_formula_sum   'Cu6 Ni12 C108'
_cell_volume   1685.24862390
_cell_formula_units_Z   6
loop_
 _symmetry_equiv_pos_site_id
 _symmetry_equiv_pos_as_xyz
  1  'x, y, z'
loop_
 _atom_site_type_symbol
 _atom_site_label
 _atom_site_symmetry_multiplicity
 _atom_site_fract_x
 _atom_site_fract_y
 _atom_site_fract_z
 _atom_site_occupancy
  C  C0  1  0.64143779  0.00580759  0.24920971  1
  C  C1  1  0.35904362  0.36467727  0.24577118  1
  C  C2  1  0.99810936  0.63051989  0.24937080  1
  C  C3  1  0.63532273  0.64095638  0.74577118  1
  C  C4  1  0.99419241  0.35856221  0.74920971  1
  C  C5  1  0.36948011  0.00189064  0.74937080  1
  C  C6  1  0.30810479  0.33914059  0.58254271  1
  C  C7  1  0.02571062  0.69801027  0.57910418  1
  C  C8  1  0.66477636  0.96385289  0.58270380  1
  C  C9  1  0.30198973  0.97428938  0.07910418  1
  C  C10  1  0.66085941  0.69189521  0.08254271  1
  C  C11  1  0.03614711  0.33522364  0.08270380  1
  C  C12  1  0.97477079  0.67247459  0.91587671  1
  C  C13  1  0.69237662  0.03134427  0.91243818  1
  C  C14  1  0.33144236  0.29718689  0.91603780  1
  C  C15  1  0.96865573  0.30762338  0.41243818  1
  C  C16  1  0.32752541  0.02522921  0.41587671  1
  C  C17  1  0.70281311  0.66855764  0.41603780  1
  C  C18  1  0.99434452  0.99111128  0.50151882  1
  C  C19  1  0.00888872  0.00565548  0.00151882  1
  C  C20  1  0.66101152  0.32444428  0.83485182  1
  C  C21  1  0.67555572  0.33898848  0.33485182  1
  C  C22  1  0.32767752  0.65777828  0.16818582  1
  C  C23  1  0.34222172  0.67232248  0.66818582  1
  C  C24  1  0.99524516  0.99777685  0.34266991  1
  C  C25  1  0.00222315  0.00475484  0.84266991  1
  C  C26  1  0.66191216  0.33110985  0.67600291  1
  C  C27  1  0.66889015  0.33808784  0.17600291  1
  C  C28  1  0.32857816  0.66444385  0.00933691  1
  C  C29  1  0.33555615  0.67142184  0.50933691  1
  Ni  Ni30  1  0.68516729  0.70915086  0.25207202  1
  Ni  Ni31  1  0.01871891  0.31156720  0.25149202  1
  Ni  Ni32  1  0.29084914  0.31483271  0.75207202  1
  Ni  Ni33  1  0.68843280  0.98128109  0.75149202  1
  Ni  Ni34  1  0.35183429  0.04248386  0.58540502  1
  Ni  Ni35  1  0.68538591  0.64490020  0.58482502  1
  Ni  Ni36  1  0.95751614  0.64816571  0.08540502  1
  Ni  Ni37  1  0.35509980  0.31461409  0.08482502  1
  Ni  Ni38  1  0.01850029  0.37581786  0.91873902  1
  Ni  Ni39  1  0.35205191  0.97823420  0.91815902  1
  Ni  Ni40  1  0.62418214  0.98149971  0.41873902  1
  Ni  Ni41  1  0.02176580  0.64794809  0.41815902  1
  C  C42  1  0.99837693  0.99783060  0.64906499  1
  C  C43  1  0.00216940  0.00162307  0.14906499  1
  C  C44  1  0.66504393  0.33116360  0.98239799  1
  C  C45  1  0.66883640  0.33495607  0.48239799  1
  C  C46  1  0.33170993  0.66449760  0.31573199  1
  C  C47  1  0.33550240  0.66829007  0.81573199  1
  Cu  Cu48  1  0.29148559  0.97512632  0.24738596  1
  Cu  Cu49  1  0.02487368  0.70851441  0.74738596  1
  Cu  Cu50  1  0.95815259  0.30845932  0.58071896  1
  Cu  Cu51  1  0.69154068  0.04184741  0.08071896  1
  Cu  Cu52  1  0.62481859  0.64179332  0.91405296  1
  Cu  Cu53  1  0.35820668  0.37518141  0.41405296  1
  C  C54  1  0.23388258  0.00329452  0.31013557  1
  C  C55  1  0.77494011  0.76105169  0.31672512  1
  C  C56  1  0.99092867  0.22207119  0.31499820  1
  C  C57  1  0.23894831  0.22505989  0.81672512  1
  C  C58  1  0.99670548  0.76611742  0.81013557  1
  C  C59  1  0.77792881  0.00907133  0.81499820  1
  C  C60  1  0.80330728  0.95909931  0.69299329  1
  C  C61  1  0.15108942  0.19819558  0.69664346  1
  C  C62  1  0.03273587  0.82478968  0.69454454  1
  C  C63  1  0.80180442  0.84891058  0.19664346  1
  C  C64  1  0.04090069  0.19669272  0.19299329  1
  C  C65  1  0.17521032  0.96726413  0.19454454  1
  C  C66  1  0.90054958  0.33662752  0.64346857  1
  C  C67  1  0.44160711  0.09438469  0.65005812  1
  C  C68  1  0.65759567  0.55540419  0.64833120  1
  C  C69  1  0.90561531  0.55839289  0.15005812  1
  C  C70  1  0.66337248  0.09945042  0.14346857  1
  C  C71  1  0.44459581  0.34240433  0.14833120  1
  C  C72  1  0.46997428  0.29243231  0.02632629  1
  C  C73  1  0.81775642  0.53152858  0.02997646  1
  C  C74  1  0.69940287  0.15812268  0.02787754  1
  C  C75  1  0.46847142  0.18224358  0.52997646  1
  C  C76  1  0.70756769  0.53002572  0.52632629  1
  C  C77  1  0.84187732  0.30059713  0.52787754  1
  C  C78  1  0.56721558  0.66996152  0.97680257  1
  C  C79  1  0.10827311  0.42771869  0.98339212  1
  C  C80  1  0.32426167  0.88873819  0.98166520  1
  C  C81  1  0.57228131  0.89172689  0.48339212  1
  C  C82  1  0.33003848  0.43278442  0.47680257  1
  C  C83  1  0.11126181  0.67573833  0.48166520  1
  C  C84  1  0.13664028  0.62576631  0.35966029  1
  C  C85  1  0.48442242  0.86486258  0.36331046  1
  C  C86  1  0.36606887  0.49145668  0.36121154  1
  C  C87  1  0.13513742  0.51557758  0.86331046  1
  C  C88  1  0.37423369  0.86335972  0.85966029  1
  C  C89  1  0.50854332  0.63393113  0.86121154  1
  C  C90  1  0.99176688  0.80070186  0.41157323  1
  C  C91  1  0.81053354  0.02205186  0.40888687  1
  C  C92  1  0.21904580  0.19705076  0.40634109  1
  C  C93  1  0.97794814  0.18946646  0.90888687  1
  C  C94  1  0.19929814  0.00823312  0.91157323  1
  C  C95  1  0.80294924  0.78095420  0.90634109  1
  C  C96  1  0.94966726  0.13801540  0.58012620  1
  C  C97  1  0.17540922  0.04839624  0.59053223  1
  C  C98  1  0.86704286  0.82399271  0.58794478  1
  C  C99  1  0.95160376  0.82459078  0.09053223  1
  C  C100  1  0.86198460  0.05033274  0.08012620  1
  C  C101  1  0.17600729  0.13295714  0.08794478  1
  C  C102  1  0.65843388  0.13403486  0.74490623  1
  C  C103  1  0.47720054  0.35538486  0.74221987  1
  C  C104  1  0.88571280  0.53038376  0.73967409  1
  C  C105  1  0.64461514  0.52279946  0.24221987  1
  C  C106  1  0.86596514  0.34156612  0.24490623  1
  C  C107  1  0.46961624  0.11428720  0.23967409  1
  C  C108  1  0.61633426  0.47134840  0.91345920  1
  C  C109  1  0.84207622  0.38172924  0.92386523  1
  C  C110  1  0.53370986  0.15732571  0.92127778  1
  C  C111  1  0.61827076  0.15792378  0.42386523  1
  C  C112  1  0.52865160  0.38366574  0.41345920  1
  C  C113  1  0.84267429  0.46629014  0.42127778  1
  C  C114  1  0.32509988  0.46736886  0.07824023  1
  C  C115  1  0.14386654  0.68871886  0.07555387  1
  C  C116  1  0.55237880  0.86371776  0.07300809  1
  C  C117  1  0.31128114  0.85613346  0.57555387  1
  C  C118  1  0.53263114  0.67490012  0.57824023  1
  C  C119  1  0.13628224  0.44762120  0.57300809  1
  C  C120  1  0.28300026  0.80468240  0.24679320  1
  C  C121  1  0.50874222  0.71506324  0.25719923  1
  C  C122  1  0.20037586  0.49065971  0.25461178  1
  C  C123  1  0.28493676  0.49125778  0.75719923  1
  C  C124  1  0.19531760  0.71699974  0.74679320  1
  C  C125  1  0.50934029  0.79962414  0.75461178  1
