# generated using pymatgen
data_Cu2Ni2C9
_symmetry_space_group_name_H-M   'P 1'
_cell_length_a   3.39117623
_cell_length_b   3.39281208
_cell_length_c   47.48302276
_cell_angle_alpha   89.99919794
_cell_angle_beta   89.99600985
_cell_angle_gamma   119.97808622
_symmetry_Int_Tables_number   1
_chemical_formula_structural   Cu2Ni2C9
_chemical_formula_sum   'Cu2 Ni2 C9'
_cell_volume   473.23298750
_cell_formula_units_Z   1
loop_
 _symmetry_equiv_pos_site_id
 _symmetry_equiv_pos_as_xyz
  1  'x, y, z'
loop_
 _atom_site_type_symbol
 _atom_site_label
 _atom_site_symmetry_multiplicity
 _atom_site_fract_x
 _atom_site_fract_y
 _atom_site_fract_z
 _atom_site_occupancy
  C  C0  1  0.00009274  0.00005998  0.18551714  1
  C  C1  1  0.33338663  0.66675904  0.32933323  1
  C  C2  1  0.33332503  0.66667955  0.69718104  1
  C  C3  1  0.33341256  0.66674308  0.24957400  1
  C  C4  1  0.33341467  0.66675155  0.61768981  1
  C  C5  1  0.33329732  0.66657549  0.46964316  1
  C  C6  1  0.33324983  0.66665077  0.08458186  1
  C  C7  1  0.66670664  0.33335083  0.28962358  1
  C  C8  1  0.66665752  0.33327655  0.65745289  1
  Ni  Ni9  1  0.66668642  0.33333832  0.04974580  1
  Ni  Ni10  1  0.66642997  0.33318421  0.11967049  1
  Cu  Cu11  1  0.66669701  0.33335421  0.43806667  1
  Cu  Cu12  1  0.66664265  0.33327842  0.50122533  1
