# generated using pymatgen
data_Cu2NiC12
_symmetry_space_group_name_H-M   'P 1'
_cell_length_a   6.68345241
_cell_length_b   5.79173333
_cell_length_c   6.68345111
_cell_angle_alpha   64.32352717
_cell_angle_beta   51.17026830
_cell_angle_gamma   64.32352573
_symmetry_Int_Tables_number   1
_chemical_formula_structural   Cu2NiC12
_chemical_formula_sum   'Cu2 Ni1 C12'
_cell_volume   176.75853237
_cell_formula_units_Z   1
loop_
 _symmetry_equiv_pos_site_id
 _symmetry_equiv_pos_as_xyz
  1  'x, y, z'
loop_
 _atom_site_type_symbol
 _atom_site_label
 _atom_site_symmetry_multiplicity
 _atom_site_fract_x
 _atom_site_fract_y
 _atom_site_fract_z
 _atom_site_occupancy
  Ni  Ni0  1  0.62661700  0.62338300  0.62661700  1
  C  C1  1  0.12771300  0.12228700  0.12771300  1
  C  C2  1  0.45516200  0.05545900  0.45516200  1
  C  C3  1  0.45516200  0.53421700  0.45516200  1
  C  C4  1  0.87376400  0.87623600  0.87376400  1
  Cu  Cu5  1  0.05859000  0.45304200  0.53532500  1
  Cu  Cu6  1  0.53532500  0.45304200  0.05859000  1
  C  C7  1  0.25816800  0.25750200  0.25816800  1
  C  C8  1  0.25055200  0.26092400  0.72760000  1
  C  C9  1  0.25816800  0.72616200  0.25816800  1
  C  C10  1  0.72760000  0.26092400  0.25055200  1
  C  C11  1  0.25068600  0.77019600  0.70892200  1
  C  C12  1  0.76928600  0.25130600  0.76928600  1
  C  C13  1  0.70892200  0.77019600  0.25068600  1
  C  C14  1  0.76928600  0.71012300  0.76928600  1
