# generated using pymatgen
data_Cu4Ni2C5
_symmetry_space_group_name_H-M   'P 1'
_cell_length_a   8.52849014
_cell_length_b   8.52849014
_cell_length_c   6.06658278
_cell_angle_alpha   86.96903360
_cell_angle_beta   86.96903360
_cell_angle_gamma   41.90415545
_symmetry_Int_Tables_number   1
_chemical_formula_structural   Cu4Ni2C5
_chemical_formula_sum   'Cu8 Ni4 C10'
_cell_volume   294.23469496
_cell_formula_units_Z   2
loop_
 _symmetry_equiv_pos_site_id
 _symmetry_equiv_pos_as_xyz
  1  'x, y, z'
loop_
 _atom_site_type_symbol
 _atom_site_label
 _atom_site_symmetry_multiplicity
 _atom_site_fract_x
 _atom_site_fract_y
 _atom_site_fract_z
 _atom_site_occupancy
  Ni  Ni0  1  0.61390800  0.10973700  0.77114600  1
  Ni  Ni1  1  0.89026300  0.38609200  0.72885400  1
  Ni  Ni2  1  0.38609200  0.89026300  0.22885400  1
  Ni  Ni3  1  0.10973700  0.61390800  0.27114600  1
  Cu  Cu4  1  0.56591900  0.82255100  0.35240900  1
  Cu  Cu5  1  0.43408100  0.17744900  0.64759100  1
  Cu  Cu6  1  0.82255100  0.56591900  0.85240900  1
  Cu  Cu7  1  0.17744900  0.43408100  0.14759100  1
  Cu  Cu8  1  0.68820100  0.92468700  0.90777700  1
  Cu  Cu9  1  0.07531300  0.31179900  0.59222300  1
  Cu  Cu10  1  0.92468700  0.68820100  0.40777700  1
  Cu  Cu11  1  0.31179900  0.07531300  0.09222300  1
  C  C12  1  0.24972200  0.75027800  0.75000000  1
  C  C13  1  0.75027800  0.24972200  0.25000000  1
  C  C14  1  0.99043100  0.18373500  0.88682900  1
  C  C15  1  0.81626500  0.00956900  0.61317100  1
  C  C16  1  0.31285100  0.50726100  0.41671100  1
  C  C17  1  0.50726100  0.31285100  0.91671100  1
  C  C18  1  0.49273900  0.68714900  0.08328900  1
  C  C19  1  0.68714900  0.49273900  0.58328900  1
  C  C20  1  0.00956900  0.81626500  0.11317100  1
  C  C21  1  0.18373500  0.99043100  0.38682900  1
