# generated using pymatgen
data_CuNi5C57
_symmetry_space_group_name_H-M   'P 1'
_cell_length_a   9.01654314
_cell_length_b   9.01654283
_cell_length_c   22.10100202
_cell_angle_alpha   90.00000000
_cell_angle_beta   90.00000000
_cell_angle_gamma   120.00000116
_symmetry_Int_Tables_number   1
_chemical_formula_structural   CuNi5C57
_chemical_formula_sum   'Cu2 Ni10 C114'
_cell_volume   1556.04698207
_cell_formula_units_Z   2
loop_
 _symmetry_equiv_pos_site_id
 _symmetry_equiv_pos_as_xyz
  1  'x, y, z'
loop_
 _atom_site_type_symbol
 _atom_site_label
 _atom_site_symmetry_multiplicity
 _atom_site_fract_x
 _atom_site_fract_y
 _atom_site_fract_z
 _atom_site_occupancy
  C  C0  1  0.63492321  0.99946766  0.25033935  1
  C  C1  1  0.36454445  0.36507679  0.25033935  1
  C  C2  1  0.00053234  0.63545555  0.25033935  1
  C  C3  1  0.63492321  0.63545555  0.75033935  1
  C  C4  1  0.00053234  0.36507679  0.75033935  1
  C  C5  1  0.36454445  0.99946766  0.75033935  1
  C  C6  1  0.29562189  0.33375433  0.58780328  1
  C  C7  1  0.03813344  0.70437811  0.58780328  1
  C  C8  1  0.66624567  0.96186656  0.58780328  1
  C  C9  1  0.29562189  0.96186656  0.08780328  1
  C  C10  1  0.66624567  0.70437811  0.08780328  1
  C  C11  1  0.03813344  0.33375433  0.08780328  1
  C  C12  1  0.97865608  0.67873400  0.90834838  1
  C  C13  1  0.70007692  0.02134392  0.90834838  1
  C  C14  1  0.32126600  0.29992308  0.90834838  1
  C  C15  1  0.97865608  0.29992308  0.40834838  1
  C  C16  1  0.32126600  0.02134392  0.40834838  1
  C  C17  1  0.70007692  0.67873400  0.40834838  1
  C  C18  1  0.00000000  0.00000000  0.49974118  1
  C  C19  1  0.00000000  0.00000000  0.99974118  1
  C  C20  1  0.66666700  0.33333300  0.82383334  1
  C  C21  1  0.66666700  0.33333300  0.32383334  1
  C  C22  1  0.33333300  0.66666700  0.17100220  1
  C  C23  1  0.33333300  0.66666700  0.67100220  1
  Ni  Ni24  1  0.00000000  0.00000000  0.34608440  1
  Ni  Ni25  1  0.00000000  0.00000000  0.84608440  1
  Ni  Ni26  1  0.00000000  0.00000000  0.65314595  1
  Ni  Ni27  1  0.00000000  0.00000000  0.15314595  1
  Ni  Ni28  1  0.66666700  0.33333300  0.68580341  1
  Ni  Ni29  1  0.66666700  0.33333300  0.18580341  1
  Ni  Ni30  1  0.33333300  0.66666700  0.01659591  1
  Ni  Ni31  1  0.33333300  0.66666700  0.51659591  1
  Ni  Ni32  1  0.33333300  0.66666700  0.31512349  1
  Ni  Ni33  1  0.33333300  0.66666700  0.81512349  1
  Cu  Cu34  1  0.66666700  0.33333300  0.98161610  1
  Cu  Cu35  1  0.66666700  0.33333300  0.48161610  1
  C  C36  1  0.29577117  0.99923863  0.24983079  1
  C  C37  1  0.70346746  0.70422883  0.24983079  1
  C  C38  1  0.00076137  0.29653254  0.24983079  1
  C  C39  1  0.29577117  0.29653254  0.74983079  1
  C  C40  1  0.00076137  0.70422883  0.74983079  1
  C  C41  1  0.70346746  0.99923863  0.74983079  1
  C  C42  1  0.96303931  0.33522494  0.58562322  1
  C  C43  1  0.37218663  0.03696069  0.58562322  1
  C  C44  1  0.66477506  0.62781337  0.58562322  1
  C  C45  1  0.96303931  0.62781337  0.08562322  1
  C  C46  1  0.66477506  0.03696069  0.08562322  1
  C  C47  1  0.37218663  0.33522494  0.08562322  1
  C  C48  1  0.62726398  0.66898537  0.91773934  1
  C  C49  1  0.04172038  0.37273602  0.91773934  1
  C  C50  1  0.33101463  0.95827962  0.91773934  1
  C  C51  1  0.62726398  0.95827962  0.41773934  1
  C  C52  1  0.33101463  0.37273602  0.41773934  1
  C  C53  1  0.04172038  0.66898537  0.41773934  1
  C  C54  1  0.21355914  0.02724743  0.30686977  1
  C  C55  1  0.81368830  0.78644086  0.30686977  1
  C  C56  1  0.97275257  0.18631170  0.30686977  1
  C  C57  1  0.21355914  0.18631170  0.80686977  1
  C  C58  1  0.97275257  0.78644086  0.80686977  1
  C  C59  1  0.81368830  0.02724743  0.80686977  1
  C  C60  1  0.78578712  0.97099879  0.69275691  1
  C  C61  1  0.18521167  0.21421288  0.69275691  1
  C  C62  1  0.02900121  0.81478833  0.69275691  1
  C  C63  1  0.78578712  0.81478833  0.19275691  1
  C  C64  1  0.02900121  0.21421288  0.19275691  1
  C  C65  1  0.18521167  0.97099879  0.19275691  1
  C  C66  1  0.87619902  0.36226199  0.63962862  1
  C  C67  1  0.48606397  0.12380098  0.63962862  1
  C  C68  1  0.63773801  0.51393603  0.63962862  1
  C  C69  1  0.87619902  0.51393603  0.13962862  1
  C  C70  1  0.63773801  0.12380098  0.13962862  1
  C  C71  1  0.48606397  0.36226199  0.13962862  1
  C  C72  1  0.47146182  0.31384839  0.02776730  1
  C  C73  1  0.84238758  0.52853818  0.02776730  1
  C  C74  1  0.68615161  0.15761242  0.02776730  1
  C  C75  1  0.47146182  0.15761242  0.52776730  1
  C  C76  1  0.68615161  0.52853818  0.52776730  1
  C  C77  1  0.84238758  0.31384839  0.52776730  1
  C  C78  1  0.54614337  0.69276405  0.97489197  1
  C  C79  1  0.14661968  0.45385663  0.97489197  1
  C  C80  1  0.30723595  0.85338032  0.97489197  1
  C  C81  1  0.54614337  0.85338032  0.47489197  1
  C  C82  1  0.30723595  0.45385663  0.47489197  1
  C  C83  1  0.14661968  0.69276405  0.47489197  1
  C  C84  1  0.11385288  0.62812872  0.36159970  1
  C  C85  1  0.51427484  0.88614712  0.36159970  1
  C  C86  1  0.37187128  0.48572516  0.36159970  1
  C  C87  1  0.11385288  0.48572516  0.86159970  1
  C  C88  1  0.37187128  0.88614712  0.86159970  1
  C  C89  1  0.51427484  0.62812872  0.86159970  1
  C  C90  1  0.01186435  0.82301225  0.41225007  1
  C  C91  1  0.81114790  0.98813565  0.41225007  1
  C  C92  1  0.17698775  0.18885210  0.41225007  1
  C  C93  1  0.01186435  0.18885210  0.91225007  1
  C  C94  1  0.17698775  0.98813565  0.91225007  1
  C  C95  1  0.81114790  0.82301225  0.91225007  1
  C  C96  1  0.97216561  0.16898196  0.58467167  1
  C  C97  1  0.19681635  0.02783439  0.58467167  1
  C  C98  1  0.83101804  0.80318365  0.58467167  1
  C  C99  1  0.97216561  0.80318365  0.08467167  1
  C  C100  1  0.83101804  0.02783439  0.08467167  1
  C  C101  1  0.19681635  0.16898196  0.08467167  1
  C  C102  1  0.68496226  0.16163732  0.74517449  1
  C  C103  1  0.47667605  0.31503774  0.74517449  1
  C  C104  1  0.83836268  0.52332395  0.74517449  1
  C  C105  1  0.68496226  0.52332395  0.24517449  1
  C  C106  1  0.83836268  0.31503774  0.24517449  1
  C  C107  1  0.47667605  0.16163732  0.24517449  1
  C  C108  1  0.64783134  0.50108158  0.92494162  1
  C  C109  1  0.85325124  0.35216866  0.92494162  1
  C  C110  1  0.49891842  0.14674876  0.92494162  1
  C  C111  1  0.64783134  0.14674876  0.42494162  1
  C  C112  1  0.49891842  0.35216866  0.42494162  1
  C  C113  1  0.85325124  0.50108158  0.42494162  1
  C  C114  1  0.35518094  0.49534917  0.07695283  1
  C  C115  1  0.14016722  0.64481906  0.07695283  1
  C  C116  1  0.50465083  0.85983278  0.07695283  1
  C  C117  1  0.35518094  0.85983278  0.57695283  1
  C  C118  1  0.50465083  0.64481906  0.57695283  1
  C  C119  1  0.14016722  0.49534917  0.57695283  1
  C  C120  1  0.31433365  0.83708880  0.25516203  1
  C  C121  1  0.52275415  0.68566635  0.25516203  1
  C  C122  1  0.16291120  0.47724585  0.25516203  1
  C  C123  1  0.31433365  0.47724585  0.75516203  1
  C  C124  1  0.16291120  0.68566635  0.75516203  1
  C  C125  1  0.52275415  0.83708880  0.75516203  1
