# generated using pymatgen
data_CuNiC18
_symmetry_space_group_name_H-M   'P 1'
_cell_length_a   8.80986949
_cell_length_b   8.78365247
_cell_length_c   21.72660490
_cell_angle_alpha   90.51524545
_cell_angle_beta   90.00000000
_cell_angle_gamma   120.09878398
_symmetry_Int_Tables_number   1
_chemical_formula_structural   CuNiC18
_chemical_formula_sum   'Cu6 Ni6 C108'
_cell_volume   1454.48917207
_cell_formula_units_Z   6
loop_
 _symmetry_equiv_pos_site_id
 _symmetry_equiv_pos_as_xyz
  1  'x, y, z'
loop_
 _atom_site_type_symbol
 _atom_site_label
 _atom_site_symmetry_multiplicity
 _atom_site_fract_x
 _atom_site_fract_y
 _atom_site_fract_z
 _atom_site_occupancy
  C  C0  1  0.36207587  0.35643119  0.24710290  1
  C  C1  1  0.99418262  0.63019823  0.24584602  1
  C  C2  1  0.63601561  0.63019823  0.74584602  1
  C  C3  1  0.99435531  0.35643119  0.74710290  1
  C  C4  1  0.02874287  0.68976419  0.58043590  1
  C  C5  1  0.66084962  0.96353123  0.57917902  1
  C  C6  1  0.30268261  0.96353123  0.07917902  1
  C  C7  1  0.66102231  0.68976419  0.08043590  1
  C  C8  1  0.69540887  0.02309819  0.91376990  1
  C  C9  1  0.32751562  0.29686523  0.91251302  1
  C  C10  1  0.96934861  0.29686523  0.41251302  1
  C  C11  1  0.32768831  0.02309819  0.41376990  1
  C  C12  1  0.98564221  0.98843457  0.49675341  1
  C  C13  1  0.00279235  0.98843457  0.99675341  1
  C  C14  1  0.65230921  0.32176757  0.83008641  1
  C  C15  1  0.66945935  0.32176757  0.33008641  1
  C  C16  1  0.31897521  0.65510157  0.16342041  1
  C  C17  1  0.33612535  0.65510157  0.66342041  1
  Ni  Ni18  1  0.99338454  0.01203176  0.64879280  1
  Ni  Ni19  1  0.01864722  0.01203176  0.14879280  1
  Ni  Ni20  1  0.66005154  0.34536476  0.98212580  1
  Ni  Ni21  1  0.68531422  0.34536476  0.48212580  1
  Ni  Ni22  1  0.32671754  0.67869876  0.31545980  1
  Ni  Ni23  1  0.35198022  0.67869876  0.81545980  1
  Cu  Cu24  1  0.99179130  0.99572847  0.34901323  1
  Cu  Cu25  1  0.00393717  0.99572847  0.84901323  1
  Cu  Cu26  1  0.65845830  0.32906147  0.68234623  1
  Cu  Cu27  1  0.67060417  0.32906147  0.18234623  1
  Cu  Cu28  1  0.32512430  0.66239547  0.01568023  1
  Cu  Cu29  1  0.33727017  0.66239547  0.51568023  1
  C  C30  1  0.29428630  0.99671343  0.25113721  1
  C  C31  1  0.00534364  0.29468908  0.25203041  1
  C  C32  1  0.28934544  0.29468908  0.75203041  1
  C  C33  1  0.70242713  0.99671343  0.75113721  1
  C  C34  1  0.96095330  0.33004643  0.58447021  1
  C  C35  1  0.67201064  0.62802208  0.58536341  1
  C  C36  1  0.95601244  0.62802208  0.08536341  1
  C  C37  1  0.36909413  0.33004643  0.08447021  1
  C  C38  1  0.62761930  0.66338043  0.91780421  1
  C  C39  1  0.33867664  0.96135608  0.91869741  1
  C  C40  1  0.62267844  0.96135608  0.41869741  1
  C  C41  1  0.03576013  0.66338043  0.41780421  1
  C  C42  1  0.70134398  0.71316982  0.24909086  1
  C  C43  1  0.01182584  0.71316982  0.74909086  1
  C  C44  1  0.36801098  0.04650282  0.58242386  1
  C  C45  1  0.67849284  0.04650282  0.08242386  1
  C  C46  1  0.03467698  0.37983682  0.91575786  1
  C  C47  1  0.34515884  0.37983682  0.41575786  1
  C  C48  1  0.21656970  0.02959097  0.30933026  1
  C  C49  1  0.81132075  0.78787579  0.30364902  1
  C  C50  1  0.97953177  0.19598003  0.31198324  1
  C  C51  1  0.21644826  0.19598003  0.81198324  1
  C  C52  1  0.97655503  0.78787579  0.80364902  1
  C  C53  1  0.81302127  0.02959097  0.80933026  1
  C  C54  1  0.79038886  0.96131726  0.69377603  1
  C  C55  1  0.16294557  0.19801711  0.69673979  1
  C  C56  1  0.03329715  0.81851979  0.69276521  1
  C  C57  1  0.78522264  0.81851979  0.19276521  1
  C  C58  1  0.03507154  0.19801711  0.19673979  1
  C  C59  1  0.17092839  0.96131726  0.19377603  1
  C  C60  1  0.88323670  0.36292397  0.64266326  1
  C  C61  1  0.47798775  0.12120879  0.63698202  1
  C  C62  1  0.64619877  0.52931303  0.64531624  1
  C  C63  1  0.88311526  0.52931303  0.14531624  1
  C  C64  1  0.64322203  0.12120879  0.13698202  1
  C  C65  1  0.47968827  0.36292397  0.14266326  1
  C  C66  1  0.45705586  0.29465026  0.02710903  1
  C  C67  1  0.82961257  0.53135011  0.03007279  1
  C  C68  1  0.69996415  0.15185279  0.02609821  1
  C  C69  1  0.45188964  0.15185279  0.52609821  1
  C  C70  1  0.70173854  0.53135011  0.53007279  1
  C  C71  1  0.83759539  0.29465026  0.52710903  1
  C  C72  1  0.54990270  0.69625797  0.97599726  1
  C  C73  1  0.14465375  0.45454279  0.97031602  1
  C  C74  1  0.31286477  0.86264703  0.97865024  1
  C  C75  1  0.54978126  0.86264703  0.47865024  1
  C  C76  1  0.30988803  0.45454279  0.47031602  1
  C  C77  1  0.14635427  0.69625797  0.47599726  1
  C  C78  1  0.12372186  0.62798426  0.36044303  1
  C  C79  1  0.49627857  0.86468411  0.36340679  1
  C  C80  1  0.36663015  0.48518679  0.35943221  1
  C  C81  1  0.11855564  0.48518679  0.85943221  1
  C  C82  1  0.36840454  0.86468411  0.86340679  1
  C  C83  1  0.50426139  0.62798426  0.86044303  1
  C  C84  1  0.01768402  0.82699631  0.41037612  1
  C  C85  1  0.81103737  0.99605947  0.41211490  1
  C  C86  1  0.18917397  0.19842264  0.41106000  1
  C  C87  1  0.00924866  0.19842264  0.91106000  1
  C  C88  1  0.18502210  0.99605947  0.91211490  1
  C  C89  1  0.80931229  0.82699631  0.91037612  1
  C  C90  1  0.96880766  0.15599878  0.58998985  1
  C  C91  1  0.19061440  0.02844455  0.58854495  1
  C  C92  1  0.84845591  0.81538075  0.58990380  1
  C  C93  1  0.96692484  0.81538075  0.08990380  1
  C  C94  1  0.83783015  0.02844455  0.08854495  1
  C  C95  1  0.18719111  0.15599878  0.08998985  1
  C  C96  1  0.68435102  0.16032931  0.74370912  1
  C  C97  1  0.47770437  0.32939247  0.74544790  1
  C  C98  1  0.85584097  0.53175564  0.74439300  1
  C  C99  1  0.67591566  0.53175564  0.24439300  1
  C  C100  1  0.85168910  0.32939247  0.24544790  1
  C  C101  1  0.47597929  0.16032931  0.24370912  1
  C  C102  1  0.63547466  0.48933178  0.92332285  1
  C  C103  1  0.85728140  0.36177755  0.92187795  1
  C  C104  1  0.51512291  0.14871375  0.92323680  1
  C  C105  1  0.63359184  0.14871375  0.42323680  1
  C  C106  1  0.50449715  0.36177755  0.42187795  1
  C  C107  1  0.85385811  0.48933178  0.42332285  1
  C  C108  1  0.35101702  0.49366331  0.07704312  1
  C  C109  1  0.14437037  0.66272647  0.07878190  1
  C  C110  1  0.52250697  0.86508964  0.07772700  1
  C  C111  1  0.34258166  0.86508964  0.57772700  1
  C  C112  1  0.51835510  0.66272647  0.57878190  1
  C  C113  1  0.14264529  0.49366331  0.57704312  1
  C  C114  1  0.30214066  0.82266578  0.25665685  1
  C  C115  1  0.52394740  0.69511155  0.25521195  1
  C  C116  1  0.18178891  0.48204775  0.25657080  1
  C  C117  1  0.30025784  0.48204775  0.75657080  1
  C  C118  1  0.17116315  0.69511155  0.75521195  1
  C  C119  1  0.52052411  0.82266578  0.75665685  1
