# generated using pymatgen
data_Cu2NiC8
_symmetry_space_group_name_H-M   'P 1'
_cell_length_a   5.91381219
_cell_length_b   5.91381257
_cell_length_c   5.91381339
_cell_angle_alpha   51.67259938
_cell_angle_beta   51.67259383
_cell_angle_gamma   51.67260065
_symmetry_Int_Tables_number   1
_chemical_formula_structural   Cu2NiC8
_chemical_formula_sum   'Cu2 Ni1 C8'
_cell_volume   117.58822985
_cell_formula_units_Z   1
loop_
 _symmetry_equiv_pos_site_id
 _symmetry_equiv_pos_as_xyz
  1  'x, y, z'
loop_
 _atom_site_type_symbol
 _atom_site_label
 _atom_site_symmetry_multiplicity
 _atom_site_fract_x
 _atom_site_fract_y
 _atom_site_fract_z
 _atom_site_occupancy
  Ni  Ni0  1  0.50000000  0.50000000  0.50000000  1
  C  C1  1  0.14958800  0.14958800  0.14958800  1
  C  C2  1  0.85041200  0.85041200  0.85041200  1
  Cu  Cu3  1  0.32951300  0.32951300  0.32951300  1
  Cu  Cu4  1  0.67048700  0.67048700  0.67048700  1
  C  C5  1  0.74458000  0.44346900  0.08479700  1
  C  C6  1  0.44346900  0.08479700  0.74458000  1
  C  C7  1  0.08479700  0.74458000  0.44346900  1
  C  C8  1  0.25542000  0.55653100  0.91520300  1
  C  C9  1  0.91520300  0.25542000  0.55653100  1
  C  C10  1  0.55653100  0.91520300  0.25542000  1
