# generated using pymatgen
data_Cu6NiC12
_symmetry_space_group_name_H-M   'P 1'
_cell_length_a   8.15528759
_cell_length_b   5.96949272
_cell_length_c   5.78237739
_cell_angle_alpha   68.22675321
_cell_angle_beta   66.56240003
_cell_angle_gamma   63.87630480
_symmetry_Int_Tables_number   1
_chemical_formula_structural   Cu6NiC12
_chemical_formula_sum   'Cu6 Ni1 C12'
_cell_volume   225.24738244
_cell_formula_units_Z   1
loop_
 _symmetry_equiv_pos_site_id
 _symmetry_equiv_pos_as_xyz
  1  'x, y, z'
loop_
 _atom_site_type_symbol
 _atom_site_label
 _atom_site_symmetry_multiplicity
 _atom_site_fract_x
 _atom_site_fract_y
 _atom_site_fract_z
 _atom_site_occupancy
  Ni  Ni0  1  0.66062700  0.83484600  0.34795300  1
  Cu  Cu1  1  0.88183000  0.68574800  0.73233100  1
  Cu  Cu2  1  0.68786000  0.31935800  0.33930800  1
  Cu  Cu3  1  0.31940600  0.63820900  0.66197300  1
  Cu  Cu4  1  0.14870200  0.27874700  0.31744400  1
  Cu  Cu5  1  0.47501600  0.98021100  0.96242200  1
  Cu  Cu6  1  0.00963100  0.04765500  0.96504200  1
  C  C7  1  0.66434000  0.97708800  0.61444200  1
  C  C8  1  0.32111100  0.33788300  0.95876700  1
  C  C9  1  0.98383900  0.19319400  0.22796100  1
  C  C10  1  0.04994300  0.81655800  0.75261900  1
  C  C11  1  0.36927500  0.95046100  0.36002300  1
  C  C12  1  0.69068900  0.67187000  0.06861000  1
  C  C13  1  0.01895300  0.34053300  0.67303400  1
  C  C14  1  0.30115500  0.86083400  0.90816500  1
  C  C15  1  0.60845600  0.53409400  0.61301200  1
  C  C16  1  0.38217400  0.44870500  0.41187500  1
  C  C17  1  0.72179400  0.12715400  0.06450800  1
  C  C18  1  0.96353300  0.70685400  0.28241400  1
