# generated using pymatgen
data_Cu3NiC16
_symmetry_space_group_name_H-M   'P 1'
_cell_length_a   8.80231920
_cell_length_b   8.79178633
_cell_length_c   22.09426157
_cell_angle_alpha   89.99415196
_cell_angle_beta   89.96116812
_cell_angle_gamma   119.97988750
_symmetry_Int_Tables_number   1
_chemical_formula_structural   Cu3NiC16
_chemical_formula_sum   'Cu18 Ni6 C96'
_cell_volume   1481.05840994
_cell_formula_units_Z   6
loop_
 _symmetry_equiv_pos_site_id
 _symmetry_equiv_pos_as_xyz
  1  'x, y, z'
loop_
 _atom_site_type_symbol
 _atom_site_label
 _atom_site_symmetry_multiplicity
 _atom_site_fract_x
 _atom_site_fract_y
 _atom_site_fract_z
 _atom_site_occupancy
  C  C0  1  0.00031358  0.00006681  0.50081275  1
  C  C1  1  0.99927475  0.99919719  0.00124283  1
  C  C2  1  0.64715094  0.32233692  0.83201389  1
  C  C3  1  0.67782070  0.35276965  0.33324166  1
  C  C4  1  0.33305293  0.66662047  0.16847574  1
  C  C5  1  0.33331323  0.66637908  0.66611191  1
  C  C6  1  0.63683792  0.99960933  0.24995039  1
  C  C7  1  0.36438242  0.36254765  0.24997032  1
  C  C8  1  0.63571904  0.63364555  0.74873043  1
  C  C9  1  0.00044674  0.36423167  0.74868497  1
  C  C10  1  0.03387898  0.70140941  0.58368414  1
  C  C11  1  0.66421615  0.96554494  0.58355277  1
  C  C12  1  0.30080378  0.96908885  0.08449370  1
  C  C13  1  0.03088479  0.33438428  0.08429608  1
  C  C14  1  0.96903968  0.66535083  0.91712557  1
  C  C15  1  0.69683174  0.02886728  0.91666611  1
  C  C16  1  0.97096934  0.30137674  0.41695780  1
  C  C17  1  0.33363898  0.03228174  0.41762459  1
  C  C18  1  0.99283362  0.99052632  0.34946896  1
  C  C19  1  0.00966087  0.00756550  0.84869410  1
  C  C20  1  0.66165932  0.33609642  0.98483828  1
  C  C21  1  0.34038145  0.66564887  0.02116949  1
  C  C22  1  0.33408608  0.65970527  0.52051992  1
  C  C23  1  0.33442491  0.67182790  0.81219358  1
  Ni  Ni24  1  0.00706519  0.00603761  0.64710259  1
  Ni  Ni25  1  0.99493681  0.99372167  0.15082388  1
  Ni  Ni26  1  0.66117581  0.32920882  0.68347191  1
  Ni  Ni27  1  0.67122437  0.33899917  0.18495396  1
  Ni  Ni28  1  0.66441313  0.33866441  0.48273585  1
  Ni  Ni29  1  0.32746657  0.66442644  0.31555060  1
  Cu  Cu30  1  0.29484876  0.99700648  0.24815113  1
  Cu  Cu31  1  0.70571693  0.70245388  0.24732937  1
  Cu  Cu32  1  0.99946616  0.29882445  0.24811496  1
  Cu  Cu33  1  0.29692288  0.28614083  0.74462376  1
  Cu  Cu34  1  0.99439651  0.70558838  0.74505937  1
  Cu  Cu35  1  0.71117589  0.00778891  0.74492083  1
  Cu  Cu36  1  0.94716716  0.32612239  0.58473342  1
  Cu  Cu37  1  0.37814705  0.05577785  0.58381023  1
  Cu  Cu38  1  0.67181397  0.61939453  0.58549574  1
  Cu  Cu39  1  0.95305976  0.63057319  0.08727036  1
  Cu  Cu40  1  0.67468493  0.04409662  0.08816324  1
  Cu  Cu41  1  0.37043720  0.32652840  0.08975139  1
  Cu  Cu42  1  0.62794179  0.66541156  0.91472379  1
  Cu  Cu43  1  0.03906965  0.37063345  0.91732073  1
  Cu  Cu44  1  0.33334121  0.96215416  0.91833188  1
  Cu  Cu45  1  0.62199982  0.95992161  0.41625920  1
  Cu  Cu46  1  0.34338943  0.38070752  0.41440343  1
  Cu  Cu47  1  0.03842817  0.65958873  0.41719003  1
  C  C48  1  0.22029955  0.03839433  0.30524190  1
  C  C49  1  0.81543904  0.77916038  0.30490578  1
  C  C50  1  0.96003724  0.18253136  0.30533918  1
  C  C51  1  0.22124326  0.18311525  0.80358068  1
  C  C52  1  0.96071423  0.77983875  0.80381413  1
  C  C53  1  0.81952302  0.04114023  0.80380730  1
  C  C54  1  0.80482014  0.97571179  0.69082927  1
  C  C55  1  0.16826937  0.19531600  0.69189562  1
  C  C56  1  0.02036722  0.82502525  0.69022366  1
  C  C57  1  0.79624504  0.83177131  0.19417461  1
  C  C58  1  0.03489208  0.20772531  0.19355973  1
  C  C59  1  0.17620635  0.97046085  0.19277788  1
  C  C60  1  0.86122098  0.35830274  0.64077202  1
  C  C61  1  0.50078961  0.14212408  0.63801945  1
  C  C62  1  0.64638776  0.50973174  0.64276098  1
  C  C63  1  0.85830757  0.50041554  0.13893238  1
  C  C64  1  0.64268854  0.13778756  0.14185068  1
  C  C65  1  0.48818202  0.35257586  0.14444902  1
  C  C66  1  0.44694595  0.29013946  0.03222152  1
  C  C67  1  0.85455944  0.55814857  0.02670217  1
  C  C68  1  0.70866569  0.15287465  0.02905008  1
  C  C69  1  0.46122808  0.16084205  0.52468095  1
  C  C70  1  0.70269253  0.53295946  0.52932981  1
  C  C71  1  0.83332107  0.29633497  0.52691919  1
  C  C72  1  0.54178322  0.69781335  0.96993378  1
  C  C73  1  0.14673024  0.45645243  0.97470580  1
  C  C74  1  0.30432460  0.85115385  0.97596785  1
  C  C75  1  0.54256273  0.85236641  0.47436918  1
  C  C76  1  0.30188675  0.45912525  0.47003465  1
  C  C77  1  0.15015111  0.69559327  0.47520876  1
  C  C78  1  0.13115116  0.62857063  0.36241920  1
  C  C79  1  0.50326366  0.86998851  0.36001239  1
  C  C80  1  0.36530113  0.49187248  0.35693609  1
  C  C81  1  0.12214074  0.48387081  0.86000895  1
  C  C82  1  0.36347551  0.87350052  0.86282190  1
  C  C83  1  0.52205040  0.64166945  0.85645189  1
  C  C84  1  0.02461486  0.82697443  0.41012287  1
  C  C85  1  0.81009212  0.98971690  0.41083365  1
  C  C86  1  0.17786660  0.19347077  0.40907623  1
  C  C87  1  0.01270010  0.18439534  0.91304541  1
  C  C88  1  0.16529710  0.97312360  0.91230467  1
  C  C89  1  0.81222131  0.83215564  0.91109495  1
  C  C90  1  0.96460295  0.15874505  0.59131251  1
  C  C91  1  0.18907981  0.02721049  0.59095165  1
  C  C92  1  0.83934425  0.80868402  0.59039618  1
  C  C93  1  0.98001108  0.81789264  0.09533234  1
  C  C94  1  0.84171699  0.02865944  0.09603500  1
  C  C95  1  0.18308956  0.15983992  0.09566569  1
  C  C96  1  0.69376018  0.17368617  0.73782173  1
  C  C97  1  0.48416614  0.31378329  0.73792897  1
  C  C98  1  0.82831158  0.51817850  0.73928524  1
  C  C99  1  0.67872207  0.51531806  0.23895691  1
  C  C100  1  0.83264267  0.31395985  0.23904697  1
  C  C101  1  0.48225234  0.16334295  0.24034882  1
  C  C102  1  0.65251518  0.50449094  0.92035636  1
  C  C103  1  0.85467730  0.35374155  0.92130057  1
  C  C104  1  0.50140382  0.14269806  0.92234359  1
  C  C105  1  0.63833757  0.14596795  0.42236180  1
  C  C106  1  0.50631401  0.35844808  0.42343677  1
  C  C107  1  0.85612210  0.49067662  0.42473651  1
  C  C108  1  0.34571453  0.48780005  0.08397241  1
  C  C109  1  0.13869084  0.64769972  0.08318695  1
  C  C110  1  0.50527223  0.86383912  0.08315138  1
  C  C111  1  0.35704041  0.86750055  0.58004789  1
  C  C112  1  0.51234526  0.64841718  0.58102054  1
  C  C113  1  0.12995835  0.49395711  0.58035078  1
  C  C114  1  0.31799075  0.83370116  0.25702535  1
  C  C115  1  0.52016779  0.68683346  0.25537158  1
  C  C116  1  0.17003407  0.47962154  0.25689779  1
  C  C117  1  0.31352027  0.47177568  0.74989118  1
  C  C118  1  0.15570456  0.67980484  0.74969831  1
  C  C119  1  0.53062117  0.83793520  0.74977039  1
