# generated using pymatgen
data_Cu2NiC12
_symmetry_space_group_name_H-M   'P 1'
_cell_length_a   6.78733860
_cell_length_b   6.78733860
_cell_length_c   6.78733860
_cell_angle_alpha   53.28645460
_cell_angle_beta   53.28645460
_cell_angle_gamma   53.28645460
_symmetry_Int_Tables_number   1
_chemical_formula_structural   Cu2NiC12
_chemical_formula_sum   'Cu2 Ni1 C12'
_cell_volume   186.33922091
_cell_formula_units_Z   1
loop_
 _symmetry_equiv_pos_site_id
 _symmetry_equiv_pos_as_xyz
  1  'x, y, z'
loop_
 _atom_site_type_symbol
 _atom_site_label
 _atom_site_symmetry_multiplicity
 _atom_site_fract_x
 _atom_site_fract_y
 _atom_site_fract_z
 _atom_site_occupancy
  Ni  Ni0  1  0.00000000  0.00000000  0.00000000  1
  C  C1  1  0.50000000  0.50000000  0.00000000  1
  C  C2  1  0.50000000  0.00000000  0.50000000  1
  C  C3  1  0.00000000  0.50000000  0.50000000  1
  C  C4  1  0.50000000  0.50000000  0.50000000  1
  Cu  Cu5  1  0.15604700  0.15604700  0.15604700  1
  Cu  Cu6  1  0.84395300  0.84395300  0.84395300  1
  C  C7  1  0.27787100  0.27787100  0.27787100  1
  C  C8  1  0.71740600  0.24098700  0.24098700  1
  C  C9  1  0.24098700  0.71740600  0.24098700  1
  C  C10  1  0.24098700  0.24098700  0.71740600  1
  C  C11  1  0.75901300  0.75901300  0.28259400  1
  C  C12  1  0.75901300  0.28259400  0.75901300  1
  C  C13  1  0.72212900  0.72212900  0.72212900  1
  C  C14  1  0.28259400  0.75901300  0.75901300  1
