# generated using pymatgen
data_Cu4Ni4C5
_symmetry_space_group_name_H-M   'P 1'
_cell_length_a   5.86675523
_cell_length_b   5.97971228
_cell_length_c   5.99376520
_cell_angle_alpha   108.05652320
_cell_angle_beta   92.05947203
_cell_angle_gamma   88.90800835
_symmetry_Int_Tables_number   1
_chemical_formula_structural   Cu4Ni4C5
_chemical_formula_sum   'Cu4 Ni4 C5'
_cell_volume   199.77869212
_cell_formula_units_Z   1
loop_
 _symmetry_equiv_pos_site_id
 _symmetry_equiv_pos_as_xyz
  1  'x, y, z'
loop_
 _atom_site_type_symbol
 _atom_site_label
 _atom_site_symmetry_multiplicity
 _atom_site_fract_x
 _atom_site_fract_y
 _atom_site_fract_z
 _atom_site_occupancy
  C  C0  1  0.72027600  0.09270600  0.42084200  1
  C  C1  1  0.48796000  0.71516200  0.21256800  1
  C  C2  1  0.00233100  0.28111900  0.25390400  1
  C  C3  1  0.49566100  0.28592500  0.79389800  1
  C  C4  1  0.01312400  0.73962600  0.71640400  1
  Ni  Ni5  1  0.61863100  0.83560700  0.65274600  1
  Ni  Ni6  1  0.13672300  0.14731100  0.86863200  1
  Ni  Ni7  1  0.31761500  0.13516500  0.37575800  1
  Ni  Ni8  1  0.89167100  0.82363600  0.09287000  1
  Cu  Cu9  1  0.63509600  0.35681900  0.16169400  1
  Cu  Cu10  1  0.13457200  0.64296400  0.32639400  1
  Cu  Cu11  1  0.36513800  0.64736300  0.83635200  1
  Cu  Cu12  1  0.88358300  0.39034600  0.70460700  1
