# generated using pymatgen
data_Cu2Ni3C49
_symmetry_space_group_name_H-M   'P 1'
_cell_length_a   8.89661948
_cell_length_b   8.89661919
_cell_length_c   23.10415368
_cell_angle_alpha   90.00000000
_cell_angle_beta   90.00000000
_cell_angle_gamma   120.00000109
_symmetry_Int_Tables_number   1
_chemical_formula_structural   Cu2Ni3C49
_chemical_formula_sum   'Cu4 Ni6 C98'
_cell_volume   1583.69194782
_cell_formula_units_Z   2
loop_
 _symmetry_equiv_pos_site_id
 _symmetry_equiv_pos_as_xyz
  1  'x, y, z'
loop_
 _atom_site_type_symbol
 _atom_site_label
 _atom_site_symmetry_multiplicity
 _atom_site_fract_x
 _atom_site_fract_y
 _atom_site_fract_z
 _atom_site_occupancy
  Ni  Ni0  1  -0.00000000  -0.00000000  0.49574437  1
  Ni  Ni1  1  -0.00000000  -0.00000000  0.99574437  1
  Ni  Ni2  1  0.66666700  0.33333300  0.82238202  1
  Ni  Ni3  1  0.66666700  0.33333300  0.32238202  1
  Ni  Ni4  1  0.33333300  0.66666700  0.16817535  1
  Ni  Ni5  1  0.33333300  0.66666700  0.66817535  1
  Cu  Cu6  1  -0.00000000  -0.00000000  0.35826382  1
  Cu  Cu7  1  -0.00000000  -0.00000000  0.85826382  1
  Cu  Cu8  1  0.66666700  0.33333300  0.68200250  1
  Cu  Cu9  1  0.66666700  0.33333300  0.18200250  1
  C  C10  1  -0.00000000  -0.00000000  0.64984408  1
  C  C11  1  -0.00000000  -0.00000000  0.14984408  1
  C  C12  1  0.66666700  0.33333300  0.97996998  1
  C  C13  1  0.66666700  0.33333300  0.47996998  1
  C  C14  1  0.33333300  0.66666700  0.01972780  1
  C  C15  1  0.33333300  0.66666700  0.51972780  1
  C  C16  1  0.33333300  0.66666700  0.31048682  1
  C  C17  1  0.33333300  0.66666700  0.81048682  1
  C  C18  1  0.29026020  0.99702019  0.25224951  1
  C  C19  1  0.70676000  0.70973980  0.25224951  1
  C  C20  1  0.00297981  0.29324000  0.25224951  1
  C  C21  1  0.29026020  0.29324000  0.75224951  1
  C  C22  1  0.00297981  0.70973980  0.75224951  1
  C  C23  1  0.70676000  0.99702019  0.75224951  1
  C  C24  1  0.96097959  0.32991642  0.58209655  1
  C  C25  1  0.36893782  0.03902041  0.58209655  1
  C  C26  1  0.67008358  0.63106218  0.58209655  1
  C  C27  1  0.96097959  0.63106218  0.08209655  1
  C  C28  1  0.67008358  0.03902041  0.08209655  1
  C  C29  1  0.36893782  0.32991642  0.08209655  1
  C  C30  1  0.61341947  0.65791594  0.91812474  1
  C  C31  1  0.04449548  0.38658053  0.91812474  1
  C  C32  1  0.34208406  0.95550452  0.91812474  1
  C  C33  1  0.61341947  0.95550452  0.41812474  1
  C  C34  1  0.34208406  0.38658053  0.41812474  1
  C  C35  1  0.04449548  0.65791594  0.41812474  1
  C  C36  1  0.20817359  0.01637655  0.30550923  1
  C  C37  1  0.80820296  0.79182641  0.30550923  1
  C  C38  1  0.98362345  0.19179704  0.30550923  1
  C  C39  1  0.20817359  0.19179704  0.80550923  1
  C  C40  1  0.98362345  0.79182641  0.80550923  1
  C  C41  1  0.80820296  0.01637655  0.80550923  1
  C  C42  1  0.80163815  0.97027648  0.69556696  1
  C  C43  1  0.16863833  0.19836185  0.69556696  1
  C  C44  1  0.02972352  0.83136167  0.69556696  1
  C  C45  1  0.80163815  0.83136167  0.19556696  1
  C  C46  1  0.02972352  0.19836185  0.19556696  1
  C  C47  1  0.16863833  0.97027648  0.19556696  1
  C  C48  1  0.90407404  0.37820235  0.63607798  1
  C  C49  1  0.47412932  0.09592596  0.63607798  1
  C  C50  1  0.62179765  0.52587068  0.63607798  1
  C  C51  1  0.90407404  0.52587068  0.13607798  1
  C  C52  1  0.62179765  0.09592596  0.13607798  1
  C  C53  1  0.47412932  0.37820235  0.13607798  1
  C  C54  1  0.46656415  0.30442883  0.02844279  1
  C  C55  1  0.83786568  0.53343585  0.02844279  1
  C  C56  1  0.69557117  0.16213432  0.02844279  1
  C  C57  1  0.46656415  0.16213432  0.52844279  1
  C  C58  1  0.69557117  0.53343585  0.52844279  1
  C  C59  1  0.83786568  0.30442883  0.52844279  1
  C  C60  1  0.51106906  0.66686652  0.97112871  1
  C  C61  1  0.15579645  0.48893094  0.97112871  1
  C  C62  1  0.33313348  0.84420355  0.97112871  1
  C  C63  1  0.51106906  0.84420355  0.47112871  1
  C  C64  1  0.33313348  0.48893094  0.47112871  1
  C  C65  1  0.15579645  0.66686652  0.47112871  1
  C  C66  1  0.13328270  0.63383547  0.36279536  1
  C  C67  1  0.50055177  0.86671730  0.36279536  1
  C  C68  1  0.36616453  0.49944823  0.36279536  1
  C  C69  1  0.13328270  0.49944823  0.86279536  1
  C  C70  1  0.36616453  0.86671730  0.86279536  1
  C  C71  1  0.50055177  0.63383547  0.86279536  1
  C  C72  1  0.02430216  0.81483967  0.41975085  1
  C  C73  1  0.79053751  0.97569784  0.41975085  1
  C  C74  1  0.18516033  0.20946249  0.41975085  1
  C  C75  1  0.02430216  0.20946249  0.91975085  1
  C  C76  1  0.18516033  0.97569784  0.91975085  1
  C  C77  1  0.79053751  0.81483967  0.91975085  1
  C  C78  1  0.97737286  0.16332427  0.58833960  1
  C  C79  1  0.18595141  0.02262714  0.58833960  1
  C  C80  1  0.83667573  0.81404859  0.58833960  1
  C  C81  1  0.97737286  0.81404859  0.08833960  1
  C  C82  1  0.83667573  0.02262714  0.08833960  1
  C  C83  1  0.18595141  0.16332427  0.08833960  1
  C  C84  1  0.67005125  0.14189202  0.74323565  1
  C  C85  1  0.47184177  0.32994875  0.74323565  1
  C  C86  1  0.85810798  0.52815823  0.74323565  1
  C  C87  1  0.67005125  0.52815823  0.24323565  1
  C  C88  1  0.85810798  0.32994875  0.24323565  1
  C  C89  1  0.47184177  0.14189202  0.24323565  1
  C  C90  1  0.62349317  0.48605535  0.92651982  1
  C  C91  1  0.86256318  0.37650683  0.92651982  1
  C  C92  1  0.51394465  0.13743682  0.92651982  1
  C  C93  1  0.62349317  0.13743682  0.42651982  1
  C  C94  1  0.51394465  0.37650683  0.42651982  1
  C  C95  1  0.86256318  0.48605535  0.42651982  1
  C  C96  1  0.33699409  0.48488032  0.06756993  1
  C  C97  1  0.14788523  0.66300591  0.06756993  1
  C  C98  1  0.51511968  0.85211477  0.06756993  1
  C  C99  1  0.33699409  0.85211477  0.56756993  1
  C  C100  1  0.51511968  0.66300591  0.56756993  1
  C  C101  1  0.14788523  0.48488032  0.56756993  1
  C  C102  1  0.29369117  0.81793614  0.25706005  1
  C  C103  1  0.52424397  0.70630883  0.25706005  1
  C  C104  1  0.18206386  0.47575603  0.25706005  1
  C  C105  1  0.29369117  0.47575603  0.75706005  1
  C  C106  1  0.18206386  0.70630883  0.75706005  1
  C  C107  1  0.52424397  0.81793614  0.75706005  1
