# generated using pymatgen
data_Cu9(NiC2)2
_symmetry_space_group_name_H-M   'P 1'
_cell_length_a   6.29357490
_cell_length_b   6.29357490
_cell_length_c   15.71482200
_cell_angle_alpha   90.00000000
_cell_angle_beta   90.00000000
_cell_angle_gamma   120.00000943
_symmetry_Int_Tables_number   1
_chemical_formula_structural   Cu9(NiC2)2
_chemical_formula_sum   'Cu18 Ni4 C8'
_cell_volume   539.05721894
_cell_formula_units_Z   2
loop_
 _symmetry_equiv_pos_site_id
 _symmetry_equiv_pos_as_xyz
  1  'x, y, z'
loop_
 _atom_site_type_symbol
 _atom_site_label
 _atom_site_symmetry_multiplicity
 _atom_site_fract_x
 _atom_site_fract_y
 _atom_site_fract_z
 _atom_site_occupancy
  C  C0  1  0.00000000  0.00000000  0.00000000  1
  C  C1  1  0.00000000  0.00000000  0.50000000  1
  C  C2  1  0.00000000  0.00000000  0.25000000  1
  C  C3  1  0.00000000  0.00000000  0.75000000  1
  C  C4  1  0.33333300  0.66666700  0.40886200  1
  C  C5  1  0.66666700  0.33333300  0.90886200  1
  C  C6  1  0.66666700  0.33333300  0.59113800  1
  C  C7  1  0.33333300  0.66666700  0.09113800  1
  Ni  Ni8  1  0.33333300  0.66666700  0.65749600  1
  Ni  Ni9  1  0.66666700  0.33333300  0.15749600  1
  Ni  Ni10  1  0.66666700  0.33333300  0.34250400  1
  Ni  Ni11  1  0.33333300  0.66666700  0.84250400  1
  Cu  Cu12  1  0.18633000  0.81367000  0.89827300  1
  Cu  Cu13  1  0.18633000  0.37266000  0.89827300  1
  Cu  Cu14  1  0.62734000  0.81367000  0.89827300  1
  Cu  Cu15  1  0.37266000  0.18633000  0.39827300  1
  Cu  Cu16  1  0.81367000  0.62734000  0.10172700  1
  Cu  Cu17  1  0.81367000  0.18633000  0.39827300  1
  Cu  Cu18  1  0.81367000  0.62734000  0.39827300  1
  Cu  Cu19  1  0.18633000  0.81367000  0.60172700  1
  Cu  Cu20  1  0.62734000  0.81367000  0.60172700  1
  Cu  Cu21  1  0.37266000  0.18633000  0.10172700  1
  Cu  Cu22  1  0.81367000  0.18633000  0.10172700  1
  Cu  Cu23  1  0.18633000  0.37266000  0.60172700  1
  Cu  Cu24  1  0.53366600  0.06733100  0.25000000  1
  Cu  Cu25  1  0.46633400  0.53366600  0.75000000  1
  Cu  Cu26  1  0.06733100  0.53366600  0.75000000  1
  Cu  Cu27  1  0.93266900  0.46633400  0.25000000  1
  Cu  Cu28  1  0.53366600  0.46633400  0.25000000  1
  Cu  Cu29  1  0.46633400  0.93266900  0.75000000  1
