# generated using pymatgen
data_CuNi3C16
_symmetry_space_group_name_H-M   'P 1'
_cell_length_a   9.24929034
_cell_length_b   9.24929000
_cell_length_c   22.59759464
_cell_angle_alpha   90.24314214
_cell_angle_beta   89.75685787
_cell_angle_gamma   119.79778765
_symmetry_Int_Tables_number   1
_chemical_formula_structural   CuNi3C16
_chemical_formula_sum   'Cu6 Ni18 C96'
_cell_volume   1677.58972600
_cell_formula_units_Z   6
loop_
 _symmetry_equiv_pos_site_id
 _symmetry_equiv_pos_as_xyz
  1  'x, y, z'
loop_
 _atom_site_type_symbol
 _atom_site_label
 _atom_site_symmetry_multiplicity
 _atom_site_fract_x
 _atom_site_fract_y
 _atom_site_fract_z
 _atom_site_occupancy
  Ni  Ni0  1  0.98887487  0.98732832  0.49708303  1
  Ni  Ni1  1  0.01267168  0.01112513  0.99708303  1
  Ni  Ni2  1  0.65554187  0.32066132  0.83041603  1
  Ni  Ni3  1  0.67933868  0.34445813  0.33041603  1
  Ni  Ni4  1  0.32220787  0.65399532  0.16375003  1
  Ni  Ni5  1  0.34600468  0.67779213  0.66375003  1
  Ni  Ni6  1  0.66511499  0.01850805  0.25069838  1
  Ni  Ni7  1  0.97855138  0.62471201  0.24643572  1
  Ni  Ni8  1  0.98149195  0.33488501  0.75069838  1
  Ni  Ni9  1  0.37528799  0.02144862  0.74643572  1
  Ni  Ni10  1  0.33178199  0.35184105  0.58403138  1
  Ni  Ni11  1  0.64521838  0.95804501  0.57976872  1
  Ni  Ni12  1  0.64815895  0.66821801  0.08403138  1
  Ni  Ni13  1  0.04195499  0.35478162  0.07976872  1
  Ni  Ni14  1  0.99844799  0.68517505  0.91736538  1
  Ni  Ni15  1  0.31188438  0.29137901  0.91310272  1
  Ni  Ni16  1  0.31482495  0.00155201  0.41736538  1
  Ni  Ni17  1  0.70862099  0.68811562  0.41310272  1
  Cu  Cu18  1  0.00079978  0.01093072  0.35197679  1
  Cu  Cu19  1  0.98906928  0.99920022  0.85197679  1
  Cu  Cu20  1  0.66746678  0.34426372  0.68530979  1
  Cu  Cu21  1  0.65573628  0.33253322  0.18530979  1
  Cu  Cu22  1  0.33413278  0.67759772  0.01864379  1
  Cu  Cu23  1  0.32240228  0.66586722  0.51864379  1
  C  C24  1  0.99599502  0.99335202  0.64748566  1
  C  C25  1  0.00664798  0.00400498  0.14748566  1
  C  C26  1  0.66266202  0.32668502  0.98081866  1
  C  C27  1  0.67331498  0.33733798  0.48081866  1
  C  C28  1  0.32932802  0.66001902  0.31415266  1
  C  C29  1  0.33998098  0.67067198  0.81415266  1
  C  C30  1  0.69766422  0.71006652  0.25207356  1
  C  C31  1  0.01167284  0.30448489  0.24802739  1
  C  C32  1  0.28993348  0.30233578  0.75207356  1
  C  C33  1  0.69551511  0.98832716  0.74802739  1
  C  C34  1  0.36433122  0.04339952  0.58540656  1
  C  C35  1  0.67833984  0.63781789  0.58136039  1
  C  C36  1  0.95660048  0.63566878  0.08540656  1
  C  C37  1  0.36218211  0.32166016  0.08136039  1
  C  C38  1  0.03099722  0.37673352  0.91874056  1
  C  C39  1  0.34500584  0.97115189  0.91469439  1
  C  C40  1  0.62326648  0.96900278  0.41874056  1
  C  C41  1  0.02884811  0.65499416  0.41469439  1
  C  C42  1  0.28722333  0.98076877  0.25173163  1
  C  C43  1  0.01923123  0.71277667  0.75173163  1
  C  C44  1  0.95389033  0.31410177  0.58506463  1
  C  C45  1  0.68589823  0.04610967  0.08506463  1
  C  C46  1  0.62055633  0.64743577  0.91839863  1
  C  C47  1  0.35256423  0.37944367  0.41839863  1
  C  C48  1  0.22146975  0.00449236  0.31036831  1
  C  C49  1  0.80273683  0.79115024  0.31101805  1
  C  C50  1  0.97461417  0.18727946  0.30334962  1
  C  C51  1  0.20884976  0.19726317  0.81101805  1
  C  C52  1  0.99550764  0.77853025  0.81036831  1
  C  C53  1  0.81272054  0.02538583  0.80334962  1
  C  C54  1  0.79780239  0.96952802  0.68831439  1
  C  C55  1  0.15755618  0.19189250  0.69476723  1
  C  C56  1  0.02677760  0.83281791  0.69920907  1
  C  C57  1  0.80810750  0.84244382  0.19476723  1
  C  C58  1  0.03047198  0.20219761  0.18831439  1
  C  C59  1  0.16718209  0.97322240  0.19920907  1
  C  C60  1  0.88813675  0.33782536  0.64370131  1
  C  C61  1  0.46940383  0.12448324  0.64435105  1
  C  C62  1  0.64128117  0.52061246  0.63668262  1
  C  C63  1  0.87551676  0.53059617  0.14435105  1
  C  C64  1  0.66217464  0.11186325  0.14370131  1
  C  C65  1  0.47938754  0.35871883  0.13668262  1
  C  C66  1  0.46446939  0.30286102  0.02164739  1
  C  C67  1  0.82422318  0.52522550  0.02810023  1
  C  C68  1  0.69344460  0.16615091  0.03254207  1
  C  C69  1  0.47477450  0.17577682  0.52810023  1
  C  C70  1  0.69713898  0.53553061  0.52164739  1
  C  C71  1  0.83384909  0.30655540  0.53254207  1
  C  C72  1  0.55480275  0.67115936  0.97703531  1
  C  C73  1  0.13606983  0.45781724  0.97768505  1
  C  C74  1  0.30794717  0.85394646  0.97001662  1
  C  C75  1  0.54218276  0.86393017  0.47768505  1
  C  C76  1  0.32884064  0.44519725  0.47703531  1
  C  C77  1  0.14605354  0.69205283  0.47001662  1
  C  C78  1  0.13113539  0.63619502  0.35498139  1
  C  C79  1  0.49088918  0.85855950  0.36143423  1
  C  C80  1  0.36011060  0.49948491  0.36587607  1
  C  C81  1  0.14144050  0.50911082  0.86143423  1
  C  C82  1  0.36380498  0.86886461  0.85498139  1
  C  C83  1  0.50051509  0.63988940  0.86587607  1
  C  C84  1  0.99829522  0.81283964  0.41136728  1
  C  C85  1  0.80769995  0.99396267  0.41382664  1
  C  C86  1  0.21931314  0.19795156  0.40987433  1
  C  C87  1  0.00603733  0.19230005  0.91382664  1
  C  C88  1  0.18716036  0.00170478  0.91136728  1
  C  C89  1  0.80204844  0.78068686  0.90987433  1
  C  C90  1  0.94391659  0.13846675  0.58419617  1
  C  C91  1  0.18456282  0.04613676  0.58958210  1
  C  C92  1  0.85487432  0.81884620  0.58861465  1
  C  C93  1  0.95386324  0.81543718  0.08958210  1
  C  C94  1  0.86153325  0.05608341  0.08419617  1
  C  C95  1  0.18115380  0.14512568  0.08861465  1
  C  C96  1  0.66496222  0.14617264  0.74470028  1
  C  C97  1  0.47436695  0.32729567  0.74715964  1
  C  C98  1  0.88598014  0.53128456  0.74320733  1
  C  C99  1  0.67270433  0.52563305  0.24715964  1
  C  C100  1  0.85382736  0.33503778  0.24470028  1
  C  C101  1  0.46871544  0.11401986  0.24320733  1
  C  C102  1  0.61058359  0.47179975  0.91752917  1
  C  C103  1  0.85122982  0.37946976  0.92291510  1
  C  C104  1  0.52154132  0.15217920  0.92194765  1
  C  C105  1  0.62053024  0.14877018  0.42291510  1
  C  C106  1  0.52820025  0.38941641  0.41752917  1
  C  C107  1  0.84782080  0.47845868  0.42194765  1
  C  C108  1  0.33162822  0.47950664  0.07803428  1
  C  C109  1  0.14103295  0.66062967  0.08049364  1
  C  C110  1  0.55264614  0.86461856  0.07654133  1
  C  C111  1  0.33937033  0.85896705  0.58049364  1
  C  C112  1  0.52049336  0.66837178  0.57803428  1
  C  C113  1  0.13538144  0.44735386  0.57654133  1
  C  C114  1  0.27724959  0.80513375  0.25086317  1
  C  C115  1  0.51789582  0.71280376  0.25624910  1
  C  C116  1  0.18820732  0.48551320  0.25528165  1
  C  C117  1  0.28719624  0.48210418  0.75624910  1
  C  C118  1  0.19486625  0.72275041  0.75086317  1
  C  C119  1  0.51448680  0.81179268  0.75528165  1
