# generated using pymatgen
data_Cu5Ni2C
_symmetry_space_group_name_H-M   'P 1'
_cell_length_a   13.12153000
_cell_length_b   8.79374300
_cell_length_c   18.44343761
_cell_angle_alpha   67.01148477
_cell_angle_beta   90.00000000
_cell_angle_gamma   90.00000000
_symmetry_Int_Tables_number   1
_chemical_formula_structural   Cu5Ni2C
_chemical_formula_sum   'Cu40 Ni16 C8'
_cell_volume   1959.12949012
_cell_formula_units_Z   8
loop_
 _symmetry_equiv_pos_site_id
 _symmetry_equiv_pos_as_xyz
  1  'x, y, z'
loop_
 _atom_site_type_symbol
 _atom_site_label
 _atom_site_symmetry_multiplicity
 _atom_site_fract_x
 _atom_site_fract_y
 _atom_site_fract_z
 _atom_site_occupancy
  Ni  Ni0  1  0.75412600  0.45540100  0.45962700  1
  Ni  Ni1  1  0.25412600  0.54459900  0.04037300  1
  Ni  Ni2  1  0.24587400  0.54459900  0.54037300  1
  Ni  Ni3  1  0.74587400  0.45540100  0.95962700  1
  Ni  Ni4  1  0.88349700  0.59893400  0.55365800  1
  Ni  Ni5  1  0.38349700  0.40106600  0.94634200  1
  Ni  Ni6  1  0.11650300  0.40106600  0.44634200  1
  Ni  Ni7  1  0.61650300  0.59893400  0.05365800  1
  Ni  Ni8  1  0.03723500  0.75461600  0.18990200  1
  Ni  Ni9  1  0.53723500  0.24538400  0.31009800  1
  Ni  Ni10  1  0.96276500  0.24538400  0.81009800  1
  Ni  Ni11  1  0.46276500  0.75461600  0.68990200  1
  Ni  Ni12  1  0.91857700  0.89337300  0.28978700  1
  Ni  Ni13  1  0.41857700  0.10662700  0.21021300  1
  Ni  Ni14  1  0.08142300  0.10662700  0.71021300  1
  Ni  Ni15  1  0.58142300  0.89337300  0.78978700  1
  C  C16  1  0.78553100  0.63237800  0.48097400  1
  C  C17  1  0.28553100  0.36762200  0.01902600  1
  C  C18  1  0.21446900  0.36762200  0.51902600  1
  C  C19  1  0.71446900  0.63237800  0.98097400  1
  C  C20  1  0.01359900  0.92861400  0.21499700  1
  C  C21  1  0.51359900  0.07138600  0.28500300  1
  C  C22  1  0.98640100  0.07138600  0.78500300  1
  C  C23  1  0.48640100  0.92861400  0.71499700  1
  Cu  Cu24  1  0.92598300  0.78085900  0.09493400  1
  Cu  Cu25  1  0.09010000  0.42735500  0.69152000  1
  Cu  Cu26  1  0.40990000  0.42735500  0.19152000  1
  Cu  Cu27  1  0.90990000  0.57264500  0.30848000  1
  Cu  Cu28  1  0.72877100  0.94623500  0.72556000  1
  Cu  Cu29  1  0.22877100  0.05376500  0.77444000  1
  Cu  Cu30  1  0.27122900  0.05376500  0.27444000  1
  Cu  Cu31  1  0.77122900  0.94623500  0.22556000  1
  Cu  Cu32  1  0.79788800  0.48973700  0.66942700  1
  Cu  Cu33  1  0.05677300  0.85417400  0.71053700  1
  Cu  Cu34  1  0.44322700  0.85417400  0.21053700  1
  Cu  Cu35  1  0.94322700  0.14582600  0.28946300  1
  Cu  Cu36  1  0.57401700  0.78085900  0.59493400  1
  Cu  Cu37  1  0.07401700  0.21914100  0.90506600  1
  Cu  Cu38  1  0.42598300  0.21914100  0.40506600  1
  Cu  Cu39  1  0.59010000  0.57264500  0.80848000  1
  Cu  Cu40  1  0.33164300  0.88383300  0.61244400  1
  Cu  Cu41  1  0.83164300  0.11616700  0.88755600  1
  Cu  Cu42  1  0.66835700  0.11616700  0.38755600  1
  Cu  Cu43  1  0.16835700  0.88383300  0.11244400  1
  Cu  Cu44  1  0.86393100  0.59439800  0.87210400  1
  Cu  Cu45  1  0.36393100  0.40560200  0.62789600  1
  Cu  Cu46  1  0.13606900  0.40560200  0.12789600  1
  Cu  Cu47  1  0.63606900  0.59439800  0.37210400  1
  Cu  Cu48  1  0.64577400  0.31039700  0.55367000  1
  Cu  Cu49  1  0.14577400  0.68960300  0.94633000  1
  Cu  Cu50  1  0.35422600  0.68960300  0.44633000  1
  Cu  Cu51  1  0.85422600  0.31039700  0.05367000  1
  Cu  Cu52  1  0.87408500  0.86297700  0.53995400  1
  Cu  Cu53  1  0.37408500  0.13702300  0.96004600  1
  Cu  Cu54  1  0.12591500  0.13702300  0.46004600  1
  Cu  Cu55  1  0.62591500  0.86297700  0.03995400  1
  Cu  Cu56  1  0.58192900  0.29717900  0.05292500  1
  Cu  Cu57  1  0.08192900  0.70282100  0.44707500  1
  Cu  Cu58  1  0.41807100  0.70282100  0.94707500  1
  Cu  Cu59  1  0.91807100  0.29717900  0.55292500  1
  Cu  Cu60  1  0.70211200  0.48973700  0.16942700  1
  Cu  Cu61  1  0.20211200  0.51026300  0.33057300  1
  Cu  Cu62  1  0.29788800  0.51026300  0.83057300  1
  Cu  Cu63  1  0.55677300  0.14582600  0.78946300  1
