# generated using pymatgen
data_Cu12NiC24
_symmetry_space_group_name_H-M   'P 1'
_cell_length_a   4.79004058
_cell_length_b   5.73261842
_cell_length_c   15.04273553
_cell_angle_alpha   88.15661891
_cell_angle_beta   87.76211759
_cell_angle_gamma   90.96609187
_symmetry_Int_Tables_number   1
_chemical_formula_structural   Cu12NiC24
_chemical_formula_sum   'Cu12 Ni1 C24'
_cell_volume   412.46909830
_cell_formula_units_Z   1
loop_
 _symmetry_equiv_pos_site_id
 _symmetry_equiv_pos_as_xyz
  1  'x, y, z'
loop_
 _atom_site_type_symbol
 _atom_site_label
 _atom_site_symmetry_multiplicity
 _atom_site_fract_x
 _atom_site_fract_y
 _atom_site_fract_z
 _atom_site_occupancy
  Ni  Ni0  1  0.50999300  0.90393300  0.57793400  1
  Cu  Cu1  1  0.01774600  0.15095000  0.41117100  1
  Cu  Cu2  1  0.00803500  0.82318600  0.24417800  1
  Cu  Cu3  1  0.00090400  0.17487700  0.08088000  1
  Cu  Cu4  1  0.06000200  0.18348100  0.74362400  1
  Cu  Cu5  1  0.03161800  0.63035600  0.57507000  1
  Cu  Cu6  1  0.99732300  0.86822000  0.91405000  1
  Cu  Cu7  1  0.50081800  0.36379700  0.92246600  1
  Cu  Cu8  1  0.52706300  0.38117800  0.59050000  1
  Cu  Cu9  1  0.46856400  0.34561000  0.25337900  1
  Cu  Cu10  1  0.48667400  0.63928900  0.09344400  1
  Cu  Cu11  1  0.46467800  0.60916500  0.41281100  1
  Cu  Cu12  1  0.51361900  0.67799500  0.76703600  1
  C  C13  1  0.21938900  0.08672500  0.29763300  1
  C  C14  1  0.31737300  0.14576000  0.64491000  1
  C  C15  1  0.19934700  0.13482600  0.96966100  1
  C  C16  1  0.20859100  0.88228500  0.13403700  1
  C  C17  1  0.22500500  0.84194600  0.48306600  1
  C  C18  1  0.22275000  0.91693100  0.80556100  1
  C  C19  1  0.26258300  0.38562900  0.49040500  1
  C  C20  1  0.26245100  0.39758600  0.14723500  1
  C  C21  1  0.24027400  0.56636100  0.31506900  1
  C  C22  1  0.34331400  0.62573000  0.64877500  1
  C  C23  1  0.30880100  0.41546900  0.81375400  1
  C  C24  1  0.70906700  0.39564500  0.03084000  1
  C  C25  1  0.69509100  0.61227000  0.19635800  1
  C  C26  1  0.67812000  0.36496000  0.35935400  1
  C  C27  1  0.69753800  0.63149100  0.51613700  1
  C  C28  1  0.73458800  0.63861800  0.86714100  1
  C  C29  1  0.83141700  0.41868900  0.66680000  1
  C  C30  1  0.25768300  0.63380400  0.98650700  1
  C  C31  1  0.74569000  0.12962300  0.19227100  1
  C  C32  1  0.74939700  0.14674800  0.52512700  1
  C  C33  1  0.74112300  0.85064700  0.35651200  1
  C  C34  1  0.73732300  0.88490800  0.02607400  1
  C  C35  1  0.77282800  0.14809700  0.84182200  1
  C  C36  1  0.78100300  0.88607300  0.68174400  1
