# generated using pymatgen
data_Cu2NiC17
_symmetry_space_group_name_H-M   'P 1'
_cell_length_a   8.93463344
_cell_length_b   8.93463314
_cell_length_c   21.87988349
_cell_angle_alpha   90.52109514
_cell_angle_beta   89.47890486
_cell_angle_gamma   119.84004210
_symmetry_Int_Tables_number   1
_chemical_formula_structural   Cu2NiC17
_chemical_formula_sum   'Cu12 Ni6 C102'
_cell_volume   1514.96595309
_cell_formula_units_Z   6
loop_
 _symmetry_equiv_pos_site_id
 _symmetry_equiv_pos_as_xyz
  1  'x, y, z'
loop_
 _atom_site_type_symbol
 _atom_site_label
 _atom_site_symmetry_multiplicity
 _atom_site_fract_x
 _atom_site_fract_y
 _atom_site_fract_z
 _atom_site_occupancy
  C  C0  1  0.99477887  0.99025690  0.49849246  1
  C  C1  1  0.00974310  0.00522113  0.99849246  1
  C  C2  1  0.67050794  0.32697197  0.83208468  1
  C  C3  1  0.67302803  0.32949206  0.33208468  1
  C  C4  1  0.36109805  0.68587022  0.16488624  1
  C  C5  1  0.31412978  0.63890195  0.66488624  1
  C  C6  1  0.35922062  0.35335864  0.24815280  1
  C  C7  1  0.99344929  0.63501007  0.24644791  1
  C  C8  1  0.64664136  0.64077938  0.74815280  1
  C  C9  1  0.36498993  0.00655071  0.74644791  1
  C  C10  1  0.03577843  0.69680719  0.58102003  1
  C  C11  1  0.64972228  0.96545455  0.58561861  1
  C  C12  1  0.30319281  0.96422157  0.08102003  1
  C  C13  1  0.03454545  0.35027772  0.08561861  1
  C  C14  1  0.98067235  0.68224484  0.91911905  1
  C  C15  1  0.69734575  0.02465099  0.91241860  1
  C  C16  1  0.97534901  0.30265425  0.41241860  1
  C  C17  1  0.31775516  0.01932765  0.41911905  1
  C  C18  1  0.98896378  0.99076834  0.35050819  1
  C  C19  1  0.00923166  0.01103622  0.85050819  1
  C  C20  1  0.67187823  0.33146224  0.68465456  1
  C  C21  1  0.66853776  0.32812177  0.18465456  1
  C  C22  1  0.33186599  0.66606374  0.01718044  1
  C  C23  1  0.33393626  0.66813401  0.51718044  1
  Ni  Ni24  1  0.00692200  0.29711992  0.25206261  1
  Ni  Ni25  1  0.70288008  0.99307800  0.75206261  1
  Ni  Ni26  1  0.36504930  0.04766190  0.58414240  1
  Ni  Ni27  1  0.95233810  0.63495070  0.08414240  1
  Ni  Ni28  1  0.34592314  0.97395967  0.91854818  1
  Ni  Ni29  1  0.02604033  0.65407686  0.41854818  1
  C  C30  1  0.00697103  0.01405230  0.64782888  1
  C  C31  1  0.98594770  0.99302897  0.14782888  1
  C  C32  1  0.66375748  0.34013521  0.98046146  1
  C  C33  1  0.65986479  0.33624252  0.48046146  1
  C  C34  1  0.32431664  0.65759606  0.31426278  1
  C  C35  1  0.34240394  0.67568336  0.81426278  1
  Cu  Cu36  1  0.28825713  0.98594661  0.25077607  1
  Cu  Cu37  1  0.69425507  0.71194994  0.24902066  1
  Cu  Cu38  1  0.28805006  0.30574493  0.74902066  1
  Cu  Cu39  1  0.01405339  0.71174287  0.75077607  1
  Cu  Cu40  1  0.95691078  0.32113671  0.58067079  1
  Cu  Cu41  1  0.67782877  0.63286354  0.58500761  1
  Cu  Cu42  1  0.67886329  0.04308922  0.08067079  1
  Cu  Cu43  1  0.36713646  0.32217123  0.08500761  1
  Cu  Cu44  1  0.62017488  0.65070358  0.91386473  1
  Cu  Cu45  1  0.03789046  0.38345398  0.91760869  1
  Cu  Cu46  1  0.61654602  0.96210954  0.41760869  1
  Cu  Cu47  1  0.34929642  0.37982512  0.41386473  1
  C  C48  1  0.21623360  0.01532484  0.31028420  1
  C  C49  1  0.81238724  0.77345798  0.30423475  1
  C  C50  1  0.99407718  0.20373960  0.31533084  1
  C  C51  1  0.22654202  0.18761276  0.80423475  1
  C  C52  1  0.98467516  0.78376640  0.81028420  1
  C  C53  1  0.79626040  0.00592282  0.81533084  1
  C  C54  1  0.80780378  0.96556643  0.69219122  1
  C  C55  1  0.17322750  0.21491919  0.69168701  1
  C  C56  1  0.04556031  0.83413855  0.69444347  1
  C  C57  1  0.78508081  0.82677250  0.19168701  1
  C  C58  1  0.03443357  0.19219622  0.19219122  1
  C  C59  1  0.16586145  0.95443969  0.19444347  1
  C  C60  1  0.88817810  0.37064339  0.63700025  1
  C  C61  1  0.47528133  0.11788506  0.64554146  1
  C  C62  1  0.65986073  0.54293606  0.64574561  1
  C  C63  1  0.88211494  0.52471867  0.14554146  1
  C  C64  1  0.62935661  0.11182190  0.13700025  1
  C  C65  1  0.45706394  0.34013927  0.14574561  1
  C  C66  1  0.46751844  0.29526110  0.03048997  1
  C  C67  1  0.83152199  0.53343742  0.02244930  1
  C  C68  1  0.71075507  0.16091578  0.02317084  1
  C  C69  1  0.46656258  0.16847801  0.52244930  1
  C  C70  1  0.70473890  0.53248156  0.53048997  1
  C  C71  1  0.83908422  0.28924493  0.52317084  1
  C  C72  1  0.53727798  0.68278930  0.96933820  1
  C  C73  1  0.12222970  0.44503774  0.98018341  1
  C  C74  1  0.30978569  0.86488454  0.98023669  1
  C  C75  1  0.55496226  0.87777030  0.48018341  1
  C  C76  1  0.31721070  0.46272202  0.46933820  1
  C  C77  1  0.13511546  0.69021431  0.48023669  1
  C  C78  1  0.12726075  0.61839767  0.35879361  1
  C  C79  1  0.48857232  0.85339040  0.36532337  1
  C  C80  1  0.36956560  0.48423847  0.35364888  1
  C  C81  1  0.14660960  0.51142768  0.86532337  1
  C  C82  1  0.38160233  0.87273925  0.85879361  1
  C  C83  1  0.51576153  0.63043440  0.85364888  1
  C  C84  1  0.00751413  0.82423655  0.41246245  1
  C  C85  1  0.80233917  0.99949439  0.41125455  1
  C  C86  1  0.19487197  0.19415236  0.41149344  1
  C  C87  1  0.00050561  0.19766083  0.91125455  1
  C  C88  1  0.17576345  0.99248587  0.91246245  1
  C  C89  1  0.80584764  0.80512803  0.91149344  1
  C  C90  1  0.94911185  0.14281042  0.58884359  1
  C  C91  1  0.17082248  0.03111526  0.58972203  1
  C  C92  1  0.84941001  0.81322186  0.58603975  1
  C  C93  1  0.96888474  0.82917752  0.08972203  1
  C  C94  1  0.85718958  0.05088815  0.08884359  1
  C  C95  1  0.18677814  0.15058999  0.08603975  1
  C  C96  1  0.66496327  0.15233946  0.74914691  1
  C  C97  1  0.47680869  0.34775774  0.74147871  1
  C  C98  1  0.85434050  0.53278527  0.74428155  1
  C  C99  1  0.65224226  0.52319131  0.24147871  1
  C  C100  1  0.84766054  0.33503673  0.24914691  1
  C  C101  1  0.46721473  0.14565950  0.24428155  1
  C  C102  1  0.63016646  0.48142094  0.91952835  1
  C  C103  1  0.85994340  0.38133948  0.91746348  1
  C  C104  1  0.53181526  0.16044346  0.92405497  1
  C  C105  1  0.61866052  0.14005660  0.41746348  1
  C  C106  1  0.51857906  0.36983354  0.41952835  1
  C  C107  1  0.83955654  0.46818474  0.42405497  1
  C  C108  1  0.33676306  0.47555708  0.07845818  1
  C  C109  1  0.14861181  0.66325206  0.08118171  1
  C  C110  1  0.53379678  0.85697524  0.07479523  1
  C  C111  1  0.33674794  0.85138819  0.58118171  1
  C  C112  1  0.52444292  0.66323694  0.57845818  1
  C  C113  1  0.14302476  0.46620322  0.57479523  1
  C  C114  1  0.29699181  0.81544316  0.25522349  1
  C  C115  1  0.52127063  0.71386243  0.25720373  1
  C  C116  1  0.19334231  0.48954937  0.25243636  1
  C  C117  1  0.28613757  0.47872937  0.75720373  1
  C  C118  1  0.18455684  0.70300819  0.75522349  1
  C  C119  1  0.51045063  0.80665769  0.75243636  1
