# generated using pymatgen
data_Cu8Ni2C
_symmetry_space_group_name_H-M   'P 1'
_cell_length_a   6.96386000
_cell_length_b   7.30480700
_cell_length_c   8.41778500
_cell_angle_alpha   90.00000000
_cell_angle_beta   90.00000000
_cell_angle_gamma   90.00000000
_symmetry_Int_Tables_number   1
_chemical_formula_structural   Cu8Ni2C
_chemical_formula_sum   'Cu32 Ni8 C4'
_cell_volume   428.20980429
_cell_formula_units_Z   4
loop_
 _symmetry_equiv_pos_site_id
 _symmetry_equiv_pos_as_xyz
  1  'x, y, z'
loop_
 _atom_site_type_symbol
 _atom_site_label
 _atom_site_symmetry_multiplicity
 _atom_site_fract_x
 _atom_site_fract_y
 _atom_site_fract_z
 _atom_site_occupancy
  C  C0  1  0.00000000  0.25000000  0.37471300  1
  C  C1  1  0.50000000  0.75000000  0.12528700  1
  C  C2  1  0.00000000  0.75000000  0.62528700  1
  C  C3  1  0.50000000  0.25000000  0.87471300  1
  Ni  Ni4  1  0.26412600  0.43618400  0.10921200  1
  Ni  Ni5  1  0.76412700  0.56381600  0.39078800  1
  Ni  Ni6  1  0.23587400  0.93618400  0.39078800  1
  Ni  Ni7  1  0.73587300  0.06381600  0.10921200  1
  Ni  Ni8  1  0.73587300  0.56381600  0.89078800  1
  Ni  Ni9  1  0.23587400  0.43618400  0.60921200  1
  Ni  Ni10  1  0.76412700  0.06381600  0.60921200  1
  Ni  Ni11  1  0.26412600  0.93618400  0.89078800  1
  Cu  Cu12  1  0.16232500  0.30002300  0.10761100  1
  Cu  Cu13  1  0.66232500  0.69997700  0.39238900  1
  Cu  Cu14  1  0.33767500  0.80002300  0.39238900  1
  Cu  Cu15  1  0.83767500  0.19997700  0.10761100  1
  Cu  Cu16  1  0.83767500  0.69997700  0.89238900  1
  Cu  Cu17  1  0.33767500  0.30002300  0.60761100  1
  Cu  Cu18  1  0.66232500  0.19997700  0.60761100  1
  Cu  Cu19  1  0.16232500  0.80002300  0.89238900  1
  Cu  Cu20  1  0.42654300  0.39510200  0.15535800  1
  Cu  Cu21  1  0.92654300  0.60489800  0.34464200  1
  Cu  Cu22  1  0.07345700  0.89510200  0.34464200  1
  Cu  Cu23  1  0.57345700  0.10489800  0.15535800  1
  Cu  Cu24  1  0.57345700  0.60489800  0.84464200  1
  Cu  Cu25  1  0.07345700  0.39510200  0.65535800  1
  Cu  Cu26  1  0.92654300  0.10489800  0.65535800  1
  Cu  Cu27  1  0.42654300  0.89510200  0.84464200  1
  Cu  Cu28  1  0.27072500  0.49675300  0.97281800  1
  Cu  Cu29  1  0.77072500  0.50324700  0.52718200  1
  Cu  Cu30  1  0.22927500  0.99675300  0.52718200  1
  Cu  Cu31  1  0.72927500  0.00324700  0.97281800  1
  Cu  Cu32  1  0.72927500  0.50324700  0.02718200  1
  Cu  Cu33  1  0.22927500  0.49675300  0.47281800  1
  Cu  Cu34  1  0.77072500  0.00324700  0.47281800  1
  Cu  Cu35  1  0.27072500  0.99675300  0.02718200  1
  Cu  Cu36  1  0.19922200  0.55682000  0.19456000  1
  Cu  Cu37  1  0.69922200  0.44318000  0.30544000  1
  Cu  Cu38  1  0.30077800  0.05682000  0.30544000  1
  Cu  Cu39  1  0.80077800  0.94318000  0.19456000  1
  Cu  Cu40  1  0.80077800  0.44318000  0.80544000  1
  Cu  Cu41  1  0.30077800  0.55682000  0.69456000  1
  Cu  Cu42  1  0.69922200  0.94318000  0.69456000  1
  Cu  Cu43  1  0.19922200  0.05682000  0.80544000  1
