# generated using pymatgen
data_Cu2NiC16
_symmetry_space_group_name_H-M   'P 1'
_cell_length_a   5.23637356
_cell_length_b   6.85639011
_cell_length_c   6.85639011
_cell_angle_alpha   90.30898909
_cell_angle_beta   88.26015452
_cell_angle_gamma   88.26015452
_symmetry_Int_Tables_number   1
_chemical_formula_structural   Cu2NiC16
_chemical_formula_sum   'Cu2 Ni1 C16'
_cell_volume   245.93054008
_cell_formula_units_Z   1
loop_
 _symmetry_equiv_pos_site_id
 _symmetry_equiv_pos_as_xyz
  1  'x, y, z'
loop_
 _atom_site_type_symbol
 _atom_site_label
 _atom_site_symmetry_multiplicity
 _atom_site_fract_x
 _atom_site_fract_y
 _atom_site_fract_z
 _atom_site_occupancy
  C  C0  1  0.50246400  0.99842600  0.48765900  1
  C  C1  1  0.42231500  0.95984800  0.95984800  1
  C  C2  1  0.50570600  0.51048200  0.51048200  1
  C  C3  1  0.50246400  0.48765900  0.99842600  1
  Ni  Ni4  1  0.89707800  0.04239400  0.04239400  1
  Cu  Cu5  1  0.07404400  0.28623200  0.28623200  1
  Cu  Cu6  1  0.94750900  0.74069500  0.74069500  1
  C  C7  1  0.99848400  0.74706400  0.26356100  1
  C  C8  1  0.99848400  0.26356100  0.74706400  1
  C  C9  1  0.74079600  0.23432800  0.23432800  1
  C  C10  1  0.28409200  0.74101800  0.74101800  1
  C  C11  1  0.19558700  0.25419600  0.55547200  1
  C  C12  1  0.15954000  0.24419100  0.95322000  1
  C  C13  1  0.19558700  0.55547200  0.25419600  1
  C  C14  1  0.15954000  0.95322000  0.24419100  1
  C  C15  1  0.81844800  0.06153900  0.76103100  1
  C  C16  1  0.81844800  0.76103100  0.06153900  1
  C  C17  1  0.81470800  0.45932000  0.74932400  1
  C  C18  1  0.81470800  0.74932400  0.45932000  1
