# generated using pymatgen
data_Cu4(NiC21)3
_symmetry_space_group_name_H-M   'P 1'
_cell_length_a   17.70387230
_cell_length_b   8.88638133
_cell_length_c   23.13625077
_cell_angle_alpha   89.55914526
_cell_angle_beta   88.82254830
_cell_angle_gamma   120.27093677
_symmetry_Int_Tables_number   1
_chemical_formula_structural   Cu4(NiC21)3
_chemical_formula_sum   'Cu12 Ni9 C189'
_cell_volume   3142.23026599
_cell_formula_units_Z   3
loop_
 _symmetry_equiv_pos_site_id
 _symmetry_equiv_pos_as_xyz
  1  'x, y, z'
loop_
 _atom_site_type_symbol
 _atom_site_label
 _atom_site_symmetry_multiplicity
 _atom_site_fract_x
 _atom_site_fract_y
 _atom_site_fract_z
 _atom_site_occupancy
  C  C0  1  0.99427328  0.01900565  0.50221144  1
  C  C1  1  0.49454849  0.97161976  0.00413288  1
  C  C2  1  0.31971907  0.30827717  0.83517391  1
  C  C3  1  0.82726594  0.32840394  0.82551230  1
  C  C4  1  0.32826359  0.32444602  0.32540309  1
  C  C5  1  0.81586333  0.32826388  0.33217688  1
  C  C6  1  0.00848851  0.00650012  0.34967714  1
  C  C7  1  0.50813205  0.01069155  0.85104378  1
  C  C8  1  0.00008358  0.00487232  0.64517382  1
  C  C9  1  0.50273070  0.99528765  0.14542734  1
  C  C10  1  0.32272937  0.32893055  0.98246704  1
  C  C11  1  0.84341572  0.34550660  0.98258944  1
  C  C12  1  0.34415225  0.33872543  0.48075809  1
  C  C13  1  0.82368203  0.31932261  0.48160456  1
  C  C14  1  0.16419083  0.67443752  0.30181291  1
  C  C15  1  0.67014852  0.66734336  0.30374297  1
  C  C16  1  0.17042660  0.67744335  0.80728980  1
  C  C17  1  0.66295696  0.65158393  0.80239968  1
  Ni  Ni18  1  0.15504632  0.02894125  0.24212697  1
  Ni  Ni19  1  0.65641660  0.02961971  0.24667185  1
  Ni  Ni20  1  0.65585312  0.28215775  0.74223402  1
  Ni  Ni21  1  0.48592623  0.33586453  0.58359657  1
  Ni  Ni22  1  0.98344434  0.35170951  0.58118243  1
  Ni  Ni23  1  0.48116343  0.61772276  0.08104350  1
  Ni  Ni24  1  0.97885755  0.62828913  0.08664320  1
  Ni  Ni25  1  0.16175151  0.95671982  0.91339010  1
  Ni  Ni26  1  0.66237100  0.36836342  0.41229553  1
  Cu  Cu27  1  0.52528806  0.03589419  0.35276776  1
  Cu  Cu28  1  0.00363256  0.99320803  0.86001880  1
  Cu  Cu29  1  0.51137190  0.03377084  0.64473492  1
  Cu  Cu30  1  0.00906831  0.98752914  0.14570290  1
  Cu  Cu31  1  0.34615270  0.35078969  0.67760604  1
  Cu  Cu32  1  0.83051864  0.32847056  0.67551110  1
  Cu  Cu33  1  0.33566599  0.35058565  0.18258613  1
  Cu  Cu34  1  0.83866423  0.33198527  0.18417810  1
  Cu  Cu35  1  0.15922963  0.70713790  0.02544466  1
  Cu  Cu36  1  0.66503310  0.67372873  0.02922664  1
  Cu  Cu37  1  0.16508539  0.66445881  0.52195260  1
  Cu  Cu38  1  0.65901056  0.62325929  0.51594559  1
  C  C39  1  0.36230723  0.69691131  0.25392359  1
  C  C40  1  0.86436031  0.70786351  0.24204225  1
  C  C41  1  0.99049814  0.27600353  0.24228797  1
  C  C42  1  0.48851018  0.27526305  0.25237913  1
  C  C43  1  0.15259691  0.27611352  0.75210806  1
  C  C44  1  0.98938536  0.70096107  0.75351340  1
  C  C45  1  0.48729321  0.70074838  0.74214300  1
  C  C46  1  0.36249386  0.02301075  0.74049459  1
  C  C47  1  0.86301730  0.02880568  0.75480968  1
  C  C48  1  0.19240963  0.02903711  0.58214134  1
  C  C49  1  0.67927685  0.02334537  0.58863169  1
  C  C50  1  0.33484766  0.63536180  0.58730049  1
  C  C51  1  0.82375673  0.62202140  0.58151574  1
  C  C52  1  0.32444434  0.02682307  0.08216524  1
  C  C53  1  0.83431708  0.03143855  0.08758117  1
  C  C54  1  0.17851652  0.33643208  0.08866433  1
  C  C55  1  0.68973718  0.35532332  0.07985240  1
  C  C56  1  0.30808359  0.67842286  0.92198634  1
  C  C57  1  0.81395262  0.68140818  0.91526365  1
  C  C58  1  0.02290752  0.35747267  0.91356476  1
  C  C59  1  0.52671511  0.37922554  0.92317688  1
  C  C60  1  0.66490540  0.94285791  0.92219061  1
  C  C61  1  0.31345844  0.94297621  0.41599626  1
  C  C62  1  0.80751460  0.93593032  0.42282985  1
  C  C63  1  0.16407562  0.38440193  0.42256316  1
  C  C64  1  0.02712920  0.67503667  0.42202239  1
  C  C65  1  0.52638050  0.69148665  0.41441233  1
  C  C66  1  0.12206252  0.07463745  0.30220358  1
  C  C67  1  0.61146187  0.06678309  0.30630951  1
  C  C68  1  0.41693995  0.77809810  0.30435795  1
  C  C69  1  0.91380898  0.78396944  0.29523920  1
  C  C70  1  0.47367041  0.16118425  0.30614478  1
  C  C71  1  0.97387315  0.17370634  0.29684527  1
  C  C72  1  0.11065067  0.16657204  0.80589355  1
  C  C73  1  0.62158195  0.16707930  0.80199147  1
  C  C74  1  0.46999598  0.76720315  0.79619882  1
  C  C75  1  0.97582850  0.78515500  0.80697165  1
  C  C76  1  0.41187707  0.05043439  0.79381462  1
  C  C77  1  0.91752015  0.05355786  0.80659039  1
  C  C78  1  0.40646751  0.99805534  0.68951699  1
  C  C79  1  0.89912726  0.99426076  0.70250794  1
  C  C80  1  0.10136481  0.19725179  0.70111410  1
  C  C81  1  0.58844095  0.18125111  0.69072763  1
  C  C82  1  0.00437762  0.80729018  0.70156454  1
  C  C83  1  0.49815320  0.80867034  0.69130199  1
  C  C84  1  0.39341796  0.79925186  0.20039731  1
  C  C85  1  0.90628343  0.82600194  0.19081890  1
  C  C86  1  0.00069423  0.19043810  0.19164526  1
  C  C87  1  0.50067542  0.19995048  0.20021761  1
  C  C88  1  0.08808006  0.99631952  0.19080848  1
  C  C89  1  0.59886388  0.99775401  0.19232936  1
  C  C90  1  0.44034938  0.38152048  0.64035265  1
  C  C91  1  0.92958384  0.37546473  0.64131396  1
  C  C92  1  0.24496491  0.11240837  0.63458515  1
  C  C93  1  0.73813200  0.11300515  0.63912806  1
  C  C94  1  0.31042006  0.50564090  0.64036995  1
  C  C95  1  0.80857071  0.51011783  0.63447202  1
  C  C96  1  0.42965023  0.48559287  0.14125849  1
  C  C97  1  0.92797497  0.48288501  0.14084231  1
  C  C98  1  0.30877746  0.10432361  0.13376227  1
  C  C99  1  0.81118684  0.10773861  0.13821630  1
  C  C100  1  0.23661394  0.36368091  0.13875732  1
  C  C101  1  0.74031631  0.37523643  0.13175502  1
  C  C102  1  0.20997175  0.28570437  0.03749040  1
  C  C103  1  0.72523904  0.31616172  0.02787097  1
  C  C104  1  0.42458209  0.52946593  0.02637237  1
  C  C105  1  0.92445274  0.55624118  0.02958103  1
  C  C106  1  0.33639434  0.12507819  0.02877993  1
  C  C107  1  0.85178293  0.13983791  0.03513723  1
  C  C108  1  0.22628740  0.14157123  0.53036554  1
  C  C109  1  0.71064354  0.14025466  0.53801577  1
  C  C110  1  0.35295805  0.55917197  0.53676339  1
  C  C111  1  0.84054909  0.54967190  0.52991955  1
  C  C112  1  0.42457461  0.29279780  0.52995495  1
  C  C113  1  0.92416589  0.31513829  0.52707709  1
  C  C114  1  0.26127917  0.68558314  0.97553872  1
  C  C115  1  0.77643641  0.70581748  0.96982592  1
  C  C116  1  0.06958040  0.43056471  0.96667171  1
  C  C117  1  0.58145074  0.46727358  0.97397099  1
  C  C118  1  0.14758034  0.84002270  0.97490760  1
  C  C119  1  0.65715839  0.84175883  0.97768172  1
  C  C120  1  0.27207159  0.83805844  0.47338044  1
  C  C121  1  0.75995055  0.83275316  0.47871154  1
  C  C122  1  0.15534546  0.46775227  0.47788771  1
  C  C123  1  0.64817350  0.45466009  0.47330540  1
  C  C124  1  0.08106116  0.69469951  0.47413697  1
  C  C125  1  0.57308419  0.70838454  0.46903141  1
  C  C126  1  0.06833975  0.66166938  0.36848307  1
  C  C127  1  0.56781557  0.66323344  0.36424917  1
  C  C128  1  0.25624880  0.86111876  0.36746992  1
  C  C129  1  0.76180787  0.85575472  0.37061747  1
  C  C130  1  0.16978984  0.48247159  0.37070719  1
  C  C131  1  0.68017724  0.48732899  0.35693744  1
  C  C132  1  0.06540739  0.46307134  0.86149069  1
  C  C133  1  0.56734110  0.47474484  0.86841487  1
  C  C134  1  0.17571547  0.86753647  0.85811206  1
  C  C135  1  0.67078231  0.85734896  0.87029480  1
  C  C136  1  0.26320484  0.66706532  0.86820399  1
  C  C137  1  0.76078919  0.65690040  0.86498544  1
  C  C138  1  0.01960097  0.83404105  0.42070769  1
  C  C139  1  0.51982659  0.85325357  0.40736282  1
  C  C140  1  0.39796781  0.95264689  0.40868631  1
  C  C141  1  0.89514204  0.95248061  0.42272643  1
  C  C142  1  0.08354298  0.20908973  0.42273478  1
  C  C143  1  0.56670670  0.18300813  0.40883953  1
  C  C144  1  0.01561421  0.17998998  0.90713245  1
  C  C145  1  0.51877707  0.20381454  0.92053726  1
  C  C146  1  0.06866086  0.95739955  0.90744351  1
  C  C147  1  0.58395707  0.95498569  0.92203843  1
  C  C148  1  0.39644592  0.83816177  0.91965483  1
  C  C149  1  0.90127911  0.84800679  0.90721746  1
  C  C150  1  0.49737629  0.16642191  0.59519595  1
  C  C151  1  0.00008039  0.19056294  0.58984461  1
  C  C152  1  0.10112241  0.98721840  0.59054234  1
  C  C153  1  0.58683034  0.98707891  0.59995486  1
  C  C154  1  0.41027980  0.80498419  0.60008364  1
  C  C155  1  0.90061502  0.79716227  0.58885772  1
  C  C156  1  0.49617384  0.81059967  0.08548064  1
  C  C157  1  0.99426959  0.82281174  0.09779583  1
  C  C158  1  0.39871733  0.99932609  0.08715700  1
  C  C159  1  0.90896924  0.00824458  0.09856306  1
  C  C160  1  0.08587610  0.18505873  0.09908167  1
  C  C161  1  0.59744505  0.21922133  0.08541749  1
  C  C162  1  0.35277557  0.18294661  0.73463754  1
  C  C163  1  0.85835684  0.18996378  0.74652954  1
  C  C164  1  0.24115666  0.28864582  0.74513603  1
  C  C165  1  0.75375046  0.30172271  0.72951132  1
  C  C166  1  0.40459812  0.51884017  0.73739948  1
  C  C167  1  0.90890207  0.52981850  0.74879187  1
  C  C168  1  0.35833495  0.52335658  0.24539654  1
  C  C169  1  0.86110005  0.53834086  0.23623658  1
  C  C170  1  0.40775662  0.28755521  0.24879925  1
  C  C171  1  0.91027012  0.29444878  0.23831958  1
  C  C172  1  0.25322503  0.20389137  0.22989125  1
  C  C173  1  0.75301522  0.21837716  0.23613846  1
  C  C174  1  0.31903762  0.52450591  0.92278443  1
  C  C175  1  0.82776150  0.53023501  0.91894379  1
  C  C176  1  0.43905509  0.35759438  0.92622477  1
  C  C177  1  0.93243482  0.32887933  0.91611552  1
  C  C178  1  0.24423020  0.15009163  0.91653907  1
  C  C179  1  0.74219117  0.11890929  0.92450394  1
  C  C180  1  0.32369179  0.11983260  0.42103513  1
  C  C181  1  0.81762814  0.11015172  0.42532483  1
  C  C182  1  0.24183453  0.36504217  0.42554919  1
  C  C183  1  0.74257288  0.33273662  0.41755126  1
  C  C184  1  0.43533269  0.53997061  0.41853441  1
  C  C185  1  0.93973977  0.52023307  0.42590898  1
  C  C186  1  0.17422881  0.49462003  0.07927813  1
  C  C187  1  0.69525409  0.53064027  0.07162706  1
  C  C188  1  0.07448380  0.63692283  0.07769214  1
  C  C189  1  0.57838422  0.62965387  0.07688247  1
  C  C190  1  0.24290669  0.84558232  0.07759864  1
  C  C191  1  0.75368141  0.85491683  0.07809599  1
  C  C192  1  0.19317504  0.86290370  0.57374289  1
  C  C193  1  0.67556300  0.85834722  0.58016602  1
  C  C194  1  0.25562486  0.65015885  0.57901301  1
  C  C195  1  0.74484526  0.63939795  0.57528198  1
  C  C196  1  0.08200405  0.53227237  0.57398923  1
  C  C197  1  0.58019516  0.51824719  0.57235465  1
  C  C198  1  0.16570647  0.86173140  0.24865840  1
  C  C199  1  0.67755338  0.88113065  0.26022870  1
  C  C200  1  0.27196489  0.65572449  0.26442345  1
  C  C201  1  0.77675911  0.68241679  0.24547397  1
  C  C202  1  0.06762660  0.44960684  0.24804460  1
  C  C203  1  0.56385725  0.44951280  0.25831269  1
  C  C204  1  0.16486226  0.44990041  0.75866546  1
  C  C205  1  0.66623948  0.47039085  0.74877504  1
  C  C206  1  0.06469711  0.67626149  0.75895182  1
  C  C207  1  0.56292189  0.67714020  0.74774214  1
  C  C208  1  0.27553169  0.86769739  0.74453568  1
  C  C209  1  0.77377285  0.88178792  0.76325314  1
