# generated using pymatgen
data_CuNiC17
_symmetry_space_group_name_H-M   'P 1'
_cell_length_a   8.98757328
_cell_length_b   8.98757297
_cell_length_c   22.49766274
_cell_angle_alpha   89.70321090
_cell_angle_beta   90.29678909
_cell_angle_gamma   119.58441644
_symmetry_Int_Tables_number   1
_chemical_formula_structural   CuNiC17
_chemical_formula_sum   'Cu6 Ni6 C102'
_cell_volume   1580.33299988
_cell_formula_units_Z   6
loop_
 _symmetry_equiv_pos_site_id
 _symmetry_equiv_pos_as_xyz
  1  'x, y, z'
loop_
 _atom_site_type_symbol
 _atom_site_label
 _atom_site_symmetry_multiplicity
 _atom_site_fract_x
 _atom_site_fract_y
 _atom_site_fract_z
 _atom_site_occupancy
  C  C0  1  0.98842028  0.63617006  0.24265977  1
  C  C1  1  0.36382994  0.01157972  0.74265977  1
  C  C2  1  0.65012844  0.96402611  0.58329107  1
  C  C3  1  0.03597389  0.34987156  0.08329107  1
  C  C4  1  0.98888181  0.68379107  0.91688830  1
  C  C5  1  0.31620893  0.01111819  0.41688830  1
  C  C6  1  -0.00385874  0.98963716  0.49315022  1
  C  C7  1  0.01036284  0.00385874  0.99315022  1
  C  C8  1  0.67454770  0.32470944  0.82717931  1
  C  C9  1  0.67529056  0.32545230  0.32717931  1
  C  C10  1  0.35910082  0.68720684  0.15930807  1
  C  C11  1  0.31279316  0.64089918  0.65930807  1
  C  C12  1  0.00092920  0.00003021  0.64593467  1
  C  C13  1  -0.00003021  0.99907080  0.14593467  1
  C  C14  1  0.66185191  0.33083377  0.97924012  1
  C  C15  1  0.66916623  0.33814809  0.47924012  1
  C  C16  1  0.32787334  0.65858640  0.31231694  1
  C  C17  1  0.34141360  0.67212666  0.81231694  1
  Ni  Ni18  1  0.99213583  0.00103370  0.35146405  1
  Ni  Ni19  1  -0.00103370  0.00786417  0.85146405  1
  Ni  Ni20  1  0.67269514  0.33598527  0.68462029  1
  Ni  Ni21  1  0.66401473  0.32730486  0.18462029  1
  Ni  Ni22  1  0.33577181  0.67424469  0.01818360  1
  Ni  Ni23  1  0.32575531  0.66422819  0.51818360  1
  Cu  Cu24  1  0.00099619  0.29527560  0.24994592  1
  Cu  Cu25  1  0.70472440  -0.00099619  0.74994592  1
  Cu  Cu26  1  0.36924372  0.03815674  0.58452974  1
  Cu  Cu27  1  0.96184326  0.63075628  0.08452974  1
  Cu  Cu28  1  0.33408797  0.96522869  0.91554559  1
  Cu  Cu29  1  0.03477131  0.66591203  0.41554559  1
  C  C30  1  0.29402375  -0.00161880  0.25308506  1
  C  C31  1  0.70345834  0.71205263  0.24947883  1
  C  C32  1  0.28794737  0.29654166  0.74947883  1
  C  C33  1  0.00161880  0.70597625  0.75308506  1
  C  C34  1  0.96008225  0.32792105  0.58388185  1
  C  C35  1  0.67361966  0.62858227  0.58420380  1
  C  C36  1  0.67207895  0.03991775  0.08388185  1
  C  C37  1  0.37141773  0.32638034  0.08420380  1
  C  C38  1  0.62194442  0.65858511  0.91798118  1
  C  C39  1  0.03834697  0.37571895  0.91986876  1
  C  C40  1  0.62428105  0.96165303  0.41986876  1
  C  C41  1  0.34141489  0.37805558  0.41798118  1
  C  C42  1  0.22012151  0.01401755  0.31174559  1
  C  C43  1  0.82180672  0.78089421  0.30304939  1
  C  C44  1  0.97840406  0.18932190  0.30869764  1
  C  C45  1  0.21910579  0.17819328  0.80304939  1
  C  C46  1  0.98598245  0.77987849  0.81174559  1
  C  C47  1  0.81067810  0.02159594  0.80869764  1
  C  C48  1  0.80066480  0.97704186  0.68924214  1
  C  C49  1  0.16837082  0.19839867  0.69374860  1
  C  C50  1  0.02713410  0.83452468  0.69961830  1
  C  C51  1  0.80160133  0.83162918  0.19374860  1
  C  C52  1  0.02295814  0.19933520  0.18924214  1
  C  C53  1  0.16547532  0.97286590  0.19961830  1
  C  C54  1  0.88858713  0.35681828  0.64063915  1
  C  C55  1  0.47970053  0.11918382  0.64381795  1
  C  C56  1  0.65052973  0.52856089  0.64061789  1
  C  C57  1  0.88081618  0.52029947  0.14381795  1
  C  C58  1  0.64318172  0.11141287  0.14063915  1
  C  C59  1  0.47143911  0.34947027  0.14061789  1
  C  C60  1  0.46701330  0.30441907  0.02864072  1
  C  C61  1  0.83542608  0.52600285  0.02556085  1
  C  C62  1  0.69313141  0.16194087  0.02941477  1
  C  C63  1  0.47399715  0.16457392  0.52556085  1
  C  C64  1  0.69558093  0.53298670  0.52864072  1
  C  C65  1  0.83805913  0.30686859  0.52941477  1
  C  C66  1  0.54263196  0.68086180  0.97362225  1
  C  C67  1  0.12813653  0.44545682  0.97928046  1
  C  C68  1  0.28379992  0.83604362  0.97044776  1
  C  C69  1  0.55454318  0.87186347  0.47928046  1
  C  C70  1  0.31913820  0.45736804  0.47362225  1
  C  C71  1  0.16395638  0.71620008  0.47044776  1
  C  C72  1  0.13596911  0.64112173  0.35577616  1
  C  C73  1  0.50020259  0.85952651  0.36679356  1
  C  C74  1  0.36015887  0.49350056  0.36166641  1
  C  C75  1  0.14047349  0.49979741  0.86679356  1
  C  C76  1  0.35887827  0.86403089  0.85577616  1
  C  C77  1  0.50649944  0.63984113  0.86166641  1
  C  C78  1  0.00760602  0.82961467  0.41068653  1
  C  C79  1  0.80692434  0.99710094  0.41377660  1
  C  C80  1  0.19722097  0.19362936  0.41203649  1
  C  C81  1  0.00289906  0.19307566  0.91377660  1
  C  C82  1  0.17038533  0.99239398  0.91068653  1
  C  C83  1  0.80637064  0.80277903  0.91203649  1
  C  C84  1  0.95393654  0.14891830  0.58631562  1
  C  C85  1  0.17920297  0.02748130  0.59057209  1
  C  C86  1  0.84311248  0.80739338  0.58839287  1
  C  C87  1  0.97251870  0.82079703  0.09057209  1
  C  C88  1  0.85108170  0.04606346  0.08631562  1
  C  C89  1  0.19260662  0.15688752  0.08839287  1
  C  C90  1  0.65687505  0.15038635  0.74794579  1
  C  C91  1  0.47049617  0.33229737  0.74102089  1
  C  C92  1  0.85070734  0.52782968  0.74512999  1
  C  C93  1  0.66770263  0.52950383  0.24102089  1
  C  C94  1  0.84961365  0.34312495  0.24794579  1
  C  C95  1  0.47217032  0.14929266  0.24512999  1
  C  C96  1  0.62940128  0.48729174  0.92147918  1
  C  C97  1  0.86065307  0.37584199  0.92131117  1
  C  C98  1  0.51547723  0.14782076  0.92429989  1
  C  C99  1  0.62415801  0.13934693  0.42131117  1
  C  C100  1  0.51270826  0.37059872  0.42147918  1
  C  C101  1  0.85217924  0.48452277  0.42429989  1
  C  C102  1  0.33523780  0.47433318  0.07698411  1
  C  C103  1  0.15030483  0.65017631  0.08196576  1
  C  C104  1  0.53145552  0.85608838  0.07688232  1
  C  C105  1  0.34982369  0.84969517  0.58196576  1
  C  C106  1  0.52566682  0.66476220  0.57698411  1
  C  C107  1  0.14391162  0.46854448  0.57688232  1
  C  C108  1  0.29913530  0.82513991  0.25358020  1
  C  C109  1  0.53344280  0.71613690  0.25717289  1
  C  C110  1  0.18621817  0.48690471  0.25531091  1
  C  C111  1  0.28386310  0.46655720  0.75717289  1
  C  C112  1  0.17486009  0.70086470  0.75358020  1
  C  C113  1  0.51309529  0.81378183  0.75531091  1
