# generated using pymatgen
data_Cu2NiC38
_symmetry_space_group_name_H-M   'P 1'
_cell_length_a   9.01869128
_cell_length_b   9.01667096
_cell_length_c   22.12360970
_cell_angle_alpha   90.09580897
_cell_angle_beta   89.85201980
_cell_angle_gamma   119.98776039
_symmetry_Int_Tables_number   1
_chemical_formula_structural   Cu2NiC38
_chemical_formula_sum   'Cu6 Ni3 C114'
_cell_volume   1558.21873634
_cell_formula_units_Z   3
loop_
 _symmetry_equiv_pos_site_id
 _symmetry_equiv_pos_as_xyz
  1  'x, y, z'
loop_
 _atom_site_type_symbol
 _atom_site_label
 _atom_site_symmetry_multiplicity
 _atom_site_fract_x
 _atom_site_fract_y
 _atom_site_fract_z
 _atom_site_occupancy
  C  C0  1  0.36007495  0.37045519  0.25297985  1
  C  C1  1  0.00666701  0.63721367  0.25054501  1
  C  C2  1  0.62931553  0.64529439  0.75106939  1
  C  C3  1  0.00440769  0.36459543  0.75347152  1
  C  C4  1  0.36628685  0.98966117  0.75087147  1
  C  C5  1  0.29573280  0.31580792  0.58366926  1
  C  C6  1  0.03138695  0.70926492  0.58510566  1
  C  C7  1  0.67342199  0.97172770  0.58924332  1
  C  C8  1  0.29108930  0.96934559  0.08557969  1
  C  C9  1  0.68363486  0.70429154  0.08451971  1
  C  C10  1  0.02726981  0.32885522  0.08627296  1
  C  C11  1  0.95943581  0.65446865  0.92251281  1
  C  C12  1  0.69585793  0.03693117  0.91675654  1
  C  C13  1  0.96337497  0.30509469  0.41820615  1
  C  C14  1  0.34621301  0.03983259  0.42184159  1
  C  C15  1  0.99663389  0.99074455  0.50429877  1
  C  C16  1  0.00886833  0.00293860  0.00423259  1
  C  C17  1  0.65528517  0.32943204  0.83877895  1
  C  C18  1  0.66665820  0.33532516  0.33822432  1
  C  C19  1  0.34133053  0.67795966  0.17213944  1
  C  C20  1  0.34065124  0.67568557  0.67122094  1
  C  C21  1  0.99954245  0.99906257  0.64890416  1
  C  C22  1  0.99776721  0.99646727  0.14921128  1
  C  C23  1  0.66249951  0.33613413  0.98195398  1
  C  C24  1  0.66261461  0.33633766  0.48140783  1
  C  C25  1  0.33991840  0.67322103  0.31525006  1
  C  C26  1  0.33636189  0.66875965  0.81570045  1
  Ni  Ni27  1  0.70354939  0.00012798  0.74770253  1
  Ni  Ni28  1  0.36733238  0.03493396  0.57977026  1
  Ni  Ni29  1  0.96393293  0.63087146  0.08047302  1
  Cu  Cu30  1  0.99432356  0.99462697  0.34930108  1
  Cu  Cu31  1  0.00253426  0.00502704  0.84974110  1
  Cu  Cu32  1  0.66495032  0.32765565  0.68222068  1
  Cu  Cu33  1  0.66982618  0.33048441  0.18304185  1
  Cu  Cu34  1  0.33151583  0.66454940  0.01544553  1
  Cu  Cu35  1  0.33814381  0.66985944  0.51479468  1
  C  C36  1  0.29720383  0.00177212  0.24840666  1
  C  C37  1  0.70211473  0.70284939  0.24688690  1
  C  C38  1  0.99742744  0.29352084  0.24875780  1
  C  C39  1  0.29523912  0.29495196  0.74758277  1
  C  C40  1  0.99801665  0.70403765  0.74844205  1
  C  C41  1  0.96340943  0.33554621  0.58014439  1
  C  C42  1  0.66643204  0.62510548  0.58201469  1
  C  C43  1  0.66577350  0.03886689  0.08004105  1
  C  C44  1  0.37372132  0.33369315  0.08277634  1
  C  C45  1  0.62872329  0.66507975  0.91404480  1
  C  C46  1  0.03886074  0.36886021  0.91470996  1
  C  C47  1  0.33190155  0.96387717  0.91440534  1
  C  C48  1  0.63097812  0.96202192  0.41523167  1
  C  C49  1  0.33315631  0.37112640  0.41310449  1
  C  C50  1  0.03684729  0.66648737  0.41385841  1
  C  C51  1  0.21957912  0.04062346  0.30716855  1
  C  C52  1  0.82363701  0.78121682  0.30356243  1
  C  C53  1  0.97000109  0.18648131  0.30828024  1
  C  C54  1  0.22015118  0.17266187  0.80399565  1
  C  C55  1  0.96226830  0.78102701  0.80743021  1
  C  C56  1  0.82589647  0.04439826  0.80978930  1
  C  C57  1  0.79258949  0.97103690  0.68983397  1
  C  C58  1  0.18801884  0.21276523  0.69144779  1
  C  C59  1  0.02895346  0.81725224  0.69367921  1
  C  C60  1  0.78646759  0.80648801  0.19036563  1
  C  C61  1  0.02114893  0.20610566  0.19376608  1
  C  C62  1  0.18608278  0.97855838  0.19332869  1
  C  C63  1  0.89201073  0.37982429  0.63920959  1
  C  C64  1  0.48886130  0.11066316  0.64225320  1
  C  C65  1  0.62912999  0.51664088  0.64249196  1
  C  C66  1  0.88736676  0.50710640  0.14257960  1
  C  C67  1  0.61774808  0.11217407  0.13699444  1
  C  C68  1  0.48355642  0.37175286  0.14268573  1
  C  C69  1  0.46038990  0.29963487  0.03021691  1
  C  C70  1  0.84534038  0.54155751  0.02283358  1
  C  C71  1  0.69076250  0.14663475  0.02398757  1
  C  C72  1  0.45657234  0.15377631  0.52213384  1
  C  C73  1  0.69657481  0.53494966  0.52973799  1
  C  C74  1  0.85186550  0.31199697  0.52550727  1
  C  C75  1  0.55232378  0.70371661  0.97320561  1
  C  C76  1  0.14557422  0.44681857  0.97451875  1
  C  C77  1  0.29410022  0.84913630  0.97349822  1
  C  C78  1  0.56134477  0.85764565  0.47630827  1
  C  C79  1  0.29488074  0.44701566  0.47255594  1
  C  C80  1  0.15204754  0.70511872  0.47278561  1
  C  C81  1  0.12474990  0.64276382  0.35866030  1
  C  C82  1  0.51059808  0.86901050  0.36363603  1
  C  C83  1  0.34676508  0.47722952  0.35801473  1
  C  C84  1  0.12755548  0.48107991  0.86017733  1
  C  C85  1  0.35457194  0.87518057  0.85936932  1
  C  C86  1  0.52333791  0.65084644  0.85883965  1
  C  C87  1  0.02914616  0.83769653  0.41070361  1
  C  C88  1  0.81597862  0.98458250  0.41102366  1
  C  C89  1  0.16290713  0.18710239  0.41163969  1
  C  C90  1  0.01932754  0.18532210  0.91346361  1
  C  C91  1  0.16108816  0.97157551  0.91123229  1
  C  C92  1  0.81279452  0.83438516  0.91278744  1
  C  C93  1  0.98217086  0.17690074  0.58772353  1
  C  C94  1  0.17716766  0.01003594  0.58732354  1
  C  C95  1  0.81992424  0.80600984  0.58793328  1
  C  C96  1  0.98965917  0.82166043  0.08767156  1
  C  C97  1  0.82537206  0.02215056  0.08916430  1
  C  C98  1  0.19121581  0.18233335  0.09013473  1
  C  C99  1  0.69269836  0.18110666  0.74694616  1
  C  C100  1  0.48056186  0.31883955  0.74469740  1
  C  C101  1  0.82842649  0.52512169  0.74421559  1
  C  C102  1  0.68727010  0.51864684  0.24538862  1
  C  C103  1  0.83382672  0.31401152  0.24719750  1
  C  C104  1  0.47612316  0.17187602  0.24499841  1
  C  C105  1  0.65449660  0.51097842  0.91984235  1
  C  C106  1  0.85818962  0.34700768  0.92006854  1
  C  C107  1  0.49279446  0.13847127  0.92207938  1
  C  C108  1  0.65483706  0.14341878  0.42062201  1
  C  C109  1  0.48667053  0.34472512  0.41883963  1
  C  C110  1  0.86183894  0.50670756  0.42190460  1
  C  C111  1  0.36505500  0.50401249  0.07731802  1
  C  C112  1  0.15779657  0.64571937  0.07872337  1
  C  C113  1  0.50355318  0.85355838  0.07658911  1
  C  C114  1  0.35337067  0.84170491  0.57806852  1
  C  C115  1  0.49638619  0.63443035  0.57727639  1
  C  C116  1  0.14746001  0.49878465  0.57633463  1
  C  C117  1  0.31062622  0.84048834  0.25614542  1
  C  C118  1  0.52135732  0.67442489  0.25509928  1
  C  C119  1  0.15672999  0.47421529  0.25446750  1
  C  C120  1  0.31125562  0.47129356  0.75662234  1
  C  C121  1  0.15153671  0.67597779  0.75621315  1
  C  C122  1  0.51268318  0.83496008  0.75449192  1
