# generated using pymatgen
data_Cu2Ni7C5
_symmetry_space_group_name_H-M   'P 1'
_cell_length_a   4.98457299
_cell_length_b   5.36039090
_cell_length_c   7.61156668
_cell_angle_alpha   102.34226653
_cell_angle_beta   90.55018231
_cell_angle_gamma   105.01283376
_symmetry_Int_Tables_number   1
_chemical_formula_structural   Cu2Ni7C5
_chemical_formula_sum   'Cu2 Ni7 C5'
_cell_volume   191.43835806
_cell_formula_units_Z   1
loop_
 _symmetry_equiv_pos_site_id
 _symmetry_equiv_pos_as_xyz
  1  'x, y, z'
loop_
 _atom_site_type_symbol
 _atom_site_label
 _atom_site_symmetry_multiplicity
 _atom_site_fract_x
 _atom_site_fract_y
 _atom_site_fract_z
 _atom_site_occupancy
  C  C0  1  0.00000000  0.00000000  0.50000000  1
  C  C1  1  0.72661015  0.37688265  0.36877248  1
  C  C2  1  0.27338985  0.62311735  0.63122752  1
  C  C3  1  0.66121656  0.29093087  0.85202283  1
  C  C4  1  0.33878344  0.70906913  0.14797717  1
  Ni  Ni5  1  0.24917928  0.96801916  0.70877378  1
  Ni  Ni6  1  0.11155199  0.65013524  0.36806303  1
  Ni  Ni7  1  0.75082072  0.03198084  0.29122622  1
  Ni  Ni8  1  0.50234078  0.57939486  0.84547563  1
  Ni  Ni9  1  0.49765922  0.42060514  0.15452437  1
  Ni  Ni10  1  0.88844801  0.34986476  0.63193697  1
  Ni  Ni11  1  0.00000000  0.50000000  -0.00000000  1
  Cu  Cu12  1  0.33932289  0.27157020  0.46542206  1
  Cu  Cu13  1  0.66067711  0.72842980  0.53457794  1
