# generated using pymatgen
data_Cu2NiC12
_symmetry_space_group_name_H-M   'P 1'
_cell_length_a   6.05065711
_cell_length_b   6.05065662
_cell_length_c   7.70127928
_cell_angle_alpha   88.76603326
_cell_angle_beta   91.23396669
_cell_angle_gamma   113.67298096
_symmetry_Int_Tables_number   1
_chemical_formula_structural   Cu2NiC12
_chemical_formula_sum   'Cu2 Ni1 C12'
_cell_volume   258.13653910
_cell_formula_units_Z   1
loop_
 _symmetry_equiv_pos_site_id
 _symmetry_equiv_pos_as_xyz
  1  'x, y, z'
loop_
 _atom_site_type_symbol
 _atom_site_label
 _atom_site_symmetry_multiplicity
 _atom_site_fract_x
 _atom_site_fract_y
 _atom_site_fract_z
 _atom_site_occupancy
  C  C0  1  0.87282371  0.87282371  0.50000000  1
  C  C1  1  0.71794284  0.35606083  0.16542636  1
  C  C2  1  0.35606083  0.71794284  0.83457364  1
  C  C3  1  -0.00303198  -0.00303198  0.00000000  1
  Ni  Ni4  1  0.35724989  0.35724989  0.50000000  1
  Cu  Cu5  1  0.68336004  0.33817984  0.73290623  1
  Cu  Cu6  1  0.33817984  0.68336004  0.26709377  1
  C  C7  1  0.35959024  0.23571045  0.74426085  1
  C  C8  1  0.77412606  0.12277622  0.80325108  1
  C  C9  1  0.82044621  0.61141785  0.82567393  1
  C  C10  1  0.12277622  0.77412606  0.19674892  1
  C  C11  1  0.61141785  0.82044621  0.17432607  1
  C  C12  1  0.23571045  0.35959024  0.25573915  1
  C  C13  1  0.37872551  0.69493430  0.49579584  1
  C  C14  1  0.69493430  0.37872551  0.50420416  1
