# generated using pymatgen
data_Cu2Ni4C
_symmetry_space_group_name_H-M   'P 1'
_cell_length_a   10.93201672
_cell_length_b   10.93201672
_cell_length_c   10.93201672
_cell_angle_alpha   123.58427393
_cell_angle_beta   123.58427393
_cell_angle_gamma   83.89644131
_symmetry_Int_Tables_number   1
_chemical_formula_structural   Cu2Ni4C
_chemical_formula_sum   'Cu32 Ni64 C16'
_cell_volume   868.37356675
_cell_formula_units_Z   16
loop_
 _symmetry_equiv_pos_site_id
 _symmetry_equiv_pos_as_xyz
  1  'x, y, z'
loop_
 _atom_site_type_symbol
 _atom_site_label
 _atom_site_symmetry_multiplicity
 _atom_site_fract_x
 _atom_site_fract_y
 _atom_site_fract_z
 _atom_site_occupancy
  C  C0  1  0.75445100  0.06296200  0.44478400  1
  C  C1  1  0.81296200  0.86817800  0.80851100  1
  C  C2  1  0.05966700  0.00445100  0.19148900  1
  C  C3  1  0.49554900  0.44033300  0.80851100  1
  C  C4  1  0.63182200  0.68703800  0.19148900  1
  C  C5  1  0.19033300  0.88182200  0.44478400  1
  C  C6  1  0.43703800  0.74554900  0.55521600  1
  C  C7  1  0.61817800  0.30966700  0.55521600  1
  C  C8  1  0.99554900  0.18703800  0.05521600  1
  C  C9  1  0.93703800  0.38182200  0.69148900  1
  C  C10  1  0.69033300  0.24554900  0.30851100  1
  C  C11  1  0.25445100  0.80966700  0.69148900  1
  C  C12  1  0.11817800  0.56296200  0.30851100  1
  C  C13  1  0.55966700  0.36817800  0.05521600  1
  C  C14  1  0.31296200  0.50445100  0.94478400  1
  C  C15  1  0.13182200  0.94033300  0.94478400  1
  Ni  Ni16  1  0.63220100  0.63734800  0.59829600  1
  Ni  Ni17  1  0.46609600  0.46094900  0.59829600  1
  Ni  Ni18  1  0.86265200  0.86779900  0.40170400  1
  Ni  Ni19  1  0.61779900  0.71609600  0.50514700  1
  Ni  Ni20  1  0.21094900  0.11265200  0.49485300  1
  Ni  Ni21  1  0.38734800  0.28905100  0.50514700  1
  Ni  Ni22  1  0.78390400  0.88220100  0.49485300  1
  Ni  Ni23  1  0.03905100  0.03390400  0.40170400  1
  Ni  Ni24  1  0.11779900  0.61265200  0.90170400  1
  Ni  Ni25  1  0.28390400  0.78905100  0.90170400  1
  Ni  Ni26  1  0.88734800  0.38220100  0.09829600  1
  Ni  Ni27  1  0.13220100  0.53390400  0.99485300  1
  Ni  Ni28  1  0.53905100  0.13734800  0.00514700  1
  Ni  Ni29  1  0.36265200  0.96094900  0.99485300  1
  Ni  Ni30  1  0.96609600  0.36779900  0.00514700  1
  Ni  Ni31  1  0.71094900  0.21609600  0.09829600  1
  Ni  Ni32  1  0.87224500  0.47864000  0.52654900  1
  Ni  Ni33  1  0.15430400  0.54790900  0.52654900  1
  Ni  Ni34  1  0.02136000  0.62775500  0.47345100  1
  Ni  Ni35  1  0.37775500  0.40430400  0.10639500  1
  Ni  Ni36  1  0.29790900  0.27136000  0.89360500  1
  Ni  Ni37  1  0.22864000  0.20209100  0.10639500  1
  Ni  Ni38  1  0.09569600  0.12224500  0.89360500  1
  Ni  Ni39  1  0.95209100  0.34569600  0.47345100  1
  Ni  Ni40  1  0.87775500  0.77136000  0.97345100  1
  Ni  Ni41  1  0.59569600  0.70209100  0.97345100  1
  Ni  Ni42  1  0.72864000  0.62224500  0.02654900  1
  Ni  Ni43  1  0.45777700  0.21552900  0.25156900  1
  Ni  Ni44  1  0.37224500  0.84569600  0.39360500  1
  Ni  Ni45  1  0.52136000  0.04790900  0.39360500  1
  Ni  Ni46  1  0.65430400  0.12775500  0.60639500  1
  Ni  Ni47  1  0.79790900  0.90430400  0.02654900  1
  Ni  Ni48  1  0.54235400  0.39425900  0.37415300  1
  Ni  Ni49  1  0.33179900  0.47989500  0.37415300  1
  Ni  Ni50  1  0.10574100  0.95764600  0.62584700  1
  Ni  Ni51  1  0.70764600  0.58179900  0.35190400  1
  Ni  Ni52  1  0.22989500  0.35574100  0.64809600  1
  Ni  Ni53  1  0.14425900  0.27010500  0.35190400  1
  Ni  Ni54  1  0.91820100  0.79235400  0.64809600  1
  Ni  Ni55  1  0.02010500  0.16820100  0.62584700  1
  Ni  Ni56  1  0.20764600  0.85574100  0.12584700  1
  Ni  Ni57  1  0.41820100  0.77010500  0.12584700  1
  Ni  Ni58  1  0.64425900  0.29235400  0.87415300  1
  Ni  Ni59  1  0.04235400  0.66820100  0.14809600  1
  Ni  Ni60  1  0.52010500  0.89425900  0.85190400  1
  Ni  Ni61  1  0.60574100  0.97989500  0.14809600  1
  Ni  Ni62  1  0.83179900  0.45764600  0.85190400  1
  Ni  Ni63  1  0.72989500  0.08179900  0.87415300  1
  Ni  Ni64  1  0.78603900  0.04379200  0.75156900  1
  Ni  Ni65  1  0.79379200  0.54222300  0.75775200  1
  Ni  Ni66  1  0.78447100  0.03604000  0.24224800  1
  Ni  Ni67  1  0.46396000  0.71552900  0.75775200  1
  Ni  Ni68  1  0.95777700  0.70620800  0.24224800  1
  Ni  Ni69  1  0.46552900  0.20777700  0.75156900  1
  Ni  Ni70  1  0.45620800  0.71396100  0.24843100  1
  Ni  Ni71  1  0.29222300  0.03447100  0.24843100  1
  Ni  Ni72  1  0.96396100  0.20620800  0.74843100  1
  Ni  Ni73  1  0.95620800  0.70777700  0.74224800  1
  Ni  Ni74  1  0.96552900  0.21396100  0.25775200  1
  Ni  Ni75  1  0.28604000  0.53447100  0.74224800  1
  Ni  Ni76  1  0.79222300  0.54379200  0.25775200  1
  Ni  Ni77  1  0.28447100  0.04222300  0.74843100  1
  Ni  Ni78  1  0.29379200  0.53604000  0.25156900  1
  Ni  Ni79  1  0.45209100  0.97864000  0.60639500  1
  Cu  Cu80  1  0.56216500  0.29609600  0.36316400  1
  Cu  Cu81  1  0.30099800  0.56706700  0.36316400  1
  Cu  Cu82  1  0.20390400  0.93783500  0.63683600  1
  Cu  Cu83  1  0.68783500  0.55099900  0.23393100  1
  Cu  Cu84  1  0.31706700  0.45390400  0.76606900  1
  Cu  Cu85  1  0.04609600  0.18293300  0.23393100  1
  Cu  Cu86  1  0.94900200  0.81216500  0.76606900  1
  Cu  Cu87  1  0.93293300  0.19900200  0.63683600  1
  Cu  Cu88  1  0.18783500  0.95390400  0.13683600  1
  Cu  Cu89  1  0.44900200  0.68293300  0.13683600  1
  Cu  Cu90  1  0.54609600  0.31216500  0.86316400  1
  Cu  Cu91  1  0.06216500  0.69900200  0.26606900  1
  Cu  Cu92  1  0.43293300  0.79609600  0.73393100  1
  Cu  Cu93  1  0.70390400  0.06706700  0.26606900  1
  Cu  Cu94  1  0.80099900  0.43783500  0.73393100  1
  Cu  Cu95  1  0.81706700  0.05099800  0.86316400  1
  Cu  Cu96  1  0.87707900  0.87707900  0.00000000  1
  Cu  Cu97  1  0.62707900  0.12707900  0.50000000  1
  Cu  Cu98  1  0.37292100  0.87292100  0.50000000  1
  Cu  Cu99  1  0.62292100  0.62292100  0.00000000  1
  Cu  Cu100  1  0.87292100  0.37292100  0.50000000  1
  Cu  Cu101  1  0.12292100  0.12292100  0.00000000  1
  Cu  Cu102  1  0.37707900  0.37707900  0.00000000  1
  Cu  Cu103  1  0.12707900  0.62707900  0.50000000  1
  Cu  Cu104  1  0.62500000  0.23911000  0.11411000  1
  Cu  Cu105  1  0.98911000  0.37500000  0.11411000  1
  Cu  Cu106  1  0.26089000  0.87500000  0.88589000  1
  Cu  Cu107  1  0.12500000  0.51089000  0.88589000  1
  Cu  Cu108  1  0.12500000  0.01089000  0.38589000  1
  Cu  Cu109  1  0.76089000  0.87500000  0.38589000  1
  Cu  Cu110  1  0.48911000  0.37500000  0.61411000  1
  Cu  Cu111  1  0.62500000  0.73911000  0.61411000  1
