# generated using pymatgen
data_Cu2NiC10
_symmetry_space_group_name_H-M   'P 1'
_cell_length_a   5.08335979
_cell_length_b   5.14875662
_cell_length_c   6.41097163
_cell_angle_alpha   90.00000000
_cell_angle_beta   90.00000000
_cell_angle_gamma   77.91663337
_symmetry_Int_Tables_number   1
_chemical_formula_structural   Cu2NiC10
_chemical_formula_sum   'Cu2 Ni1 C10'
_cell_volume   164.07660631
_cell_formula_units_Z   1
loop_
 _symmetry_equiv_pos_site_id
 _symmetry_equiv_pos_as_xyz
  1  'x, y, z'
loop_
 _atom_site_type_symbol
 _atom_site_label
 _atom_site_symmetry_multiplicity
 _atom_site_fract_x
 _atom_site_fract_y
 _atom_site_fract_z
 _atom_site_occupancy
  Ni  Ni0  1  0.00000000  0.25000000  0.58986740  1
  Cu  Cu1  1  0.50000000  0.25000000  0.81202438  1
  Cu  Cu2  1  0.50000000  0.75000000  0.41225785  1
  C  C3  1  0.00000000  0.25000000  0.13128398  1
  C  C4  1  0.00000000  0.75000000  0.83685919  1
  C  C5  1  0.78685212  0.98774164  0.06624510  1
  C  C6  1  0.21314788  0.51225836  0.06624510  1
  C  C7  1  0.21028079  0.04396366  0.85970055  1
  C  C8  1  0.78971921  0.45603634  0.85970055  1
  C  C9  1  0.77915656  0.44612657  0.35651732  1
  C  C10  1  0.22084344  0.05387343  0.35651732  1
  C  C11  1  0.24886923  0.53858759  0.63889063  1
  C  C12  1  0.75113077  0.96141241  0.63889063  1
