# generated using pymatgen
data_Cu3NiC12
_symmetry_space_group_name_H-M   'P 1'
_cell_length_a   6.30698865
_cell_length_b   6.17390995
_cell_length_c   6.11138995
_cell_angle_alpha   60.33441618
_cell_angle_beta   118.97930162
_cell_angle_gamma   90.01035880
_symmetry_Int_Tables_number   1
_chemical_formula_structural   Cu3NiC12
_chemical_formula_sum   'Cu3 Ni1 C12'
_cell_volume   171.66702040
_cell_formula_units_Z   1
loop_
 _symmetry_equiv_pos_site_id
 _symmetry_equiv_pos_as_xyz
  1  'x, y, z'
loop_
 _atom_site_type_symbol
 _atom_site_label
 _atom_site_symmetry_multiplicity
 _atom_site_fract_x
 _atom_site_fract_y
 _atom_site_fract_z
 _atom_site_occupancy
  C  C0  1  0.12500000  0.62500000  0.75000000  1
  C  C1  1  0.12500000  0.12500000  0.25000000  1
  C  C2  1  0.12500000  0.12500000  0.75000000  1
  C  C3  1  0.62500000  0.12500000  0.75000000  1
  Ni  Ni4  1  0.12500000  0.62500000  0.25000000  1
  Cu  Cu5  1  0.62500000  0.62500000  0.75000000  1
  Cu  Cu6  1  0.62500000  0.62500000  0.25000000  1
  Cu  Cu7  1  0.62500000  0.12500000  0.25000000  1
  C  C8  1  0.39374100  0.84765700  0.27304200  1
  C  C9  1  0.42353000  0.82698400  0.79827300  1
  C  C10  1  0.84565500  0.86569100  0.24923100  1
  C  C11  1  0.84565500  0.86569100  0.73073300  1
  C  C12  1  0.40434500  0.38430800  0.25076900  1
  C  C13  1  0.40434500  0.38430800  0.76926700  1
  C  C14  1  0.82647000  0.42301600  0.70172700  1
  C  C15  1  0.85625900  0.40234300  0.22695800  1
