# generated using pymatgen
data_CuNiC18
_symmetry_space_group_name_H-M   'P 1'
_cell_length_a   15.87391657
_cell_length_b   9.18296212
_cell_length_c   9.14716882
_cell_angle_alpha   90.00000000
_cell_angle_beta   124.98083942
_cell_angle_gamma   90.00000000
_symmetry_Int_Tables_number   1
_chemical_formula_structural   CuNiC18
_chemical_formula_sum   'Cu4 Ni4 C72'
_cell_volume   1092.49575573
_cell_formula_units_Z   4
loop_
 _symmetry_equiv_pos_site_id
 _symmetry_equiv_pos_as_xyz
  1  'x, y, z'
loop_
 _atom_site_type_symbol
 _atom_site_label
 _atom_site_symmetry_multiplicity
 _atom_site_fract_x
 _atom_site_fract_y
 _atom_site_fract_z
 _atom_site_occupancy
  C  C0  1  0.25420429  0.72799210  0.99813629  1
  C  C1  1  0.75420429  0.77200790  0.49813629  1
  C  C2  1  0.75420429  0.22799210  0.99813629  1
  C  C3  1  0.25420429  0.27200790  0.49813629  1
  C  C4  1  0.49992716  0.10971331  0.74479391  1
  C  C5  1  0.49992716  0.89028669  0.24479391  1
  C  C6  1  0.99992716  0.60971331  0.74479391  1
  C  C7  1  0.99992716  0.39028669  0.24479391  1
  C  C8  1  0.18825454  0.94291096  0.29290133  1
  C  C9  1  0.18825454  0.05708904  0.79290133  1
  C  C10  1  0.68825454  0.44291096  0.29290133  1
  C  C11  1  0.68825454  0.55708904  0.79290133  1
  Ni  Ni12  1  0.10647968  0.74943275  0.56715497  1
  Ni  Ni13  1  0.10647968  0.25056725  0.06715497  1
  Ni  Ni14  1  0.60647968  0.24943275  0.56715497  1
  Ni  Ni15  1  0.60647968  0.75056725  0.06715497  1
  Cu  Cu16  1  0.89322258  0.75372915  0.93391190  1
  Cu  Cu17  1  0.89322258  0.24627085  0.43391190  1
  Cu  Cu18  1  0.39322258  0.25372915  0.93391190  1
  Cu  Cu19  1  0.39322258  0.74627085  0.43391190  1
  C  C20  1  0.99478303  0.95922730  0.75343646  1
  C  C21  1  0.99478303  0.04077270  0.25343646  1
  C  C22  1  0.49478303  0.45922730  0.75343646  1
  C  C23  1  0.49478303  0.54077270  0.25343646  1
  C  C24  1  0.35501967  0.89921752  0.75608857  1
  C  C25  1  0.64558962  0.89008333  0.74334374  1
  C  C26  1  0.64558962  0.10991667  0.24334374  1
  C  C27  1  0.35501967  0.10078248  0.25608857  1
  C  C28  1  0.85501967  0.39921752  0.75608857  1
  C  C29  1  0.14558962  0.39008333  0.74334374  1
  C  C30  1  0.14558962  0.60991667  0.24334374  1
  C  C31  1  0.85501967  0.60078248  0.25608857  1
  C  C32  1  0.15358189  0.56654481  0.74453538  1
  C  C33  1  0.85150366  0.58049845  0.75868788  1
  C  C34  1  0.85150366  0.41950155  0.25868788  1
  C  C35  1  0.15358189  0.43345519  0.24453538  1
  C  C36  1  0.65358189  0.06654481  0.74453538  1
  C  C37  1  0.35150366  0.08049845  0.75868788  1
  C  C38  1  0.35150366  0.91950155  0.25868788  1
  C  C39  1  0.65358189  0.93345519  0.24453538  1
  C  C40  1  0.43214163  0.57455328  0.58113114  1
  C  C41  1  0.56566096  0.55552927  0.93227414  1
  C  C42  1  0.56566096  0.44447073  0.43227414  1
  C  C43  1  0.43214163  0.42544672  0.08113114  1
  C  C44  1  0.93214163  0.07455328  0.58113114  1
  C  C45  1  0.06566096  0.05552927  0.93227414  1
  C  C46  1  0.06566096  0.94447073  0.43227414  1
  C  C47  1  0.93214163  0.92544672  0.08113114  1
  C  C48  1  0.25630522  0.83958336  0.75018316  1
  C  C49  1  0.74162961  0.80460409  0.75731455  1
  C  C50  1  0.74162961  0.19539591  0.25731455  1
  C  C51  1  0.25630522  0.16041664  0.25018316  1
  C  C52  1  0.75630522  0.33958336  0.75018316  1
  C  C53  1  0.24162961  0.30460409  0.75731455  1
  C  C54  1  0.24162961  0.69539591  0.25731455  1
  C  C55  1  0.75630522  0.66041664  0.25018316  1
  C  C56  1  0.35571188  0.85874606  0.57753624  1
  C  C57  1  0.64490195  0.84061787  0.91256974  1
  C  C58  1  0.64490195  0.15938213  0.41256974  1
  C  C59  1  0.35571188  0.14125394  0.07753624  1
  C  C60  1  0.85571188  0.35874606  0.57753624  1
  C  C61  1  0.14490195  0.34061787  0.91256974  1
  C  C62  1  0.14490195  0.65938213  0.41256974  1
  C  C63  1  0.85571188  0.64125394  0.07753624  1
  C  C64  1  0.46114513  0.84284996  0.93482218  1
  C  C65  1  0.53569042  0.82733214  0.56185524  1
  C  C66  1  0.53569042  0.17266786  0.06185524  1
  C  C67  1  0.46114513  0.15715004  0.43482218  1
  C  C68  1  0.96114513  0.34284996  0.93482218  1
  C  C69  1  0.03569042  0.32733214  0.56185524  1
  C  C70  1  0.03569042  0.67266786  0.06185524  1
  C  C71  1  0.96114513  0.65715004  0.43482218  1
  C  C72  1  0.07279963  0.85212907  0.74092708  1
  C  C73  1  0.91144746  0.85619504  0.75839607  1
  C  C74  1  0.91144746  0.14380496  0.25839607  1
  C  C75  1  0.07279963  0.14787093  0.24092708  1
  C  C76  1  0.57279963  0.35212907  0.74092708  1
  C  C77  1  0.41144746  0.35619504  0.75839607  1
  C  C78  1  0.41144746  0.64380496  0.25839607  1
  C  C79  1  0.57279963  0.64787093  0.24092708  1
