# generated using pymatgen
data_Cu2Ni4C45
_symmetry_space_group_name_H-M   'P 1'
_cell_length_a   8.69020292
_cell_length_b   8.69020265
_cell_length_c   22.33755893
_cell_angle_alpha   90.00000000
_cell_angle_beta   90.00000000
_cell_angle_gamma   120.00000103
_symmetry_Int_Tables_number   1
_chemical_formula_structural   Cu2Ni4C45
_chemical_formula_sum   'Cu4 Ni8 C90'
_cell_volume   1460.91907610
_cell_formula_units_Z   2
loop_
 _symmetry_equiv_pos_site_id
 _symmetry_equiv_pos_as_xyz
  1  'x, y, z'
loop_
 _atom_site_type_symbol
 _atom_site_label
 _atom_site_symmetry_multiplicity
 _atom_site_fract_x
 _atom_site_fract_y
 _atom_site_fract_z
 _atom_site_occupancy
  Ni  Ni0  1  -0.00000000  0.00000000  0.35252078  1
  Ni  Ni1  1  -0.00000000  0.00000000  0.85252078  1
  Ni  Ni2  1  -0.00000000  0.00000000  0.64574969  1
  Ni  Ni3  1  -0.00000000  0.00000000  0.14574969  1
  Ni  Ni4  1  0.66666700  0.33333300  0.68732659  1
  Ni  Ni5  1  0.66666700  0.33333300  0.18732659  1
  Ni  Ni6  1  0.33333300  0.66666700  0.02193041  1
  Ni  Ni7  1  0.33333300  0.66666700  0.52193041  1
  Cu  Cu8  1  0.66666700  0.33333300  0.98174755  1
  Cu  Cu9  1  0.66666700  0.33333300  0.48174755  1
  Cu  Cu10  1  0.33333300  0.66666700  0.30835365  1
  Cu  Cu11  1  0.33333300  0.66666700  0.80835365  1
  C  C12  1  0.28957660  0.00795405  0.24965473  1
  C  C13  1  0.71837744  0.71042340  0.24965473  1
  C  C14  1  0.99204595  0.28162256  0.24965473  1
  C  C15  1  0.28957660  0.28162256  0.74965473  1
  C  C16  1  0.99204596  0.71042340  0.74965473  1
  C  C17  1  0.71837744  0.00795405  0.74965473  1
  C  C18  1  0.96227607  0.33433292  0.58603741  1
  C  C19  1  0.37205785  0.03772393  0.58603741  1
  C  C20  1  0.66566708  0.62794215  0.58603741  1
  C  C21  1  0.96227607  0.62794215  0.08603741  1
  C  C22  1  0.66566708  0.03772393  0.08603741  1
  C  C23  1  0.37205785  0.33433292  0.08603741  1
  C  C24  1  0.62564062  0.67174770  0.91783314  1
  C  C25  1  0.04610608  0.37435938  0.91783314  1
  C  C26  1  0.32825230  0.95389392  0.91783314  1
  C  C27  1  0.62564062  0.95389392  0.41783314  1
  C  C28  1  0.32825230  0.37435938  0.41783314  1
  C  C29  1  0.04610608  0.67174770  0.41783314  1
  C  C30  1  0.20972770  0.02854545  0.30426049  1
  C  C31  1  0.81881774  0.79027230  0.30426049  1
  C  C32  1  0.97145455  0.18118226  0.30426049  1
  C  C33  1  0.20972770  0.18118226  0.80426049  1
  C  C34  1  0.97145455  0.79027230  0.80426049  1
  C  C35  1  0.81881774  0.02854545  0.80426049  1
  C  C36  1  0.78515855  0.96301733  0.69690162  1
  C  C37  1  0.17785878  0.21484145  0.69690162  1
  C  C38  1  0.03698267  0.82214122  0.69690162  1
  C  C39  1  0.78515855  0.82214122  0.19690162  1
  C  C40  1  0.03698267  0.21484145  0.19690162  1
  C  C41  1  0.17785878  0.96301733  0.19690162  1
  C  C42  1  0.87385714  0.36484573  0.63611439  1
  C  C43  1  0.49098959  0.12614286  0.63611439  1
  C  C44  1  0.63515427  0.50901041  0.63611439  1
  C  C45  1  0.87385714  0.50901041  0.13611439  1
  C  C46  1  0.63515427  0.12614286  0.13611439  1
  C  C47  1  0.49098959  0.36484573  0.13611439  1
  C  C48  1  0.46620853  0.30436801  0.02878276  1
  C  C49  1  0.83816048  0.53379147  0.02878276  1
  C  C50  1  0.69563199  0.16183952  0.02878276  1
  C  C51  1  0.46620853  0.16183952  0.52878276  1
  C  C52  1  0.69563199  0.53379147  0.52878276  1
  C  C53  1  0.83816048  0.30436801  0.52878276  1
  C  C54  1  0.54041295  0.69546214  0.96999065  1
  C  C55  1  0.15504819  0.45958705  0.96999065  1
  C  C56  1  0.30453786  0.84495181  0.96999065  1
  C  C57  1  0.54041295  0.84495181  0.46999065  1
  C  C58  1  0.30453786  0.45958705  0.46999065  1
  C  C59  1  0.15504819  0.69546214  0.46999065  1
  C  C60  1  0.12727950  0.63402966  0.36297256  1
  C  C61  1  0.50674916  0.87272050  0.36297256  1
  C  C62  1  0.36597034  0.49325084  0.36297256  1
  C  C63  1  0.12727950  0.49325084  0.86297256  1
  C  C64  1  0.36597034  0.87272050  0.86297256  1
  C  C65  1  0.50674916  0.63402966  0.86297256  1
  C  C66  1  0.02215535  0.82225269  0.40735959  1
  C  C67  1  0.80009735  0.97784465  0.40735959  1
  C  C68  1  0.17774731  0.19990265  0.40735959  1
  C  C69  1  0.02215535  0.19990265  0.90735959  1
  C  C70  1  0.17774731  0.97784465  0.90735959  1
  C  C71  1  0.80009735  0.82225269  0.90735959  1
  C  C72  1  0.97162597  0.17346013  0.58995722  1
  C  C73  1  0.20183416  0.02837403  0.58995722  1
  C  C74  1  0.82653987  0.79816584  0.58995722  1
  C  C75  1  0.97162597  0.79816584  0.08995722  1
  C  C76  1  0.82653987  0.02837403  0.08995722  1
  C  C77  1  0.20183416  0.17346013  0.08995722  1
  C  C78  1  0.68568714  0.15506153  0.74200576  1
  C  C79  1  0.46937540  0.31431286  0.74200576  1
  C  C80  1  0.84493847  0.53062460  0.74200576  1
  C  C81  1  0.68568714  0.53062460  0.24200576  1
  C  C82  1  0.84493847  0.31431286  0.24200576  1
  C  C83  1  0.46937540  0.15506153  0.24200576  1
  C  C84  1  0.63968567  0.50512838  0.92486617  1
  C  C85  1  0.86544371  0.36031433  0.92486617  1
  C  C86  1  0.49487162  0.13455629  0.92486617  1
  C  C87  1  0.63968567  0.13455629  0.42486617  1
  C  C88  1  0.49487162  0.36031433  0.42486617  1
  C  C89  1  0.86544371  0.50512838  0.42486617  1
  C  C90  1  0.36026221  0.49189930  0.07333999  1
  C  C91  1  0.13163609  0.63973779  0.07333999  1
  C  C92  1  0.50810070  0.86836391  0.07333999  1
  C  C93  1  0.36026221  0.86836391  0.57333999  1
  C  C94  1  0.50810070  0.63973779  0.57333999  1
  C  C95  1  0.13163609  0.49189930  0.57333999  1
  C  C96  1  0.30915411  0.83836573  0.26071396  1
  C  C97  1  0.52921062  0.69084589  0.26071396  1
  C  C98  1  0.16163427  0.47078938  0.26071396  1
  C  C99  1  0.30915411  0.47078938  0.76071396  1
  C  C100  1  0.16163427  0.69084589  0.76071396  1
  C  C101  1  0.52921062  0.83836573  0.76071396  1
