# generated using pymatgen
data_Cu(Ni2C11)3
_symmetry_space_group_name_H-M   'P 1'
_cell_length_a   9.16031545
_cell_length_b   9.15868862
_cell_length_c   22.47431235
_cell_angle_alpha   90.01150419
_cell_angle_beta   90.03359691
_cell_angle_gamma   119.90588447
_symmetry_Int_Tables_number   1
_chemical_formula_structural   Cu(Ni2C11)3
_chemical_formula_sum   'Cu3 Ni18 C99'
_cell_volume   1634.45027975
_cell_formula_units_Z   3
loop_
 _symmetry_equiv_pos_site_id
 _symmetry_equiv_pos_as_xyz
  1  'x, y, z'
loop_
 _atom_site_type_symbol
 _atom_site_label
 _atom_site_symmetry_multiplicity
 _atom_site_fract_x
 _atom_site_fract_y
 _atom_site_fract_z
 _atom_site_occupancy
  Ni  Ni0  1  0.00983401  0.00081925  0.50215598  1
  Ni  Ni1  1  0.98693611  0.98796936  0.99751516  1
  Ni  Ni2  1  0.66659350  0.33212381  0.83493441  1
  Ni  Ni3  1  0.66661935  0.33269682  0.32461861  1
  Ni  Ni4  1  0.34983594  0.66689096  0.16125978  1
  Ni  Ni5  1  0.31787796  0.65107711  0.66474952  1
  Ni  Ni6  1  0.64430225  0.01655641  0.24428451  1
  Ni  Ni7  1  0.37042919  0.35536859  0.24401366  1
  Ni  Ni8  1  0.98579387  0.62785100  0.24396099  1
  Ni  Ni9  1  0.63053850  0.62169966  0.74697743  1
  Ni  Ni10  1  0.98818251  0.36733313  0.74742051  1
  Ni  Ni11  1  0.38101609  0.01021822  0.74792730  1
  Ni  Ni12  1  0.66271362  0.97213854  0.58676275  1
  Ni  Ni13  1  0.31229062  0.97519459  0.08124050  1
  Ni  Ni14  1  0.02508574  0.34013494  0.08143497  1
  Ni  Ni15  1  0.96411047  0.28795610  0.41332804  1
  Ni  Ni16  1  0.32469481  0.03458260  0.41336986  1
  Ni  Ni17  1  0.71117194  0.67720363  0.41402758  1
  Cu  Cu18  1  0.99985089  0.00003372  0.35333171  1
  Cu  Cu19  1  0.66765997  0.33617361  0.68430740  1
  Cu  Cu20  1  0.66500330  0.33526900  0.17497427  1
  C  C21  1  0.00033607  0.00060064  0.85874174  1
  C  C22  1  0.00325776  0.99957006  0.64454163  1
  C  C23  1  0.99759199  0.99736604  0.14600584  1
  C  C24  1  0.66737291  0.33453306  0.97860675  1
  C  C25  1  0.66632242  0.33460216  0.48315220  1
  C  C26  1  0.33599928  0.66653026  0.01479056  1
  C  C27  1  0.33049535  0.66325513  0.52208430  1
  C  C28  1  0.33290641  0.66650798  0.31115033  1
  C  C29  1  0.33392019  0.66685344  0.81387091  1
  C  C30  1  0.29644107  0.99684596  0.25113187  1
  C  C31  1  0.70118390  0.70533353  0.25215506  1
  C  C32  1  0.00413693  0.29966925  0.25077829  1
  C  C33  1  0.27960003  0.28851088  0.75225570  1
  C  C34  1  0.00798950  0.71903566  0.75276603  1
  C  C35  1  0.71075668  0.99174771  0.75140121  1
  C  C36  1  0.96696949  0.33265212  0.58558298  1
  C  C37  1  0.36626420  0.03529139  0.58433382  1
  C  C38  1  0.66879101  0.63416608  0.58526449  1
  C  C39  1  0.96735021  0.63433009  0.08158653  1
  C  C40  1  0.66542098  0.03054844  0.08203571  1
  C  C41  1  0.36583013  0.33548590  0.08276929  1
  C  C42  1  0.62577328  0.66244065  0.91471279  1
  C  C43  1  0.03637169  0.37477539  0.91555765  1
  C  C44  1  0.33709204  0.96267387  0.91589370  1
  C  C45  1  0.61605595  0.96104009  0.41858533  1
  C  C46  1  0.34594942  0.38438344  0.41735452  1
  C  C47  1  0.03951546  0.65540904  0.41767058  1
  C  C48  1  0.22397342  0.02577177  0.31267938  1
  C  C49  1  0.79917967  0.77324772  0.31449595  1
  C  C50  1  0.97403065  0.19800560  0.31234437  1
  C  C51  1  0.17962888  0.17228450  0.80962035  1
  C  C52  1  0.99370494  0.82041304  0.81000852  1
  C  C53  1  0.82977586  0.00636671  0.80791328  1
  C  C54  1  0.80067104  0.96984890  0.69030371  1
  C  C55  1  0.16059124  0.19218775  0.69323052  1
  C  C56  1  0.02761238  0.83687118  0.69366080  1
  C  C57  1  0.81434205  0.83690748  0.19689458  1
  C  C58  1  0.02485911  0.19344958  0.19354815  1
  C  C59  1  0.17031078  0.97780589  0.19383354  1
  C  C60  1  0.90171645  0.36624083  0.64727012  1
  C  C61  1  0.47945809  0.09793055  0.64361856  1
  C  C62  1  0.63226680  0.53482933  0.64685002  1
  C  C63  1  0.91397093  0.52880110  0.14294682  1
  C  C64  1  0.61637942  0.08605645  0.14371359  1
  C  C65  1  0.45532205  0.36952420  0.14678703  1
  C  C66  1  0.47715419  0.30418246  0.03158168  1
  C  C67  1  0.83330669  0.52313889  0.02869525  1
  C  C68  1  0.69732385  0.17188065  0.03026932  1
  C  C69  1  0.47305024  0.16423058  0.52735735  1
  C  C70  1  0.68878672  0.52538658  0.52848688  1
  C  C71  1  0.83187071  0.30729911  0.52975806  1
  C  C72  1  0.51953834  0.68215029  0.96947260  1
  C  C73  1  0.15480427  0.47364800  0.97272697  1
  C  C74  1  0.31406923  0.84195847  0.97270779  1
  C  C75  1  0.51437431  0.84608545  0.47521222  1
  C  C76  1  0.33647017  0.49405470  0.47214935  1
  C  C77  1  0.16138593  0.66935964  0.47214363  1
  C  C78  1  0.13282158  0.63474529  0.35649705  1
  C  C79  1  0.49943258  0.86317353  0.35820201  1
  C  C80  1  0.36410189  0.49712530  0.35623998  1
  C  C81  1  0.13650198  0.49572014  0.85688088  1
  C  C82  1  0.36034368  0.86405630  0.85708037  1
  C  C83  1  0.50714595  0.63903800  0.85502730  1
  C  C84  1  0.01822887  0.81978893  0.41993459  1
  C  C85  1  0.80241992  0.98359060  0.41996788  1
  C  C86  1  0.18145779  0.19913682  0.41990709  1
  C  C87  1  0.01744859  0.18752662  0.91127193  1
  C  C88  1  0.16908881  0.98202635  0.91138635  1
  C  C89  1  0.81191989  0.83116987  0.91139904  1
  C  C90  1  0.96610823  0.15259602  0.58679186  1
  C  C91  1  0.18426068  0.02623167  0.58849895  1
  C  C92  1  0.84046110  0.82030846  0.58681719  1
  C  C93  1  0.98490118  0.82211428  0.08848882  1
  C  C94  1  0.84355344  0.02758995  0.08876289  1
  C  C95  1  0.17974389  0.15807341  0.08703250  1
  C  C96  1  0.68900920  0.15636906  0.75221374  1
  C  C97  1  0.46440297  0.30768692  0.75114698  1
  C  C98  1  0.84334963  0.53386172  0.75231593  1
  C  C99  1  0.67100577  0.51804060  0.24406443  1
  C  C100  1  0.84710186  0.33087496  0.24391274  1
  C  C101  1  0.48493754  0.15291701  0.24488465  1
  C  C102  1  0.63966821  0.49270118  0.92424080  1
  C  C103  1  0.85089409  0.35840798  0.92305962  1
  C  C104  1  0.50644003  0.14703882  0.92438542  1
  C  C105  1  0.62727623  0.14695550  0.42205660  1
  C  C106  1  0.52069721  0.37417353  0.42185465  1
  C  C107  1  0.85539465  0.48074268  0.42320013  1
  C  C108  1  0.32662059  0.48977409  0.07087419  1
  C  C109  1  0.15940493  0.66722415  0.07002983  1
  C  C110  1  0.50366402  0.84386115  0.06905453  1
  C  C111  1  0.34145795  0.84707649  0.57262122  1
  C  C112  1  0.51213001  0.67132918  0.57422575  1
  C  C113  1  0.15645431  0.49030784  0.57325584  1
  C  C114  1  0.29349985  0.81323474  0.25336661  1
  C  C115  1  0.52104158  0.70884003  0.25323991  1
  C  C116  1  0.18728783  0.48029399  0.25316564  1
  C  C117  1  0.29215122  0.47631143  0.75487909  1
  C  C118  1  0.18357796  0.70700600  0.75501975  1
  C  C119  1  0.52242891  0.81699269  0.75509013  1
