# generated using pymatgen
data_CuNiC19
_symmetry_space_group_name_H-M   'P 1'
_cell_length_a   9.01226491
_cell_length_b   9.01226461
_cell_length_c   22.32065627
_cell_angle_alpha   90.00700536
_cell_angle_beta   89.99299465
_cell_angle_gamma   119.74430645
_symmetry_Int_Tables_number   1
_chemical_formula_structural   CuNiC19
_chemical_formula_sum   'Cu6 Ni6 C114'
_cell_volume   1574.05060378
_cell_formula_units_Z   6
loop_
 _symmetry_equiv_pos_site_id
 _symmetry_equiv_pos_as_xyz
  1  'x, y, z'
loop_
 _atom_site_type_symbol
 _atom_site_label
 _atom_site_symmetry_multiplicity
 _atom_site_fract_x
 _atom_site_fract_y
 _atom_site_fract_z
 _atom_site_occupancy
  C  C0  1  0.63815755  0.00382028  0.25014275  1
  C  C1  1  0.36891777  0.36652548  0.24745592  1
  C  C2  1  0.99315723  0.62781806  0.24986730  1
  C  C3  1  0.63347452  0.63108223  0.74745592  1
  C  C4  1  0.99617972  0.36184245  0.75014275  1
  C  C5  1  0.37218194  0.00684277  0.74986730  1
  C  C6  1  0.30482455  0.33715328  0.58347575  1
  C  C7  1  0.03558477  0.69985848  0.58078892  1
  C  C8  1  0.65982423  0.96115106  0.58320030  1
  C  C9  1  0.30014152  0.96441523  0.08078892  1
  C  C10  1  0.66284672  0.69517545  0.08347575  1
  C  C11  1  0.03884894  0.34017577  0.08320030  1
  C  C12  1  0.97149055  0.67048728  0.91680975  1
  C  C13  1  0.70225077  0.03319248  0.91412292  1
  C  C14  1  0.32649023  0.29448506  0.91653430  1
  C  C15  1  0.96680752  0.29774923  0.41412292  1
  C  C16  1  0.32951272  0.02850945  0.41680975  1
  C  C17  1  0.70551494  0.67350977  0.41653430  1
  C  C18  1  0.99818428  0.99550190  0.49781450  1
  C  C19  1  0.00449810  0.00181572  0.99781450  1
  C  C20  1  0.66485128  0.32883490  0.83114750  1
  C  C21  1  0.67116510  0.33514872  0.33114750  1
  C  C22  1  0.33151728  0.66216890  0.16448150  1
  C  C23  1  0.33783110  0.66848272  0.66448150  1
  Ni  Ni24  1  0.98688149  0.99135038  0.35098941  1
  Ni  Ni25  1  0.00864962  0.01311851  0.85098941  1
  Ni  Ni26  1  0.65354849  0.32468338  0.68432241  1
  Ni  Ni27  1  0.67531662  0.34645151  0.18432241  1
  Ni  Ni28  1  0.32021449  0.65801738  0.01765641  1
  Ni  Ni29  1  0.34198262  0.67978551  0.51765641  1
  C  C30  1  0.70817736  0.70533017  0.25101369  1
  C  C31  1  0.99595522  0.28989826  0.25151064  1
  C  C32  1  0.29466983  0.29182264  0.75101369  1
  C  C33  1  0.71010174  0.00404478  0.75151064  1
  C  C34  1  0.37484436  0.03866317  0.58434669  1
  C  C35  1  0.66262222  0.62323126  0.58484364  1
  C  C36  1  0.96133683  0.62515564  0.08434669  1
  C  C37  1  0.37676874  0.33737778  0.08484364  1
  C  C38  1  0.04151036  0.37199717  0.91768069  1
  C  C39  1  0.32928822  0.95656526  0.91817764  1
  C  C40  1  0.62800283  0.95848964  0.41768069  1
  C  C41  1  0.04343474  0.67071178  0.41817764  1
  Cu  Cu42  1  0.99897700  0.99939860  0.64923546  1
  Cu  Cu43  1  0.00060140  0.00102300  0.14923546  1
  Cu  Cu44  1  0.66564400  0.33273160  0.98256846  1
  Cu  Cu45  1  0.66726840  0.33435600  0.48256846  1
  Cu  Cu46  1  0.33231000  0.66606560  0.31590246  1
  Cu  Cu47  1  0.33393440  0.66769000  0.81590246  1
  C  C48  1  0.29317402  0.00306480  0.25152083  1
  C  C49  1  0.99693520  0.70682598  0.75152083  1
  C  C50  1  0.95984102  0.33639780  0.58485383  1
  C  C51  1  0.66360220  0.04015898  0.08485383  1
  C  C52  1  0.62650702  0.66973180  0.91818783  1
  C  C53  1  0.33026820  0.37349298  0.41818783  1
  C  C54  1  0.21002132  0.03526963  0.30674581  1
  C  C55  1  0.83106927  0.78976463  0.30889819  1
  C  C56  1  0.96592872  0.16939572  0.30984563  1
  C  C57  1  0.21023537  0.16893073  0.80889819  1
  C  C58  1  0.96473037  0.78997868  0.80674581  1
  C  C59  1  0.83060428  0.03407128  0.80984563  1
  C  C60  1  0.78401649  0.95677214  0.69102589  1
  C  C61  1  0.17292001  0.21586411  0.69086054  1
  C  C62  1  0.03822939  0.82057119  0.69415223  1
  C  C63  1  0.78413589  0.82707999  0.19086054  1
  C  C64  1  0.04322786  0.21598351  0.19102589  1
  C  C65  1  0.17942881  0.96177061  0.19415223  1
  C  C66  1  0.87668832  0.36860263  0.64007881  1
  C  C67  1  0.49773627  0.12309763  0.64223119  1
  C  C68  1  0.63259572  0.50272872  0.64317863  1
  C  C69  1  0.87690237  0.50226373  0.14223119  1
  C  C70  1  0.63139737  0.12331168  0.14007881  1
  C  C71  1  0.49727128  0.36740428  0.14317863  1
  C  C72  1  0.45068349  0.29010514  0.02435889  1
  C  C73  1  0.83958701  0.54919711  0.02419354  1
  C  C74  1  0.70489639  0.15390419  0.02748523  1
  C  C75  1  0.45080289  0.16041299  0.52419354  1
  C  C76  1  0.70989486  0.54931651  0.52435889  1
  C  C77  1  0.84609581  0.29510361  0.52748523  1
  C  C78  1  0.54335432  0.70193663  0.97341281  1
  C  C79  1  0.16440227  0.45643163  0.97556519  1
  C  C80  1  0.29926172  0.83606272  0.97651263  1
  C  C81  1  0.54356837  0.83559773  0.47556519  1
  C  C82  1  0.29806337  0.45664568  0.47341281  1
  C  C83  1  0.16393728  0.70073828  0.47651263  1
  C  C84  1  0.11734949  0.62343914  0.35769289  1
  C  C85  1  0.50625301  0.88253111  0.35752754  1
  C  C86  1  0.37156239  0.48723819  0.36081923  1
  C  C87  1  0.11746889  0.49374699  0.85752754  1
  C  C88  1  0.37656086  0.88265051  0.85769289  1
  C  C89  1  0.51276181  0.62843761  0.86081923  1
  C  C90  1  0.02820957  0.84408879  0.41066445  1
  C  C91  1  0.81908789  0.98048986  0.41172849  1
  C  C92  1  0.17252892  0.19476165  0.41087373  1
  C  C93  1  0.01951014  0.18091211  0.91172849  1
  C  C94  1  0.15591121  0.97179043  0.91066445  1
  C  C95  1  0.80523835  0.82747108  0.91087373  1
  C  C96  1  0.97526761  0.17084648  0.58839923  1
  C  C97  1  0.18365058  0.02345207  0.58885560  1
  C  C98  1  0.83705370  0.81558114  0.58839971  1
  C  C99  1  0.97654793  0.81634942  0.08885560  1
  C  C100  1  0.82915352  0.02473239  0.08839923  1
  C  C101  1  0.18441886  0.16294630  0.08839971  1
  C  C102  1  0.69487657  0.17742179  0.74399745  1
  C  C103  1  0.48575489  0.31382286  0.74506149  1
  C  C104  1  0.83919592  0.52809465  0.74420673  1
  C  C105  1  0.68617714  0.51424511  0.24506149  1
  C  C106  1  0.82257821  0.30512343  0.24399745  1
  C  C107  1  0.47190535  0.16080408  0.24420673  1
  C  C108  1  0.64193461  0.50417948  0.92173223  1
  C  C109  1  0.85031758  0.35678507  0.92218860  1
  C  C110  1  0.50372070  0.14891414  0.92173271  1
  C  C111  1  0.64321493  0.14968242  0.42218860  1
  C  C112  1  0.49582052  0.35806539  0.42173223  1
  C  C113  1  0.85108586  0.49627930  0.42173271  1
  C  C114  1  0.36154257  0.51075579  0.07733145  1
  C  C115  1  0.15242089  0.64715686  0.07839549  1
  C  C116  1  0.50586192  0.86142865  0.07754073  1
  C  C117  1  0.35284314  0.84757911  0.57839549  1
  C  C118  1  0.48924421  0.63845743  0.57733145  1
  C  C119  1  0.13857135  0.49413808  0.57754073  1
  C  C120  1  0.30860061  0.83751348  0.25506623  1
  C  C121  1  0.51698358  0.69011907  0.25552260  1
  C  C122  1  0.17038670  0.48224814  0.25506671  1
  C  C123  1  0.30988093  0.48301642  0.75552260  1
  C  C124  1  0.16248652  0.69139939  0.75506623  1
  C  C125  1  0.51775186  0.82961330  0.75506671  1
