# generated using pymatgen
data_Cu5NiC31
_symmetry_space_group_name_H-M   'P 1'
_cell_length_a   8.76652757
_cell_length_b   8.75336683
_cell_length_c   22.72820347
_cell_angle_alpha   90.05348007
_cell_angle_beta   90.01652048
_cell_angle_gamma   120.24107556
_symmetry_Int_Tables_number   1
_chemical_formula_structural   Cu5NiC31
_chemical_formula_sum   'Cu15 Ni3 C93'
_cell_volume   1506.73881840
_cell_formula_units_Z   3
loop_
 _symmetry_equiv_pos_site_id
 _symmetry_equiv_pos_as_xyz
  1  'x, y, z'
loop_
 _atom_site_type_symbol
 _atom_site_label
 _atom_site_symmetry_multiplicity
 _atom_site_fract_x
 _atom_site_fract_y
 _atom_site_fract_z
 _atom_site_occupancy
  C  C0  1  0.36341356  0.36397491  0.25074332  1
  C  C1  1  0.02650987  0.69822346  0.58488026  1
  C  C2  1  0.30027875  0.96596025  0.08096057  1
  C  C3  1  0.99299718  0.00110053  0.50059768  1
  C  C4  1  0.99932997  0.00616092  0.99374882  1
  C  C5  1  0.66626786  0.32910577  0.82890638  1
  C  C6  1  0.67470909  0.33180862  0.33153273  1
  C  C7  1  0.33289683  0.66613315  0.16746158  1
  C  C8  1  0.34766523  0.66466423  0.66448953  1
  C  C9  1  0.67065123  0.33059049  0.97630672  1
  C  C10  1  0.66687002  0.33912549  0.48187733  1
  C  C11  1  0.32746581  0.66797370  0.81452361  1
  C  C12  1  0.99580806  0.99756823  0.35132540  1
  C  C13  1  0.00656903  0.00731394  0.85245428  1
  C  C14  1  0.99239830  -0.00006604  0.64986621  1
  C  C15  1  0.99155096  0.99844816  0.15085641  1
  C  C16  1  0.66201469  0.33659079  0.68562877  1
  C  C17  1  0.67563730  0.33538941  0.18522502  1
  C  C18  1  0.32854737  0.66094419  0.01402242  1
  C  C19  1  0.34624399  0.66674745  0.51805949  1
  C  C20  1  0.33375643  0.67383038  0.31670107  1
  Ni  Ni21  1  0.66421337  0.62892282  0.58636689  1
  Ni  Ni22  1  0.04701170  0.37040155  0.91819311  1
  Ni  Ni23  1  0.32357540  0.95346122  0.91926385  1
  Cu  Cu24  1  0.29116173  0.99798426  0.24930073  1
  Cu  Cu25  1  0.70819131  0.70844123  0.25020338  1
  Cu  Cu26  1  0.99886242  0.29106113  0.25046322  1
  Cu  Cu27  1  0.29122392  0.28714767  0.74955881  1
  Cu  Cu28  1  0.99510052  0.70845514  0.74936173  1
  Cu  Cu29  1  0.71266536  0.00451496  0.75007901  1
  Cu  Cu30  1  0.95949205  0.33222840  0.58466091  1
  Cu  Cu31  1  0.37362364  0.03998485  0.58481170  1
  Cu  Cu32  1  0.95935856  0.62612240  0.08509490  1
  Cu  Cu33  1  0.66816673  0.04007425  0.08484883  1
  Cu  Cu34  1  0.37454266  0.33662116  0.08535535  1
  Cu  Cu35  1  0.62655364  0.67243454  0.91773601  1
  Cu  Cu36  1  0.62539448  0.95544207  0.41616300  1
  Cu  Cu37  1  0.32781576  0.37316441  0.41542286  1
  Cu  Cu38  1  0.04684719  0.67158069  0.41691969  1
  C  C39  1  0.20955070  0.03061268  0.30106854  1
  C  C40  1  0.81555615  0.78830857  0.30276498  1
  C  C41  1  0.97295281  0.18378331  0.30306399  1
  C  C42  1  0.21023373  0.18428426  0.80266981  1
  C  C43  1  0.97428459  0.79212975  0.80205080  1
  C  C44  1  0.81532562  0.02572081  0.80316716  1
  C  C45  1  0.78662715  0.97156885  0.69678180  1
  C  C46  1  0.18342030  0.21207161  0.69634575  1
  C  C47  1  0.02951918  0.81369646  0.69513563  1
  C  C48  1  0.78706413  0.81429918  0.19699835  1
  C  C49  1  0.03210840  0.21280823  0.19735324  1
  C  C50  1  0.18741946  0.97268120  0.19464108  1
  C  C51  1  0.87736091  0.36287006  0.63580003  1
  C  C52  1  0.48528242  0.12163681  0.63619546  1
  C  C53  1  0.64039993  0.51136072  0.63820234  1
  C  C54  1  0.87546524  0.51674911  0.13655451  1
  C  C55  1  0.63565123  0.12276620  0.13601181  1
  C  C56  1  0.48046361  0.35968890  0.13867623  1
  C  C57  1  0.46052748  0.30543535  0.03263145  1
  C  C58  1  0.84881561  0.54201296  0.03139974  1
  C  C59  1  0.69331301  0.15173847  0.03107695  1
  C  C60  1  0.45944747  0.15039471  0.53045868  1
  C  C61  1  0.69612951  0.53676965  0.52960981  1
  C  C62  1  0.84714921  0.30440671  0.53010459  1
  C  C63  1  0.54582774  0.69474586  0.97058086  1
  C  C64  1  0.15364551  0.45558527  0.97270799  1
  C  C65  1  0.30792879  0.85380710  0.97586957  1
  C  C66  1  0.54400697  0.85196304  0.46927219  1
  C  C67  1  0.30590355  0.45647035  0.46805714  1
  C  C68  1  0.14620849  0.69210743  0.47153773  1
  C  C69  1  0.12363606  0.63867550  0.36461733  1
  C  C70  1  0.51752428  0.88010403  0.36326689  1
  C  C71  1  0.36231846  0.47950517  0.36148643  1
  C  C72  1  0.12931961  0.49003498  0.86254609  1
  C  C73  1  0.36359539  0.87090102  0.86432409  1
  C  C74  1  0.51419523  0.63644724  0.86422600  1
  C  C75  1  0.02179189  0.82474126  0.41006438  1
  C  C76  1  0.80375220  0.97938173  0.40976139  1
  C  C77  1  0.17410836  0.19417764  0.40930006  1
  C  C78  1  0.01555923  0.18600866  0.90950604  1
  C  C79  1  0.16578043  0.97591340  0.90985186  1
  C  C80  1  0.80222516  0.82378500  0.90935430  1
  C  C81  1  0.97809565  0.17549558  0.58906225  1
  C  C82  1  0.19744383  0.02321976  0.58916166  1
  C  C83  1  0.83951569  0.80893909  0.58841420  1
  C  C84  1  0.98058468  0.80581831  0.08985801  1
  C  C85  1  0.82659581  0.02481182  0.09002812  1
  C  C86  1  0.19908907  0.17105561  0.09001658  1
  C  C87  1  0.68768051  0.15836989  0.74310433  1
  C  C88  1  0.46959342  0.31074665  0.74384467  1
  C  C89  1  0.84284381  0.52840992  0.74374744  1
  C  C90  1  0.68288620  0.52579251  0.24362913  1
  C  C91  1  0.84217480  0.31131755  0.24312613  1
  C  C92  1  0.46922290  0.16282716  0.24302183  1
  C  C93  1  0.64052951  0.50749382  0.92402438  1
  C  C94  1  0.86148139  0.36089494  0.92353457  1
  C  C95  1  0.49689855  0.14197159  0.92424469  1
  C  C96  1  0.64472032  0.13775562  0.42353614  1
  C  C97  1  0.49148686  0.35464771  0.42300722  1
  C  C98  1  0.86384173  0.50562998  0.42284426  1
  C  C99  1  0.35755524  0.49365548  0.07744526  1
  C  C100  1  0.13834768  0.64849022  0.07858306  1
  C  C101  1  0.50609196  0.86448549  0.07704051  1
  C  C102  1  0.34868264  0.86087293  0.57593162  1
  C  C103  1  0.50183769  0.64588481  0.57641451  1
  C  C104  1  0.13224331  0.49644093  0.57522049  1
  C  C105  1  0.31118013  0.84121317  0.25640132  1
  C  C106  1  0.52583305  0.68307589  0.25628939  1
  C  C107  1  0.16304256  0.46962467  0.25679552  1
  C  C108  1  0.31252581  0.47078130  0.75667188  1
  C  C109  1  0.15989098  0.69089649  0.75588129  1
  C  C110  1  0.52994104  0.83956710  0.75672091  1
