# generated using pymatgen
data_Cu2NiC9
_symmetry_space_group_name_H-M   'P 1'
_cell_length_a   11.47863600
_cell_length_b   18.88767700
_cell_length_c   21.71349700
_cell_angle_alpha   90.00000000
_cell_angle_beta   90.00000000
_cell_angle_gamma   90.00000000
_symmetry_Int_Tables_number   1
_chemical_formula_structural   Cu2NiC9
_chemical_formula_sum   'Cu16 Ni8 C72'
_cell_volume   4707.58970493
_cell_formula_units_Z   8
loop_
 _symmetry_equiv_pos_site_id
 _symmetry_equiv_pos_as_xyz
  1  'x, y, z'
loop_
 _atom_site_type_symbol
 _atom_site_label
 _atom_site_symmetry_multiplicity
 _atom_site_fract_x
 _atom_site_fract_y
 _atom_site_fract_z
 _atom_site_occupancy
  Ni  Ni0  1  0.12694600  0.22127200  0.12071700  1
  Ni  Ni1  1  0.62694600  0.27872800  0.87928300  1
  Ni  Ni2  1  0.87305400  0.72127200  0.37928300  1
  Ni  Ni3  1  0.37305400  0.77872800  0.62071700  1
  Ni  Ni4  1  0.87305400  0.77872800  0.87928300  1
  Ni  Ni5  1  0.37305400  0.72127200  0.12071700  1
  Ni  Ni6  1  0.12694600  0.27872800  0.62071700  1
  Ni  Ni7  1  0.62694600  0.22127200  0.37928300  1
  Cu  Cu8  1  0.80676800  0.49558000  0.13370800  1
  Cu  Cu9  1  0.30676800  0.00442000  0.86629200  1
  Cu  Cu10  1  0.19323200  0.99558000  0.36629200  1
  Cu  Cu11  1  0.69323200  0.50442000  0.63370800  1
  Cu  Cu12  1  0.19323200  0.50442000  0.86629200  1
  Cu  Cu13  1  0.69323200  0.99558000  0.13370800  1
  Cu  Cu14  1  0.80676800  0.00442000  0.63370800  1
  Cu  Cu15  1  0.30676800  0.49558000  0.36629200  1
  Cu  Cu16  1  0.67129600  0.42499000  0.08799000  1
  Cu  Cu17  1  0.17129600  0.07501000  0.91201000  1
  Cu  Cu18  1  0.32870400  0.92499000  0.41201000  1
  Cu  Cu19  1  0.82870400  0.57501000  0.58799000  1
  Cu  Cu20  1  0.32870400  0.57501000  0.91201000  1
  Cu  Cu21  1  0.82870400  0.92499000  0.08799000  1
  Cu  Cu22  1  0.67129600  0.07501000  0.58799000  1
  Cu  Cu23  1  0.17129600  0.42499000  0.41201000  1
  C  C24  1  0.99384800  0.21189200  0.21493100  1
  C  C25  1  0.49384800  0.28810800  0.78506900  1
  C  C26  1  0.00615200  0.71189200  0.28506900  1
  C  C27  1  0.50615200  0.78810800  0.71493100  1
  C  C28  1  0.00615200  0.78810800  0.78506900  1
  C  C29  1  0.50615200  0.71189200  0.21493100  1
  C  C30  1  0.99384800  0.28810800  0.71493100  1
  C  C31  1  0.49384800  0.21189200  0.28506900  1
  C  C32  1  0.27251400  0.11299800  0.12121700  1
  C  C33  1  0.77251400  0.38700200  0.87878300  1
  C  C34  1  0.72748600  0.61299800  0.37878300  1
  C  C35  1  0.22748600  0.88700200  0.62121700  1
  C  C36  1  0.72748600  0.88700200  0.87878300  1
  C  C37  1  0.22748600  0.61299800  0.12121700  1
  C  C38  1  0.27251400  0.38700200  0.62121700  1
  C  C39  1  0.77251400  0.11299800  0.37878300  1
  C  C40  1  0.02322500  0.22296400  0.01586000  1
  C  C41  1  0.52322500  0.27703600  0.98414000  1
  C  C42  1  0.97677500  0.72296400  0.48414000  1
  C  C43  1  0.47677500  0.77703600  0.51586000  1
  C  C44  1  0.97677500  0.77703600  0.98414000  1
  C  C45  1  0.47677500  0.72296400  0.01586000  1
  C  C46  1  0.02322500  0.27703600  0.51586000  1
  C  C47  1  0.52322500  0.22296400  0.48414000  1
  C  C48  1  0.24671700  0.33857600  0.12954000  1
  C  C49  1  0.74671700  0.16142400  0.87046000  1
  C  C50  1  0.75328300  0.83857600  0.37046000  1
  C  C51  1  0.25328300  0.66142400  0.62954000  1
  C  C52  1  0.75328300  0.66142400  0.87046000  1
  C  C53  1  0.25328300  0.83857600  0.12954000  1
  C  C54  1  0.24671700  0.16142400  0.62954000  1
  C  C55  1  0.74671700  0.33857600  0.37046000  1
  C  C56  1  0.76596200  0.54264100  0.23742400  1
  C  C57  1  0.26596200  0.95735900  0.76257600  1
  C  C58  1  0.23403800  0.04264100  0.26257600  1
  C  C59  1  0.73403800  0.45735900  0.73742400  1
  C  C60  1  0.23403800  0.45735900  0.76257600  1
  C  C61  1  0.73403800  0.04264100  0.23742400  1
  C  C62  1  0.76596200  0.95735900  0.73742400  1
  C  C63  1  0.26596200  0.54264100  0.26257600  1
  C  C64  1  0.99075300  0.42736100  0.13261700  1
  C  C65  1  0.49075300  0.07263900  0.86738300  1
  C  C66  1  0.00924700  0.92736100  0.36738300  1
  C  C67  1  0.50924700  0.57263900  0.63261700  1
  C  C68  1  0.00924700  0.57263900  0.86738300  1
  C  C69  1  0.50924700  0.92736100  0.13261700  1
  C  C70  1  0.99075300  0.07263900  0.63261700  1
  C  C71  1  0.49075300  0.42736100  0.36738300  1
  C  C72  1  0.82799400  0.59429200  0.06233700  1
  C  C73  1  0.32799400  0.90570800  0.93766300  1
  C  C74  1  0.17200600  0.09429200  0.43766300  1
  C  C75  1  0.67200600  0.40570800  0.56233700  1
  C  C76  1  0.17200600  0.40570800  0.93766300  1
  C  C77  1  0.67200600  0.09429200  0.06233700  1
  C  C78  1  0.82799400  0.90570800  0.56233700  1
  C  C79  1  0.32799400  0.59429200  0.43766300  1
  C  C80  1  0.65012500  0.33859700  0.17166900  1
  C  C81  1  0.15012500  0.16140300  0.82833100  1
  C  C82  1  0.34987500  0.83859700  0.32833100  1
  C  C83  1  0.84987500  0.66140300  0.67166900  1
  C  C84  1  0.34987500  0.66140300  0.82833100  1
  C  C85  1  0.84987500  0.83859700  0.17166900  1
  C  C86  1  0.65012500  0.16140300  0.67166900  1
  C  C87  1  0.15012500  0.33859700  0.32833100  1
  C  C88  1  0.50169500  0.50337200  0.10136900  1
  C  C89  1  0.00169500  0.99662800  0.89863100  1
  C  C90  1  0.49830500  0.00337200  0.39863100  1
  C  C91  1  0.99830500  0.49662800  0.60136900  1
  C  C92  1  0.49830500  0.49662800  0.89863100  1
  C  C93  1  0.99830500  0.00337200  0.10136900  1
  C  C94  1  0.50169500  0.99662800  0.60136900  1
  C  C95  1  0.00169500  0.50337200  0.39863100  1
