# generated using pymatgen
data_Cu3NiC38
_symmetry_space_group_name_H-M   'P 1'
_cell_length_a   9.02311962
_cell_length_b   9.02401015
_cell_length_c   22.07832966
_cell_angle_alpha   90.65586341
_cell_angle_beta   90.04578079
_cell_angle_gamma   120.03715490
_symmetry_Int_Tables_number   1
_chemical_formula_structural   Cu3NiC38
_chemical_formula_sum   'Cu9 Ni3 C114'
_cell_volume   1556.14337592
_cell_formula_units_Z   3
loop_
 _symmetry_equiv_pos_site_id
 _symmetry_equiv_pos_as_xyz
  1  'x, y, z'
loop_
 _atom_site_type_symbol
 _atom_site_label
 _atom_site_symmetry_multiplicity
 _atom_site_fract_x
 _atom_site_fract_y
 _atom_site_fract_z
 _atom_site_occupancy
  C  C0  1  0.64383322  0.01399310  0.24771292  1
  C  C1  1  0.36332708  0.36429032  0.24436755  1
  C  C2  1  0.99321240  0.62023680  0.24472910  1
  C  C3  1  0.63053549  0.62199413  0.74834813  1
  C  C4  1  0.99349664  0.36821798  0.75196450  1
  C  C5  1  0.37885067  0.00763739  0.74857595  1
  C  C6  1  0.30966835  0.33443539  0.58708512  1
  C  C7  1  0.03279653  0.70530005  0.58304741  1
  C  C8  1  0.66255657  0.96630586  0.58851474  1
  C  C9  1  0.30636541  0.96656267  0.08109756  1
  C  C10  1  0.66250235  0.69360395  0.08078950  1
  C  C11  1  0.03191832  0.34492925  0.08168629  1
  C  C12  1  0.96432930  0.66711637  0.91583586  1
  C  C13  1  0.70207387  0.03538231  0.91569553  1
  C  C14  1  0.33349488  0.29771435  0.91590853  1
  C  C15  1  0.96241193  0.28868046  0.41356752  1
  C  C16  1  0.32491423  0.03122533  0.41786036  1
  C  C17  1  0.71023420  0.67560060  0.41794427  1
  C  C18  1  0.00040706  0.99622317  0.49746951  1
  C  C19  1  0.99991375  0.99825022  0.99508390  1
  C  C20  1  0.66615143  0.33279570  0.82977808  1
  C  C21  1  0.67697779  0.33138659  0.33398988  1
  C  C22  1  0.32968166  0.66294893  0.16108483  1
  C  C23  1  0.33998366  0.67147430  0.67041086  1
  Ni  Ni24  1  0.99696267  0.00492500  0.35568551  1
  Ni  Ni25  1  0.65509081  0.32959927  0.68863161  1
  Ni  Ni26  1  0.67556005  0.33397816  0.17883874  1
  Cu  Cu27  1  0.99967133  0.00104525  0.85144114  1
  Cu  Cu28  1  0.00097493  0.98908939  0.65241052  1
  Cu  Cu29  1  0.00598595  0.02061241  0.13887765  1
  Cu  Cu30  1  0.66794351  0.33496228  0.98105013  1
  Cu  Cu31  1  0.65207236  0.33682056  0.47913844  1
  Cu  Cu32  1  0.33314174  0.66745159  0.01677093  1
  Cu  Cu33  1  0.34641986  0.68022558  0.51649796  1
  Cu  Cu34  1  0.32132572  0.65230238  0.32063856  1
  Cu  Cu35  1  0.33477996  0.66645846  0.81429544  1
  C  C36  1  0.99787031  0.29443629  0.25247587  1
  C  C37  1  0.28788989  0.29039075  0.75099177  1
  C  C38  1  0.00186928  0.70615268  0.75197876  1
  C  C39  1  0.70947048  0.99908782  0.75037034  1
  C  C40  1  0.37355874  0.04060769  0.58420271  1
  C  C41  1  0.66555278  0.62747335  0.58487383  1
  C  C42  1  0.96147213  0.62795113  0.08526562  1
  C  C43  1  0.66029412  0.04041097  0.08419653  1
  C  C44  1  0.38241860  0.34007290  0.08520394  1
  C  C45  1  0.62396796  0.66603434  0.91665236  1
  C  C46  1  0.04248580  0.37668600  0.91603331  1
  C  C47  1  0.33372642  0.95751524  0.91679574  1
  C  C48  1  0.62439438  0.95986657  0.41487321  1
  C  C49  1  0.33146544  0.37533049  0.41869260  1
  C  C50  1  0.03824479  0.66334879  0.41881371  1
  C  C51  1  0.29100992  0.99913695  0.25031321  1
  C  C52  1  0.70820975  0.70934461  0.25007773  1
  C  C53  1  0.95700057  0.33433213  0.58280627  1
  C  C54  1  0.20795603  0.01943540  0.30540257  1
  C  C55  1  0.81508121  0.78890674  0.30526674  1
  C  C56  1  0.97076344  0.17583982  0.30962494  1
  C  C57  1  0.19005568  0.16596348  0.80918504  1
  C  C58  1  0.97160482  0.80428892  0.80963546  1
  C  C59  1  0.83309718  0.02535770  0.80950651  1
  C  C60  1  0.80321384  0.96492302  0.69042406  1
  C  C61  1  0.16183512  0.19675368  0.69041044  1
  C  C62  1  0.03639510  0.83325656  0.69179925  1
  C  C63  1  0.79044121  0.81489730  0.19597656  1
  C  C64  1  0.03100066  0.19721807  0.19175417  1
  C  C65  1  0.18286379  0.97102639  0.19547241  1
  C  C66  1  0.88151669  0.36283046  0.63714042  1
  C  C67  1  0.49743824  0.11529836  0.64166960  1
  C  C68  1  0.62724968  0.50742812  0.64193880  1
  C  C69  1  0.88903306  0.51556941  0.14485770  1
  C  C70  1  0.62111925  0.11017294  0.14534583  1
  C  C71  1  0.48906512  0.37159173  0.14651186  1
  C  C72  1  0.46723929  0.29789989  0.02578657  1
  C  C73  1  0.83246462  0.53749674  0.02583282  1
  C  C74  1  0.70476508  0.16816219  0.02567843  1
  C  C75  1  0.47054964  0.16727758  0.52402988  1
  C  C76  1  0.69796294  0.53291643  0.52378416  1
  C  C77  1  0.84979829  0.30735161  0.52747372  1
  C  C78  1  0.53201632  0.69791551  0.97572852  1
  C  C79  1  0.16641691  0.46734569  0.97556128  1
  C  C80  1  0.30158794  0.83409285  0.97549872  1
  C  C81  1  0.52871222  0.83630779  0.47374098  1
  C  C82  1  0.30317088  0.47218726  0.47621138  1
  C  C83  1  0.16548722  0.69374361  0.47594954  1
  C  C84  1  0.13226868  0.62857594  0.35856557  1
  C  C85  1  0.49416973  0.86417956  0.35604184  1
  C  C86  1  0.36998513  0.50179368  0.35879937  1
  C  C87  1  0.13336368  0.50182637  0.85776271  1
  C  C88  1  0.36821677  0.86554997  0.85797246  1
  C  C89  1  0.49797063  0.63149332  0.85774082  1
  C  C90  1  0.02267847  0.83146367  0.41027701  1
  C  C91  1  0.80724517  0.97054021  0.41358712  1
  C  C92  1  0.16982336  0.18675000  0.41327254  1
  C  C93  1  0.02458580  0.18692832  0.91216000  1
  C  C94  1  0.16274525  0.97599151  0.91243200  1
  C  C95  1  0.81294946  0.83772250  0.91253404  1
  C  C96  1  0.97485630  0.17828819  0.58574932  1
  C  C97  1  0.18333387  0.02624692  0.58605437  1
  C  C98  1  0.83834510  0.82091664  0.58605437  1
  C  C99  1  0.97968431  0.82082914  0.09284744  1
  C  C100  1  0.83663054  0.02080825  0.09021123  1
  C  C101  1  0.18714920  0.16123438  0.08884275  1
  C  C102  1  0.69727715  0.17002374  0.74681991  1
  C  C103  1  0.47288706  0.30639038  0.74917350  1
  C  C104  1  0.83468741  0.52125712  0.74532255  1
  C  C105  1  0.68311047  0.53425356  0.24608498  1
  C  C106  1  0.83211137  0.32005137  0.24758616  1
  C  C107  1  0.46213880  0.15446654  0.24695659  1
  C  C108  1  0.63974312  0.49293793  0.92284834  1
  C  C109  1  0.85306900  0.35938842  0.92276505  1
  C  C110  1  0.50694196  0.14671658  0.92327156  1
  C  C111  1  0.63830899  0.14712896  0.42280265  1
  C  C112  1  0.51055066  0.36666039  0.42123788  1
  C  C113  1  0.85324609  0.48609566  0.42298961  1
  C  C114  1  0.34999479  0.50144896  0.07673002  1
  C  C115  1  0.15338147  0.65310104  0.07563103  1
  C  C116  1  0.49821894  0.84591550  0.07562048  1
  C  C117  1  0.34501024  0.84450252  0.57468805  1
  C  C118  1  0.49352305  0.64740710  0.57509175  1
  C  C119  1  0.13227221  0.48864480  0.57744735  1
  C  C120  1  0.30953885  0.84230608  0.25344745  1
  C  C121  1  0.53561405  0.69732203  0.25427218  1
  C  C122  1  0.18114010  0.48836044  0.25459133  1
  C  C123  1  0.29860437  0.47753087  0.75498729  1
  C  C124  1  0.17943486  0.69905825  0.75506372  1
  C  C125  1  0.52282498  0.82248373  0.75502516  1
