# generated using pymatgen
data_Cu2NiC
_symmetry_space_group_name_H-M   'P 1'
_cell_length_a   8.59504800
_cell_length_b   6.86324100
_cell_length_c   7.13350134
_cell_angle_alpha   74.71347072
_cell_angle_beta   90.00000000
_cell_angle_gamma   90.00000000
_symmetry_Int_Tables_number   1
_chemical_formula_structural   Cu2NiC
_chemical_formula_sum   'Cu8 Ni4 C4'
_cell_volume   405.91612925
_cell_formula_units_Z   4
loop_
 _symmetry_equiv_pos_site_id
 _symmetry_equiv_pos_as_xyz
  1  'x, y, z'
loop_
 _atom_site_type_symbol
 _atom_site_label
 _atom_site_symmetry_multiplicity
 _atom_site_fract_x
 _atom_site_fract_y
 _atom_site_fract_z
 _atom_site_occupancy
  C  C0  1  0.86757700  0.01305300  0.27103400  1
  C  C1  1  0.36757700  0.48694700  0.72896600  1
  C  C2  1  0.13242300  0.98694700  0.72896600  1
  C  C3  1  0.63242300  0.51305300  0.27103400  1
  Ni  Ni4  1  0.13222500  0.49248300  0.21517600  1
  Ni  Ni5  1  0.63222500  0.00751700  0.78482400  1
  Ni  Ni6  1  0.86777500  0.50751700  0.78482400  1
  Ni  Ni7  1  0.36777500  0.99248300  0.21517600  1
  Cu  Cu8  1  0.42535100  0.78635600  0.98204200  1
  Cu  Cu9  1  0.92535200  0.71364400  0.01795800  1
  Cu  Cu10  1  0.57464900  0.21364400  0.01795800  1
  Cu  Cu11  1  0.07464900  0.28635600  0.98204200  1
  Cu  Cu12  1  0.16928000  0.75083100  0.41086000  1
  Cu  Cu13  1  0.66928000  0.74916900  0.58914000  1
  Cu  Cu14  1  0.83072000  0.24916900  0.58914000  1
  Cu  Cu15  1  0.33072000  0.25083100  0.41086000  1
