# generated using pymatgen
data_Cu2Ni2C11
_symmetry_space_group_name_H-M   'P 1'
_cell_length_a   6.66350931
_cell_length_b   6.66350931
_cell_length_c   5.62417542
_cell_angle_alpha   90.00000000
_cell_angle_beta   90.00000000
_cell_angle_gamma   90.00000000
_symmetry_Int_Tables_number   1
_chemical_formula_structural   Cu2Ni2C11
_chemical_formula_sum   'Cu2 Ni2 C11'
_cell_volume   249.72664103
_cell_formula_units_Z   1
loop_
 _symmetry_equiv_pos_site_id
 _symmetry_equiv_pos_as_xyz
  1  'x, y, z'
loop_
 _atom_site_type_symbol
 _atom_site_label
 _atom_site_symmetry_multiplicity
 _atom_site_fract_x
 _atom_site_fract_y
 _atom_site_fract_z
 _atom_site_occupancy
  C  C0  1  0.75000000  0.25000000  0.00000000  1
  Ni  Ni1  1  0.25000000  0.25000000  0.80022229  1
  Ni  Ni2  1  0.75000000  0.75000000  0.19977871  1
  Cu  Cu3  1  0.25000000  0.75000000  0.50000000  1
  Cu  Cu4  1  0.75000000  0.25000000  0.50000000  1
  C  C5  1  0.03722012  0.74618988  0.32018292  1
  C  C6  1  0.24618988  0.96277988  0.67981708  1
  C  C7  1  0.25000000  0.25000000  0.11318959  1
  C  C8  1  0.25381012  0.53722012  0.67981708  1
  C  C9  1  0.46278088  0.75381012  0.32018292  1
  C  C10  1  0.54722163  0.24653054  0.74010677  1
  C  C11  1  0.74653054  0.45277937  0.25989323  1
  C  C12  1  0.75000000  0.75000000  0.88681041  1
  C  C13  1  0.75346946  0.04722163  0.25989323  1
  C  C14  1  0.95277837  0.25346946  0.74010677  1
