# generated using pymatgen
data_Cu13(Ni3C2)2
_symmetry_space_group_name_H-M   'P 1'
_cell_length_a   4.27493000
_cell_length_b   17.27204800
_cell_length_c   18.73284480
_cell_angle_alpha   89.58482562
_cell_angle_beta   90.00000000
_cell_angle_gamma   90.00000000
_symmetry_Int_Tables_number   1
_chemical_formula_structural   Cu13(Ni3C2)2
_chemical_formula_sum   'Cu26 Ni12 C8'
_cell_volume   1383.13693000
_cell_formula_units_Z   2
loop_
 _symmetry_equiv_pos_site_id
 _symmetry_equiv_pos_as_xyz
  1  'x, y, z'
loop_
 _atom_site_type_symbol
 _atom_site_label
 _atom_site_symmetry_multiplicity
 _atom_site_fract_x
 _atom_site_fract_y
 _atom_site_fract_z
 _atom_site_occupancy
  C  C0  1  0.25000000  0.51159500  0.24628900  1
  C  C1  1  0.75000000  0.48840500  0.75371100  1
  C  C2  1  0.25000000  0.77079200  0.18002100  1
  C  C3  1  0.75000000  0.22920800  0.81997900  1
  C  C4  1  0.25000000  0.98681500  0.34033300  1
  C  C5  1  0.75000000  0.01318500  0.65966700  1
  C  C6  1  0.25000000  0.24293300  0.27101900  1
  C  C7  1  0.75000000  0.75706700  0.72898100  1
  Ni  Ni8  1  0.75000000  0.17063000  0.47790500  1
  Ni  Ni9  1  0.25000000  0.82937000  0.52209500  1
  Ni  Ni10  1  0.25000000  0.32684900  0.61985300  1
  Ni  Ni11  1  0.75000000  0.67315100  0.38014700  1
  Ni  Ni12  1  0.25000000  0.58319100  0.57823900  1
  Ni  Ni13  1  0.75000000  0.41680900  0.42176100  1
  Ni  Ni14  1  0.75000000  0.81287800  0.95557600  1
  Ni  Ni15  1  0.25000000  0.18712200  0.04442400  1
  Ni  Ni16  1  0.25000000  0.01020000  0.88031600  1
  Ni  Ni17  1  0.75000000  0.98980000  0.11968400  1
  Ni  Ni18  1  0.25000000  0.60651900  0.98115700  1
  Ni  Ni19  1  0.75000000  0.39348100  0.01884300  1
  Cu  Cu20  1  0.75000000  0.38348100  0.27734500  1
  Cu  Cu21  1  0.25000000  0.61651900  0.72265500  1
  Cu  Cu22  1  0.75000000  0.12381900  0.33482300  1
  Cu  Cu23  1  0.25000000  0.87618100  0.66517700  1
  Cu  Cu24  1  0.75000000  0.93043600  0.48535300  1
  Cu  Cu25  1  0.25000000  0.06956400  0.51464700  1
  Cu  Cu26  1  0.75000000  0.26466400  0.12602500  1
  Cu  Cu27  1  0.25000000  0.73533600  0.87397500  1
  Cu  Cu28  1  0.75000000  0.89424100  0.23752800  1
  Cu  Cu29  1  0.25000000  0.10575900  0.76247200  1
  Cu  Cu30  1  0.25000000  0.89448000  0.03928200  1
  Cu  Cu31  1  0.75000000  0.10552000  0.96071800  1
  Cu  Cu32  1  0.75000000  0.64244200  0.23588500  1
  Cu  Cu33  1  0.25000000  0.35755800  0.76411500  1
  Cu  Cu34  1  0.75000000  0.92010900  0.82240100  1
  Cu  Cu35  1  0.25000000  0.07989100  0.17759900  1
  Cu  Cu36  1  0.75000000  0.69528900  0.06129800  1
  Cu  Cu37  1  0.25000000  0.30471100  0.93870200  1
  Cu  Cu38  1  0.75000000  0.52120600  0.91285700  1
  Cu  Cu39  1  0.25000000  0.47879400  0.08714300  1
  Cu  Cu40  1  0.25000000  0.30159000  0.44433900  1
  Cu  Cu41  1  0.75000000  0.69841000  0.55566100  1
  Cu  Cu42  1  0.25000000  0.54015000  0.41012800  1
  Cu  Cu43  1  0.75000000  0.45985000  0.58987200  1
  Cu  Cu44  1  0.25000000  0.78021700  0.36120600  1
  Cu  Cu45  1  0.75000000  0.21978300  0.63879400  1
