# generated using pymatgen
data_Cu(NiC)2
_symmetry_space_group_name_H-M   'P 1'
_cell_length_a   3.42384200
_cell_length_b   3.42428116
_cell_length_c   37.23358357
_cell_angle_alpha   89.92090903
_cell_angle_beta   90.00000000
_cell_angle_gamma   119.99575761
_symmetry_Int_Tables_number   1
_chemical_formula_structural   Cu(NiC)2
_chemical_formula_sum   'Cu2 Ni4 C4'
_cell_volume   378.06512156
_cell_formula_units_Z   2
loop_
 _symmetry_equiv_pos_site_id
 _symmetry_equiv_pos_as_xyz
  1  'x, y, z'
loop_
 _atom_site_type_symbol
 _atom_site_label
 _atom_site_symmetry_multiplicity
 _atom_site_fract_x
 _atom_site_fract_y
 _atom_site_fract_z
 _atom_site_occupancy
  C  C0  1  0.99838900  0.99677800  0.24374400  1
  Ni  Ni1  1  0.66684800  0.33369400  0.05971100  1
  Ni  Ni2  1  0.66686700  0.33373400  0.52815200  1
  Ni  Ni3  1  0.66656000  0.33312000  0.16008100  1
  Ni  Ni4  1  0.66634000  0.33267700  0.62822600  1
  C  C5  1  0.33346000  0.66692000  0.10965600  1
  C  C6  1  0.33335800  0.66671700  0.57821200  1
  C  C7  1  0.66705200  0.33410500  0.35384400  1
  Cu  Cu8  1  0.33284400  0.66569000  0.39362900  1
  Cu  Cu9  1  0.33488100  0.66976400  0.31341900  1
