# generated using pymatgen
data_CuNiC17
_symmetry_space_group_name_H-M   'P 1'
_cell_length_a   8.86408231
_cell_length_b   8.80220924
_cell_length_c   22.50533965
_cell_angle_alpha   90.00000000
_cell_angle_beta   90.27938298
_cell_angle_gamma   119.76936637
_symmetry_Int_Tables_number   1
_chemical_formula_structural   CuNiC17
_chemical_formula_sum   'Cu6 Ni6 C102'
_cell_volume   1524.19117766
_cell_formula_units_Z   6
loop_
 _symmetry_equiv_pos_site_id
 _symmetry_equiv_pos_as_xyz
  1  'x, y, z'
loop_
 _atom_site_type_symbol
 _atom_site_label
 _atom_site_symmetry_multiplicity
 _atom_site_fract_x
 _atom_site_fract_y
 _atom_site_fract_z
 _atom_site_occupancy
  C  C0  1  0.99035548  0.63213503  0.24785204  1
  C  C1  1  0.99035548  0.35822046  0.74785204  1
  C  C2  1  0.65702248  0.96546803  0.58118504  1
  C  C3  1  0.65702248  0.69155346  0.08118504  1
  C  C4  1  0.32368848  0.29880203  0.91451904  1
  C  C5  1  0.32368848  0.02488746  0.41451904  1
  C  C6  1  0.99825463  0.00054343  0.49372733  1
  C  C7  1  0.99825463  0.99771120  0.99372733  1
  C  C8  1  0.66492163  0.33387643  0.82706033  1
  C  C9  1  0.66492163  0.33104420  0.32706033  1
  C  C10  1  0.33158763  0.66721043  0.16039433  1
  C  C11  1  0.33158763  0.66437820  0.66039433  1
  Ni  Ni12  1  0.99435213  0.00009722  0.35229598  1
  Ni  Ni13  1  0.99435213  0.99425491  0.85229598  1
  Ni  Ni14  1  0.66101913  0.33343022  0.68562898  1
  Ni  Ni15  1  0.66101913  0.32758791  0.18562898  1
  Ni  Ni16  1  0.32768513  0.66676422  0.01896298  1
  Ni  Ni17  1  0.32768513  0.66092191  0.51896298  1
  Cu  Cu18  1  0.00566735  0.99791263  0.64667055  1
  Cu  Cu19  1  0.00566735  0.00775472  0.14667055  1
  Cu  Cu20  1  0.67233435  0.33124563  0.98000355  1
  Cu  Cu21  1  0.67233435  0.34108772  0.48000355  1
  Cu  Cu22  1  0.33900035  0.66457963  0.31333755  1
  Cu  Cu23  1  0.33900035  0.67442172  0.81333755  1
  C  C24  1  0.29555578  0.00696994  0.25329233  1
  C  C25  1  0.71174146  0.70983707  0.25096710  1
  C  C26  1  0.99567081  0.28839892  0.25279539  1
  C  C27  1  0.29555578  0.28858584  0.75329233  1
  C  C28  1  0.99567081  0.70727190  0.75279539  1
  C  C29  1  0.71174146  0.00190439  0.75096710  1
  C  C30  1  0.96222278  0.34030294  0.58662533  1
  C  C31  1  0.37840846  0.04317007  0.58430010  1
  C  C32  1  0.66233781  0.62173192  0.58612839  1
  C  C33  1  0.96222278  0.62191884  0.08662533  1
  C  C34  1  0.66233781  0.04060490  0.08612839  1
  C  C35  1  0.37840846  0.33523739  0.08430010  1
  C  C36  1  0.62888878  0.67363694  0.91995933  1
  C  C37  1  0.04507446  0.37650407  0.91763410  1
  C  C38  1  0.32900381  0.95506592  0.91946239  1
  C  C39  1  0.62888878  0.95525284  0.41995933  1
  C  C40  1  0.32900381  0.37393890  0.41946239  1
  C  C41  1  0.04507446  0.66857139  0.41763410  1
  C  C42  1  0.20905505  0.02246345  0.30863865  1
  C  C43  1  0.82643522  0.79592781  0.30372129  1
  C  C44  1  0.97585915  0.18026789  0.30590437  1
  C  C45  1  0.20905505  0.18659160  0.80863865  1
  C  C46  1  0.97585915  0.79559126  0.80590437  1
  C  C47  1  0.82643522  0.03050742  0.80372129  1
  C  C48  1  0.79528765  0.96905353  0.69290433  1
  C  C49  1  0.16810758  0.19826812  0.69725464  1
  C  C50  1  0.02742598  0.82675021  0.69531440  1
  C  C51  1  0.79528765  0.82623411  0.19290433  1
  C  C52  1  0.02742598  0.20067578  0.19531440  1
  C  C53  1  0.16810758  0.96983946  0.19725464  1
  C  C54  1  0.87572205  0.35579645  0.64197165  1
  C  C55  1  0.49310222  0.12926081  0.63705429  1
  C  C56  1  0.64252615  0.51360089  0.63923737  1
  C  C57  1  0.87572205  0.51992460  0.14197165  1
  C  C58  1  0.64252615  0.12892426  0.13923737  1
  C  C59  1  0.49310222  0.36384042  0.13705429  1
  C  C60  1  0.46195465  0.30238653  0.02623733  1
  C  C61  1  0.83477458  0.53160112  0.03058764  1
  C  C62  1  0.69409298  0.16008321  0.02864740  1
  C  C63  1  0.46195465  0.15956711  0.52623733  1
  C  C64  1  0.69409298  0.53400878  0.52864740  1
  C  C65  1  0.83477458  0.30317246  0.53058764  1
  C  C66  1  0.54238805  0.68913045  0.97530565  1
  C  C67  1  0.15976822  0.46259481  0.97038829  1
  C  C68  1  0.30919215  0.84693489  0.97257137  1
  C  C69  1  0.54238805  0.85325860  0.47530565  1
  C  C70  1  0.30919215  0.46225826  0.47257137  1
  C  C71  1  0.15976822  0.69717442  0.47038829  1
  C  C72  1  0.12862065  0.63572053  0.35957133  1
  C  C73  1  0.50144058  0.86493512  0.36392164  1
  C  C74  1  0.36075898  0.49341721  0.36198140  1
  C  C75  1  0.12862065  0.49290111  0.85957133  1
  C  C76  1  0.36075898  0.86734278  0.86198140  1
  C  C77  1  0.50144058  0.63650646  0.86392164  1
  C  C78  1  0.02263781  0.82726191  0.40878954  1
  C  C79  1  0.80732751  0.98177756  0.41015788  1
  C  C80  1  0.18030542  0.18883953  0.41004621  1
  C  C81  1  0.02263781  0.19537590  0.90878954  1
  C  C82  1  0.18030542  0.99146589  0.91004621  1
  C  C83  1  0.80732751  0.82554995  0.91015788  1
  C  C84  1  0.96651373  0.16087431  0.58954609  1
  C  C85  1  0.19447508  0.02949145  0.59042277  1
  C  C86  1  0.83497217  0.80932898  0.58969911  1
  C  C87  1  0.96651373  0.80563943  0.08954609  1
  C  C88  1  0.83497217  0.02564319  0.08969911  1
  C  C89  1  0.19447508  0.16498363  0.09042277  1
  C  C90  1  0.68930481  0.16059491  0.74212254  1
  C  C91  1  0.47399451  0.31511056  0.74349088  1
  C  C92  1  0.84697242  0.52217253  0.74337921  1
  C  C93  1  0.68930481  0.52870890  0.24212254  1
  C  C94  1  0.84697242  0.32479889  0.24337921  1
  C  C95  1  0.47399451  0.15888295  0.24349088  1
  C  C96  1  0.63318073  0.49420731  0.92287909  1
  C  C97  1  0.86114208  0.36282445  0.92375577  1
  C  C98  1  0.50163917  0.14266198  0.92303211  1
  C  C99  1  0.63318073  0.13897243  0.42287909  1
  C  C100  1  0.50163917  0.35897619  0.42303211  1
  C  C101  1  0.86114208  0.49831663  0.42375577  1
  C  C102  1  0.35597081  0.49392891  0.07545654  1
  C  C103  1  0.14066051  0.64844456  0.07682488  1
  C  C104  1  0.51363842  0.85550653  0.07671321  1
  C  C105  1  0.35597081  0.86204290  0.57545654  1
  C  C106  1  0.51363842  0.65813289  0.57671321  1
  C  C107  1  0.14066051  0.49221695  0.57682488  1
  C  C108  1  0.29984673  0.82754131  0.25621309  1
  C  C109  1  0.52780808  0.69615845  0.25708977  1
  C  C110  1  0.16830517  0.47599598  0.25636611  1
  C  C111  1  0.29984673  0.47230643  0.75621309  1
  C  C112  1  0.16830517  0.69231019  0.75636611  1
  C  C113  1  0.52780808  0.83165063  0.75708977  1
