# generated using pymatgen
data_CuNi
_symmetry_space_group_name_H-M   'P 1'
_cell_length_a   7.43937500
_cell_length_b   12.35929300
_cell_length_c   12.77919150
_cell_angle_alpha   64.01252930
_cell_angle_beta   90.00000000
_cell_angle_gamma   90.00000000
_symmetry_Int_Tables_number   1
_chemical_formula_structural   CuNi
_chemical_formula_sum   'Cu16 Ni16'
_cell_volume   1056.18489357
_cell_formula_units_Z   16
loop_
 _symmetry_equiv_pos_site_id
 _symmetry_equiv_pos_as_xyz
  1  'x, y, z'
loop_
 _atom_site_type_symbol
 _atom_site_label
 _atom_site_symmetry_multiplicity
 _atom_site_fract_x
 _atom_site_fract_y
 _atom_site_fract_z
 _atom_site_occupancy
  Ni  Ni0  1  0.99047500  0.23882800  0.16845700  1
  Ni  Ni1  1  0.49047500  0.76117200  0.33154300  1
  Ni  Ni2  1  0.00952500  0.76117200  0.83154300  1
  Ni  Ni3  1  0.50952500  0.23882800  0.66845700  1
  Ni  Ni4  1  0.81159100  0.32671100  0.24622700  1
  Ni  Ni5  1  0.31159100  0.67328900  0.25377300  1
  Ni  Ni6  1  0.18840900  0.67328900  0.75377300  1
  Ni  Ni7  1  0.68840900  0.32671100  0.74622700  1
  Ni  Ni8  1  0.19475300  0.17633600  0.42822200  1
  Ni  Ni9  1  0.69475300  0.82366400  0.07177800  1
  Ni  Ni10  1  0.80524700  0.82366400  0.57177800  1
  Ni  Ni11  1  0.30524700  0.17633600  0.92822200  1
  Ni  Ni12  1  0.36882000  0.31752800  0.30064900  1
  Ni  Ni13  1  0.86882000  0.68247200  0.19935100  1
  Ni  Ni14  1  0.63118000  0.68247200  0.69935100  1
  Ni  Ni15  1  0.13118000  0.31752800  0.80064900  1
  Cu  Cu16  1  0.58570200  0.18406400  0.30061400  1
  Cu  Cu17  1  0.08570200  0.81593600  0.19938600  1
  Cu  Cu18  1  0.41429800  0.81593600  0.69938600  1
  Cu  Cu19  1  0.91429800  0.18406400  0.80061400  1
  Cu  Cu20  1  0.95682600  0.29774200  0.41640400  1
  Cu  Cu21  1  0.45682600  0.70225800  0.08359600  1
  Cu  Cu22  1  0.04317400  0.70225800  0.58359600  1
  Cu  Cu23  1  0.54317400  0.29774200  0.91640400  1
  Cu  Cu24  1  0.09928900  0.07625400  0.32523700  1
  Cu  Cu25  1  0.59928900  0.92374600  0.17476300  1
  Cu  Cu26  1  0.90071100  0.92374600  0.67476300  1
  Cu  Cu27  1  0.40071100  0.07625400  0.82523700  1
  Cu  Cu28  1  0.21511200  0.37855600  0.12727900  1
  Cu  Cu29  1  0.71511200  0.62144400  0.37272100  1
  Cu  Cu30  1  0.78488800  0.62144400  0.87272100  1
  Cu  Cu31  1  0.28488800  0.37855600  0.62727900  1
