# generated using pymatgen
data_Cu2NiC14
_symmetry_space_group_name_H-M   'P 1'
_cell_length_a   6.30248687
_cell_length_b   6.30630255
_cell_length_c   7.98866465
_cell_angle_alpha   69.29891601
_cell_angle_beta   109.08045841
_cell_angle_gamma   128.37881867
_symmetry_Int_Tables_number   1
_chemical_formula_structural   Cu2NiC14
_chemical_formula_sum   'Cu2 Ni1 C14'
_cell_volume   230.32344066
_cell_formula_units_Z   1
loop_
 _symmetry_equiv_pos_site_id
 _symmetry_equiv_pos_as_xyz
  1  'x, y, z'
loop_
 _atom_site_type_symbol
 _atom_site_label
 _atom_site_symmetry_multiplicity
 _atom_site_fract_x
 _atom_site_fract_y
 _atom_site_fract_z
 _atom_site_occupancy
  C  C0  1  0.38058100  0.63116300  0.78539600  1
  C  C1  1  0.38219900  0.61026300  0.26736900  1
  C  C2  1  0.64910900  0.37049900  0.71455200  1
  C  C3  1  0.63754600  0.35683600  0.19579700  1
  Ni  Ni4  1  0.13765900  0.81905400  0.39352800  1
  Cu  Cu5  1  0.99714100  0.04771200  0.54930600  1
  Cu  Cu6  1  0.99885600  0.99150800  0.98707500  1
  C  C7  1  0.05693000  0.70205200  0.64309100  1
  C  C8  1  0.29987000  0.93162700  0.17000900  1
  C  C9  1  0.60018300  0.76102900  0.54233100  1
  C  C10  1  0.21458200  0.19549800  0.76672500  1
  C  C11  1  0.75547700  0.59090900  0.93035800  1
  C  C12  1  0.26048200  0.38630700  0.05555400  1
  C  C13  1  0.80462900  0.77800900  0.23318400  1
  C  C14  1  0.36472100  0.21949900  0.44825900  1
  C  C15  1  0.70539000  0.03913800  0.85699700  1
  C  C16  1  0.99422700  0.38139700  0.38904000  1
