# generated using pymatgen
data_Cu2NiC12
_symmetry_space_group_name_H-M   'P 1'
_cell_length_a   3.04140715
_cell_length_b   8.61951846
_cell_length_c   8.02809154
_cell_angle_alpha   82.90275561
_cell_angle_beta   83.22610503
_cell_angle_gamma   76.68512547
_symmetry_Int_Tables_number   1
_chemical_formula_structural   Cu2NiC12
_chemical_formula_sum   'Cu2 Ni1 C12'
_cell_volume   202.35886285
_cell_formula_units_Z   1
loop_
 _symmetry_equiv_pos_site_id
 _symmetry_equiv_pos_as_xyz
  1  'x, y, z'
loop_
 _atom_site_type_symbol
 _atom_site_label
 _atom_site_symmetry_multiplicity
 _atom_site_fract_x
 _atom_site_fract_y
 _atom_site_fract_z
 _atom_site_occupancy
  Ni  Ni0  1  0.32749437  0.74568284  0.69560429  1
  C  C1  1  0.55341470  0.08323129  0.64614659  1
  C  C2  1  0.23700257  0.56956133  0.12471740  1
  C  C3  1  0.92799407  0.39074934  0.84826157  1
  C  C4  1  0.33590111  0.87426560  0.35590592  1
  Cu  Cu5  1  0.03377358  0.19583556  0.24474841  1
  Cu  Cu6  1  0.68753877  0.93700197  0.99239527  1
  C  C7  1  0.84321620  0.79317435  0.53863215  1
  C  C8  1  0.52898991  0.25029997  0.80659505  1
  C  C9  1  0.62423392  0.72266031  0.15570757  1
  C  C10  1  0.07187340  0.11929190  0.48695081  1
  C  C11  1  0.24386248  0.93151571  0.83019205  1
  C  C12  1  0.84831702  0.40728163  0.12955317  1
  C  C13  1  0.65782898  0.04457974  0.19394313  1
  C  C14  1  0.32808290  0.54920345  0.84709761  1
