# generated using pymatgen
data_CuNiC2
_symmetry_space_group_name_H-M   'P 1'
_cell_length_a   7.71938300
_cell_length_b   8.65931200
_cell_length_c   9.48169800
_cell_angle_alpha   90.00000000
_cell_angle_beta   90.00000000
_cell_angle_gamma   90.00000000
_symmetry_Int_Tables_number   1
_chemical_formula_structural   CuNiC2
_chemical_formula_sum   'Cu12 Ni12 C24'
_cell_volume   633.79979664
_cell_formula_units_Z   12
loop_
 _symmetry_equiv_pos_site_id
 _symmetry_equiv_pos_as_xyz
  1  'x, y, z'
loop_
 _atom_site_type_symbol
 _atom_site_label
 _atom_site_symmetry_multiplicity
 _atom_site_fract_x
 _atom_site_fract_y
 _atom_site_fract_z
 _atom_site_occupancy
  Ni  Ni0  1  0.00000000  0.16798900  0.82084900  1
  Ni  Ni1  1  0.23989100  0.17166800  0.54699900  1
  Ni  Ni2  1  0.76010900  0.32833200  0.04699900  1
  Ni  Ni3  1  0.76010900  0.67166800  0.95300100  1
  Ni  Ni4  1  0.76010900  0.17166800  0.54699900  1
  Ni  Ni5  1  0.76010900  0.82833200  0.45300100  1
  Ni  Ni6  1  0.23989100  0.67166800  0.95300100  1
  Ni  Ni7  1  0.23989100  0.32833200  0.04699900  1
  Ni  Ni8  1  0.00000000  0.33201100  0.32084900  1
  Ni  Ni9  1  0.00000000  0.66798900  0.67915100  1
  Ni  Ni10  1  0.00000000  0.83201100  0.17915100  1
  Ni  Ni11  1  0.23989100  0.82833200  0.45300100  1
  Cu  Cu12  1  0.24770300  0.08474500  0.25308600  1
  Cu  Cu13  1  0.24770300  0.58474500  0.24691400  1
  Cu  Cu14  1  0.24770300  0.41525500  0.75308600  1
  Cu  Cu15  1  0.75229700  0.08474500  0.25308600  1
  Cu  Cu16  1  0.75229700  0.91525500  0.74691400  1
  Cu  Cu17  1  0.75229700  0.41525500  0.75308600  1
  Cu  Cu18  1  0.75229700  0.58474500  0.24691400  1
  Cu  Cu19  1  0.24770300  0.91525500  0.74691400  1
  Cu  Cu20  1  0.24363800  0.00000000  0.00000000  1
  Cu  Cu21  1  0.75636200  0.50000000  0.50000000  1
  Cu  Cu22  1  0.75636200  0.00000000  0.00000000  1
  Cu  Cu23  1  0.24363800  0.50000000  0.50000000  1
  C  C24  1  0.50000000  0.03749100  0.37598200  1
  C  C25  1  0.00000000  0.46173200  0.87939200  1
  C  C26  1  0.00000000  0.53826800  0.12060800  1
  C  C27  1  0.00000000  0.96173200  0.62060800  1
  C  C28  1  0.00000000  0.03826800  0.37939200  1
  C  C29  1  0.00000000  0.37014100  0.60385900  1
  C  C30  1  0.00000000  0.62985900  0.39614100  1
  C  C31  1  0.00000000  0.87014100  0.89614100  1
  C  C32  1  0.50000000  0.37491400  0.59743400  1
  C  C33  1  0.50000000  0.62508600  0.40256600  1
  C  C34  1  0.50000000  0.87491400  0.90256600  1
  C  C35  1  0.50000000  0.12508600  0.09743400  1
  C  C36  1  0.50000000  0.46250900  0.87598200  1
  C  C37  1  0.50000000  0.53749100  0.12401800  1
  C  C38  1  0.50000000  0.96250900  0.62401800  1
  C  C39  1  0.00000000  0.12985900  0.10385900  1
  C  C40  1  0.34604200  0.33220400  0.31750300  1
  C  C41  1  0.65395800  0.83220400  0.18249700  1
  C  C42  1  0.34604200  0.83220400  0.18249700  1
  C  C43  1  0.65395800  0.16779600  0.81750300  1
  C  C44  1  0.65395800  0.66779600  0.68249700  1
  C  C45  1  0.65395800  0.33220400  0.31750300  1
  C  C46  1  0.34604200  0.16779600  0.81750300  1
  C  C47  1  0.34604200  0.66779600  0.68249700  1
