# generated using pymatgen
data_CuNiC12
_symmetry_space_group_name_H-M   'P 1'
_cell_length_a   2.90305481
_cell_length_b   7.93966076
_cell_length_c   7.74400859
_cell_angle_alpha   65.68808709
_cell_angle_beta   79.19649257
_cell_angle_gamma   79.47217147
_symmetry_Int_Tables_number   1
_chemical_formula_structural   CuNiC12
_chemical_formula_sum   'Cu1 Ni1 C12'
_cell_volume   158.66695172
_cell_formula_units_Z   1
loop_
 _symmetry_equiv_pos_site_id
 _symmetry_equiv_pos_as_xyz
  1  'x, y, z'
loop_
 _atom_site_type_symbol
 _atom_site_label
 _atom_site_symmetry_multiplicity
 _atom_site_fract_x
 _atom_site_fract_y
 _atom_site_fract_z
 _atom_site_occupancy
  Ni  Ni0  1  0.49835516  0.43679292  0.56654288  1
  Cu  Cu1  1  0.34381581  0.17500064  0.13714668  1
  C  C2  1  0.68339001  0.09690968  0.53620418  1
  C  C3  1  0.13258951  0.53258544  0.20272498  1
  C  C4  1  0.80902428  0.51653308  0.86573476  1
  C  C5  1  0.37575220  0.80347907  0.44519738  1
  C  C6  1  0.89400597  0.61546687  0.59669509  1
  C  C7  1  0.39489441  0.34939349  0.86107859  1
  C  C8  1  0.53442522  0.64477587  0.28688422  1
  C  C9  1  0.10920628  0.28681427  0.49478149  1
  C  C10  1  0.22170191  0.92655655  0.62981744  1
  C  C11  1  0.73495939  0.39835649  0.13208433  1
  C  C12  1  0.84369254  0.01351636  0.29878193  1
  C  C13  1  0.22167030  0.66140927  0.89548907  1
