# generated using pymatgen
data_Cu2NiC16
_symmetry_space_group_name_H-M   'P 1'
_cell_length_a   4.99519289
_cell_length_b   4.88241016
_cell_length_c   9.56620226
_cell_angle_alpha   89.69303404
_cell_angle_beta   90.17212829
_cell_angle_gamma   92.10319915
_symmetry_Int_Tables_number   1
_chemical_formula_structural   Cu2NiC16
_chemical_formula_sum   'Cu2 Ni1 C16'
_cell_volume   233.14466040
_cell_formula_units_Z   1
loop_
 _symmetry_equiv_pos_site_id
 _symmetry_equiv_pos_as_xyz
  1  'x, y, z'
loop_
 _atom_site_type_symbol
 _atom_site_label
 _atom_site_symmetry_multiplicity
 _atom_site_fract_x
 _atom_site_fract_y
 _atom_site_fract_z
 _atom_site_occupancy
  Ni  Ni0  1  0.00399900  0.50211100  0.02887700  1
  Cu  Cu1  1  0.00013700  0.00139200  0.99474000  1
  Cu  Cu2  1  0.49893000  0.50036800  0.50968400  1
  C  C3  1  0.00095300  0.99786200  0.67040700  1
  C  C4  1  0.99918800  0.00129200  0.34206100  1
  C  C5  1  0.50353100  0.49831400  0.19719100  1
  C  C6  1  0.50070800  0.49828200  0.82337300  1
  C  C7  1  0.31798500  0.26935700  0.35096500  1
  C  C8  1  0.30816300  0.29268800  0.97499200  1
  C  C9  1  0.18068700  0.77574500  0.82695900  1
  C  C10  1  0.69236700  0.70307300  0.97507900  1
  C  C11  1  0.31721600  0.28494000  0.67088600  1
  C  C12  1  0.13742100  0.79234400  0.17205300  1
  C  C13  1  0.82147900  0.21728500  0.82739400  1
  C  C14  1  0.68352700  0.72873700  0.35079400  1
  C  C15  1  0.17088900  0.80098100  0.50782900  1
  C  C16  1  0.82965500  0.19779900  0.50791300  1
  C  C17  1  0.68408700  0.71193600  0.67061500  1
  C  C18  1  0.84908000  0.22549500  0.17676000  1
