# generated using pymatgen
data_CuNi3C11
_symmetry_space_group_name_H-M   'P 1'
_cell_length_a   6.48141906
_cell_length_b   6.57086406
_cell_length_c   5.44666200
_cell_angle_alpha   90.00052541
_cell_angle_beta   90.00453819
_cell_angle_gamma   90.01473792
_symmetry_Int_Tables_number   1
_chemical_formula_structural   CuNi3C11
_chemical_formula_sum   'Cu1 Ni3 C11'
_cell_volume   231.96528444
_cell_formula_units_Z   1
loop_
 _symmetry_equiv_pos_site_id
 _symmetry_equiv_pos_as_xyz
  1  'x, y, z'
loop_
 _atom_site_type_symbol
 _atom_site_label
 _atom_site_symmetry_multiplicity
 _atom_site_fract_x
 _atom_site_fract_y
 _atom_site_fract_z
 _atom_site_occupancy
  C  C0  1  0.24996900  0.75000200  0.98585100  1
  Ni  Ni1  1  0.25001000  0.25000800  0.62190400  1
  Ni  Ni2  1  0.74999600  0.74999900  0.38683100  1
  Ni  Ni3  1  0.75000500  0.24999500  0.51132100  1
  Cu  Cu4  1  0.25000300  0.75000500  0.48436800  1
  C  C5  1  0.04472600  0.74997400  0.26426600  1
  C  C6  1  0.24999200  0.25000400  0.32488300  1
  C  C7  1  0.25028400  0.54440100  0.70808600  1
  C  C8  1  0.24973000  0.95560100  0.70808800  1
  C  C9  1  0.45525200  0.75002300  0.26426900  1
  C  C10  1  0.52714100  0.24981800  0.70540300  1
  C  C11  1  0.75002800  0.04415300  0.32078100  1
  C  C12  1  0.74996100  0.45584200  0.32080100  1
  C  C13  1  0.75001500  0.75000900  0.68773700  1
  C  C14  1  0.97288900  0.25016700  0.70540900  1
