# generated using pymatgen
data_CuNiC18
_symmetry_space_group_name_H-M   'P 1'
_cell_length_a   15.67943712
_cell_length_b   9.03896194
_cell_length_c   9.00277786
_cell_angle_alpha   90.00000000
_cell_angle_beta   124.72706166
_cell_angle_gamma   90.00000000
_symmetry_Int_Tables_number   1
_chemical_formula_structural   CuNiC18
_chemical_formula_sum   'Cu4 Ni4 C72'
_cell_volume   1048.65194498
_cell_formula_units_Z   4
loop_
 _symmetry_equiv_pos_site_id
 _symmetry_equiv_pos_as_xyz
  1  'x, y, z'
loop_
 _atom_site_type_symbol
 _atom_site_label
 _atom_site_symmetry_multiplicity
 _atom_site_fract_x
 _atom_site_fract_y
 _atom_site_fract_z
 _atom_site_occupancy
  C  C0  1  0.25358688  0.71865207  0.98631405  1
  C  C1  1  0.75358688  0.78134793  0.48631405  1
  C  C2  1  0.75358688  0.21865207  0.98631405  1
  C  C3  1  0.25358688  0.28134793  0.48631405  1
  C  C4  1  0.50153743  0.11565435  0.74419232  1
  C  C5  1  0.50153743  0.88434565  0.24419232  1
  C  C6  1  0.00153743  0.61565435  0.74419232  1
  C  C7  1  0.00153743  0.38434565  0.24419232  1
  C  C8  1  0.18601304  0.94475912  0.28357208  1
  C  C9  1  0.18601304  0.05524088  0.78357208  1
  C  C10  1  0.68601304  0.44475912  0.28357208  1
  C  C11  1  0.68601304  0.55524088  0.78357208  1
  Ni  Ni12  1  0.10149872  0.75033074  0.55703681  1
  Ni  Ni13  1  0.10149872  0.24966926  0.05703681  1
  Ni  Ni14  1  0.60149872  0.25033074  0.55703681  1
  Ni  Ni15  1  0.60149872  0.74966926  0.05703681  1
  Cu  Cu16  1  0.89424033  0.75849339  0.94248055  1
  Cu  Cu17  1  0.89424033  0.24150661  0.44248055  1
  Cu  Cu18  1  0.39424033  0.25849339  0.94248055  1
  Cu  Cu19  1  0.39424033  0.74150661  0.44248055  1
  C  C20  1  0.00551214  0.95057580  0.76455064  1
  C  C21  1  0.00551214  0.04942420  0.26455064  1
  C  C22  1  0.50551214  0.45057580  0.76455064  1
  C  C23  1  0.50551214  0.54942420  0.26455064  1
  C  C24  1  0.35203477  0.89616196  0.76254410  1
  C  C25  1  0.64285223  0.89409033  0.74426919  1
  C  C26  1  0.64285223  0.10590967  0.24426919  1
  C  C27  1  0.35203477  0.10383804  0.26254410  1
  C  C28  1  0.85203477  0.39616196  0.76254410  1
  C  C29  1  0.14285223  0.39409033  0.74426919  1
  C  C30  1  0.14285223  0.60590967  0.24426919  1
  C  C31  1  0.85203477  0.60383804  0.26254410  1
  C  C32  1  0.14943207  0.56260531  0.73882094  1
  C  C33  1  0.84540165  0.57121871  0.75688773  1
  C  C34  1  0.84540165  0.42878129  0.25688773  1
  C  C35  1  0.14943207  0.43739469  0.23882094  1
  C  C36  1  0.64943207  0.06260531  0.73882094  1
  C  C37  1  0.34540165  0.07121871  0.75688773  1
  C  C38  1  0.34540165  0.92878129  0.25688773  1
  C  C39  1  0.64943207  0.93739469  0.23882094  1
  C  C40  1  0.44613145  0.55702506  0.59715610  1
  C  C41  1  0.56772266  0.54065211  0.93653012  1
  C  C42  1  0.56772266  0.45934789  0.43653012  1
  C  C43  1  0.44613145  0.44297494  0.09715610  1
  C  C44  1  0.94613145  0.05702506  0.59715610  1
  C  C45  1  0.06772266  0.04065211  0.93653012  1
  C  C46  1  0.06772266  0.95934789  0.43653012  1
  C  C47  1  0.94613145  0.94297494  0.09715610  1
  C  C48  1  0.25660618  0.83680404  0.74933643  1
  C  C49  1  0.73498246  0.81764380  0.74970617  1
  C  C50  1  0.73498246  0.18235620  0.24970617  1
  C  C51  1  0.25660618  0.16319596  0.24933643  1
  C  C52  1  0.75660618  0.33680404  0.74933643  1
  C  C53  1  0.23498246  0.31764380  0.74970617  1
  C  C54  1  0.23498246  0.68235620  0.24970617  1
  C  C55  1  0.75660618  0.66319596  0.24933643  1
  C  C56  1  0.34973878  0.85632357  0.58919289  1
  C  C57  1  0.64021046  0.84243582  0.90137560  1
  C  C58  1  0.64021046  0.15756418  0.40137560  1
  C  C59  1  0.34973878  0.14367643  0.08919289  1
  C  C60  1  0.84973878  0.35632357  0.58919289  1
  C  C61  1  0.14021046  0.34243582  0.90137560  1
  C  C62  1  0.14021046  0.65756418  0.40137560  1
  C  C63  1  0.84973878  0.64367643  0.08919289  1
  C  C64  1  0.45373020  0.84480645  0.93207288  1
  C  C65  1  0.54170636  0.83632923  0.56365595  1
  C  C66  1  0.54170636  0.16367077  0.06365595  1
  C  C67  1  0.45373020  0.15519355  0.43207288  1
  C  C68  1  0.95373020  0.34480645  0.93207288  1
  C  C69  1  0.04170636  0.33632923  0.56365595  1
  C  C70  1  0.04170636  0.66367077  0.06365595  1
  C  C71  1  0.95373020  0.65519355  0.43207288  1
  C  C72  1  0.07807890  0.84782446  0.74839071  1
  C  C73  1  0.91898329  0.85239446  0.75191475  1
  C  C74  1  0.91898329  0.14760554  0.25191475  1
  C  C75  1  0.07807890  0.15217554  0.24839071  1
  C  C76  1  0.57807890  0.34782446  0.74839071  1
  C  C77  1  0.41898329  0.35239446  0.75191475  1
  C  C78  1  0.41898329  0.64760554  0.25191475  1
  C  C79  1  0.57807890  0.65217554  0.24839071  1
