# generated using pymatgen
data_CuNi3C32
_symmetry_space_group_name_H-M   'P 1'
_cell_length_a   8.56918711
_cell_length_b   8.56918684
_cell_length_c   22.41884906
_cell_angle_alpha   90.00000000
_cell_angle_beta   90.00000000
_cell_angle_gamma   120.00000100
_symmetry_Int_Tables_number   1
_chemical_formula_structural   CuNi3C32
_chemical_formula_sum   'Cu3 Ni9 C96'
_cell_volume   1425.68368071
_cell_formula_units_Z   3
loop_
 _symmetry_equiv_pos_site_id
 _symmetry_equiv_pos_as_xyz
  1  'x, y, z'
loop_
 _atom_site_type_symbol
 _atom_site_label
 _atom_site_symmetry_multiplicity
 _atom_site_fract_x
 _atom_site_fract_y
 _atom_site_fract_z
 _atom_site_occupancy
  C  C0  1  0.00000000  -0.00000000  0.50401980  1
  C  C1  1  0.00000000  -0.00000000  0.00265761  1
  C  C2  1  0.66666700  0.33333300  0.83010930  1
  C  C3  1  0.66666700  0.33333300  0.33613909  1
  C  C4  1  0.33333300  0.66666700  0.17291123  1
  C  C5  1  0.33333300  0.66666700  0.65897317  1
  Ni  Ni6  1  0.00000000  -0.00000000  0.64256538  1
  Ni  Ni7  1  0.00000000  -0.00000000  0.14879247  1
  Ni  Ni8  1  0.66666700  0.33333300  0.67975557  1
  Ni  Ni9  1  0.66666700  0.33333300  0.18792424  1
  Ni  Ni10  1  0.66666700  0.33333300  0.98220820  1
  Ni  Ni11  1  0.66666700  0.33333300  0.48330951  1
  Ni  Ni12  1  0.33333300  0.66666700  0.51733976  1
  Ni  Ni13  1  0.33333300  0.66666700  0.31734498  1
  Ni  Ni14  1  0.33333300  0.66666700  0.81289654  1
  Cu  Cu15  1  0.00000000  -0.00000000  0.35233617  1
  Cu  Cu16  1  0.00000000  -0.00000000  0.84504952  1
  Cu  Cu17  1  0.33333300  0.66666700  0.01818694  1
  C  C18  1  0.28819930  -0.00014643  0.25088418  1
  C  C19  1  0.71165426  0.71180070  0.25088418  1
  C  C20  1  0.00014643  0.28834574  0.25088418  1
  C  C21  1  0.29075220  0.28915815  0.75037440  1
  C  C22  1  -0.00159404  0.70924780  0.75037440  1
  C  C23  1  0.71084185  0.00159404  0.75037440  1
  C  C24  1  0.96285106  0.33577984  0.58327244  1
  C  C25  1  0.37292979  0.03714894  0.58327244  1
  C  C26  1  0.66422016  0.62707021  0.58327244  1
  C  C27  1  0.96579985  0.62797960  0.08069572  1
  C  C28  1  0.66218075  0.03420015  0.08069572  1
  C  C29  1  0.37202040  0.33781925  0.08069572  1
  C  C30  1  0.62868121  0.67245524  0.91570240  1
  C  C31  1  0.04377303  0.37131879  0.91570240  1
  C  C32  1  0.32754476  0.95622697  0.91570240  1
  C  C33  1  0.63418522  0.96276123  0.41378426  1
  C  C34  1  0.32857501  0.36581478  0.41378426  1
  C  C35  1  0.03723877  0.67142499  0.41378426  1
  C  C36  1  0.20522105  0.03294420  0.30646691  1
  C  C37  1  0.82772315  0.79477895  0.30646691  1
  C  C38  1  0.96705580  0.17227685  0.30646691  1
  C  C39  1  0.21257340  0.17374433  0.81003607  1
  C  C40  1  0.96117092  0.78742660  0.81003607  1
  C  C41  1  0.82625567  0.03882908  0.81003607  1
  C  C42  1  0.80053022  0.97624332  0.70029052  1
  C  C43  1  0.17571310  0.19946978  0.70029052  1
  C  C44  1  0.02375668  0.82428690  0.70029052  1
  C  C45  1  0.79473503  0.82026186  0.19753848  1
  C  C46  1  0.02552683  0.20526497  0.19753848  1
  C  C47  1  0.17973814  0.97447317  0.19753848  1
  C  C48  1  0.88250349  0.35962165  0.63872350  1
  C  C49  1  0.47711916  0.11749651  0.63872350  1
  C  C50  1  0.64037835  0.52288084  0.63872350  1
  C  C51  1  0.89130604  0.51977134  0.13441928  1
  C  C52  1  0.62846630  0.10869396  0.13441928  1
  C  C53  1  0.48022866  0.37153370  0.13441928  1
  C  C54  1  0.45407501  0.31644943  0.02636861  1
  C  C55  1  0.86237542  0.54592499  0.02636861  1
  C  C56  1  0.68355057  0.13762458  0.02636861  1
  C  C57  1  0.45701115  0.14587546  0.52972624  1
  C  C58  1  0.68886531  0.54298885  0.52972624  1
  C  C59  1  0.85412454  0.31113469  0.52972624  1
  C  C60  1  0.55072280  0.70815280  0.97235531  1
  C  C61  1  0.15742900  0.44927720  0.97235531  1
  C  C62  1  0.29184720  0.84257100  0.97235531  1
  C  C63  1  0.55966117  0.85320335  0.46730460  1
  C  C64  1  0.29354118  0.44033883  0.46730460  1
  C  C65  1  0.14679665  0.70645882  0.46730460  1
  C  C66  1  0.11942350  0.64938297  0.35959021  1
  C  C67  1  0.52995847  0.88057650  0.35959021  1
  C  C68  1  0.35061703  0.47004153  0.35959021  1
  C  C69  1  0.12992948  0.48204118  0.86400981  1
  C  C70  1  0.35211070  0.87007052  0.86400981  1
  C  C71  1  0.51795882  0.64788930  0.86400981  1
  C  C72  1  0.02289714  0.84394226  0.40769515  1
  C  C73  1  0.82104512  0.97710286  0.40769515  1
  C  C74  1  0.15605774  0.17895488  0.40769515  1
  C  C75  1  0.02767763  0.18735293  0.91089194  1
  C  C76  1  0.15967530  0.97232237  0.91089194  1
  C  C77  1  0.81264707  0.84032470  0.91089194  1
  C  C78  1  0.98039768  0.17271499  0.58812847  1
  C  C79  1  0.19231731  0.01960232  0.58812847  1
  C  C80  1  0.82728501  0.80768269  0.58812847  1
  C  C81  1  0.99477135  0.81152596  0.08616593  1
  C  C82  1  0.81675460  0.00522865  0.08616593  1
  C  C83  1  0.18847404  0.18324540  0.08616593  1
  C  C84  1  0.69412184  0.16374899  0.74851398  1
  C  C85  1  0.46962814  0.30587816  0.74851398  1
  C  C86  1  0.83625101  0.53037186  0.74851398  1
  C  C87  1  0.69656464  0.53289772  0.24692400  1
  C  C88  1  0.83633408  0.30343536  0.24692400  1
  C  C89  1  0.46710228  0.16366592  0.24692400  1
  C  C90  1  0.64948087  0.51407692  0.92371722  1
  C  C91  1  0.86459705  0.35051913  0.92371722  1
  C  C92  1  0.48592308  0.13540295  0.92371722  1
  C  C93  1  0.66383533  0.14645803  0.41931809  1
  C  C94  1  0.48262370  0.33616467  0.41931809  1
  C  C95  1  0.85354197  0.51737630  0.41931809  1
  C  C96  1  0.35726079  0.51085584  0.07441931  1
  C  C97  1  0.15359405  0.64273921  0.07441931  1
  C  C98  1  0.48914416  0.84640595  0.07441931  1
  C  C99  1  0.35408271  0.85615759  0.57810453  1
  C  C100  1  0.50207389  0.64591729  0.57810453  1
  C  C101  1  0.14384241  0.49792611  0.57810453  1
  C  C102  1  0.30387597  0.83774790  0.25788188  1
  C  C103  1  0.53387093  0.69612403  0.25788188  1
  C  C104  1  0.16225210  0.46612907  0.25788188  1
  C  C105  1  0.30253483  0.46437310  0.75919007  1
  C  C106  1  0.16183727  0.69746517  0.75919007  1
  C  C107  1  0.53562690  0.83816273  0.75919007  1
