# generated using pymatgen
data_Cu2NiC14
_symmetry_space_group_name_H-M   'P 1'
_cell_length_a   9.14905280
_cell_length_b   9.14869638
_cell_length_c   23.56709651
_cell_angle_alpha   90.03554473
_cell_angle_beta   89.94855727
_cell_angle_gamma   119.91758574
_symmetry_Int_Tables_number   1
_chemical_formula_structural   Cu2NiC14
_chemical_formula_sum   'Cu12 Ni6 C84'
_cell_volume   1709.74736310
_cell_formula_units_Z   6
loop_
 _symmetry_equiv_pos_site_id
 _symmetry_equiv_pos_as_xyz
  1  'x, y, z'
loop_
 _atom_site_type_symbol
 _atom_site_label
 _atom_site_symmetry_multiplicity
 _atom_site_fract_x
 _atom_site_fract_y
 _atom_site_fract_z
 _atom_site_occupancy
  C  C0  1  0.99724015  0.99978804  0.35575550  1
  C  C1  1  0.99515817  0.00152239  0.85719999  1
  C  C2  1  0.99162125  0.99680636  0.64911589  1
  C  C3  1  0.00148737  0.00894158  0.14407827  1
  C  C4  1  0.66640351  0.32867109  0.69029744  1
  C  C5  1  0.67178429  0.33457267  0.19099130  1
  C  C6  1  0.67239880  0.33751857  0.47496304  1
  C  C7  1  0.33220203  0.66573047  0.02116331  1
  C  C8  1  0.33051062  0.66959132  0.52409415  1
  C  C9  1  0.66714406  0.33319521  0.97184547  1
  C  C10  1  0.32141468  0.65989200  0.31391580  1
  C  C11  1  0.33976712  0.67250157  0.81688541  1
  Ni  Ni12  1  0.00837410  0.29665846  0.25163840  1
  Ni  Ni13  1  0.69911535  0.99014400  0.75245460  1
  Ni  Ni14  1  0.61435735  0.65702056  0.91721018  1
  Ni  Ni15  1  0.04502460  0.38750965  0.91674109  1
  Ni  Ni16  1  0.34160650  0.95707317  0.91709492  1
  Ni  Ni17  1  0.04857451  0.66613827  0.41595797  1
  Cu  Cu18  1  0.29047532  0.98862198  0.25203765  1
  Cu  Cu19  1  0.69672540  0.70962297  0.25203709  1
  Cu  Cu20  1  0.29203735  0.30478860  0.75277585  1
  Cu  Cu21  1  0.01296739  0.70825061  0.75292174  1
  Cu  Cu22  1  0.95609170  0.33099191  0.58331552  1
  Cu  Cu23  1  0.37483970  0.04609298  0.58323272  1
  Cu  Cu24  1  0.66817101  0.62326839  0.58322295  1
  Cu  Cu25  1  0.94436729  0.61536292  0.08039050  1
  Cu  Cu26  1  0.66815875  0.05511526  0.08029484  1
  Cu  Cu27  1  0.38725949  0.33063223  0.08060709  1
  Cu  Cu28  1  0.61181208  0.94710152  0.41433206  1
  Cu  Cu29  1  0.33504016  0.38655806  0.41457974  1
  C  C30  1  0.21255198  0.01689640  0.30167136  1
  C  C31  1  0.80563734  0.78653896  0.30138360  1
  C  C32  1  0.98276040  0.18874789  0.30344740  1
  C  C33  1  0.21442133  0.19553387  0.80197541  1
  C  C34  1  0.98409517  0.78757293  0.80217765  1
  C  C35  1  0.80993337  0.01744398  0.80376094  1
  C  C36  1  0.77013108  0.95090116  0.69919989  1
  C  C37  1  0.18784196  0.23364214  0.70143739  1
  C  C38  1  0.04794379  0.81294862  0.70151890  1
  C  C39  1  0.76995635  0.81451915  0.20076682  1
  C  C40  1  0.04620268  0.22348953  0.19836249  1
  C  C41  1  0.18507891  0.95255555  0.20088954  1
  C  C42  1  0.87668415  0.35686217  0.63394148  1
  C  C43  1  0.48000818  0.12690345  0.63382614  1
  C  C44  1  0.64428979  0.51962874  0.63403698  1
  C  C45  1  0.86803226  0.51484809  0.13188925  1
  C  C46  1  0.64451950  0.13094507  0.13197447  1
  C  C47  1  0.48596863  0.35314385  0.13224662  1
  C  C48  1  0.47872933  0.31337813  0.02968895  1
  C  C49  1  0.83526450  0.52326725  0.02958298  1
  C  C50  1  0.68679446  0.16454234  0.02960641  1
  C  C51  1  0.45579453  0.14839693  0.53183744  1
  C  C52  1  0.69037442  0.54158261  0.53192077  1
  C  C53  1  0.85211562  0.30728991  0.53217872  1
  C  C54  1  0.53622139  0.68238724  0.96955822  1
  C  C55  1  0.14516883  0.46440751  0.96987288  1
  C  C56  1  0.31751664  0.85449898  0.96953578  1
  C  C57  1  0.53851962  0.84725889  0.46556215  1
  C  C58  1  0.31116237  0.46301953  0.46534646  1
  C  C59  1  0.15784428  0.69091967  0.46720024  1
  C  C60  1  0.15323369  0.64951251  0.36228064  1
  C  C61  1  0.50333618  0.85435282  0.36336466  1
  C  C62  1  0.35378916  0.49799567  0.36328895  1
  C  C63  1  0.13488735  0.50607813  0.86466119  1
  C  C64  1  0.37038518  0.86424577  0.86482658  1
  C  C65  1  0.49427416  0.62922991  0.86481490  1
  C  C66  1  0.03292719  0.81970490  0.40332230  1
  C  C67  1  0.77937067  0.96707873  0.40572698  1
  C  C68  1  0.18712179  0.22083189  0.40522220  1
  C  C69  1  0.01018069  0.21118460  0.90544906  1
  C  C70  1  0.20170494  0.99175745  0.90326530  1
  C  C71  1  0.79053782  0.79614845  0.90477467  1
  C  C72  1  0.97501676  0.18094599  0.59073210  1
  C  C73  1  0.20591715  0.02636221  0.59134357  1
  C  C74  1  0.81985841  0.79156711  0.58998581  1
  C  C75  1  0.95726727  0.78207039  0.08617708  1
  C  C76  1  0.82225651  0.04166308  0.08545163  1
  C  C77  1  0.22031347  0.17562598  0.08544826  1
  C  C78  1  0.66593653  0.13563749  0.74269485  1
  C  C79  1  0.46314348  0.33314539  0.74362714  1
  C  C80  1  0.86849700  0.53857260  0.74365266  1
  C  C81  1  0.66972468  0.53870245  0.24317228  1
  C  C82  1  0.86362027  0.33092802  0.24227052  1
  C  C83  1  0.46070784  0.13245336  0.24327701  1
  C  C84  1  0.62816983  0.48962979  0.92875788  1
  C  C85  1  0.86131406  0.37032829  0.92920246  1
  C  C86  1  0.50901161  0.13824279  0.92893804  1
  C  C87  1  0.62249157  0.11243284  0.41809042  1
  C  C88  1  0.48908467  0.37523696  0.41729020  1
  C  C89  1  0.87894279  0.50368669  0.41826677  1
  C  C90  1  0.36607367  0.47797511  0.07338689  1
  C  C91  1  0.11218045  0.63465920  0.07321500  1
  C  C92  1  0.52066814  0.88728047  0.07303152  1
  C  C93  1  0.35867539  0.87787858  0.57707162  1
  C  C94  1  0.51892659  0.64278890  0.57584881  1
  C  C95  1  0.12461728  0.48051718  0.57638294  1
  C  C96  1  0.31229766  0.83605983  0.26410535  1
  C  C97  1  0.52585318  0.69156494  0.26454193  1
  C  C98  1  0.17067516  0.47892464  0.26622925  1
  C  C99  1  0.30852692  0.47608738  0.76543159  1
  C  C100  1  0.16663502  0.68950883  0.76539088  1
  C  C101  1  0.51815485  0.82764933  0.76844029  1
