# generated using pymatgen
data_Cu(NiC4)4
_symmetry_space_group_name_H-M   'P 1'
_cell_length_a   9.49906885
_cell_length_b   9.49906849
_cell_length_c   21.90968438
_cell_angle_alpha   90.71600724
_cell_angle_beta   89.28399270
_cell_angle_gamma   119.96491083
_symmetry_Int_Tables_number   1
_chemical_formula_structural   Cu(NiC4)4
_chemical_formula_sum   'Cu6 Ni24 C96'
_cell_volume   1712.52540929
_cell_formula_units_Z   6
loop_
 _symmetry_equiv_pos_site_id
 _symmetry_equiv_pos_as_xyz
  1  'x, y, z'
loop_
 _atom_site_type_symbol
 _atom_site_label
 _atom_site_symmetry_multiplicity
 _atom_site_fract_x
 _atom_site_fract_y
 _atom_site_fract_z
 _atom_site_occupancy
  Ni  Ni0  1  0.64219285  0.00515733  0.24869487  1
  Ni  Ni1  1  0.36453149  0.37282801  0.24552808  1
  Ni  Ni2  1  0.99405376  0.62967483  0.24680270  1
  Ni  Ni3  1  0.62717199  0.63546851  0.74552808  1
  Ni  Ni4  1  0.99484267  0.35780715  0.74869487  1
  Ni  Ni5  1  0.37032517  0.00594624  0.74680270  1
  Ni  Ni6  1  0.30885985  0.33849033  0.58202787  1
  Ni  Ni7  1  0.03119849  0.70616101  0.57886108  1
  Ni  Ni8  1  0.66072076  0.96300783  0.58013570  1
  Ni  Ni9  1  0.29383899  0.96880151  0.07886108  1
  Ni  Ni10  1  0.66150967  0.69114015  0.08202787  1
  Ni  Ni11  1  0.03699217  0.33927924  0.08013570  1
  Ni  Ni12  1  0.97552585  0.67182433  0.91536187  1
  Ni  Ni13  1  0.69786449  0.03949501  0.91219508  1
  Ni  Ni14  1  0.32738676  0.29634183  0.91346970  1
  Ni  Ni15  1  0.96050499  0.30213551  0.41219508  1
  Ni  Ni16  1  0.32817567  0.02447415  0.41536187  1
  Ni  Ni17  1  0.70365817  0.67261324  0.41346970  1
  Ni  Ni18  1  0.99216069  0.98983672  0.50225156  1
  Ni  Ni19  1  0.01016328  0.00783931  0.00225156  1
  Ni  Ni20  1  0.65882769  0.32316972  0.83558456  1
  Ni  Ni21  1  0.67683028  0.34117231  0.33558456  1
  Ni  Ni22  1  0.32549369  0.65650372  0.16891856  1
  Ni  Ni23  1  0.34349628  0.67450631  0.66891856  1
  Cu  Cu24  1  0.99597996  0.99832452  0.34120966  1
  Cu  Cu25  1  0.00167548  0.00402004  0.84120966  1
  Cu  Cu26  1  0.66264696  0.33165752  0.67454266  1
  Cu  Cu27  1  0.66834248  0.33735304  0.17454266  1
  Cu  Cu28  1  0.32931296  0.66499152  0.00787666  1
  Cu  Cu29  1  0.33500848  0.67068704  0.50787666  1
  C  C30  1  0.99870458  0.00081926  0.65043698  1
  C  C31  1  0.99918074  0.00129542  0.15043698  1
  C  C32  1  0.66537158  0.33415226  0.98376998  1
  C  C33  1  0.66584774  0.33462842  0.48376998  1
  C  C34  1  0.33203758  0.66748626  0.31710398  1
  C  C35  1  0.33251374  0.66796242  0.81710398  1
  C  C36  1  0.68504363  0.70471044  0.25093193  1
  C  C37  1  0.01648398  0.31428467  0.25168552  1
  C  C38  1  0.29528956  0.31495637  0.75093193  1
  C  C39  1  0.68571533  0.98351602  0.75168552  1
  C  C40  1  0.35171063  0.03804344  0.58426493  1
  C  C41  1  0.68315098  0.64761767  0.58501852  1
  C  C42  1  0.96195656  0.64828937  0.08426493  1
  C  C43  1  0.35238233  0.31684902  0.08501852  1
  C  C44  1  0.01837663  0.37137744  0.91759893  1
  C  C45  1  0.34981698  0.98095167  0.91835252  1
  C  C46  1  0.62862256  0.98162337  0.41759893  1
  C  C47  1  0.01904833  0.65018302  0.41835252  1
  C  C48  1  0.29201379  0.97644555  0.24847560  1
  C  C49  1  0.02355445  0.70798621  0.74847560  1
  C  C50  1  0.95868079  0.30977855  0.58180860  1
  C  C51  1  0.69022145  0.04131921  0.08180860  1
  C  C52  1  0.62534679  0.64311255  0.91514260  1
  C  C53  1  0.35688745  0.37465321  0.41514260  1
  C  C54  1  0.23950459  0.00826421  0.31090349  1
  C  C55  1  0.77739263  0.76196007  0.31523010  1
  C  C56  1  0.99219751  0.22520520  0.31582235  1
  C  C57  1  0.23803993  0.22260737  0.81523010  1
  C  C58  1  0.99173579  0.76049541  0.81090349  1
  C  C59  1  0.77479480  0.00780249  0.81582235  1
  C  C60  1  0.81091760  0.97231913  0.69631615  1
  C  C61  1  0.15871792  0.18782342  0.69701367  1
  C  C62  1  0.02922033  0.82848754  0.69728492  1
  C  C63  1  0.81217658  0.84128208  0.19701367  1
  C  C64  1  0.02768087  0.18908240  0.19631615  1
  C  C65  1  0.17151246  0.97077967  0.19728492  1
  C  C66  1  0.90617159  0.34159721  0.64423649  1
  C  C67  1  0.44405963  0.09529307  0.64856310  1
  C  C68  1  0.65886451  0.55853820  0.64915535  1
  C  C69  1  0.90470693  0.55594037  0.14856310  1
  C  C70  1  0.65840279  0.09382841  0.14423649  1
  C  C71  1  0.44146180  0.34113549  0.14915535  1
  C  C72  1  0.47758460  0.30565213  0.02964915  1
  C  C73  1  0.82538492  0.52115642  0.03034667  1
  C  C74  1  0.69588733  0.16182054  0.03061792  1
  C  C75  1  0.47884358  0.17461508  0.53034667  1
  C  C76  1  0.69434787  0.52241540  0.52964915  1
  C  C77  1  0.83817946  0.30411267  0.53061792  1
  C  C78  1  0.57283759  0.67493121  0.97757049  1
  C  C79  1  0.11072563  0.42862707  0.98189710  1
  C  C80  1  0.32553051  0.89187220  0.98248935  1
  C  C81  1  0.57137293  0.88927437  0.48189710  1
  C  C82  1  0.32506879  0.42716241  0.47757049  1
  C  C83  1  0.10812780  0.67446949  0.48248935  1
  C  C84  1  0.14425060  0.63898613  0.36298315  1
  C  C85  1  0.49205092  0.85449042  0.36368067  1
  C  C86  1  0.36255333  0.49515454  0.36395192  1
  C  C87  1  0.14550958  0.50794908  0.86368067  1
  C  C88  1  0.36101387  0.85574940  0.86298315  1
  C  C89  1  0.50484546  0.63744667  0.86395192  1
  C  C90  1  0.99108612  0.80488785  0.41183272  1
  C  C91  1  0.81424059  0.01915156  0.40942209  1
  C  C92  1  0.22171968  0.19786688  0.40524633  1
  C  C93  1  0.98084844  0.18575941  0.90942209  1
  C  C94  1  0.19511215  0.00891388  0.91183272  1
  C  C95  1  0.80213312  0.77828032  0.90524633  1
  C  C96  1  0.94796927  0.13935318  0.58215607  1
  C  C97  1  0.18097153  0.04719546  0.58635080  1
  C  C98  1  0.86054061  0.82104726  0.58640442  1
  C  C99  1  0.95280454  0.81902847  0.08635080  1
  C  C100  1  0.86064682  0.05203073  0.08215607  1
  C  C101  1  0.17895274  0.13945939  0.08640442  1
  C  C102  1  0.65775312  0.13822085  0.74516572  1
  C  C103  1  0.48090759  0.35248456  0.74275509  1
  C  C104  1  0.88838668  0.53119988  0.73857933  1
  C  C105  1  0.64751544  0.51909241  0.24275509  1
  C  C106  1  0.86177915  0.34224688  0.24516572  1
  C  C107  1  0.46880012  0.11161332  0.23857933  1
  C  C108  1  0.61463627  0.47268618  0.91548907  1
  C  C109  1  0.84763853  0.38052846  0.91968380  1
  C  C110  1  0.52720761  0.15438026  0.91973742  1
  C  C111  1  0.61947154  0.15236147  0.41968380  1
  C  C112  1  0.52731382  0.38536373  0.41548907  1
  C  C113  1  0.84561974  0.47279239  0.41973742  1
  C  C114  1  0.32441912  0.47155485  0.07849972  1
  C  C115  1  0.14757359  0.68581856  0.07608909  1
  C  C116  1  0.55505268  0.86453388  0.07191333  1
  C  C117  1  0.31418144  0.85242641  0.57608909  1
  C  C118  1  0.52844515  0.67558088  0.57849972  1
  C  C119  1  0.13546612  0.44494732  0.57191333  1
  C  C120  1  0.28130227  0.80602018  0.24882307  1
  C  C121  1  0.51430453  0.71386246  0.25301780  1
  C  C122  1  0.19387361  0.48771426  0.25307142  1
  C  C123  1  0.28613754  0.48569547  0.75301780  1
  C  C124  1  0.19397982  0.71869773  0.74882307  1
  C  C125  1  0.51228574  0.80612639  0.75307142  1
