# generated using pymatgen
data_CuNi11C62
_symmetry_space_group_name_H-M   'P 1'
_cell_length_a   17.93171018
_cell_length_b   8.96228025
_cell_length_c   22.93189276
_cell_angle_alpha   90.11460466
_cell_angle_beta   89.96768657
_cell_angle_gamma   120.10521471
_symmetry_Int_Tables_number   1
_chemical_formula_structural   CuNi11C62
_chemical_formula_sum   'Cu3 Ni33 C186'
_cell_volume   3188.22100353
_cell_formula_units_Z   3
loop_
 _symmetry_equiv_pos_site_id
 _symmetry_equiv_pos_as_xyz
  1  'x, y, z'
loop_
 _atom_site_type_symbol
 _atom_site_label
 _atom_site_symmetry_multiplicity
 _atom_site_fract_x
 _atom_site_fract_y
 _atom_site_fract_z
 _atom_site_occupancy
  C  C0  1  0.68271593  0.99919047  0.75023007  1
  C  C1  1  0.01642960  0.69622575  0.58252456  1
  C  C2  1  0.51659197  0.70076114  0.58334013  1
  C  C3  1  0.83203692  0.69531945  0.08227293  1
  C  C4  1  0.34979913  0.03258128  0.91721673  1
  C  C5  1  0.48413685  0.30414849  0.41721206  1
  C  C6  1  0.00101955  0.00611187  0.49883508  1
  C  C7  1  0.50097878  0.00003745  0.50164863  1
  C  C8  1  0.00403437  0.00676134  0.99882631  1
  C  C9  1  0.50327891  0.99950589  0.99956201  1
  C  C10  1  0.33462304  0.33918629  0.83397003  1
  C  C11  1  0.83623619  0.33938482  0.83486929  1
  C  C12  1  0.33208932  0.33594562  0.33262387  1
  C  C13  1  0.83522215  0.33628687  0.33426517  1
  C  C14  1  0.16744452  0.66545581  0.16509087  1
  C  C15  1  0.66398858  0.66355979  0.16589395  1
  C  C16  1  0.16982849  0.66952455  0.66711790  1
  C  C17  1  0.66864569  0.66074916  0.66748441  1
  C  C18  1  0.99244312  0.99463828  0.35730386  1
  C  C19  1  0.49303778  0.99151814  0.35550208  1
  C  C20  1  0.99212546  0.98920377  0.85802364  1
  C  C21  1  0.50167666  0.99766003  0.85425358  1
  C  C22  1  0.99498199  0.99107488  0.64417492  1
  C  C23  1  0.49923970  0.00475841  0.64676804  1
  C  C24  1  0.99772252  0.00938521  0.14351316  1
  C  C25  1  0.49331618  0.00359618  0.14231348  1
  C  C26  1  0.33756334  0.33255906  0.68577161  1
  C  C27  1  0.83601187  0.33902840  0.68812663  1
  C  C28  1  0.33849932  0.34208326  0.18531619  1
  C  C29  1  0.83894394  0.34382076  0.18550218  1
  C  C30  1  0.33275653  0.33853633  0.97961427  1
  C  C31  1  0.83266523  0.33128945  0.97760582  1
  C  C32  1  0.33023878  0.33457796  0.47929522  1
  C  C33  1  0.83473384  0.33194812  0.47810349  1
  C  C34  1  0.16664526  0.66430568  0.02127259  1
  C  C35  1  0.66339521  0.66561696  0.02053667  1
  C  C36  1  0.16823424  0.66561540  0.52037172  1
  C  C37  1  0.66904472  0.67012962  0.52081651  1
  C  C38  1  0.16623364  0.65637146  0.31417727  1
  C  C39  1  0.66788493  0.65717212  0.31372981  1
  C  C40  1  0.16696902  0.67550810  0.81494522  1
  C  C41  1  0.66589824  0.66187101  0.81325030  1
  Ni  Ni42  1  0.35385332  0.70846067  0.24896448  1
  Ni  Ni43  1  0.85564032  0.71116518  0.24934875  1
  Ni  Ni44  1  0.99918039  0.28941380  0.25100073  1
  Ni  Ni45  1  0.49919544  0.28872657  0.25015272  1
  Ni  Ni46  1  0.64467065  0.29234958  0.75013693  1
  Ni  Ni47  1  0.00178500  0.71348335  0.75026128  1
  Ni  Ni48  1  0.49758154  0.70738904  0.74947749  1
  Ni  Ni49  1  0.35437776  0.99779593  0.75108430  1
  Ni  Ni50  1  0.85595305  0.00040243  0.75058768  1
  Ni  Ni51  1  0.47803997  0.32999424  0.58114228  1
  Ni  Ni52  1  0.97759946  0.33052897  0.58321305  1
  Ni  Ni53  1  0.18948249  0.04568586  0.58400715  1
  Ni  Ni54  1  0.69012475  0.04875910  0.58363520  1
  Ni  Ni55  1  0.33148562  0.62099114  0.58452213  1
  Ni  Ni56  1  0.82961655  0.61510199  0.58276790  1
  Ni  Ni57  1  0.47929947  0.62594962  0.08277382  1
  Ni  Ni58  1  0.98053241  0.62433682  0.08173669  1
  Ni  Ni59  1  0.32966899  0.04584303  0.08254863  1
  Ni  Ni60  1  0.83051741  0.04754035  0.08325143  1
  Ni  Ni61  1  0.19011297  0.33437239  0.08409070  1
  Ni  Ni62  1  0.68825057  0.32949120  0.08340143  1
  Ni  Ni63  1  0.30985724  0.66298485  0.91613423  1
  Ni  Ni64  1  0.80750326  0.66066760  0.91815989  1
  Ni  Ni65  1  0.02302742  0.37949960  0.91632009  1
  Ni  Ni66  1  0.52188667  0.37746592  0.91670245  1
  Ni  Ni67  1  0.16483649  0.95673633  0.91833397  1
  Ni  Ni68  1  0.66671670  0.95472320  0.91600342  1
  Ni  Ni69  1  0.30741671  0.95370196  0.41609173  1
  Ni  Ni70  1  0.80792993  0.95456132  0.41600009  1
  Ni  Ni71  1  0.16578794  0.37442135  0.41711351  1
  Ni  Ni72  1  0.66834233  0.37533955  0.41774398  1
  Ni  Ni73  1  0.02321503  0.66747996  0.41656979  1
  Ni  Ni74  1  0.52365580  0.67005119  0.41650702  1
  Cu  Cu75  1  0.14373231  0.99991859  0.25015330  1
  Cu  Cu76  1  0.64362169  0.99979918  0.24979775  1
  Cu  Cu77  1  0.14376371  0.28712455  0.75026547  1
  C  C78  1  0.10432233  0.02723490  0.30292597  1
  C  C79  1  0.60359616  0.02662567  0.30319227  1
  C  C80  1  0.41672447  0.80420673  0.30625509  1
  C  C81  1  0.91738660  0.80501365  0.30616685  1
  C  C82  1  0.48756749  0.17008489  0.30817078  1
  C  C83  1  0.98757637  0.16521811  0.30664093  1
  C  C84  1  0.10479432  0.18192157  0.80259418  1
  C  C85  1  0.59907160  0.16350224  0.80595550  1
  C  C86  1  0.48471269  0.80347292  0.80635879  1
  C  C87  1  0.98789574  0.81111186  0.80598346  1
  C  C88  1  0.41451191  0.03080789  0.80878472  1
  C  C89  1  0.91829644  0.03096924  0.80641280  1
  C  C90  1  0.40193526  0.97114794  0.69351977  1
  C  C91  1  0.90504949  0.97450297  0.69382596  1
  C  C92  1  0.09055256  0.20701891  0.69680926  1
  C  C93  1  0.58350315  0.19637970  0.69299452  1
  C  C94  1  0.01526483  0.83126946  0.69151817  1
  C  C95  1  0.51662532  0.83074550  0.69179741  1
  C  C96  1  0.40433152  0.83409382  0.19376641  1
  C  C97  1  0.90242826  0.83048359  0.19176988  1
  C  C98  1  0.01483814  0.19574640  0.19382159  1
  C  C99  1  0.51509785  0.19493034  0.19403020  1
  C  C100  1  0.09040966  0.97295496  0.19717948  1
  C  C101  1  0.59077790  0.97204307  0.19739870  1
  C  C102  1  0.43326029  0.36800562  0.63850931  1
  C  C103  1  0.93259939  0.36840023  0.63953579  1
  C  C104  1  0.25031925  0.13829581  0.64073811  1
  C  C105  1  0.74870791  0.13368576  0.64222422  1
  C  C106  1  0.31843696  0.49763810  0.64066854  1
  C  C107  1  0.81860674  0.50099745  0.64083366  1
  C  C108  1  0.43312242  0.50145459  0.14005386  1
  C  C109  1  0.93311812  0.50225474  0.14005121  1
  C  C110  1  0.31905208  0.13953275  0.14067090  1
  C  C111  1  0.81840734  0.13847738  0.14137076  1
  C  C112  1  0.25074712  0.36163499  0.14111654  1
  C  C113  1  0.75211501  0.36655693  0.14017147  1
  C  C114  1  0.23479776  0.30142005  0.02666089  1
  C  C115  1  0.73540536  0.30280867  0.02654451  1
  C  C116  1  0.41678795  0.53172847  0.02666456  1
  C  C117  1  0.91419677  0.53474889  0.02744950  1
  C  C118  1  0.34891629  0.16415880  0.02433685  1
  C  C119  1  0.84960172  0.16881578  0.02641953  1
  C  C120  1  0.23513281  0.16741256  0.52665180  1
  C  C121  1  0.73623417  0.16944239  0.52658106  1
  C  C122  1  0.35041663  0.53104227  0.52755913  1
  C  C123  1  0.85264298  0.53404919  0.52675453  1
  C  C124  1  0.41842884  0.30343224  0.52395940  1
  C  C125  1  0.91693407  0.30094746  0.52640705  1
  C  C126  1  0.26606901  0.70245041  0.97247681  1
  C  C127  1  0.76728965  0.69827724  0.97629853  1
  C  C128  1  0.08406941  0.47016619  0.97343507  1
  C  C129  1  0.58374769  0.47017963  0.97347068  1
  C  C130  1  0.15074370  0.83245790  0.97377072  1
  C  C131  1  0.65186075  0.83220918  0.97318663  1
  C  C132  1  0.26534263  0.83250447  0.47351437  1
  C  C133  1  0.76476809  0.83184993  0.47331768  1
  C  C134  1  0.15095725  0.46864382  0.47352291  1
  C  C135  1  0.64757560  0.46698746  0.47259116  1
  C  C136  1  0.08177131  0.69754023  0.47535481  1
  C  C137  1  0.58122930  0.69755767  0.47539909  1
  C  C138  1  0.07030423  0.63837277  0.35971944  1
  C  C139  1  0.56898542  0.63343606  0.36034950  1
  C  C140  1  0.24943781  0.86240891  0.35865831  1
  C  C141  1  0.74889955  0.86114782  0.35885506  1
  C  C142  1  0.18247979  0.49891435  0.35997195  1
  C  C143  1  0.68173107  0.49829278  0.36016790  1
  C  C144  1  0.06959642  0.50151050  0.85901064  1
  C  C145  1  0.56863229  0.50078989  0.85990288  1
  C  C146  1  0.18415664  0.86745703  0.86078864  1
  C  C147  1  0.68138374  0.86718344  0.85737611  1
  C  C148  1  0.24928220  0.63652503  0.85897002  1
  C  C149  1  0.74984868  0.63788966  0.85988757  1
  C  C150  1  0.01421462  0.83916448  0.40729451  1
  C  C151  1  0.51408069  0.84063015  0.40780716  1
  C  C152  1  0.40592571  0.97970380  0.40943683  1
  C  C153  1  0.90404156  0.97335182  0.41004016  1
  C  C154  1  0.08205606  0.18502545  0.40716031  1
  C  C155  1  0.58009747  0.18999061  0.40735516  1
  C  C156  1  0.01420326  0.18977264  0.90704800  1
  C  C157  1  0.50923650  0.18454660  0.90956042  1
  C  C158  1  0.08188700  0.97944021  0.90729822  1
  C  C159  1  0.58100549  0.97412074  0.90927088  1
  C  C160  1  0.40375643  0.83973508  0.90915263  1
  C  C161  1  0.90392313  0.83439923  0.91021436  1
  C  C162  1  0.48732443  0.16061860  0.58962240  1
  C  C163  1  0.98990382  0.16398237  0.59278958  1
  C  C164  1  0.09281169  0.02073087  0.59170912  1
  C  C165  1  0.59185678  0.01663559  0.59016501  1
  C  C166  1  0.42027631  0.80732968  0.59056208  1
  C  C167  1  0.91876655  0.80677557  0.59064002  1
  C  C168  1  0.48920069  0.81424990  0.09330732  1
  C  C169  1  0.98553628  0.81021305  0.09320228  1
  C  C170  1  0.41654016  0.02632748  0.09038869  1
  C  C171  1  0.91599659  0.02078576  0.09074160  1
  C  C172  1  0.09497036  0.16088406  0.09277147  1
  C  C173  1  0.59369826  0.15963364  0.09263477  1
  C  C174  1  0.34346446  0.16837380  0.74189871  1
  C  C175  1  0.84324728  0.16764072  0.74277713  1
  C  C176  1  0.23112635  0.30651394  0.74351495  1
  C  C177  1  0.73755505  0.30109193  0.74283432  1
  C  C178  1  0.41161777  0.51739363  0.74309127  1
  C  C179  1  0.91536773  0.52362179  0.74254502  1
  C  C180  1  0.34358696  0.51718046  0.24334634  1
  C  C181  1  0.84329496  0.51776541  0.24303472  1
  C  C182  1  0.41275391  0.30523851  0.24332799  1
  C  C183  1  0.91280570  0.30506206  0.24302456  1
  C  C184  1  0.23109116  0.15567189  0.24405803  1
  C  C185  1  0.73098080  0.15589353  0.24457817  1
  C  C186  1  0.32071390  0.49437960  0.92324295  1
  C  C187  1  0.82130599  0.49592289  0.92356605  1
  C  C188  1  0.42534113  0.35122787  0.92360799  1
  C  C189  1  0.92792262  0.35880795  0.92425427  1
  C  C190  1  0.25425256  0.14196915  0.92344902  1
  C  C191  1  0.75165556  0.14503207  0.92385513  1
  C  C192  1  0.32560649  0.15016635  0.42314436  1
  C  C193  1  0.82104787  0.14591952  0.42341946  1
  C  C194  1  0.25246685  0.35955346  0.42394195  1
  C  C195  1  0.75342455  0.35903603  0.42362960  1
  C  C196  1  0.42946359  0.49436677  0.42353654  1
  C  C197  1  0.92791306  0.49741710  0.42403303  1
  C  C198  1  0.17924037  0.50242945  0.07606986  1
  C  C199  1  0.68285648  0.50614642  0.07672648  1
  C  C200  1  0.07428440  0.64203475  0.07708601  1
  C  C201  1  0.57331024  0.64127842  0.07666561  1
  C  C202  1  0.24781903  0.85292461  0.07628637  1
  C  C203  1  0.75060841  0.85016577  0.07733278  1
  C  C204  1  0.17509745  0.85153361  0.57654130  1
  C  C205  1  0.67589960  0.85249791  0.57600598  1
  C  C206  1  0.24705664  0.64134026  0.57638872  1
  C  C207  1  0.74736559  0.64253198  0.57632042  1
  C  C208  1  0.07096505  0.50737596  0.57638573  1
  C  C209  1  0.57097513  0.50816723  0.57634673  1
  C  C210  1  0.15295028  0.84406794  0.25576532  1
  C  C211  1  0.65299455  0.84407968  0.25666620  1
  C  C212  1  0.26026293  0.69500135  0.25746382  1
  C  C213  1  0.76071440  0.69495633  0.25719731  1
  C  C214  1  0.08459969  0.48186517  0.25704175  1
  C  C215  1  0.58427652  0.48193636  0.25754528  1
  C  C216  1  0.15322117  0.46190744  0.75522860  1
  C  C217  1  0.65423677  0.48134549  0.75634090  1
  C  C218  1  0.08572985  0.68863349  0.75701543  1
  C  C219  1  0.58593260  0.69742404  0.75676633  1
  C  C220  1  0.25924737  0.82461186  0.75708971  1
  C  C221  1  0.75927920  0.83324282  0.75609578  1
