# generated using pymatgen
data_Cu11Ni4C21
_symmetry_space_group_name_H-M   'P 1'
_cell_length_a   5.45070252
_cell_length_b   5.45070252
_cell_length_c   34.36120200
_cell_angle_alpha   90.00000000
_cell_angle_beta   90.00000000
_cell_angle_gamma   120.00000630
_symmetry_Int_Tables_number   1
_chemical_formula_structural   Cu11Ni4C21
_chemical_formula_sum   'Cu22 Ni8 C42'
_cell_volume   884.10513385
_cell_formula_units_Z   2
loop_
 _symmetry_equiv_pos_site_id
 _symmetry_equiv_pos_as_xyz
  1  'x, y, z'
loop_
 _atom_site_type_symbol
 _atom_site_label
 _atom_site_symmetry_multiplicity
 _atom_site_fract_x
 _atom_site_fract_y
 _atom_site_fract_z
 _atom_site_occupancy
  Ni  Ni0  1  0.33333300  0.66666700  0.07083500  1
  Ni  Ni1  1  0.66666700  0.33333300  0.42916500  1
  Ni  Ni2  1  0.66666700  0.33333300  0.92916500  1
  Ni  Ni3  1  0.33333300  0.66666700  0.57083500  1
  Ni  Ni4  1  0.00000000  0.00000000  0.20529700  1
  Ni  Ni5  1  0.00000000  0.00000000  0.29470300  1
  Ni  Ni6  1  0.00000000  0.00000000  0.79470300  1
  Ni  Ni7  1  0.00000000  0.00000000  0.70529700  1
  Cu  Cu8  1  0.00000000  0.00000000  0.08774700  1
  Cu  Cu9  1  0.00000000  0.00000000  0.41225300  1
  Cu  Cu10  1  0.00000000  0.00000000  0.91225300  1
  Cu  Cu11  1  0.00000000  0.00000000  0.58774700  1
  Cu  Cu12  1  0.33333300  0.66666700  0.98015000  1
  Cu  Cu13  1  0.66666700  0.33333300  0.51985000  1
  Cu  Cu14  1  0.66666700  0.33333300  0.01985000  1
  Cu  Cu15  1  0.33333300  0.66666700  0.48015000  1
  Cu  Cu16  1  0.33333300  0.66666700  0.15690600  1
  Cu  Cu17  1  0.66666700  0.33333300  0.34309400  1
  Cu  Cu18  1  0.66666700  0.33333300  0.84309400  1
  Cu  Cu19  1  0.33333300  0.66666700  0.65690600  1
  Cu  Cu20  1  0.66666700  0.33333300  0.13495400  1
  Cu  Cu21  1  0.33333300  0.66666700  0.36504600  1
  Cu  Cu22  1  0.33333300  0.66666700  0.86504600  1
  Cu  Cu23  1  0.66666700  0.33333300  0.63495400  1
  Cu  Cu24  1  0.66666700  0.33333300  0.22628500  1
  Cu  Cu25  1  0.33333300  0.66666700  0.27371500  1
  Cu  Cu26  1  0.33333300  0.66666700  0.77371500  1
  Cu  Cu27  1  0.66666700  0.33333300  0.72628500  1
  Cu  Cu28  1  0.00000000  0.00000000  0.00000000  1
  Cu  Cu29  1  0.00000000  0.00000000  0.50000000  1
  C  C30  1  0.64798000  0.69631200  0.03648200  1
  C  C31  1  0.30368800  0.95166800  0.03648200  1
  C  C32  1  0.04833200  0.35202000  0.03648200  1
  C  C33  1  0.95166800  0.30368800  0.46351800  1
  C  C34  1  0.35202000  0.04833200  0.46351800  1
  C  C35  1  0.69631200  0.64798000  0.46351800  1
  C  C36  1  0.35202000  0.30368800  0.96351800  1
  C  C37  1  0.69631200  0.04833200  0.96351800  1
  C  C38  1  0.95166800  0.64798000  0.96351800  1
  C  C39  1  0.04833200  0.69631200  0.53648200  1
  C  C40  1  0.64798000  0.95166800  0.53648200  1
  C  C41  1  0.30368800  0.35202000  0.53648200  1
  C  C42  1  0.34624600  0.38251100  0.10653200  1
  C  C43  1  0.61748900  0.96373500  0.10653200  1
  C  C44  1  0.03626500  0.65375400  0.10653200  1
  C  C45  1  0.96373500  0.61748900  0.39346800  1
  C  C46  1  0.65375400  0.03626500  0.39346800  1
  C  C47  1  0.38251100  0.34624600  0.39346800  1
  C  C48  1  0.65375400  0.61748900  0.89346800  1
  C  C49  1  0.38251100  0.03626500  0.89346800  1
  C  C50  1  0.96373500  0.34624600  0.89346800  1
  C  C51  1  0.03626500  0.38251100  0.60653200  1
  C  C52  1  0.34624600  0.96373500  0.60653200  1
  C  C53  1  0.61748900  0.65375400  0.60653200  1
  C  C54  1  0.69995100  0.66801000  0.18095000  1
  C  C55  1  0.33199000  0.03194100  0.18095000  1
  C  C56  1  0.96805900  0.30004900  0.18095000  1
  C  C57  1  0.03194100  0.33199000  0.31905000  1
  C  C58  1  0.30004900  0.96805900  0.31905000  1
  C  C59  1  0.66801000  0.69995100  0.31905000  1
  C  C60  1  0.30004900  0.33199000  0.81905000  1
  C  C61  1  0.66801000  0.96805900  0.81905000  1
  C  C62  1  0.03194100  0.69995100  0.81905000  1
  C  C63  1  0.96805900  0.66801000  0.68095000  1
  C  C64  1  0.69995100  0.03194100  0.68095000  1
  C  C65  1  0.33199000  0.30004900  0.68095000  1
  C  C66  1  0.27588400  0.27588400  0.25000000  1
  C  C67  1  0.72411600  0.00000000  0.25000000  1
  C  C68  1  0.00000000  0.72411600  0.25000000  1
  C  C69  1  0.72411600  0.72411600  0.75000000  1
  C  C70  1  0.27588400  0.00000000  0.75000000  1
  C  C71  1  0.00000000  0.27588400  0.75000000  1
