# generated using pymatgen
data_Cu2Ni2C9
_symmetry_space_group_name_H-M   'P 1'
_cell_length_a   3.19066600
_cell_length_b   3.19066581
_cell_length_c   44.40803913
_cell_angle_alpha   90.00840138
_cell_angle_beta   89.99810285
_cell_angle_gamma   120.00004078
_symmetry_Int_Tables_number   1
_chemical_formula_structural   Cu2Ni2C9
_chemical_formula_sum   'Cu2 Ni2 C9'
_cell_volume   391.52068132
_cell_formula_units_Z   1
loop_
 _symmetry_equiv_pos_site_id
 _symmetry_equiv_pos_as_xyz
  1  'x, y, z'
loop_
 _atom_site_type_symbol
 _atom_site_label
 _atom_site_symmetry_multiplicity
 _atom_site_fract_x
 _atom_site_fract_y
 _atom_site_fract_z
 _atom_site_occupancy
  C  C0  1  0.99999400  0.00000700  0.38032800  1
  Ni  Ni1  1  0.33329600  0.66656100  0.09378800  1
  Ni  Ni2  1  0.33329700  0.66661500  0.47733600  1
  Cu  Cu3  1  0.66676400  0.33355300  0.27273100  1
  Cu  Cu4  1  0.66664500  0.33327000  0.65770300  1
  C  C5  1  0.33346400  0.66696800  0.30830500  1
  C  C6  1  0.33333100  0.66666700  0.69307600  1
  C  C7  1  0.66658200  0.33308400  0.05856600  1
  C  C8  1  0.66662000  0.33322200  0.44171300  1
  C  C9  1  0.66667500  0.33336800  0.12900600  1
  C  C10  1  0.66663900  0.33333800  0.51244600  1
  C  C11  1  0.33339900  0.66681100  0.23735300  1
  C  C12  1  0.33329300  0.66653900  0.62232300  1
