# generated using pymatgen
data_Cu2NiC10
_symmetry_space_group_name_H-M   'P 1'
_cell_length_a   5.17150926
_cell_length_b   5.10768726
_cell_length_c   6.10960900
_cell_angle_alpha   90.00000000
_cell_angle_beta   90.00000000
_cell_angle_gamma   94.01935559
_symmetry_Int_Tables_number   1
_chemical_formula_structural   Cu2NiC10
_chemical_formula_sum   'Cu2 Ni1 C10'
_cell_volume   160.98504289
_cell_formula_units_Z   1
loop_
 _symmetry_equiv_pos_site_id
 _symmetry_equiv_pos_as_xyz
  1  'x, y, z'
loop_
 _atom_site_type_symbol
 _atom_site_label
 _atom_site_symmetry_multiplicity
 _atom_site_fract_x
 _atom_site_fract_y
 _atom_site_fract_z
 _atom_site_occupancy
  Ni  Ni0  1  0.50000000  0.75000000  0.91090100  1
  Cu  Cu1  1  0.50000000  0.75000000  0.36565300  1
  Cu  Cu2  1  0.50000000  0.25000000  0.62794300  1
  C  C3  1  0.00000000  0.75000000  0.83532100  1
  C  C4  1  0.00000000  0.25000000  0.16190000  1
  C  C5  1  0.74628000  0.10591100  0.36625900  1
  C  C6  1  0.25372000  0.39408900  0.36625900  1
  C  C7  1  0.27672900  0.88797400  0.64418300  1
  C  C8  1  0.72327100  0.61202600  0.64418300  1
  C  C9  1  0.78064300  0.05512000  0.89930000  1
  C  C10  1  0.21935700  0.44488000  0.89930000  1
  C  C11  1  0.21717100  0.93055400  0.09252400  1
  C  C12  1  0.78282900  0.56944600  0.09252400  1
