# generated using pymatgen
data_CuNi2C17
_symmetry_space_group_name_H-M   'P 1'
_cell_length_a   9.23282361
_cell_length_b   9.23282328
_cell_length_c   22.95035149
_cell_angle_alpha   90.39790083
_cell_angle_beta   89.60209918
_cell_angle_gamma   120.27330851
_symmetry_Int_Tables_number   1
_chemical_formula_structural   CuNi2C17
_chemical_formula_sum   'Cu6 Ni12 C102'
_cell_volume   1689.55543399
_cell_formula_units_Z   6
loop_
 _symmetry_equiv_pos_site_id
 _symmetry_equiv_pos_as_xyz
  1  'x, y, z'
loop_
 _atom_site_type_symbol
 _atom_site_label
 _atom_site_symmetry_multiplicity
 _atom_site_fract_x
 _atom_site_fract_y
 _atom_site_fract_z
 _atom_site_occupancy
  C  C0  1  0.62827524  0.00079025  0.24233136  1
  C  C1  1  0.99613472  0.64305150  0.24532642  1
  C  C2  1  0.99920975  0.37172476  0.74233136  1
  C  C3  1  0.35694850  0.00386528  0.74532642  1
  C  C4  1  0.29494224  0.33412325  0.57566436  1
  C  C5  1  0.66280172  0.97638450  0.57865942  1
  C  C6  1  0.66587675  0.70505776  0.07566436  1
  C  C7  1  0.02361550  0.33719828  0.07865942  1
  C  C8  1  0.96160824  0.66745725  0.90899836  1
  C  C9  1  0.32946772  0.30971850  0.91199342  1
  C  C10  1  0.33254275  0.03839176  0.40899836  1
  C  C11  1  0.69028150  0.67053228  0.41199342  1
  C  C12  1  0.00448610  0.02652511  0.49485580  1
  C  C13  1  0.97347489  0.99551390  0.99485580  1
  C  C14  1  0.67115310  0.35985811  0.82818880  1
  C  C15  1  0.64014189  0.32884690  0.32818880  1
  C  C16  1  0.33781910  0.69319211  0.16152280  1
  C  C17  1  0.30680789  0.66218090  0.66152280  1
  C  C18  1  0.01820766  0.00376754  0.64741391  1
  C  C19  1  0.99623246  0.98179234  0.14741391  1
  C  C20  1  0.68487466  0.33710054  0.98074691  1
  C  C21  1  0.66289946  0.31512534  0.48074691  1
  C  C22  1  0.35154066  0.67043454  0.31408091  1
  C  C23  1  0.32956546  0.64845934  0.81408091  1
  C  C24  1  0.00515702  0.00855141  0.35034298  1
  C  C25  1  0.99144859  0.99484298  0.85034298  1
  C  C26  1  0.67182402  0.34188441  0.68367598  1
  C  C27  1  0.65811559  0.32817598  0.18367598  1
  C  C28  1  0.33849002  0.67521841  0.01700998  1
  C  C29  1  0.32478159  0.66150998  0.51700998  1
  Ni  Ni30  1  0.29699996  0.00080668  0.25319530  1
  Ni  Ni31  1  0.70756540  0.70087126  0.25159758  1
  Ni  Ni32  1  0.29912874  0.29243460  0.75159758  1
  Ni  Ni33  1  0.99919332  0.70300004  0.75319530  1
  Ni  Ni34  1  0.96366696  0.33413968  0.58652830  1
  Ni  Ni35  1  0.37423240  0.03420426  0.58493058  1
  Ni  Ni36  1  0.96579574  0.62576760  0.08493058  1
  Ni  Ni37  1  0.66586032  0.03633304  0.08652830  1
  Ni  Ni38  1  0.63033296  0.66747368  0.91986230  1
  Ni  Ni39  1  0.04089840  0.36753826  0.91826458  1
  Ni  Ni40  1  0.63246174  0.95910160  0.41826458  1
  Ni  Ni41  1  0.33252632  0.36966704  0.41986230  1
  Cu  Cu42  1  0.00267422  0.29712122  0.24901570  1
  Cu  Cu43  1  0.70287878  0.99732578  0.74901570  1
  Cu  Cu44  1  0.66934122  0.63045422  0.58234870  1
  Cu  Cu45  1  0.36954578  0.33065878  0.08234870  1
  Cu  Cu46  1  0.33600722  0.96378822  0.91568270  1
  Cu  Cu47  1  0.03621178  0.66399278  0.41568270  1
  C  C48  1  0.21974736  0.02399535  0.31384418  1
  C  C49  1  0.81922878  0.78565038  0.30958427  1
  C  C50  1  0.97597567  0.19270588  0.30060425  1
  C  C51  1  0.21434962  0.18077122  0.80958427  1
  C  C52  1  0.97600465  0.78025264  0.81384418  1
  C  C53  1  0.80729412  0.02402433  0.80060425  1
  C  C54  1  0.78000449  0.97470194  0.69549424  1
  C  C55  1  0.17517170  0.20494750  0.69417635  1
  C  C56  1  0.02181826  0.82854980  0.69805289  1
  C  C57  1  0.79505250  0.82482830  0.19417635  1
  C  C58  1  0.02529806  0.21999551  0.19549424  1
  C  C59  1  0.17145020  0.97818174  0.19805289  1
  C  C60  1  0.88641436  0.35732835  0.64717718  1
  C  C61  1  0.48589578  0.11898338  0.64291727  1
  C  C62  1  0.64264267  0.52603888  0.63393725  1
  C  C63  1  0.88101662  0.51410422  0.14291727  1
  C  C64  1  0.64267165  0.11358564  0.14717718  1
  C  C65  1  0.47396112  0.35735733  0.13393725  1
  C  C66  1  0.44667149  0.30803494  0.02882724  1
  C  C67  1  0.84183870  0.53828050  0.02750935  1
  C  C68  1  0.68848526  0.16188280  0.03138589  1
  C  C69  1  0.46171950  0.15816130  0.52750935  1
  C  C70  1  0.69196506  0.55332851  0.52882724  1
  C  C71  1  0.83811720  0.31151474  0.53138589  1
  C  C72  1  0.55308036  0.69066235  0.98051118  1
  C  C73  1  0.15256178  0.45231738  0.97625127  1
  C  C74  1  0.30930867  0.85937288  0.96727125  1
  C  C75  1  0.54768262  0.84743822  0.47625127  1
  C  C76  1  0.30933765  0.44691964  0.48051118  1
  C  C77  1  0.14062712  0.69069133  0.46727125  1
  C  C78  1  0.11333749  0.64136894  0.36216124  1
  C  C79  1  0.50850470  0.87161450  0.36084335  1
  C  C80  1  0.35515126  0.49521680  0.36471989  1
  C  C81  1  0.12838550  0.49149530  0.86084335  1
  C  C82  1  0.35863106  0.88666251  0.86216124  1
  C  C83  1  0.50478320  0.64484874  0.86471989  1
  C  C84  1  0.01832278  0.81473743  0.41281998  1
  C  C85  1  0.81338915  0.97063615  0.41194878  1
  C  C86  1  0.17799902  0.17650793  0.41472102  1
  C  C87  1  0.02936385  0.18661085  0.91194878  1
  C  C88  1  0.18526257  0.98167722  0.91281998  1
  C  C89  1  0.82349207  0.82200098  0.91472102  1
  C  C90  1  0.96494694  0.15297300  0.58831846  1
  C  C91  1  0.19076656  0.02646092  0.58788571  1
  C  C92  1  0.81809834  0.80161809  0.58847079  1
  C  C93  1  0.97353908  0.80923344  0.08788571  1
  C  C94  1  0.84702700  0.03505306  0.08831846  1
  C  C95  1  0.19838191  0.18190166  0.08847079  1
  C  C96  1  0.68498978  0.14807043  0.74615298  1
  C  C97  1  0.48005615  0.30396915  0.74528178  1
  C  C98  1  0.84466602  0.50984093  0.74805402  1
  C  C99  1  0.69603085  0.51994385  0.24528178  1
  C  C100  1  0.85192957  0.31501022  0.24615298  1
  C  C101  1  0.49015907  0.15533398  0.24805402  1
  C  C102  1  0.63161394  0.48630600  0.92165146  1
  C  C103  1  0.85743356  0.35979392  0.92121871  1
  C  C104  1  0.48476534  0.13495109  0.92180379  1
  C  C105  1  0.64020608  0.14256644  0.42121871  1
  C  C106  1  0.51369400  0.36838606  0.42165146  1
  C  C107  1  0.86504891  0.51523466  0.42180379  1
  C  C108  1  0.35165578  0.48140443  0.07948698  1
  C  C109  1  0.14672215  0.63730315  0.07861578  1
  C  C110  1  0.51133202  0.84317493  0.08138802  1
  C  C111  1  0.36269685  0.85327785  0.57861578  1
  C  C112  1  0.51859557  0.64834422  0.57948698  1
  C  C113  1  0.15682507  0.48866798  0.58138802  1
  C  C114  1  0.29827994  0.81964000  0.25498546  1
  C  C115  1  0.52409956  0.69312792  0.25455271  1
  C  C116  1  0.15143134  0.46828509  0.25513779  1
  C  C117  1  0.30687208  0.47590044  0.75455271  1
  C  C118  1  0.18036000  0.70172006  0.75498546  1
  C  C119  1  0.53171491  0.84856866  0.75513779  1
