# generated using pymatgen
data_Cu5NiC35
_symmetry_space_group_name_H-M   'P 1'
_cell_length_a   8.92085076
_cell_length_b   8.91699198
_cell_length_c   22.04012971
_cell_angle_alpha   90.06675395
_cell_angle_beta   89.74904001
_cell_angle_gamma   119.93392453
_symmetry_Int_Tables_number   1
_chemical_formula_structural   Cu5NiC35
_chemical_formula_sum   'Cu15 Ni3 C105'
_cell_volume   1519.33568314
_cell_formula_units_Z   3
loop_
 _symmetry_equiv_pos_site_id
 _symmetry_equiv_pos_as_xyz
  1  'x, y, z'
loop_
 _atom_site_type_symbol
 _atom_site_label
 _atom_site_symmetry_multiplicity
 _atom_site_fract_x
 _atom_site_fract_y
 _atom_site_fract_z
 _atom_site_occupancy
  C  C0  1  0.36938838  0.37079967  0.25205662  1
  C  C1  1  0.99799511  0.62914426  0.24938063  1
  C  C2  1  0.63871673  0.64419112  0.75056908  1
  C  C3  1  0.99388116  0.35624804  0.75383464  1
  C  C4  1  0.36598909  0.99953832  0.74985562  1
  C  C5  1  0.30412402  0.32684362  0.57950899  1
  C  C6  1  0.03156122  0.69765205  0.58074343  1
  C  C7  1  0.66152673  0.96980813  0.58458076  1
  C  C8  1  0.30483266  0.97158982  0.08364705  1
  C  C9  1  0.67239698  0.69396997  0.08262769  1
  C  C10  1  0.02740966  0.33920608  0.08480953  1
  C  C11  1  0.96014877  0.66458571  0.91924821  1
  C  C12  1  0.70648136  0.03791821  0.91464573  1
  C  C13  1  0.96442911  0.29621855  0.41405143  1
  C  C14  1  0.33497198  0.03674362  0.41707985  1
  C  C15  1  0.99366261  0.98901689  0.49751892  1
  C  C16  1  0.00963539  0.00613328  0.00211494  1
  C  C17  1  0.65630879  0.32916825  0.83386562  1
  C  C18  1  0.66667806  0.33316665  0.33243506  1
  C  C19  1  0.33943562  0.67718648  0.16790965  1
  C  C20  1  0.33910462  0.67491884  0.66632477  1
  C  C21  1  0.99239109  0.99335619  0.35151928  1
  C  C22  1  0.99636493  0.99438571  0.15159607  1
  C  C23  1  0.32960600  0.66515337  0.01835743  1
  C  C24  1  0.33769647  0.67172776  0.51422885  1
  C  C25  1  0.34109636  0.67352996  0.31463020  1
  C  C26  1  0.33705517  0.66853810  0.81647424  1
  C  C27  1  0.00576187  0.00695402  0.85435204  1
  C  C28  1  0.99932989  -0.00002101  0.65321400  1
  C  C29  1  0.66422786  0.32695784  0.67950779  1
  C  C30  1  0.66959692  0.32811035  0.18486730  1
  C  C31  1  0.66241725  0.33659471  0.98358363  1
  C  C32  1  0.66309116  0.33742071  0.47781429  1
  Ni  Ni33  1  0.69171117  0.99389793  0.75355809  1
  Ni  Ni34  1  0.36285326  0.02286388  0.57930424  1
  Ni  Ni35  1  0.97516961  0.64237921  0.08407834  1
  Cu  Cu36  1  0.28168928  0.99394279  0.25311255  1
  Cu  Cu37  1  0.70958804  0.72096035  0.25209913  1
  Cu  Cu38  1  0.00401244  0.28471348  0.25291834  1
  Cu  Cu39  1  0.30166276  0.30860877  0.75171761  1
  Cu  Cu40  1  0.00602926  0.69804621  0.75329522  1
  Cu  Cu41  1  0.97505099  0.34208264  0.57893754  1
  Cu  Cu42  1  0.66038738  0.63299629  0.58093756  1
  Cu  Cu43  1  0.66681301  0.02702948  0.08224140  1
  Cu  Cu44  1  0.35933034  0.33182376  0.08564839  1
  Cu  Cu45  1  0.61037902  0.66181047  0.91726990  1
  Cu  Cu46  1  0.05519969  0.38619454  0.91792219  1
  Cu  Cu47  1  0.33460938  0.94842727  0.91748147  1
  Cu  Cu48  1  0.62460135  0.94500668  0.41380967  1
  Cu  Cu49  1  0.32788965  0.38114522  0.41283990  1
  Cu  Cu50  1  0.05235726  0.67365625  0.41274626  1
  C  C51  1  0.19337172  0.02175570  0.30967615  1
  C  C52  1  0.83162492  0.81047510  0.30597588  1
  C  C53  1  0.98578302  0.17654579  0.31019067  1
  C  C54  1  0.22236061  0.17798510  0.80386173  1
  C  C55  1  0.96830774  0.77811488  0.80938212  1
  C  C56  1  0.81930524  0.04001310  0.81186898  1
  C  C57  1  0.76853792  0.95089355  0.69214561  1
  C  C58  1  0.19440930  0.23920564  0.69236352  1
  C  C59  1  0.04796175  0.81189642  0.69547886  1
  C  C60  1  0.79303639  0.82235666  0.19249173  1
  C  C61  1  0.02546119  0.19598877  0.19524142  1
  C  C62  1  0.17062778  0.96862052  0.19537657  1
  C  C63  1  0.90448294  0.38460830  0.63745144  1
  C  C64  1  0.48063246  0.09663739  0.64085993  1
  C  C65  1  0.62553184  0.52689149  0.64065663  1
  C  C66  1  0.89792034  0.51066684  0.14271700  1
  C  C67  1  0.61041786  0.10132923  0.13558722  1
  C  C68  1  0.47773690  0.37783316  0.14236513  1
  C  C69  1  0.43327286  0.27676001  0.03168189  1
  C  C70  1  0.84557488  0.56676881  0.02489918  1
  C  C71  1  0.71226150  0.14398196  0.02482936  1
  C  C72  1  0.44214215  0.15241619  0.52111879  1
  C  C73  1  0.70904040  0.55207958  0.52855018  1
  C  C74  1  0.85565466  0.30426493  0.52381777  1
  C  C75  1  0.51960451  0.67875983  0.97457863  1
  C  C76  1  0.15520374  0.47758604  0.97574727  1
  C  C77  1  0.31867464  0.84230462  0.97501540  1
  C  C78  1  0.54151928  0.84382420  0.47353063  1
  C  C79  1  0.30629016  0.46900300  0.47090988  1
  C  C80  1  0.16289592  0.69891635  0.47072003  1
  C  C81  1  0.14158882  0.64632336  0.35646077  1
  C  C82  1  0.50189154  0.85543438  0.36021978  1
  C  C83  1  0.34619065  0.49032045  0.35600511  1
  C  C84  1  0.14416123  0.49305152  0.86001565  1
  C  C85  1  0.35054716  0.85907913  0.85934082  1
  C  C86  1  0.51150141  0.65301629  0.85886526  1
  C  C87  1  0.03429659  0.83894369  0.40787200  1
  C  C88  1  0.81129233  0.97203640  0.40786102  1
  C  C89  1  0.16172449  0.19474817  0.41047048  1
  C  C90  1  0.02990983  0.20096903  0.91898662  1
  C  C91  1  0.16689029  0.96132491  0.91699925  1
  C  C92  1  0.79591259  0.82778576  0.91828821  1
  C  C93  1  0.98953571  0.17758235  0.58555849  1
  C  C94  1  0.17070679  0.00331239  0.58585846  1
  C  C95  1  0.81811897  0.81698600  0.58543657  1
  C  C96  1  0.99252645  0.83393804  0.09476074  1
  C  C97  1  0.83270977  0.01644468  0.09434037  1
  C  C98  1  0.17595626  0.17303621  0.09577382  1
  C  C99  1  0.67569535  0.16864078  0.74913226  1
  C  C100  1  0.48664641  0.33774774  0.74617149  1
  C  C101  1  0.84114088  0.52003105  0.74614574  1
  C  C102  1  0.68962879  0.53475746  0.24952196  1
  C  C103  1  0.84416759  0.31135494  0.25140297  1
  C  C104  1  0.46166279  0.16240862  0.24895144  1
  C  C105  1  0.63605648  0.50175086  0.91665868  1
  C  C106  1  0.86986327  0.36732028  0.91747962  1
  C  C107  1  0.50150517  0.12914438  0.91867684  1
  C  C108  1  0.64550350  0.13153103  0.41565465  1
  C  C109  1  0.48736132  0.35439422  0.41336090  1
  C  C110  1  0.87255648  0.50532429  0.41591706  1
  C  C111  1  0.34581335  0.49640525  0.07393714  1
  C  C112  1  0.16788197  0.66208617  0.07434836  1
  C  C113  1  0.50939054  0.84255523  0.07297119  1
  C  C114  1  0.34792965  0.83289361  0.57083668  1
  C  C115  1  0.49202819  0.64083510  0.57127516  1
  C  C116  1  0.15692667  0.50297540  0.57009432  1
  C  C117  1  0.29954583  0.82841262  0.25821700  1
  C  C118  1  0.52275077  0.69407991  0.25829937  1
  C  C119  1  0.17047865  0.47132034  0.25559155  1
  C  C120  1  0.31070248  0.48500282  0.76165559  1
  C  C121  1  0.16636843  0.67560122  0.76111453  1
  C  C122  1  0.49997701  0.82023629  0.76017736  1
