# generated using pymatgen
data_CuNiC7
_symmetry_space_group_name_H-M   'P 1'
_cell_length_a   6.67378548
_cell_length_b   5.55512953
_cell_length_c   5.51533574
_cell_angle_alpha   119.58139270
_cell_angle_beta   126.63678537
_cell_angle_gamma   90.94213203
_symmetry_Int_Tables_number   1
_chemical_formula_structural   CuNiC7
_chemical_formula_sum   'Cu1 Ni1 C7'
_cell_volume   127.73393518
_cell_formula_units_Z   1
loop_
 _symmetry_equiv_pos_site_id
 _symmetry_equiv_pos_as_xyz
  1  'x, y, z'
loop_
 _atom_site_type_symbol
 _atom_site_label
 _atom_site_symmetry_multiplicity
 _atom_site_fract_x
 _atom_site_fract_y
 _atom_site_fract_z
 _atom_site_occupancy
  C  C0  1  0.31629560  0.42870662  -0.00000000  1
  C  C1  1  0.73752891  0.19687508  0.40678767  1
  C  C2  1  0.33074125  0.79008742  0.59321233  1
  Ni  Ni3  1  0.76105708  0.51817538  0.00000000  1
  Cu  Cu4  1  0.02488006  0.00678178  0.00000000  1
  C  C5  1  0.76426182  0.16024912  0.00000000  1
  C  C6  1  0.40040989  0.35523512  0.47055653  1
  C  C7  1  0.92985335  0.88467858  0.52944347  1
  C  C8  1  0.03705504  0.65921089  0.00000000  1
