# generated using pymatgen
data_Cu4Ni2C
_symmetry_space_group_name_H-M   'P 1'
_cell_length_a   7.57643236
_cell_length_b   7.57643236
_cell_length_c   7.57643236
_cell_angle_alpha   108.77211994
_cell_angle_beta   108.77211994
_cell_angle_gamma   110.87865604
_symmetry_Int_Tables_number   1
_chemical_formula_structural   Cu4Ni2C
_chemical_formula_sum   'Cu8 Ni4 C2'
_cell_volume   334.63797587
_cell_formula_units_Z   2
loop_
 _symmetry_equiv_pos_site_id
 _symmetry_equiv_pos_as_xyz
  1  'x, y, z'
loop_
 _atom_site_type_symbol
 _atom_site_label
 _atom_site_symmetry_multiplicity
 _atom_site_fract_x
 _atom_site_fract_y
 _atom_site_fract_z
 _atom_site_occupancy
  C  C0  1  0.75000000  0.75000000  0.00000000  1
  C  C1  1  0.25000000  0.25000000  0.00000000  1
  Ni  Ni2  1  0.85334300  0.35334300  0.20668500  1
  Ni  Ni3  1  0.35334300  0.14665700  0.50000000  1
  Ni  Ni4  1  0.64665700  0.85334300  0.50000000  1
  Ni  Ni5  1  0.14665700  0.64665700  0.79331500  1
  Cu  Cu6  1  0.68487500  0.48494500  0.50000000  1
  Cu  Cu7  1  0.48494500  0.98494500  0.80007100  1
  Cu  Cu8  1  0.98494500  0.18487500  0.50000000  1
  Cu  Cu9  1  0.18487500  0.68487500  0.19992900  1
  Cu  Cu10  1  0.51505500  0.01505500  0.19992900  1
  Cu  Cu11  1  0.01505500  0.81512500  0.50000000  1
  Cu  Cu12  1  0.31512500  0.51505500  0.50000000  1
  Cu  Cu13  1  0.81512500  0.31512500  0.80007100  1
