# generated using pymatgen
data_Cu2NiC15
_symmetry_space_group_name_H-M   'P 1'
_cell_length_a   8.82556968
_cell_length_b   8.82556939
_cell_length_c   22.85394364
_cell_angle_alpha   90.00000000
_cell_angle_beta   90.00000000
_cell_angle_gamma   120.00000109
_symmetry_Int_Tables_number   1
_chemical_formula_structural   Cu2NiC15
_chemical_formula_sum   'Cu12 Ni6 C90'
_cell_volume   1541.61973384
_cell_formula_units_Z   6
loop_
 _symmetry_equiv_pos_site_id
 _symmetry_equiv_pos_as_xyz
  1  'x, y, z'
loop_
 _atom_site_type_symbol
 _atom_site_label
 _atom_site_symmetry_multiplicity
 _atom_site_fract_x
 _atom_site_fract_y
 _atom_site_fract_z
 _atom_site_occupancy
  C  C0  1  -0.00000000  -0.00000000  0.49932993  1
  C  C1  1  -0.00000000  -0.00000000  0.99932993  1
  C  C2  1  0.66666700  0.33333300  0.82787660  1
  C  C3  1  0.66666700  0.33333300  0.32787660  1
  C  C4  1  0.33333300  0.66666700  0.16669544  1
  C  C5  1  0.33333300  0.66666700  0.66669544  1
  C  C6  1  -0.00000000  -0.00000000  0.35536747  1
  C  C7  1  -0.00000000  -0.00000000  0.85536747  1
  C  C8  1  -0.00000000  -0.00000000  0.64591915  1
  C  C9  1  -0.00000000  -0.00000000  0.14591915  1
  C  C10  1  0.66666700  0.33333300  0.97785862  1
  C  C11  1  0.66666700  0.33333300  0.47785862  1
  C  C12  1  0.33333300  0.66666700  0.01988930  1
  C  C13  1  0.33333300  0.66666700  0.51988930  1
  C  C14  1  0.33333300  0.66666700  0.31266501  1
  C  C15  1  0.33333300  0.66666700  0.81266501  1
  C  C16  1  0.66666700  0.33333300  0.68532547  1
  C  C17  1  0.66666700  0.33333300  0.18532547  1
  Ni  Ni18  1  0.62022690  0.66642996  0.91648712  1
  Ni  Ni19  1  0.04620206  0.37977310  0.91648712  1
  Ni  Ni20  1  0.33357004  0.95379794  0.91648712  1
  Ni  Ni21  1  0.62022690  0.95379794  0.41648712  1
  Ni  Ni22  1  0.33357004  0.37977310  0.41648712  1
  Ni  Ni23  1  0.04620206  0.66642996  0.41648712  1
  Cu  Cu24  1  0.29204700  0.00336366  0.24992064  1
  Cu  Cu25  1  0.71131666  0.70795300  0.24992064  1
  Cu  Cu26  1  0.99663634  0.28868334  0.24992064  1
  Cu  Cu27  1  0.29204700  0.28868334  0.74992064  1
  Cu  Cu28  1  0.99663634  0.70795300  0.74992064  1
  Cu  Cu29  1  0.71131666  0.00336366  0.74992064  1
  Cu  Cu30  1  0.95382825  0.33476033  0.58519049  1
  Cu  Cu31  1  0.38093309  0.04617175  0.58519049  1
  Cu  Cu32  1  0.66523967  0.61906691  0.58519049  1
  Cu  Cu33  1  0.95382825  0.61906691  0.08519049  1
  Cu  Cu34  1  0.66523967  0.04617175  0.08519049  1
  Cu  Cu35  1  0.38093309  0.33476033  0.08519049  1
  C  C36  1  0.19486306  0.02051747  0.30403128  1
  C  C37  1  0.82565441  0.80513694  0.30403128  1
  C  C38  1  0.97948253  0.17434559  0.30403128  1
  C  C39  1  0.19486306  0.17434559  0.80403128  1
  C  C40  1  0.97948253  0.80513694  0.80403128  1
  C  C41  1  0.82565441  0.02051747  0.80403128  1
  C  C42  1  0.80246964  0.97264901  0.69535080  1
  C  C43  1  0.17017937  0.19753036  0.69535080  1
  C  C44  1  0.02735099  0.82982063  0.69535080  1
  C  C45  1  0.80246964  0.82982063  0.19535080  1
  C  C46  1  0.02735099  0.19753036  0.19535080  1
  C  C47  1  0.17017937  0.97264901  0.19535080  1
  C  C48  1  0.87956756  0.36743900  0.63948358  1
  C  C49  1  0.48787244  0.12043244  0.63948358  1
  C  C50  1  0.63256100  0.51212756  0.63948358  1
  C  C51  1  0.87956756  0.51212756  0.13948358  1
  C  C52  1  0.63256100  0.12043244  0.13948358  1
  C  C53  1  0.48787244  0.36743900  0.13948358  1
  C  C54  1  0.46248568  0.30372182  0.02911170  1
  C  C55  1  0.84123715  0.53751432  0.02911170  1
  C  C56  1  0.69627818  0.15876285  0.02911170  1
  C  C57  1  0.46248568  0.15876285  0.52911170  1
  C  C58  1  0.69627818  0.53751432  0.52911170  1
  C  C59  1  0.84123715  0.30372182  0.52911170  1
  C  C60  1  0.53137985  0.69882285  0.97391565  1
  C  C61  1  0.16744200  0.46862015  0.97391565  1
  C  C62  1  0.30117715  0.83255800  0.97391565  1
  C  C63  1  0.53137985  0.83255800  0.47391565  1
  C  C64  1  0.30117715  0.46862015  0.47391565  1
  C  C65  1  0.16744200  0.69882285  0.47391565  1
  C  C66  1  0.13571759  0.63383471  0.35884527  1
  C  C67  1  0.49811612  0.86428241  0.35884527  1
  C  C68  1  0.36616529  0.50188388  0.35884527  1
  C  C69  1  0.13571759  0.50188388  0.85884527  1
  C  C70  1  0.36616529  0.86428241  0.85884527  1
  C  C71  1  0.49811612  0.63383471  0.85884527  1
  C  C72  1  0.02439813  0.83712230  0.40775734  1
  C  C73  1  0.81272417  0.97560187  0.40775734  1
  C  C74  1  0.16287770  0.18727583  0.40775734  1
  C  C75  1  0.02439813  0.18727583  0.90775734  1
  C  C76  1  0.16287770  0.97560187  0.90775734  1
  C  C77  1  0.81272417  0.83712230  0.90775734  1
  C  C78  1  0.97616706  0.16815117  0.59083478  1
  C  C79  1  0.19198412  0.02383294  0.59083478  1
  C  C80  1  0.83184883  0.80801588  0.59083478  1
  C  C81  1  0.97616706  0.80801588  0.09083478  1
  C  C82  1  0.83184883  0.02383294  0.09083478  1
  C  C83  1  0.19198412  0.16815117  0.09083478  1
  C  C84  1  0.69379569  0.16373832  0.74530064  1
  C  C85  1  0.46994363  0.30620431  0.74530064  1
  C  C86  1  0.83626168  0.53005637  0.74530064  1
  C  C87  1  0.69379569  0.53005637  0.24530064  1
  C  C88  1  0.83626168  0.30620431  0.24530064  1
  C  C89  1  0.46994363  0.16373832  0.24530064  1
  C  C90  1  0.64137425  0.49534265  0.92604834  1
  C  C91  1  0.85396940  0.35862575  0.92604834  1
  C  C92  1  0.50465735  0.14603060  0.92604834  1
  C  C93  1  0.64137425  0.14603060  0.42604834  1
  C  C94  1  0.50465735  0.35862575  0.42604834  1
  C  C95  1  0.85396940  0.49534265  0.42604834  1
  C  C96  1  0.35211205  0.49331908  0.07504992  1
  C  C97  1  0.14120603  0.64788795  0.07504992  1
  C  C98  1  0.50668092  0.85879397  0.07504992  1
  C  C99  1  0.35211205  0.85879397  0.57504992  1
  C  C100  1  0.50668092  0.64788795  0.57504992  1
  C  C101  1  0.14120603  0.49331908  0.57504992  1
  C  C102  1  0.30014657  0.83144747  0.25569678  1
  C  C103  1  0.53129991  0.69985343  0.25569678  1
  C  C104  1  0.16855253  0.46870009  0.25569678  1
  C  C105  1  0.30014657  0.46870009  0.75569678  1
  C  C106  1  0.16855253  0.69985343  0.75569678  1
  C  C107  1  0.53129991  0.83144747  0.75569678  1
