# generated using pymatgen
data_Cu2NiC4
_symmetry_space_group_name_H-M   'P 1'
_cell_length_a   3.48792025
_cell_length_b   4.99381359
_cell_length_c   6.66875458
_cell_angle_alpha   103.32117441
_cell_angle_beta   90.00323301
_cell_angle_gamma   89.99600928
_symmetry_Int_Tables_number   1
_chemical_formula_structural   Cu2NiC4
_chemical_formula_sum   'Cu2 Ni1 C4'
_cell_volume   113.03119202
_cell_formula_units_Z   1
loop_
 _symmetry_equiv_pos_site_id
 _symmetry_equiv_pos_as_xyz
  1  'x, y, z'
loop_
 _atom_site_type_symbol
 _atom_site_label
 _atom_site_symmetry_multiplicity
 _atom_site_fract_x
 _atom_site_fract_y
 _atom_site_fract_z
 _atom_site_occupancy
  Ni  Ni0  1  0.24994416  0.65267464  0.94876310  1
  Cu  Cu1  1  0.75002388  0.78527809  0.48861570  1
  Cu  Cu2  1  0.24997373  0.18415479  0.05261832  1
  C  C3  1  0.25001693  0.04631297  0.37815496  1
  C  C4  1  0.74996407  0.04364362  0.83006898  1
  C  C5  1  0.74999841  0.49784432  0.16840451  1
  C  C6  1  0.25007882  0.52620256  0.57345543  1
