# generated using pymatgen
data_CuNiC
_symmetry_space_group_name_H-M   'P 1'
_cell_length_a   7.75945687
_cell_length_b   7.83612404
_cell_length_c   7.75945687
_cell_angle_alpha   59.67261449
_cell_angle_beta   59.06351744
_cell_angle_gamma   59.67261449
_symmetry_Int_Tables_number   1
_chemical_formula_structural   CuNiC
_chemical_formula_sum   'Cu4 Ni4 C4'
_cell_volume   329.56725338
_cell_formula_units_Z   4
loop_
 _symmetry_equiv_pos_site_id
 _symmetry_equiv_pos_as_xyz
  1  'x, y, z'
loop_
 _atom_site_type_symbol
 _atom_site_label
 _atom_site_symmetry_multiplicity
 _atom_site_fract_x
 _atom_site_fract_y
 _atom_site_fract_z
 _atom_site_occupancy
  C  C0  1  0.40069843  0.39848754  0.40069843  1
  C  C1  1  0.40069843  0.80011560  0.40069843  1
  C  C2  1  0.78695050  0.39983459  0.41338032  1
  C  C3  1  0.41338032  0.39983459  0.78695050  1
  Ni  Ni4  1  0.62871747  0.10281608  0.62871747  1
  Ni  Ni5  1  0.62887063  0.62948270  0.11216296  1
  Ni  Ni6  1  0.11216296  0.62948270  0.62887063  1
  Ni  Ni7  1  0.62871747  0.63974797  0.62871747  1
  Cu  Cu8  1  0.12857850  0.12916931  0.12857850  1
  Cu  Cu9  1  0.61844540  0.12867711  0.12420037  1
  Cu  Cu10  1  0.12857850  0.61367370  0.12857850  1
  Cu  Cu11  1  0.12420037  0.12867711  0.61844540  1
