# generated using pymatgen
data_Cu2Ni3C32
_symmetry_space_group_name_H-M   'P 1'
_cell_length_a   9.06566203
_cell_length_b   9.03002027
_cell_length_c   23.50586164
_cell_angle_alpha   90.01507964
_cell_angle_beta   89.85501587
_cell_angle_gamma   119.98093248
_symmetry_Int_Tables_number   1
_chemical_formula_structural   Cu2Ni3C32
_chemical_formula_sum   'Cu6 Ni9 C96'
_cell_volume   1666.77427115
_cell_formula_units_Z   3
loop_
 _symmetry_equiv_pos_site_id
 _symmetry_equiv_pos_as_xyz
  1  'x, y, z'
loop_
 _atom_site_type_symbol
 _atom_site_label
 _atom_site_symmetry_multiplicity
 _atom_site_fract_x
 _atom_site_fract_y
 _atom_site_fract_z
 _atom_site_occupancy
  Ni  Ni0  1  0.66340588  0.68312844  0.08394830  1
  Ni  Ni1  1  0.33087518  0.29401833  0.91604855  1
  Ni  Ni2  1  0.32994982  0.03627942  0.41606776  1
  Ni  Ni3  1  0.99234929  0.00212310  0.50058923  1
  Ni  Ni4  1  0.00819119  0.99431985  0.00056576  1
  Ni  Ni5  1  0.68568627  0.33516705  0.83222602  1
  Ni  Ni6  1  0.68429508  0.34834195  0.33142858  1
  Ni  Ni7  1  0.30774229  0.65314095  0.16377328  1
  Ni  Ni8  1  0.33505965  0.67978265  0.66334916  1
  Cu  Cu9  1  0.99509763  0.00139555  0.34378859  1
  Cu  Cu10  1  0.99211671  0.99058884  0.84301742  1
  Cu  Cu11  1  0.67526220  0.33771016  0.98450972  1
  Cu  Cu12  1  0.66728954  0.33475088  0.48454406  1
  Cu  Cu13  1  0.31784210  0.66490649  0.02359649  1
  Cu  Cu14  1  0.33340371  0.66863281  0.52452400  1
  C  C15  1  0.00766586  0.00110316  0.65593135  1
  C  C16  1  0.01221145  0.00636606  0.15622589  1
  C  C17  1  0.65796052  0.32565475  0.68507513  1
  C  C18  1  0.66503711  0.33577529  0.18518105  1
  C  C19  1  0.33370226  0.66244332  0.30830096  1
  C  C20  1  0.33353262  0.67117174  0.80815418  1
  C  C21  1  0.30527120  0.00178656  0.25311480  1
  C  C22  1  0.69964040  0.70018872  0.24825845  1
  C  C23  1  0.99634557  0.30116378  0.24992683  1
  C  C24  1  0.30237002  0.30186988  0.75258332  1
  C  C25  1  0.99580622  0.69320844  0.74919908  1
  C  C26  1  0.70137684  0.00083694  0.74912053  1
  C  C27  1  0.36134904  0.03894205  0.58418321  1
  C  C28  1  0.95892018  0.63808714  0.08806681  1
  C  C29  1  0.36555249  0.32367650  0.08381717  1
  C  C30  1  0.95818985  0.32154042  0.58821092  1
  C  C31  1  0.67925770  0.63838085  0.58833529  1
  C  C32  1  0.67952213  0.03931551  0.08794496  1
  C  C33  1  0.61992742  0.66663454  0.91563791  1
  C  C34  1  0.04421572  0.37660251  0.91220471  1
  C  C35  1  0.33522484  0.96150971  0.91310720  1
  C  C36  1  0.62075873  0.95475941  0.41397148  1
  C  C37  1  0.33464186  0.37549394  0.41422147  1
  C  C38  1  0.04514887  0.66580979  0.41341492  1
  C  C39  1  0.24849142  0.03978113  0.30931456  1
  C  C40  1  0.80448731  0.76518041  0.30156701  1
  C  C41  1  0.95831629  0.20195436  0.30463145  1
  C  C42  1  0.24657021  0.20701782  0.80878920  1
  C  C43  1  0.95411898  0.75217651  0.80376204  1
  C  C44  1  0.80058459  0.04254968  0.80380941  1
  C  C45  1  0.79460142  0.97044610  0.69885260  1
  C  C46  1  0.17442001  0.20190224  0.70371874  1
  C  C47  1  0.02799445  0.82012795  0.69918684  1
  C  C48  1  0.78728259  0.81805816  0.19581221  1
  C  C49  1  0.02670078  0.20724626  0.19954366  1
  C  C50  1  0.17671484  0.97387955  0.20416151  1
  C  C51  1  0.85920218  0.33591495  0.63614237  1
  C  C52  1  0.48676085  0.15728640  0.63137634  1
  C  C53  1  0.67074829  0.52823865  0.63655325  1
  C  C54  1  0.85216705  0.51793495  0.13755176  1
  C  C55  1  0.66421471  0.13310081  0.13688261  1
  C  C56  1  0.49009317  0.33117738  0.13098042  1
  C  C57  1  0.42381149  0.29600722  0.02521315  1
  C  C58  1  0.85783883  0.57278672  0.03261088  1
  C  C59  1  0.70128260  0.13070611  0.03414790  1
  C  C60  1  0.42263420  0.12357242  0.52553601  1
  C  C61  1  0.70390114  0.57145640  0.53421909  1
  C  C62  1  0.86922714  0.30023744  0.53391487  1
  C  C63  1  0.54015604  0.67268132  0.96986270  1
  C  C64  1  0.13784282  0.45939538  0.96463975  1
  C  C65  1  0.32953435  0.87101820  0.96547804  1
  C  C66  1  0.53705868  0.86353093  0.46663744  1
  C  C67  1  0.32831646  0.46054086  0.46644967  1
  C  C68  1  0.13931714  0.67606000  0.46558110  1
  C  C69  1  0.14395838  0.66068511  0.36216463  1
  C  C70  1  0.51549068  0.85373960  0.36322195  1
  C  C71  1  0.33588391  0.47560204  0.36263294  1
  C  C72  1  0.14382922  0.48226024  0.86137183  1
  C  C73  1  0.33468677  0.86104856  0.86176944  1
  C  C74  1  0.51160185  0.66411246  0.86612545  1
  C  C75  1  0.03548144  0.82525277  0.41059775  1
  C  C76  1  0.79287249  0.97929563  0.41114627  1
  C  C77  1  0.18396088  0.20040806  0.41253134  1
  C  C78  1  0.03502151  0.20797211  0.90928043  1
  C  C79  1  0.18412190  0.98498606  0.91177976  1
  C  C80  1  0.79209713  0.81464687  0.91204676  1
  C  C81  1  0.97303068  0.16482686  0.59674177  1
  C  C82  1  0.18427593  0.02498540  0.59700814  1
  C  C83  1  0.83194938  0.81256111  0.59644418  1
  C  C84  1  0.97046051  0.81588166  0.09852111  1
  C  C85  1  0.83323591  0.01885997  0.09528575  1
  C  C86  1  0.18517519  0.16947386  0.09726712  1
  C  C87  1  0.66667448  0.14911307  0.73497234  1
  C  C88  1  0.48175939  0.33192644  0.73667625  1
  C  C89  1  0.84882169  0.51270180  0.73411711  1
  C  C90  1  0.66375705  0.51529742  0.23632566  1
  C  C91  1  0.84741042  0.33238926  0.23588834  1
  C  C92  1  0.48375397  0.15008362  0.23710169  1
  C  C93  1  0.62097096  0.50170167  0.91186337  1
  C  C94  1  0.87508131  0.36139112  0.91098785  1
  C  C95  1  0.49190075  0.13278502  0.91029574  1
  C  C96  1  0.62241855  0.12144359  0.41183572  1
  C  C97  1  0.49144265  0.36089858  0.41162446  1
  C  C98  1  0.87525145  0.51173292  0.41224578  1
  C  C99  1  0.36633710  0.49463465  0.08722851  1
  C  C100  1  0.13573886  0.65850103  0.08915570  1
  C  C101  1  0.52884291  0.86468389  0.08723656  1
  C  C102  1  0.34561516  0.86304075  0.58929595  1
  C  C103  1  0.52349579  0.65047400  0.58904226  1
  C  C104  1  0.12915464  0.47365696  0.58890873  1
  C  C105  1  0.31737419  0.83528175  0.25644990  1
  C  C106  1  0.51972132  0.68351081  0.25526123  1
  C  C107  1  0.16241616  0.48082147  0.25476928  1
  C  C108  1  0.31795172  0.48193968  0.75635307  1
  C  C109  1  0.16285114  0.68229450  0.75482176  1
  C  C110  1  0.52087216  0.83649086  0.75518206  1
