# generated using pymatgen
data_CuNiC
_symmetry_space_group_name_H-M   'P 1'
_cell_length_a   4.34686900
_cell_length_b   6.88172000
_cell_length_c   8.04462500
_cell_angle_alpha   90.00000000
_cell_angle_beta   90.00000000
_cell_angle_gamma   90.00000000
_symmetry_Int_Tables_number   1
_chemical_formula_structural   CuNiC
_chemical_formula_sum   'Cu4 Ni4 C4'
_cell_volume   240.64639204
_cell_formula_units_Z   4
loop_
 _symmetry_equiv_pos_site_id
 _symmetry_equiv_pos_as_xyz
  1  'x, y, z'
loop_
 _atom_site_type_symbol
 _atom_site_label
 _atom_site_symmetry_multiplicity
 _atom_site_fract_x
 _atom_site_fract_y
 _atom_site_fract_z
 _atom_site_occupancy
  C  C0  1  0.75000000  0.48085500  0.69391900  1
  C  C1  1  0.25000000  0.51914500  0.30608100  1
  C  C2  1  0.75000000  0.98085500  0.80608100  1
  C  C3  1  0.25000000  0.01914500  0.19391900  1
  Ni  Ni4  1  0.75000000  0.73399400  0.10816300  1
  Ni  Ni5  1  0.25000000  0.26600600  0.89183700  1
  Ni  Ni6  1  0.75000000  0.23399400  0.39183700  1
  Ni  Ni7  1  0.25000000  0.76600600  0.60816300  1
  Cu  Cu8  1  0.75000000  0.33703000  0.07236100  1
  Cu  Cu9  1  0.25000000  0.66297000  0.92763900  1
  Cu  Cu10  1  0.75000000  0.83703000  0.42763900  1
  Cu  Cu11  1  0.25000000  0.16297000  0.57236100  1
