# generated using pymatgen
data_Cu7NiC66
_symmetry_space_group_name_H-M   'P 1'
_cell_length_a   17.85161835
_cell_length_b   8.93702208
_cell_length_c   23.29399742
_cell_angle_alpha   90.03116129
_cell_angle_beta   89.97851157
_cell_angle_gamma   120.00686177
_symmetry_Int_Tables_number   1
_chemical_formula_structural   Cu7NiC66
_chemical_formula_sum   'Cu21 Ni3 C198'
_cell_volume   3218.21443747
_cell_formula_units_Z   3
loop_
 _symmetry_equiv_pos_site_id
 _symmetry_equiv_pos_as_xyz
  1  'x, y, z'
loop_
 _atom_site_type_symbol
 _atom_site_label
 _atom_site_symmetry_multiplicity
 _atom_site_fract_x
 _atom_site_fract_y
 _atom_site_fract_z
 _atom_site_occupancy
  C  C0  1  0.68774515  0.36423800  0.24602530  1
  C  C1  1  0.99384856  0.62373976  0.24584949  1
  C  C2  1  0.99374017  0.36124354  0.74369587  1
  C  C3  1  0.49397006  0.36149331  0.74374444  1
  C  C4  1  0.18605249  0.00929427  0.74372956  1
  C  C5  1  0.68611235  0.00941885  0.74394038  1
  C  C6  1  0.99998910  0.99936367  0.50003554  1
  C  C7  1  0.49993752  0.00013016  0.50025813  1
  C  C8  1  0.99846879  0.99751798  0.00159684  1
  C  C9  1  0.50155155  0.00297941  0.00099550  1
  C  C10  1  0.33315571  0.34391080  0.83011783  1
  C  C11  1  0.83282190  0.34349016  0.83152079  1
  C  C12  1  0.33314986  0.33354057  0.33557907  1
  C  C13  1  0.83324597  0.32147882  0.33161593  1
  C  C14  1  0.16957616  0.66500233  0.16605514  1
  C  C15  1  0.66871155  0.67919835  0.16538458  1
  C  C16  1  0.17155068  0.66544345  0.66094630  1
  C  C17  1  0.67156592  0.66554438  0.66118308  1
  Ni  Ni18  1  0.33294823  0.34098060  0.68083486  1
  Ni  Ni19  1  0.83288331  0.34079271  0.68086915  1
  Ni  Ni20  1  0.83317709  0.32365602  0.18251641  1
  Cu  Cu21  1  0.00000564  0.00302443  0.35334572  1
  Cu  Cu22  1  0.49962019  0.99854085  0.35400081  1
  Cu  Cu23  1  0.99950234  0.99810595  0.85323359  1
  Cu  Cu24  1  0.49990531  0.99811339  0.85333691  1
  Cu  Cu25  1  0.99870472  0.99774065  0.64393246  1
  Cu  Cu26  1  0.49882526  0.99755886  0.64394498  1
  Cu  Cu27  1  0.99738744  0.00062172  0.14609306  1
  Cu  Cu28  1  0.50138214  -0.00034436  0.14597817  1
  Cu  Cu29  1  0.33314613  0.33430498  0.18630889  1
  Cu  Cu30  1  0.33356739  0.33229115  0.98027446  1
  Cu  Cu31  1  0.83336282  0.33264331  0.98296547  1
  Cu  Cu32  1  0.33329132  0.33296986  0.48281804  1
  Cu  Cu33  1  0.83357671  0.33483712  0.48209207  1
  Cu  Cu34  1  0.16470885  0.66600150  0.02086984  1
  Cu  Cu35  1  0.66807438  0.66682711  0.02110003  1
  Cu  Cu36  1  0.16629580  0.66706641  0.52061673  1
  Cu  Cu37  1  0.66658599  0.66619216  0.52086827  1
  Cu  Cu38  1  0.16966767  0.66530909  0.31495155  1
  Cu  Cu39  1  0.66641250  0.67424078  0.31526410  1
  Cu  Cu40  1  0.16944482  0.66552460  0.81579399  1
  Cu  Cu41  1  0.66942648  0.66618819  0.81600939  1
  C  C42  1  0.14492974  0.00012371  0.24994130  1
  C  C43  1  0.64742669  0.00369205  0.24951234  1
  C  C44  1  0.35542993  0.71062485  0.24954071  1
  C  C45  1  0.85359048  0.70555772  0.24980320  1
  C  C46  1  0.99792221  0.29192220  0.24973418  1
  C  C47  1  0.49972314  0.28989612  0.25036459  1
  C  C48  1  0.14677498  0.28995213  0.74945416  1
  C  C49  1  0.64689805  0.29033368  0.74938995  1
  C  C50  1  0.99765034  0.70430671  0.74997650  1
  C  C51  1  0.49762872  0.70427332  0.74994725  1
  C  C52  1  0.35429304  0.00208363  0.74952221  1
  C  C53  1  0.85418192  0.00206258  0.74942499  1
  C  C54  1  0.47808868  0.33491341  0.58633586  1
  C  C55  1  0.97801145  0.33516772  0.58623081  1
  C  C56  1  0.18959634  0.04389185  0.58645891  1
  C  C57  1  0.68983320  0.04416033  0.58626153  1
  C  C58  1  0.33204820  0.61981154  0.58500265  1
  C  C59  1  0.83218959  0.61974146  0.58510286  1
  C  C60  1  0.47851179  0.62338214  0.08309302  1
  C  C61  1  0.97751612  0.62269455  0.08637048  1
  C  C62  1  0.33353638  0.04293013  0.08350438  1
  C  C63  1  0.83271109  0.04497879  0.08495612  1
  C  C64  1  0.18794282  0.33310824  0.08312133  1
  C  C65  1  0.68921531  0.33396562  0.08636598  1
  C  C66  1  0.31256905  0.66639007  0.91818045  1
  C  C67  1  0.81309436  0.66508807  0.91769519  1
  C  C68  1  0.02023200  0.37473674  0.91630471  1
  C  C69  1  0.52105341  0.37552826  0.91646247  1
  C  C70  1  0.16698763  0.95853279  0.91627637  1
  C  C71  1  0.66738169  0.95896264  0.91676255  1
  C  C72  1  0.31199508  0.95869820  0.41709610  1
  C  C73  1  0.81229444  0.95926134  0.41761588  1
  C  C74  1  0.16734877  0.37534263  0.41757412  1
  C  C75  1  0.66716852  0.37651065  0.41575236  1
  C  C76  1  0.02100316  0.66635516  0.41576553  1
  C  C77  1  0.52030337  0.66506454  0.41752358  1
  C  C78  1  0.10227332  0.02468828  0.30381902  1
  C  C79  1  0.60060122  0.02633860  0.30265906  1
  C  C80  1  0.41018526  0.79592886  0.30349329  1
  C  C81  1  0.91200331  0.79759826  0.30264139  1
  C  C82  1  0.48743265  0.17906775  0.30383416  1
  C  C83  1  0.98923630  0.18079824  0.30316981  1
  C  C84  1  0.10117503  0.17580363  0.80325341  1
  C  C85  1  0.60110534  0.17583218  0.80322558  1
  C  C86  1  0.48853433  0.79678896  0.80368941  1
  C  C87  1  0.98864058  0.79697651  0.80368905  1
  C  C88  1  0.41175902  0.02605480  0.80298300  1
  C  C89  1  0.91170719  0.02613100  0.80286696  1
  C  C90  1  0.39750855  0.97368169  0.69665822  1
  C  C91  1  0.89759010  0.97363865  0.69662642  1
  C  C92  1  0.08656296  0.20544704  0.69712499  1
  C  C93  1  0.58651496  0.20545599  0.69709118  1
  C  C94  1  0.01615042  0.82527345  0.69788499  1
  C  C95  1  0.51598226  0.82504401  0.69787851  1
  C  C96  1  0.39850804  0.82138957  0.19595222  1
  C  C97  1  0.89719953  0.82040598  0.19663937  1
  C  C98  1  0.01245197  0.20482651  0.19672932  1
  C  C99  1  0.51475410  0.20501787  0.19707808  1
  C  C100  1  0.08740024  0.97027886  0.19681998  1
  C  C101  1  0.58921647  0.97487655  0.19624185  1
  C  C102  1  0.44041302  0.35950117  0.64168639  1
  C  C103  1  0.94044535  0.35944424  0.64166595  1
  C  C104  1  0.23977846  0.11882787  0.64180274  1
  C  C105  1  0.73968030  0.11870353  0.64173362  1
  C  C106  1  0.31885268  0.51477264  0.63815262  1
  C  C107  1  0.81877387  0.51472132  0.63820597  1
  C  C108  1  0.43498015  0.51248079  0.13680420  1
  C  C109  1  0.94024793  0.52119433  0.14124030  1
  C  C110  1  0.32138845  0.13062969  0.13695612  1
  C  C111  1  0.81883854  0.12341397  0.13776268  1
  C  C112  1  0.24375449  0.35799668  0.13684629  1
  C  C113  1  0.73970111  0.36009577  0.14132358  1
  C  C114  1  0.23195801  0.30954914  0.02954127  1
  C  C115  1  0.73239788  0.30928948  0.03193656  1
  C  C116  1  0.42285139  0.53608327  0.02944453  1
  C  C117  1  0.92247975  0.53531106  0.03189531  1
  C  C118  1  0.34544978  0.15381182  0.02972941  1
  C  C119  1  0.84547065  0.15305856  0.02965437  1
  C  C120  1  0.23299416  0.15568350  0.53243496  1
  C  C121  1  0.73327231  0.15623240  0.53225849  1
  C  C122  1  0.34528839  0.53708379  0.52997901  1
  C  C123  1  0.84527493  0.53734458  0.52996299  1
  C  C124  1  0.42233812  0.31058110  0.53230058  1
  C  C125  1  0.92215577  0.31060913  0.53220627  1
  C  C126  1  0.26817169  0.69051261  0.97075439  1
  C  C127  1  0.76902192  0.69039068  0.97028220  1
  C  C128  1  0.07773304  0.46510211  0.96868351  1
  C  C129  1  0.57775633  0.46581318  0.96876635  1
  C  C130  1  0.15541232  0.84517546  0.96878875  1
  C  C131  1  0.65496040  0.84412271  0.96887814  1
  C  C132  1  0.26851200  0.84654420  0.47008518  1
  C  C133  1  0.76839944  0.84658726  0.47032333  1
  C  C134  1  0.15486066  0.46295385  0.47039101  1
  C  C135  1  0.65487406  0.46569555  0.46836312  1
  C  C136  1  0.07777519  0.69030911  0.46843721  1
  C  C137  1  0.57674516  0.69051626  0.47028260  1
  C  C138  1  0.06295762  0.64320259  0.36044054  1
  C  C139  1  0.56395511  0.64207911  0.36322838  1
  C  C140  1  0.25683613  0.87122211  0.36297894  1
  C  C141  1  0.75694203  0.87211036  0.36335873  1
  C  C142  1  0.17920361  0.48574341  0.36336234  1
  C  C143  1  0.67828393  0.48267469  0.36029457  1
  C  C144  1  0.06270317  0.48192525  0.86100338  1
  C  C145  1  0.56227487  0.48161294  0.86089152  1
  C  C146  1  0.17884293  0.87539915  0.86093872  1
  C  C147  1  0.67844584  0.87490524  0.86111206  1
  C  C148  1  0.25753358  0.64210951  0.86381235  1
  C  C149  1  0.75764822  0.64193487  0.86354212  1
  C  C150  1  0.01157493  0.82862593  0.40947321  1
  C  C151  1  0.51152681  0.82764562  0.41027128  1
  C  C152  1  0.40234608  0.97673105  0.41002147  1
  C  C153  1  0.90249738  0.97690348  0.41026001  1
  C  C154  1  0.08596994  0.19490310  0.41051065  1
  C  C155  1  0.58586788  0.19517272  0.40956164  1
  C  C156  1  0.01173826  0.19460521  0.90984720  1
  C  C157  1  0.51143161  0.19444226  0.90998658  1
  C  C158  1  0.08576745  0.97697962  0.91032359  1
  C  C159  1  0.58578274  0.97681047  0.91029683  1
  C  C160  1  0.40272110  0.82877601  0.91074301  1
  C  C161  1  0.90290442  0.82849649  0.91040003  1
  C  C162  1  0.48846737  0.17144253  0.58957047  1
  C  C163  1  0.98851163  0.17159076  0.58961508  1
  C  C164  1  0.09748003  0.02346226  0.58998609  1
  C  C165  1  0.59750913  0.02345415  0.58999370  1
  C  C166  1  0.41412109  0.80397744  0.58945168  1
  C  C167  1  0.91410118  0.80405205  0.58945476  1
  C  C168  1  0.48750144  0.80392027  0.08903370  1
  C  C169  1  0.98908712  0.80737596  0.08965460  1
  C  C170  1  0.41451823  0.02431307  0.08984634  1
  C  C171  1  0.91434952  0.02372498  0.08879221  1
  C  C172  1  0.09767580  0.17132455  0.08949212  1
  C  C173  1  0.59682193  0.17071487  0.08956134  1
  C  C174  1  0.34466660  0.16324128  0.74522369  1
  C  C175  1  0.84469023  0.16322902  0.74511822  1
  C  C176  1  0.23476842  0.30317680  0.74448439  1
  C  C177  1  0.73469594  0.30324256  0.74440475  1
  C  C178  1  0.42142896  0.52203014  0.74502604  1
  C  C179  1  0.92151939  0.52225548  0.74500770  1
  C  C180  1  0.34533187  0.52886921  0.24309741  1
  C  C181  1  0.84474759  0.52622579  0.24484653  1
  C  C182  1  0.42011725  0.31215443  0.24349591  1
  C  C183  1  0.92032965  0.31890579  0.24489424  1
  C  C184  1  0.23570256  0.15961756  0.24329635  1
  C  C185  1  0.73482356  0.16817760  0.24440701  1
  C  C186  1  0.32168336  0.50416101  0.92327227  1
  C  C187  1  0.82199359  0.50323699  0.92304648  1
  C  C188  1  0.43074626  0.35723200  0.92266442  1
  C  C189  1  0.93049870  0.35749746  0.92265174  1
  C  C190  1  0.24800609  0.13893424  0.92260650  1
  C  C191  1  0.74804252  0.13930439  0.92281593  1
  C  C192  1  0.32162831  0.13947509  0.42297933  1
  C  C193  1  0.82155267  0.13963167  0.42315842  1
  C  C194  1  0.24824937  0.35622123  0.42309874  1
  C  C195  1  0.74781739  0.35678495  0.42251659  1
  C  C196  1  0.43009092  0.50309931  0.42300497  1
  C  C197  1  0.93084228  0.50415577  0.42266084  1
  C  C198  1  0.17886941  0.49565801  0.07689049  1
  C  C199  1  0.67695271  0.49305175  0.07607450  1
  C  C200  1  0.06931073  0.64509306  0.07602026  1
  C  C201  1  0.56902436  0.64292190  0.07701261  1
  C  C202  1  0.25242527  0.86230150  0.07694627  1
  C  C203  1  0.75302687  0.86073376  0.07566592  1
  C  C204  1  0.17762710  0.86087478  0.57667489  1
  C  C205  1  0.67767026  0.86073292  0.57660105  1
  C  C206  1  0.25272076  0.64553496  0.57605249  1
  C  C207  1  0.75276770  0.64524212  0.57612137  1
  C  C208  1  0.06966670  0.49479204  0.57669321  1
  C  C209  1  0.56964254  0.49438672  0.57670126  1
  C  C210  1  0.15060742  0.83254973  0.25636429  1
  C  C211  1  0.65483401  0.83880755  0.25615430  1
  C  C212  1  0.26452791  0.69071675  0.25568788  1
  C  C213  1  0.76134046  0.68204843  0.25638188  1
  C  C214  1  0.08047501  0.47628226  0.25628888  1
  C  C215  1  0.58381042  0.46868318  0.25666447  1
  C  C216  1  0.15099584  0.46804914  0.75711581  1
  C  C217  1  0.65091653  0.46825192  0.75710946  1
  C  C218  1  0.08277433  0.69231767  0.75732222  1
  C  C219  1  0.58269793  0.69214001  0.75720133  1
  C  C220  1  0.26189841  0.84130014  0.75656393  1
  C  C221  1  0.76181513  0.84115931  0.75647492  1
