# generated using pymatgen
data_CuNi2C15
_symmetry_space_group_name_H-M   'P 1'
_cell_length_a   8.54696342
_cell_length_b   8.53623506
_cell_length_c   22.28916531
_cell_angle_alpha   89.88887660
_cell_angle_beta   90.00000000
_cell_angle_gamma   120.04158339
_symmetry_Int_Tables_number   1
_chemical_formula_structural   CuNi2C15
_chemical_formula_sum   'Cu6 Ni12 C90'
_cell_volume   1407.73019678
_cell_formula_units_Z   6
loop_
 _symmetry_equiv_pos_site_id
 _symmetry_equiv_pos_as_xyz
  1  'x, y, z'
loop_
 _atom_site_type_symbol
 _atom_site_label
 _atom_site_symmetry_multiplicity
 _atom_site_fract_x
 _atom_site_fract_y
 _atom_site_fract_z
 _atom_site_occupancy
  C  C0  1  0.99377795  0.99656326  0.50133014  1
  C  C1  1  0.00278531  0.99656326  0.00133014  1
  C  C2  1  0.66044495  0.32989626  0.83466314  1
  C  C3  1  0.66945231  0.32989626  0.33466314  1
  C  C4  1  0.32711095  0.66323026  0.16799714  1
  C  C5  1  0.33611831  0.66323026  0.66799714  1
  C  C6  1  0.00116301  0.00377825  0.35403442  1
  C  C7  1  0.00261525  0.00377825  0.85403442  1
  C  C8  1  0.66783001  0.33711125  0.68736742  1
  C  C9  1  0.66928225  0.33711125  0.18736742  1
  C  C10  1  0.33449601  0.67044525  0.02070142  1
  C  C11  1  0.33594825  0.67044525  0.52070142  1
  C  C12  1  0.99024036  0.00673201  0.64794126  1
  C  C13  1  0.01649165  0.00673201  0.14794126  1
  C  C14  1  0.65690736  0.34006501  0.98127426  1
  C  C15  1  0.68315865  0.34006501  0.48127426  1
  C  C16  1  0.32357336  0.67339901  0.31460826  1
  C  C17  1  0.34982465  0.67339901  0.81460826  1
  Ni  Ni18  1  0.28913198  0.99841745  0.24977833  1
  Ni  Ni19  1  0.00453956  0.29099496  0.24915604  1
  Ni  Ni20  1  0.28645540  0.29099496  0.74915604  1
  Ni  Ni21  1  0.70928547  0.99841745  0.74977833  1
  Ni  Ni22  1  0.95579898  0.33175045  0.58311133  1
  Ni  Ni23  1  0.67120656  0.62432796  0.58248904  1
  Ni  Ni24  1  0.95312240  0.62432796  0.08248904  1
  Ni  Ni25  1  0.37595247  0.33175045  0.08311133  1
  Ni  Ni26  1  0.62246498  0.66508445  0.91644533  1
  Ni  Ni27  1  0.33787256  0.95766196  0.91582304  1
  Ni  Ni28  1  0.61978840  0.95766196  0.41582304  1
  Ni  Ni29  1  0.04261847  0.66508445  0.41644533  1
  Cu  Cu30  1  0.70963796  0.71365635  0.24954884  1
  Cu  Cu31  1  0.00401839  0.71365635  0.74954884  1
  Cu  Cu32  1  0.37630496  0.04698935  0.58288184  1
  Cu  Cu33  1  0.67068539  0.04698935  0.08288184  1
  Cu  Cu34  1  0.04297096  0.38032335  0.91621584  1
  Cu  Cu35  1  0.33735139  0.38032335  0.41621584  1
  C  C36  1  0.20030764  0.03063179  0.30587897  1
  C  C37  1  0.82283047  0.79130571  0.30411692  1
  C  C38  1  0.96828620  0.16927776  0.30588511  1
  C  C39  1  0.20099156  0.16927776  0.80588511  1
  C  C40  1  0.96847524  0.79130571  0.80411692  1
  C  C41  1  0.83032416  0.03063179  0.80587897  1
  C  C42  1  0.78830614  0.96154244  0.69379542  1
  C  C43  1  0.17390659  0.20482303  0.69296812  1
  C  C44  1  0.03418726  0.82173557  0.69494196  1
  C  C45  1  0.78754832  0.82173557  0.19494196  1
  C  C46  1  0.03091644  0.20482303  0.19296812  1
  C  C47  1  0.17323630  0.96154244  0.19379542  1
  C  C48  1  0.86697464  0.36396479  0.63921197  1
  C  C49  1  0.48949747  0.12463871  0.63744992  1
  C  C50  1  0.63495320  0.50261076  0.63921811  1
  C  C51  1  0.86765856  0.50261076  0.13921811  1
  C  C52  1  0.63514224  0.12463871  0.13744992  1
  C  C53  1  0.49699116  0.36396479  0.13921197  1
  C  C54  1  0.45497314  0.29487544  0.02712842  1
  C  C55  1  0.84057359  0.53815603  0.02630112  1
  C  C56  1  0.70085426  0.15506857  0.02827496  1
  C  C57  1  0.45421532  0.15506857  0.52827496  1
  C  C58  1  0.69758344  0.53815603  0.52630112  1
  C  C59  1  0.83990330  0.29487544  0.52712842  1
  C  C60  1  0.53364064  0.69729879  0.97254597  1
  C  C61  1  0.15616347  0.45797271  0.97078392  1
  C  C62  1  0.30161920  0.83594476  0.97255211  1
  C  C63  1  0.53432456  0.83594476  0.47255211  1
  C  C64  1  0.30180824  0.45797271  0.47078392  1
  C  C65  1  0.16365716  0.69729879  0.47254597  1
  C  C66  1  0.12163914  0.62820944  0.36046242  1
  C  C67  1  0.50723959  0.87149003  0.35963512  1
  C  C68  1  0.36752026  0.48840257  0.36160896  1
  C  C69  1  0.12088132  0.48840257  0.86160896  1
  C  C70  1  0.36424944  0.87149003  0.85963512  1
  C  C71  1  0.50656930  0.62820944  0.86046242  1
  C  C72  1  0.02711065  0.83808593  0.40930862  1
  C  C73  1  0.80932510  0.97403530  0.40914584  1
  C  C74  1  0.17034906  0.19796585  0.41110597  1
  C  C75  1  0.02761680  0.19796585  0.91110597  1
  C  C76  1  0.16471020  0.97403530  0.90914584  1
  C  C77  1  0.81097528  0.83808593  0.90930862  1
  C  C78  1  0.98024374  0.16631464  0.58961999  1
  C  C79  1  0.19424584  0.02284592  0.59036636  1
  C  C80  1  0.83937085  0.81129375  0.59107770  1
  C  C81  1  0.97192291  0.81129375  0.09107770  1
  C  C82  1  0.82860008  0.02284592  0.09036636  1
  C  C83  1  0.18607090  0.16631464  0.08961999  1
  C  C84  1  0.69377765  0.17141893  0.74264162  1
  C  C85  1  0.47599210  0.30736830  0.74247884  1
  C  C86  1  0.83701606  0.53129885  0.74443897  1
  C  C87  1  0.69428380  0.53129885  0.24443897  1
  C  C88  1  0.83137720  0.30736830  0.24247884  1
  C  C89  1  0.47764228  0.17141893  0.24264162  1
  C  C90  1  0.64691074  0.49964764  0.92295299  1
  C  C91  1  0.86091284  0.35617892  0.92369936  1
  C  C92  1  0.50603785  0.14462675  0.92441070  1
  C  C93  1  0.63858991  0.14462675  0.42441070  1
  C  C94  1  0.49526708  0.35617892  0.42369936  1
  C  C95  1  0.85273790  0.49964764  0.42295299  1
  C  C96  1  0.36044365  0.50475293  0.07597562  1
  C  C97  1  0.14265810  0.64070230  0.07581284  1
  C  C98  1  0.50368206  0.86463285  0.07777297  1
  C  C99  1  0.36094980  0.86463285  0.57777297  1
  C  C100  1  0.49804320  0.64070230  0.57581284  1
  C  C101  1  0.14430828  0.50475293  0.57597562  1
  C  C102  1  0.31357674  0.83298164  0.25628699  1
  C  C103  1  0.52757884  0.68951292  0.25703336  1
  C  C104  1  0.17270385  0.47796075  0.25774470  1
  C  C105  1  0.30525591  0.47796075  0.75774470  1
  C  C106  1  0.16193308  0.68951292  0.75703336  1
  C  C107  1  0.51940390  0.83298164  0.75628699  1
