# generated using pymatgen
data_Cu9Ni2C5
_symmetry_space_group_name_H-M   'P 1'
_cell_length_a   11.53337300
_cell_length_b   11.62481000
_cell_length_c   11.66331600
_cell_angle_alpha   90.00000000
_cell_angle_beta   90.00000000
_cell_angle_gamma   90.00000000
_symmetry_Int_Tables_number   1
_chemical_formula_structural   Cu9Ni2C5
_chemical_formula_sum   'Cu36 Ni8 C20'
_cell_volume   1563.73891265
_cell_formula_units_Z   4
loop_
 _symmetry_equiv_pos_site_id
 _symmetry_equiv_pos_as_xyz
  1  'x, y, z'
loop_
 _atom_site_type_symbol
 _atom_site_label
 _atom_site_symmetry_multiplicity
 _atom_site_fract_x
 _atom_site_fract_y
 _atom_site_fract_z
 _atom_site_occupancy
  C  C0  1  0.50000000  0.50000000  0.00000000  1
  C  C1  1  0.00000000  0.50000000  0.50000000  1
  C  C2  1  0.50000000  0.00000000  0.50000000  1
  C  C3  1  0.00000000  0.00000000  0.00000000  1
  C  C4  1  0.43695700  0.84688100  0.19548200  1
  C  C5  1  0.06304300  0.15311900  0.69548200  1
  C  C6  1  0.56304300  0.34688100  0.30451800  1
  C  C7  1  0.93695700  0.65311900  0.80451800  1
  C  C8  1  0.56304300  0.15311900  0.80451800  1
  C  C9  1  0.93695700  0.84688100  0.30451800  1
  C  C10  1  0.43695700  0.65311900  0.69548200  1
  C  C11  1  0.06304300  0.34688100  0.19548200  1
  C  C12  1  0.14800900  0.69240500  0.06253500  1
  C  C13  1  0.35199100  0.30759500  0.56253500  1
  C  C14  1  0.85199100  0.19240500  0.43746500  1
  C  C15  1  0.64800900  0.80759500  0.93746500  1
  C  C16  1  0.85199100  0.30759500  0.93746500  1
  C  C17  1  0.64800900  0.69240500  0.43746500  1
  C  C18  1  0.14800900  0.80759500  0.56253500  1
  C  C19  1  0.35199100  0.19240500  0.06253500  1
  Ni  Ni20  1  0.29690800  0.54947500  0.36012700  1
  Ni  Ni21  1  0.20309200  0.45052500  0.86012700  1
  Ni  Ni22  1  0.70309200  0.04947500  0.13987300  1
  Ni  Ni23  1  0.79690800  0.95052500  0.63987300  1
  Ni  Ni24  1  0.70309200  0.45052500  0.63987300  1
  Ni  Ni25  1  0.79690800  0.54947500  0.13987300  1
  Ni  Ni26  1  0.29690800  0.95052500  0.86012700  1
  Ni  Ni27  1  0.20309200  0.04947500  0.36012700  1
  Cu  Cu28  1  0.07116800  0.55554200  0.29315500  1
  Cu  Cu29  1  0.42883200  0.44445800  0.79315500  1
  Cu  Cu30  1  0.92883200  0.05554200  0.20684500  1
  Cu  Cu31  1  0.57116800  0.94445800  0.70684500  1
  Cu  Cu32  1  0.92883200  0.44445800  0.70684500  1
  Cu  Cu33  1  0.57116800  0.55554200  0.20684500  1
  Cu  Cu34  1  0.07116800  0.94445800  0.79315500  1
  Cu  Cu35  1  0.42883200  0.05554200  0.29315500  1
  Cu  Cu36  1  0.44647900  0.79387900  0.44565800  1
  Cu  Cu37  1  0.05352100  0.20612100  0.94565800  1
  Cu  Cu38  1  0.55352100  0.29387900  0.05434200  1
  Cu  Cu39  1  0.94647900  0.70612100  0.55434200  1
  Cu  Cu40  1  0.55352100  0.20612100  0.55434200  1
  Cu  Cu41  1  0.94647900  0.79387900  0.05434200  1
  Cu  Cu42  1  0.44647900  0.70612100  0.94565800  1
  Cu  Cu43  1  0.17459800  0.83679500  0.32758500  1
  Cu  Cu44  1  0.05352100  0.29387900  0.44565800  1
  Cu  Cu45  1  0.28723400  0.05382600  0.55558700  1
  Cu  Cu46  1  0.78723400  0.44617400  0.44441300  1
  Cu  Cu47  1  0.71276600  0.55382600  0.94441300  1
  Cu  Cu48  1  0.78723400  0.05382600  0.94441300  1
  Cu  Cu49  1  0.71276600  0.94617400  0.44441300  1
  Cu  Cu50  1  0.21276600  0.55382600  0.55558700  1
  Cu  Cu51  1  0.28723400  0.44617400  0.05558700  1
  Cu  Cu52  1  0.00000000  0.00000000  0.50000000  1
  Cu  Cu53  1  0.50000000  0.00000000  0.00000000  1
  Cu  Cu54  1  0.00000000  0.50000000  0.00000000  1
  Cu  Cu55  1  0.50000000  0.50000000  0.50000000  1
  Cu  Cu56  1  0.32540200  0.33679500  0.32758500  1
  Cu  Cu57  1  0.17459800  0.66320500  0.82758500  1
  Cu  Cu58  1  0.67459800  0.83679500  0.17241500  1
  Cu  Cu59  1  0.82540200  0.16320500  0.67241500  1
  Cu  Cu60  1  0.67459800  0.66320500  0.67241500  1
  Cu  Cu61  1  0.82540200  0.33679500  0.17241500  1
  Cu  Cu62  1  0.32540200  0.16320500  0.82758500  1
  Cu  Cu63  1  0.21276600  0.94617400  0.05558700  1
