# generated using pymatgen
data_Cu4Ni5C69
_symmetry_space_group_name_H-M   'P 1'
_cell_length_a   17.92682574
_cell_length_b   8.91357339
_cell_length_c   22.63216827
_cell_angle_alpha   89.74578565
_cell_angle_beta   90.37628322
_cell_angle_gamma   119.69836972
_symmetry_Int_Tables_number   1
_chemical_formula_structural   Cu4Ni5C69
_chemical_formula_sum   'Cu12 Ni15 C207'
_cell_volume   3141.33509584
_cell_formula_units_Z   3
loop_
 _symmetry_equiv_pos_site_id
 _symmetry_equiv_pos_as_xyz
  1  'x, y, z'
loop_
 _atom_site_type_symbol
 _atom_site_label
 _atom_site_symmetry_multiplicity
 _atom_site_fract_x
 _atom_site_fract_y
 _atom_site_fract_z
 _atom_site_occupancy
  C  C0  1  0.32129809  0.01950581  0.25278853  1
  C  C1  1  0.67672652  0.34757394  0.25200350  1
  C  C2  1  0.99986369  0.63950663  0.24211690  1
  C  C3  1  0.50025064  0.63135125  0.24123682  1
  C  C4  1  0.31898582  0.62029297  0.75443865  1
  C  C5  1  0.81888963  0.61991188  0.75368815  1
  C  C6  1  0.99913162  0.36881344  0.74089727  1
  C  C7  1  0.49955176  0.36892258  0.74135626  1
  C  C8  1  0.17699408  0.00722624  0.75113372  1
  C  C9  1  0.67761424  0.00762823  0.75052451  1
  C  C10  1  0.33483801  0.97364305  0.57556040  1
  C  C11  1  0.83449365  0.97339393  0.57398228  1
  C  C12  1  0.33493897  0.69629715  0.07537017  1
  C  C13  1  0.83335163  0.69467661  0.07472554  1
  C  C14  1  0.47974026  0.67564555  0.91338470  1
  C  C15  1  0.97991900  0.67593819  0.91284217  1
  C  C16  1  0.48223635  0.28657424  0.41211067  1
  C  C17  1  0.16672269  0.02734666  0.40925878  1
  C  C18  1  0.98961569  0.00433573  0.49579978  1
  C  C19  1  0.49943428  0.99928730  0.49611592  1
  C  C20  1  0.99693285  0.99677267  0.99515764  1
  C  C21  1  0.49647069  0.99604319  0.99642588  1
  C  C22  1  0.32811145  0.34244487  0.83036523  1
  C  C23  1  0.82811470  0.34249951  0.82986967  1
  C  C24  1  0.32992442  0.32513977  0.32609718  1
  C  C25  1  0.82334740  0.29786466  0.33264639  1
  C  C26  1  0.15683645  0.66574447  0.16032716  1
  C  C27  1  0.65522208  0.67300495  0.16307955  1
  C  C28  1  0.15186099  0.63895070  0.66146831  1
  C  C29  1  0.65344001  0.64118206  0.66065280  1
  C  C30  1  0.99583635  0.00089746  0.35295912  1
  C  C31  1  0.50223048  0.00552510  0.35077361  1
  C  C32  1  0.99990195  0.99573674  0.85132574  1
  C  C33  1  0.49984016  0.99567898  0.85153631  1
  C  C34  1  0.33897390  0.34590945  0.68560056  1
  C  C35  1  0.83893238  0.34631028  0.68496286  1
  C  C36  1  0.33674324  0.33247488  0.18637906  1
  C  C37  1  0.83371541  0.32525474  0.18429662  1
  C  C38  1  0.16502211  0.66781179  0.01866688  1
  C  C39  1  0.66424770  0.66644128  0.01872895  1
  C  C40  1  0.16327576  0.65774600  0.51920794  1
  C  C41  1  0.66673991  0.66327872  0.51817485  1
  Ni  Ni42  1  0.14780521  0.00697244  0.25559076  1
  Ni  Ni43  1  0.65087145  0.00782526  0.25300653  1
  Ni  Ni44  1  0.50005559  0.29280934  0.25324639  1
  Ni  Ni45  1  0.14763269  0.29054463  0.75304367  1
  Ni  Ni46  1  0.64784853  0.29115909  0.75331224  1
  Ni  Ni47  1  0.99940835  0.70778422  0.75318187  1
  Ni  Ni48  1  0.49950783  0.70786491  0.75330380  1
  Ni  Ni49  1  0.48545945  0.33882173  0.58701477  1
  Ni  Ni50  1  0.98442698  0.33889100  0.58772369  1
  Ni  Ni51  1  0.48448910  0.63055124  0.08703415  1
  Ni  Ni52  1  0.98373282  0.62463611  0.08728140  1
  Ni  Ni53  1  0.31506893  0.67524686  0.92110229  1
  Ni  Ni54  1  0.81510317  0.67561924  0.92112478  1
  Ni  Ni55  1  0.31627669  0.95623379  0.42218933  1
  Ni  Ni56  1  0.81599991  0.95665301  0.42083017  1
  Cu  Cu57  1  0.00753177  0.01231794  0.65002188  1
  Cu  Cu58  1  0.50934666  0.01435817  0.65019616  1
  Cu  Cu59  1  0.00524692  0.99514398  0.14876622  1
  Cu  Cu60  1  0.50812695  0.00318398  0.15076542  1
  Cu  Cu61  1  0.33306967  0.34551510  0.98392934  1
  Cu  Cu62  1  0.83325799  0.34426585  0.98307566  1
  Cu  Cu63  1  0.33786476  0.33122102  0.48433437  1
  Cu  Cu64  1  0.83560776  0.31828134  0.48206118  1
  Cu  Cu65  1  0.16847441  0.67477188  0.31851361  1
  Cu  Cu66  1  0.66894155  0.68163050  0.31572926  1
  Cu  Cu67  1  0.16546691  0.65527956  0.81739847  1
  Cu  Cu68  1  0.66556866  0.65561672  0.81746145  1
  C  C69  1  0.35180949  0.70528502  0.25124294  1
  C  C70  1  0.85470372  0.70970832  0.25028180  1
  C  C71  1  0.00038728  0.28956287  0.25122835  1
  C  C72  1  0.35378827  0.99960019  0.75065802  1
  C  C73  1  0.85365263  0.99963342  0.75097206  1
  C  C74  1  0.18663476  0.04072960  0.58388819  1
  C  C75  1  0.68679761  0.04083216  0.58450933  1
  C  C76  1  0.33281754  0.62500452  0.58443151  1
  C  C77  1  0.83298229  0.62284767  0.58366819  1
  C  C78  1  0.33272091  0.04239098  0.08438695  1
  C  C79  1  0.83378726  0.04398458  0.08473113  1
  C  C80  1  0.18647065  0.33196426  0.08537739  1
  C  C81  1  0.68630560  0.33260049  0.08423470  1
  C  C82  1  0.01907495  0.36822975  0.91886230  1
  C  C83  1  0.51892029  0.36802889  0.91874005  1
  C  C84  1  0.16891883  0.96202854  0.91842478  1
  C  C85  1  0.66892868  0.96184702  0.91840503  1
  C  C86  1  0.16699218  0.37651020  0.41870006  1
  C  C87  1  0.66930741  0.37628679  0.41826031  1
  C  C88  1  0.01882296  0.66471090  0.41782043  1
  C  C89  1  0.51983617  0.67066459  0.41815264  1
  C  C90  1  0.10119374  0.02031944  0.31368124  1
  C  C91  1  0.60274570  0.03436657  0.30754793  1
  C  C92  1  0.40591865  0.78773707  0.30242348  1
  C  C93  1  0.91008912  0.79479793  0.30055952  1
  C  C94  1  0.48122720  0.17454208  0.31052885  1
  C  C95  1  0.98969301  0.18438215  0.30251148  1
  C  C96  1  0.10116708  0.17035211  0.80827417  1
  C  C97  1  0.60085492  0.17001227  0.80820627  1
  C  C98  1  0.48201789  0.78862294  0.81055322  1
  C  C99  1  0.98235945  0.78899287  0.81051804  1
  C  C100  1  0.40836693  0.02826455  0.80163291  1
  C  C101  1  0.90831700  0.02819379  0.80186268  1
  C  C102  1  0.38788198  0.95978770  0.69556171  1
  C  C103  1  0.88751038  0.95932883  0.69588316  1
  C  C104  1  0.08561743  0.22442981  0.69294636  1
  C  C105  1  0.58553939  0.22659637  0.69317901  1
  C  C106  1  0.02195466  0.83240520  0.69259270  1
  C  C107  1  0.52128534  0.83147759  0.69255725  1
  C  C108  1  0.38524947  0.81485582  0.19600425  1
  C  C109  1  0.88874956  0.81606497  0.19417164  1
  C  C110  1  0.01471379  0.21582666  0.19509142  1
  C  C111  1  0.52088540  0.21089208  0.19270901  1
  C  C112  1  0.08296263  0.95091050  0.19649005  1
  C  C113  1  0.58797695  0.95077070  0.19244491  1
  C  C114  1  0.43494065  0.34857737  0.64358197  1
  C  C115  1  0.93706124  0.34986249  0.64594314  1
  C  C116  1  0.23962466  0.12568831  0.63597724  1
  C  C117  1  0.73806226  0.12247827  0.63776106  1
  C  C118  1  0.32142037  0.52022957  0.63671443  1
  C  C119  1  0.82198147  0.52098842  0.63697678  1
  C  C120  1  0.43432626  0.52044707  0.14382927  1
  C  C121  1  0.93548592  0.51699416  0.14539245  1
  C  C122  1  0.32143908  0.12299389  0.13669443  1
  C  C123  1  0.82244608  0.12630904  0.13580067  1
  C  C124  1  0.24000204  0.35281366  0.13647276  1
  C  C125  1  0.73900690  0.35518423  0.13682593  1
  C  C126  1  0.22001655  0.29120257  0.03011876  1
  C  C127  1  0.72370776  0.29550170  0.03025587  1
  C  C128  1  0.42136705  0.55283318  0.02545974  1
  C  C129  1  0.92058512  0.54779090  0.02647632  1
  C  C130  1  0.34536771  0.14818701  0.02895658  1
  C  C131  1  0.84769970  0.14747340  0.02870298  1
  C  C132  1  0.22370451  0.14959162  0.52832927  1
  C  C133  1  0.72399903  0.15224965  0.53070937  1
  C  C134  1  0.34603417  0.54576320  0.52899250  1
  C  C135  1  0.84562162  0.54165627  0.52925011  1
  C  C136  1  0.42221277  0.28847150  0.52544035  1
  C  C137  1  0.91883862  0.28818692  0.52888120  1
  C  C138  1  0.26693645  0.68617287  0.97871720  1
  C  C139  1  0.76711352  0.68678117  0.97879723  1
  C  C140  1  0.07285065  0.45757749  0.96934923  1
  C  C141  1  0.57293833  0.45737758  0.96911003  1
  C  C142  1  0.15526368  0.84723409  0.96816500  1
  C  C143  1  0.65566216  0.84760172  0.96816981  1
  C  C144  1  0.26532490  0.84635414  0.47863543  1
  C  C145  1  0.77063049  0.85153306  0.48009872  1
  C  C146  1  0.15590722  0.46086548  0.46892167  1
  C  C147  1  0.65501344  0.46293445  0.46783687  1
  C  C148  1  0.07508415  0.68818053  0.46754176  1
  C  C149  1  0.57237632  0.68724337  0.46962093  1
  C  C150  1  0.05277112  0.62552613  0.36115339  1
  C  C151  1  0.55236711  0.62428110  0.36310956  1
  C  C152  1  0.25502920  0.88360674  0.36014514  1
  C  C153  1  0.75495625  0.87433274  0.36039214  1
  C  C154  1  0.18166819  0.47916836  0.36176068  1
  C  C155  1  0.68258506  0.47569487  0.36115041  1
  C  C156  1  0.05171910  0.48009916  0.86292124  1
  C  C157  1  0.55171770  0.48012421  0.86274725  1
  C  C158  1  0.18316980  0.88999935  0.86148935  1
  C  C159  1  0.68331831  0.89025369  0.86146039  1
  C  C160  1  0.25839936  0.63946948  0.85790093  1
  C  C161  1  0.75834072  0.63950929  0.85806995  1
  C  C162  1  0.01419851  0.82396574  0.41022649  1
  C  C163  1  0.50954812  0.82070795  0.41007719  1
  C  C164  1  0.41247700  0.98948462  0.41492992  1
  C  C165  1  0.91075105  0.98213083  0.41123283  1
  C  C166  1  0.09335838  0.20106776  0.41161787  1
  C  C167  1  0.59316257  0.20346198  0.41287988  1
  C  C168  1  0.01051462  0.19897689  0.91051150  1
  C  C169  1  0.51049713  0.19888807  0.91031456  1
  C  C170  1  0.09276458  0.98233008  0.91260135  1
  C  C171  1  0.59295509  0.98251184  0.91257703  1
  C  C172  1  0.41192398  0.83614977  0.91443683  1
  C  C173  1  0.91206852  0.83650444  0.91456499  1
  C  C174  1  0.48296322  0.14291914  0.58779291  1
  C  C175  1  0.98320480  0.14358483  0.58787481  1
  C  C176  1  0.09912205  0.02092011  0.58573039  1
  C  C177  1  0.59844972  0.01984154  0.58621669  1
  C  C178  1  0.41187874  0.80028302  0.58814968  1
  C  C179  1  0.91209735  0.79985468  0.58770618  1
  C  C180  1  0.48287251  0.82303785  0.08795353  1
  C  C181  1  0.98235478  0.81755310  0.08689903  1
  C  C182  1  0.41188112  0.02415663  0.08797998  1
  C  C183  1  0.91453275  0.02743948  0.08975067  1
  C  C184  1  0.09683150  0.17842223  0.08910245  1
  C  C185  1  0.59873613  0.17802859  0.08630437  1
  C  C186  1  0.34150337  0.15058151  0.74285155  1
  C  C187  1  0.84130416  0.15050617  0.74325089  1
  C  C188  1  0.24180367  0.30949472  0.74269248  1
  C  C189  1  0.74179464  0.30966433  0.74289755  1
  C  C190  1  0.41893579  0.51478203  0.74549965  1
  C  C191  1  0.91867943  0.51500810  0.74564093  1
  C  C192  1  0.34199389  0.53343410  0.24347909  1
  C  C193  1  0.84706288  0.53726575  0.24354157  1
  C  C194  1  0.41944391  0.32528272  0.24531971  1
  C  C195  1  0.92658080  0.31811849  0.24455979  1
  C  C196  1  0.24331686  0.16292783  0.24418639  1
  C  C197  1  0.74301088  0.18181050  0.24299979  1
  C  C198  1  0.32436499  0.49140726  0.91972478  1
  C  C199  1  0.82490117  0.49233186  0.91963728  1
  C  C200  1  0.43095907  0.35362164  0.92314278  1
  C  C201  1  0.93102644  0.35374093  0.92315131  1
  C  C202  1  0.24926755  0.13496057  0.92452824  1
  C  C203  1  0.74948490  0.13507908  0.92445523  1
  C  C204  1  0.31942266  0.15491492  0.42124298  1
  C  C205  1  0.82060015  0.15319120  0.41905207  1
  C  C206  1  0.24731569  0.35895610  0.42348122  1
  C  C207  1  0.74978330  0.36449366  0.42478109  1
  C  C208  1  0.43086142  0.50736152  0.42262352  1
  C  C209  1  0.93068723  0.51256563  0.42248007  1
  C  C210  1  0.18054177  0.49004355  0.07778848  1
  C  C211  1  0.68103505  0.49114423  0.07684215  1
  C  C212  1  0.07777189  0.65059919  0.07730448  1
  C  C213  1  0.57804964  0.65386445  0.07661823  1
  C  C214  1  0.25805364  0.86693298  0.07793419  1
  C  C215  1  0.76037094  0.86782379  0.07821502  1
  C  C216  1  0.18145599  0.87172063  0.57719955  1
  C  C217  1  0.68092883  0.87101108  0.57777618  1
  C  C218  1  0.25813935  0.65027955  0.57763129  1
  C  C219  1  0.75821511  0.64908078  0.57777061  1
  C  C220  1  0.07776810  0.50263287  0.57736301  1
  C  C221  1  0.57824154  0.50315610  0.57642102  1
  C  C222  1  0.15287559  0.81672964  0.25529284  1
  C  C223  1  0.65417270  0.82356197  0.25384209  1
  C  C224  1  0.26349871  0.68998826  0.25640600  1
  C  C225  1  0.76576433  0.68243415  0.25474811  1
  C  C226  1  0.08049808  0.46847317  0.25630406  1
  C  C227  1  0.59235615  0.48418362  0.25879214  1
  C  C228  1  0.15882189  0.48967057  0.75457807  1
  C  C229  1  0.65882532  0.48999395  0.75475418  1
  C  C230  1  0.09184922  0.69947694  0.75839931  1
  C  C231  1  0.59181096  0.69957914  0.75843496  1
  C  C232  1  0.26567629  0.84257850  0.75581550  1
  C  C233  1  0.76554025  0.84246035  0.75612663  1
