# generated using pymatgen
data_Cu3(NiC2)2
_symmetry_space_group_name_H-M   'P 1'
_cell_length_a   12.66163100
_cell_length_b   12.66163100
_cell_length_c   12.66163100
_cell_angle_alpha   90.00000000
_cell_angle_beta   90.00000000
_cell_angle_gamma   90.00000000
_symmetry_Int_Tables_number   1
_chemical_formula_structural   Cu3(NiC2)2
_chemical_formula_sum   'Cu24 Ni16 C32'
_cell_volume   2029.87342555
_cell_formula_units_Z   8
loop_
 _symmetry_equiv_pos_site_id
 _symmetry_equiv_pos_as_xyz
  1  'x, y, z'
loop_
 _atom_site_type_symbol
 _atom_site_label
 _atom_site_symmetry_multiplicity
 _atom_site_fract_x
 _atom_site_fract_y
 _atom_site_fract_z
 _atom_site_occupancy
  C  C0  1  0.03612400  0.99550200  0.25450700  1
  C  C1  1  0.25450700  0.03612400  0.99550200  1
  C  C2  1  0.99550200  0.25450700  0.03612400  1
  C  C3  1  0.50449800  0.74549300  0.53612400  1
  C  C4  1  0.75450700  0.46387600  0.00449800  1
  C  C5  1  0.00449800  0.75450700  0.46387600  1
  C  C6  1  0.24549300  0.96387600  0.49550200  1
  C  C7  1  0.74549300  0.53612400  0.50449800  1
  C  C8  1  0.49550200  0.24549300  0.96387600  1
  C  C9  1  0.53612400  0.50449800  0.74549300  1
  C  C10  1  0.96387600  0.49550200  0.24549300  1
  C  C11  1  0.46387600  0.00449800  0.75450700  1
  C  C12  1  0.96387600  0.00449800  0.74549300  1
  C  C13  1  0.74549300  0.96387600  0.00449800  1
  C  C14  1  0.00449800  0.74549300  0.96387600  1
  C  C15  1  0.49550200  0.25450700  0.46387600  1
  C  C16  1  0.24549300  0.53612400  0.99550200  1
  C  C17  1  0.99550200  0.24549300  0.53612400  1
  C  C18  1  0.75450700  0.03612400  0.50449800  1
  C  C19  1  0.25450700  0.46387600  0.49550200  1
  C  C20  1  0.50449800  0.75450700  0.03612400  1
  C  C21  1  0.46387600  0.49550200  0.25450700  1
  C  C22  1  0.03612400  0.50449800  0.75450700  1
  C  C23  1  0.53612400  0.99550200  0.24549300  1
  C  C24  1  0.22349400  0.22349400  0.22349400  1
  C  C25  1  0.27650600  0.77650600  0.72349400  1
  C  C26  1  0.72349400  0.27650600  0.77650600  1
  C  C27  1  0.77650600  0.72349400  0.27650600  1
  C  C28  1  0.77650600  0.77650600  0.77650600  1
  C  C29  1  0.72349400  0.22349400  0.27650600  1
  C  C30  1  0.27650600  0.72349400  0.22349400  1
  C  C31  1  0.22349400  0.27650600  0.72349400  1
  Ni  Ni32  1  0.10933100  0.10933100  0.10933100  1
  Ni  Ni33  1  0.39066900  0.89066900  0.60933100  1
  Ni  Ni34  1  0.60933100  0.39066900  0.89066900  1
  Ni  Ni35  1  0.89066900  0.60933100  0.39066900  1
  Ni  Ni36  1  0.89066900  0.89066900  0.89066900  1
  Ni  Ni37  1  0.60933100  0.10933100  0.39066900  1
  Ni  Ni38  1  0.39066900  0.60933100  0.10933100  1
  Ni  Ni39  1  0.10933100  0.39066900  0.60933100  1
  Ni  Ni40  1  0.44978500  0.44978500  0.44978500  1
  Ni  Ni41  1  0.05021500  0.55021500  0.94978500  1
  Ni  Ni42  1  0.94978500  0.05021500  0.55021500  1
  Ni  Ni43  1  0.55021500  0.94978500  0.05021500  1
  Ni  Ni44  1  0.55021500  0.55021500  0.55021500  1
  Ni  Ni45  1  0.94978500  0.44978500  0.05021500  1
  Ni  Ni46  1  0.05021500  0.94978500  0.44978500  1
  Ni  Ni47  1  0.44978500  0.05021500  0.94978500  1
  Cu  Cu48  1  0.18388900  0.43426900  0.26908600  1
  Cu  Cu49  1  0.26908600  0.18388900  0.43426900  1
  Cu  Cu50  1  0.43426900  0.26908600  0.18388900  1
  Cu  Cu51  1  0.06573100  0.73091400  0.68388900  1
  Cu  Cu52  1  0.76908600  0.31611100  0.56573100  1
  Cu  Cu53  1  0.56573100  0.76908600  0.31611100  1
  Cu  Cu54  1  0.23091400  0.81611100  0.93426900  1
  Cu  Cu55  1  0.73091400  0.68388900  0.06573100  1
  Cu  Cu56  1  0.93426900  0.23091400  0.81611100  1
  Cu  Cu57  1  0.68388900  0.06573100  0.73091400  1
  Cu  Cu58  1  0.81611100  0.93426900  0.23091400  1
  Cu  Cu59  1  0.31611100  0.56573100  0.76908600  1
  Cu  Cu60  1  0.81611100  0.56573100  0.73091400  1
  Cu  Cu61  1  0.73091400  0.81611100  0.56573100  1
  Cu  Cu62  1  0.56573100  0.73091400  0.81611100  1
  Cu  Cu63  1  0.93426900  0.26908600  0.31611100  1
  Cu  Cu64  1  0.23091400  0.68388900  0.43426900  1
  Cu  Cu65  1  0.43426900  0.23091400  0.68388900  1
  Cu  Cu66  1  0.76908600  0.18388900  0.06573100  1
  Cu  Cu67  1  0.26908600  0.31611100  0.93426900  1
  Cu  Cu68  1  0.06573100  0.76908600  0.18388900  1
  Cu  Cu69  1  0.31611100  0.93426900  0.26908600  1
  Cu  Cu70  1  0.18388900  0.06573100  0.76908600  1
  Cu  Cu71  1  0.68388900  0.43426900  0.23091400  1
