# generated using pymatgen
data_CuNiC8
_symmetry_space_group_name_H-M   'P 1'
_cell_length_a   5.24389300
_cell_length_b   5.24389277
_cell_length_c   6.49819900
_cell_angle_alpha   90.00000000
_cell_angle_beta   90.00000000
_cell_angle_gamma   120.00000775
_symmetry_Int_Tables_number   1
_chemical_formula_structural   CuNiC8
_chemical_formula_sum   'Cu1 Ni1 C8'
_cell_volume   154.75020349
_cell_formula_units_Z   1
loop_
 _symmetry_equiv_pos_site_id
 _symmetry_equiv_pos_as_xyz
  1  'x, y, z'
loop_
 _atom_site_type_symbol
 _atom_site_label
 _atom_site_symmetry_multiplicity
 _atom_site_fract_x
 _atom_site_fract_y
 _atom_site_fract_z
 _atom_site_occupancy
  C  C0  1  0.00000000  0.00000000  0.99997400  1
  Ni  Ni1  1  0.00000000  0.00000000  0.50002300  1
  Cu  Cu2  1  0.33333300  0.66666700  0.50001800  1
  C  C3  1  0.66666700  0.33333300  0.50011500  1
  C  C4  1  0.36008400  0.02746700  0.66118300  1
  C  C5  1  0.97253300  0.33261700  0.66118300  1
  C  C6  1  0.66738300  0.63991600  0.66118300  1
  C  C7  1  0.97255600  0.63995600  0.33877400  1
  C  C8  1  0.66740000  0.02744400  0.33877400  1
  C  C9  1  0.36004400  0.33260000  0.33877400  1
