# generated using pymatgen
data_CuNiC
_symmetry_space_group_name_H-M   'P 1'
_cell_length_a   3.76930400
_cell_length_b   6.41660400
_cell_length_c   7.35051500
_cell_angle_alpha   90.00000000
_cell_angle_beta   90.00000000
_cell_angle_gamma   90.00000000
_symmetry_Int_Tables_number   1
_chemical_formula_structural   CuNiC
_chemical_formula_sum   'Cu4 Ni4 C4'
_cell_volume   177.78051962
_cell_formula_units_Z   4
loop_
 _symmetry_equiv_pos_site_id
 _symmetry_equiv_pos_as_xyz
  1  'x, y, z'
loop_
 _atom_site_type_symbol
 _atom_site_label
 _atom_site_symmetry_multiplicity
 _atom_site_fract_x
 _atom_site_fract_y
 _atom_site_fract_z
 _atom_site_occupancy
  Ni  Ni0  1  0.25000000  0.52573000  0.67302900  1
  Ni  Ni1  1  0.75000000  0.47427000  0.32697100  1
  Ni  Ni2  1  0.25000000  0.02573000  0.82697100  1
  Ni  Ni3  1  0.75000000  0.97427000  0.17302900  1
  C  C4  1  0.25000000  0.26708300  0.12463100  1
  C  C5  1  0.75000000  0.73291700  0.87536900  1
  C  C6  1  0.25000000  0.76708300  0.37536900  1
  C  C7  1  0.75000000  0.23291700  0.62463100  1
  Cu  Cu8  1  0.75000000  0.85500300  0.56371600  1
  Cu  Cu9  1  0.25000000  0.14499700  0.43628400  1
  Cu  Cu10  1  0.75000000  0.35500300  0.93628400  1
  Cu  Cu11  1  0.25000000  0.64499700  0.06371600  1
