# generated using pymatgen
data_CuNi11C7
_symmetry_space_group_name_H-M   'P 1'
_cell_length_a   4.85946056
_cell_length_b   7.45549383
_cell_length_c   5.51926505
_cell_angle_alpha   95.12245838
_cell_angle_beta   91.52087611
_cell_angle_gamma   88.62284776
_symmetry_Int_Tables_number   1
_chemical_formula_structural   CuNi11C7
_chemical_formula_sum   'Cu1 Ni11 C7'
_cell_volume   199.04528699
_cell_formula_units_Z   1
loop_
 _symmetry_equiv_pos_site_id
 _symmetry_equiv_pos_as_xyz
  1  'x, y, z'
loop_
 _atom_site_type_symbol
 _atom_site_label
 _atom_site_symmetry_multiplicity
 _atom_site_fract_x
 _atom_site_fract_y
 _atom_site_fract_z
 _atom_site_occupancy
  C  C0  1  0.00314600  0.83822300  0.33570300  1
  C  C1  1  0.52907100  0.65653700  0.15735000  1
  C  C2  1  0.49308800  0.00904700  0.48817200  1
  C  C3  1  0.49373900  0.32852900  0.83219800  1
  C  C4  1  0.98723200  0.63686100  0.72332800  1
  C  C5  1  0.98950400  0.31773600  0.33026400  1
  C  C6  1  0.00195100  0.02176900  0.93982600  1
  Ni  Ni7  1  0.81113200  0.41264100  0.62435400  1
  Ni  Ni8  1  0.84161500  0.76998400  0.00279900  1
  Ni  Ni9  1  0.83185000  0.09278600  0.28893100  1
  Ni  Ni10  1  0.66298200  0.09618600  0.78379300  1
  Ni  Ni11  1  0.67159000  0.75464700  0.47743000  1
  Ni  Ni12  1  0.70933400  0.42177900  0.13523000  1
  Ni  Ni13  1  0.33023700  0.56170700  0.87330600  1
  Ni  Ni14  1  0.28750900  0.23593700  0.52091200  1
  Ni  Ni15  1  0.34030000  0.89948900  0.18484100  1
  Ni  Ni16  1  0.18608500  0.24118400  0.03479100  1
  Ni  Ni17  1  0.16532100  0.88618600  0.66582300  1
  Cu  Cu18  1  0.16431600  0.56877300  0.36285400  1
