# generated using pymatgen
data_Cu2(NiC3)3
_symmetry_space_group_name_H-M   'P 1'
_cell_length_a   6.19905636
_cell_length_b   6.23463262
_cell_length_c   6.24541243
_cell_angle_alpha   87.18182780
_cell_angle_beta   86.99269787
_cell_angle_gamma   86.71637259
_symmetry_Int_Tables_number   1
_chemical_formula_structural   Cu2(NiC3)3
_chemical_formula_sum   'Cu2 Ni3 C9'
_cell_volume   240.39169389
_cell_formula_units_Z   1
loop_
 _symmetry_equiv_pos_site_id
 _symmetry_equiv_pos_as_xyz
  1  'x, y, z'
loop_
 _atom_site_type_symbol
 _atom_site_label
 _atom_site_symmetry_multiplicity
 _atom_site_fract_x
 _atom_site_fract_y
 _atom_site_fract_z
 _atom_site_occupancy
  C  C0  1  0.84192700  0.84260300  0.83903400  1
  Ni  Ni1  1  0.32487100  0.54559600  0.02713700  1
  Ni  Ni2  1  0.54157400  0.02223400  0.33123800  1
  Ni  Ni3  1  0.02629600  0.32144000  0.54284000  1
  Cu  Cu4  1  0.05638300  0.05876100  0.05477900  1
  Cu  Cu5  1  0.52648000  0.52536700  0.52834200  1
  C  C6  1  0.18597500  0.87347700  0.88176700  1
  C  C7  1  0.20691800  0.21025400  0.20711000  1
  C  C8  1  0.32132500  0.42064700  0.69416700  1
  C  C9  1  0.41772100  0.69077700  0.32533300  1
  C  C10  1  0.69030000  0.31898500  0.41993500  1
  C  C11  1  0.68086000  0.67568900  0.67523800  1
  C  C12  1  0.88171000  0.18315900  0.86832400  1
  C  C13  1  0.87057700  0.88392900  0.17767700  1
