# generated using pymatgen
data_CuNiC17
_symmetry_space_group_name_H-M   'P 1'
_cell_length_a   6.87906889
_cell_length_b   6.85860739
_cell_length_c   5.77617980
_cell_angle_alpha   74.57951117
_cell_angle_beta   107.78370360
_cell_angle_gamma   100.35212931
_symmetry_Int_Tables_number   1
_chemical_formula_structural   CuNiC17
_chemical_formula_sum   'Cu1 Ni1 C17'
_cell_volume   248.71675955
_cell_formula_units_Z   1
loop_
 _symmetry_equiv_pos_site_id
 _symmetry_equiv_pos_as_xyz
  1  'x, y, z'
loop_
 _atom_site_type_symbol
 _atom_site_label
 _atom_site_symmetry_multiplicity
 _atom_site_fract_x
 _atom_site_fract_y
 _atom_site_fract_z
 _atom_site_occupancy
  C  C0  1  0.70509200  0.73853200  0.69508600  1
  C  C1  1  0.15690500  0.59280700  0.70743700  1
  C  C2  1  0.36881900  0.78571000  0.24307100  1
  C  C3  1  0.61676300  0.20090200  0.74757500  1
  C  C4  1  0.81872200  0.39387400  0.25296600  1
  Ni  Ni5  1  0.92460200  0.92326500  0.25117600  1
  Cu  Cu6  1  0.07319000  0.07311400  0.75558600  1
  C  C7  1  0.99957800  0.80281100  0.66439200  1
  C  C8  1  0.06847400  0.34411200  0.79345300  1
  C  C9  1  0.20092100  0.96976600  0.14027700  1
  C  C10  1  0.38918400  0.66393200  0.57096100  1
  C  C11  1  0.36762800  0.12666500  0.72834200  1
  C  C12  1  0.32300800  0.63402200  0.03438100  1
  C  C13  1  0.70796100  0.43440200  0.91983900  1
  C  C14  1  0.62766200  0.88015300  0.30245700  1
  C  C15  1  0.63955500  0.34978100  0.42456800  1
  C  C16  1  0.78123700  0.99322900  0.84366100  1
  C  C17  1  0.97962700  0.61211100  0.31711500  1
  C  C18  1  0.96403600  0.19377600  0.35765700  1
