# generated using pymatgen
data_Cu(NiC4)4
_symmetry_space_group_name_H-M   'P 1'
_cell_length_a   9.34853905
_cell_length_b   9.34853871
_cell_length_c   22.57341506
_cell_angle_alpha   90.00000000
_cell_angle_beta   90.00000000
_cell_angle_gamma   120.00000124
_symmetry_Int_Tables_number   1
_chemical_formula_structural   Cu(NiC4)4
_chemical_formula_sum   'Cu6 Ni24 C96'
_cell_volume   1708.50152391
_cell_formula_units_Z   6
loop_
 _symmetry_equiv_pos_site_id
 _symmetry_equiv_pos_as_xyz
  1  'x, y, z'
loop_
 _atom_site_type_symbol
 _atom_site_label
 _atom_site_symmetry_multiplicity
 _atom_site_fract_x
 _atom_site_fract_y
 _atom_site_fract_z
 _atom_site_occupancy
  Ni  Ni0  1  0.64173229  0.01408105  0.24694478  1
  Ni  Ni1  1  0.37234876  0.35826771  0.24694478  1
  Ni  Ni2  1  0.98591895  0.62765124  0.24694478  1
  Ni  Ni3  1  0.64173229  0.62765124  0.74694478  1
  Ni  Ni4  1  0.98591895  0.35826771  0.74694478  1
  Ni  Ni5  1  0.37234876  0.01408105  0.74694478  1
  Ni  Ni6  1  0.30839929  0.34741405  0.58027778  1
  Ni  Ni7  1  0.03901576  0.69160071  0.58027778  1
  Ni  Ni8  1  0.65258595  0.96098424  0.58027778  1
  Ni  Ni9  1  0.30839929  0.96098424  0.08027778  1
  Ni  Ni10  1  0.65258595  0.69160071  0.08027778  1
  Ni  Ni11  1  0.03901576  0.34741405  0.08027778  1
  Ni  Ni12  1  0.97506529  0.68074805  0.91361178  1
  Ni  Ni13  1  0.70568176  0.02493471  0.91361178  1
  Ni  Ni14  1  0.31925195  0.29431824  0.91361178  1
  Ni  Ni15  1  0.97506529  0.29431824  0.41361178  1
  Ni  Ni16  1  0.31925195  0.02493471  0.41361178  1
  Ni  Ni17  1  0.70568176  0.68074805  0.41361178  1
  Ni  Ni18  1  0.00000000  -0.00000000  0.49567254  1
  Ni  Ni19  1  0.00000000  -0.00000000  0.99567254  1
  Ni  Ni20  1  0.66666700  0.33333300  0.82900554  1
  Ni  Ni21  1  0.66666700  0.33333300  0.32900554  1
  Ni  Ni22  1  0.33333300  0.66666700  0.16233954  1
  Ni  Ni23  1  0.33333300  0.66666700  0.66233954  1
  Cu  Cu24  1  0.00000000  -0.00000000  0.34906071  1
  Cu  Cu25  1  0.00000000  -0.00000000  0.84906071  1
  Cu  Cu26  1  0.66666700  0.33333300  0.68239371  1
  Cu  Cu27  1  0.66666700  0.33333300  0.18239371  1
  Cu  Cu28  1  0.33333300  0.66666700  0.01572771  1
  Cu  Cu29  1  0.33333300  0.66666700  0.51572771  1
  C  C30  1  0.00000000  -0.00000000  0.64729450  1
  C  C31  1  0.00000000  -0.00000000  0.14729450  1
  C  C32  1  0.66666700  0.33333300  0.98062750  1
  C  C33  1  0.66666700  0.33333300  0.48062750  1
  C  C34  1  0.33333300  0.66666700  0.31396150  1
  C  C35  1  0.33333300  0.66666700  0.81396150  1
  C  C36  1  0.29329285  0.99048130  0.25091342  1
  C  C37  1  0.69718845  0.70670715  0.25091342  1
  C  C38  1  0.00951870  0.30281155  0.25091342  1
  C  C39  1  0.29329285  0.30281155  0.75091342  1
  C  C40  1  0.00951870  0.70670715  0.75091342  1
  C  C41  1  0.69718845  0.99048130  0.75091342  1
  C  C42  1  0.95995985  0.32381430  0.58424642  1
  C  C43  1  0.36385545  0.04004015  0.58424642  1
  C  C44  1  0.67618570  0.63614455  0.58424642  1
  C  C45  1  0.95995985  0.63614455  0.08424642  1
  C  C46  1  0.67618570  0.04004015  0.08424642  1
  C  C47  1  0.36385545  0.32381430  0.08424642  1
  C  C48  1  0.62662585  0.65714830  0.91758042  1
  C  C49  1  0.03052145  0.37337415  0.91758042  1
  C  C50  1  0.34285170  0.96947855  0.91758042  1
  C  C51  1  0.62662585  0.96947855  0.41758042  1
  C  C52  1  0.34285170  0.37337415  0.41758042  1
  C  C53  1  0.03052145  0.65714830  0.41758042  1
  C  C54  1  0.22086176  0.02276461  0.31043862  1
  C  C55  1  0.80190285  0.77913824  0.31043862  1
  C  C56  1  0.97723539  0.19809715  0.31043862  1
  C  C57  1  0.22086176  0.19809715  0.81043862  1
  C  C58  1  0.97723539  0.77913824  0.81043862  1
  C  C59  1  0.80190285  0.02276461  0.81043862  1
  C  C60  1  0.80490823  0.96938822  0.69372000  1
  C  C61  1  0.16447999  0.19509177  0.69372000  1
  C  C62  1  0.03061178  0.83552001  0.69372000  1
  C  C63  1  0.80490823  0.83552001  0.19372000  1
  C  C64  1  0.03061178  0.19509177  0.19372000  1
  C  C65  1  0.16447999  0.96938822  0.19372000  1
  C  C66  1  0.88752876  0.35609761  0.64377162  1
  C  C67  1  0.46856985  0.11247124  0.64377162  1
  C  C68  1  0.64390239  0.53143015  0.64377162  1
  C  C69  1  0.88752876  0.53143015  0.14377162  1
  C  C70  1  0.64390239  0.11247124  0.14377162  1
  C  C71  1  0.46856985  0.35609761  0.14377162  1
  C  C72  1  0.47157523  0.30272122  0.02705300  1
  C  C73  1  0.83114699  0.52842477  0.02705300  1
  C  C74  1  0.69727878  0.16885301  0.02705300  1
  C  C75  1  0.47157523  0.16885301  0.52705300  1
  C  C76  1  0.69727878  0.52842477  0.52705300  1
  C  C77  1  0.83114699  0.30272122  0.52705300  1
  C  C78  1  0.55419476  0.68943161  0.97710562  1
  C  C79  1  0.13523585  0.44580524  0.97710562  1
  C  C80  1  0.31056839  0.86476415  0.97710562  1
  C  C81  1  0.55419476  0.86476415  0.47710562  1
  C  C82  1  0.31056839  0.44580524  0.47710562  1
  C  C83  1  0.13523585  0.68943161  0.47710562  1
  C  C84  1  0.13824123  0.63605522  0.36038700  1
  C  C85  1  0.49781299  0.86175877  0.36038700  1
  C  C86  1  0.36394478  0.50218701  0.36038700  1
  C  C87  1  0.13824123  0.50218701  0.86038700  1
  C  C88  1  0.36394478  0.86175877  0.86038700  1
  C  C89  1  0.49781299  0.63605522  0.86038700  1
  C  C90  1  0.99733356  0.81093443  0.41229231  1
  C  C91  1  0.81360088  0.00266644  0.41229231  1
  C  C92  1  0.18906557  0.18639912  0.41229231  1
  C  C93  1  0.99733356  0.18639912  0.91229231  1
  C  C94  1  0.18906557  0.00266644  0.91229231  1
  C  C95  1  0.81360088  0.81093443  0.91229231  1
  C  C96  1  0.96040714  0.14513727  0.58834829  1
  C  C97  1  0.18473013  0.03959286  0.58834829  1
  C  C98  1  0.85486273  0.81526987  0.58834829  1
  C  C99  1  0.96040714  0.81526987  0.08834829  1
  C  C100  1  0.85486273  0.03959286  0.08834829  1
  C  C101  1  0.18473013  0.14513727  0.08834829  1
  C  C102  1  0.66400056  0.14426743  0.74562531  1
  C  C103  1  0.48026788  0.33599944  0.74562531  1
  C  C104  1  0.85573257  0.51973212  0.74562531  1
  C  C105  1  0.66400056  0.51973212  0.24562531  1
  C  C106  1  0.85573257  0.33599944  0.24562531  1
  C  C107  1  0.48026788  0.14426743  0.24562531  1
  C  C108  1  0.62707414  0.47847027  0.92168129  1
  C  C109  1  0.85139713  0.37292586  0.92168129  1
  C  C110  1  0.52152973  0.14860287  0.92168129  1
  C  C111  1  0.62707414  0.14860287  0.42168129  1
  C  C112  1  0.52152973  0.37292586  0.42168129  1
  C  C113  1  0.85139713  0.47847027  0.42168129  1
  C  C114  1  0.33066656  0.47760143  0.07895931  1
  C  C115  1  0.14693388  0.66933344  0.07895931  1
  C  C116  1  0.52239857  0.85306612  0.07895931  1
  C  C117  1  0.33066656  0.85306612  0.57895931  1
  C  C118  1  0.52239857  0.66933344  0.57895931  1
  C  C119  1  0.14693388  0.47760143  0.57895931  1
  C  C120  1  0.29374014  0.81180427  0.25501529  1
  C  C121  1  0.51806313  0.70625986  0.25501529  1
  C  C122  1  0.18819573  0.48193687  0.25501529  1
  C  C123  1  0.29374014  0.48193687  0.75501529  1
  C  C124  1  0.18819573  0.70625986  0.75501529  1
  C  C125  1  0.51806313  0.81180427  0.75501529  1
