# generated using pymatgen
data_CuNi2C17
_symmetry_space_group_name_H-M   'P 1'
_cell_length_a   8.97379639
_cell_length_b   8.97379608
_cell_length_c   22.19893834
_cell_angle_alpha   90.19572772
_cell_angle_beta   89.80427227
_cell_angle_gamma   120.24080641
_symmetry_Int_Tables_number   1
_chemical_formula_structural   CuNi2C17
_chemical_formula_sum   'Cu6 Ni12 C102'
_cell_volume   1544.37557625
_cell_formula_units_Z   6
loop_
 _symmetry_equiv_pos_site_id
 _symmetry_equiv_pos_as_xyz
  1  'x, y, z'
loop_
 _atom_site_type_symbol
 _atom_site_label
 _atom_site_symmetry_multiplicity
 _atom_site_fract_x
 _atom_site_fract_y
 _atom_site_fract_z
 _atom_site_occupancy
  C  C0  1  0.36180490  0.35150308  0.24881613  1
  C  C1  1  0.64849692  0.63819510  0.74881613  1
  C  C2  1  0.03187612  0.70043664  0.58598049  1
  C  C3  1  0.66598993  0.96745209  0.58553741  1
  C  C4  1  0.29956336  0.96812388  0.08598049  1
  C  C5  1  0.03254791  0.33401007  0.08553741  1
  C  C6  1  0.96327256  0.66980453  0.91321038  1
  C  C7  1  0.70443799  0.03336293  0.91289907  1
  C  C8  1  0.33012460  0.29441791  0.91186590  1
  C  C9  1  0.96663707  0.29556201  0.41289907  1
  C  C10  1  0.33019547  0.03672744  0.41321038  1
  C  C11  1  0.70558209  0.66987540  0.41186590  1
  C  C12  1  0.01161430  0.01278546  0.49730853  1
  C  C13  1  0.98721454  0.98838570  0.99730853  1
  C  C14  1  0.66613368  0.32261658  0.82670486  1
  C  C15  1  0.67738342  0.33386632  0.32670486  1
  C  C16  1  0.34686933  0.67857541  0.16599271  1
  C  C17  1  0.32142459  0.65313067  0.66599271  1
  C  C18  1  0.99769388  0.99801559  0.34675205  1
  C  C19  1  0.00198441  0.00230612  0.84675205  1
  C  C20  1  0.00851673  0.00887082  0.65821140  1
  C  C21  1  0.99112918  0.99148327  0.15821140  1
  C  C22  1  0.66371752  0.32530510  0.68931637  1
  C  C23  1  0.67469490  0.33628248  0.18931637  1
  C  C24  1  0.66726119  0.33612430  0.97996349  1
  C  C25  1  0.66387570  0.33273881  0.47996349  1
  C  C26  1  0.33905330  0.66823078  0.01389517  1
  C  C27  1  0.33176922  0.66094670  0.51389517  1
  C  C28  1  0.33326436  0.67086138  0.31267966  1
  C  C29  1  0.32913862  0.66673564  0.81267966  1
  Ni  Ni30  1  0.29565787  0.00183292  0.24933512  1
  Ni  Ni31  1  0.70574008  0.70311154  0.25196963  1
  Ni  Ni32  1  0.99662647  0.29363561  0.25053426  1
  Ni  Ni33  1  0.29688846  0.29425992  0.75196963  1
  Ni  Ni34  1  0.99816708  0.70434213  0.74933512  1
  Ni  Ni35  1  0.70636439  0.00337353  0.75053426  1
  Ni  Ni36  1  0.62741330  0.66882760  0.91720411  1
  Ni  Ni37  1  0.04051582  0.37200732  0.91983657  1
  Ni  Ni38  1  0.33109279  0.95898262  0.91976823  1
  Ni  Ni39  1  0.62799268  0.95948418  0.41983657  1
  Ni  Ni40  1  0.33117240  0.37258670  0.41720411  1
  Ni  Ni41  1  0.04101738  0.66890721  0.41976823  1
  Cu  Cu42  1  0.95962823  0.33280340  0.58273798  1
  Cu  Cu43  1  0.37175460  0.04029583  0.58255126  1
  Cu  Cu44  1  0.66566123  0.62781005  0.58348709  1
  Cu  Cu45  1  0.95970417  0.62824540  0.08255126  1
  Cu  Cu46  1  0.66719660  0.04037177  0.08273798  1
  Cu  Cu47  1  0.37218995  0.33433877  0.08348709  1
  C  C48  1  0.21289577  0.02783288  0.30592603  1
  C  C49  1  0.80488424  0.77989967  0.31027315  1
  C  C50  1  0.97995165  0.19150477  0.30772093  1
  C  C51  1  0.22010033  0.19511576  0.81027315  1
  C  C52  1  0.97216712  0.78710423  0.80592603  1
  C  C53  1  0.80849523  0.02004835  0.80772093  1
  C  C54  1  0.77509783  0.95699274  0.69367478  1
  C  C55  1  0.18503465  0.22034364  0.69664975  1
  C  C56  1  0.03435374  0.81134754  0.69178702  1
  C  C57  1  0.77965636  0.81496535  0.19664975  1
  C  C58  1  0.04300726  0.22490217  0.19367478  1
  C  C59  1  0.18865246  0.96564626  0.19178702  1
  C  C60  1  0.87304466  0.35796674  0.63470614  1
  C  C61  1  0.48262706  0.12759277  0.63419363  1
  C  C62  1  0.64796756  0.52688973  0.63740781  1
  C  C63  1  0.87240723  0.51737294  0.13419363  1
  C  C64  1  0.64203326  0.12695534  0.13470614  1
  C  C65  1  0.47311027  0.35203244  0.13740781  1
  C  C66  1  0.45468561  0.31137070  0.02844162  1
  C  C67  1  0.86294157  0.54977421  0.02591454  1
  C  C68  1  0.69256666  0.14293734  0.02655600  1
  C  C69  1  0.45022579  0.13705843  0.52591454  1
  C  C70  1  0.68862930  0.54531439  0.52844162  1
  C  C71  1  0.85706266  0.30743334  0.52655600  1
  C  C72  1  0.54251209  0.70026170  0.97106625  1
  C  C73  1  0.14873444  0.45221265  0.97640268  1
  C  C74  1  0.30157947  0.85039389  0.97627791  1
  C  C75  1  0.54778735  0.85126556  0.47640268  1
  C  C76  1  0.29973830  0.45748791  0.47106625  1
  C  C77  1  0.14960611  0.69842053  0.47627791  1
  C  C78  1  0.14136939  0.64426554  0.36489234  1
  C  C79  1  0.50310993  0.85830672  0.36510104  1
  C  C80  1  0.35692881  0.49046521  0.36004672  1
  C  C81  1  0.14169328  0.49689007  0.86510104  1
  C  C82  1  0.35573446  0.85863061  0.86489234  1
  C  C83  1  0.50953479  0.64307119  0.86004672  1
  C  C84  1  0.02241960  0.82832964  0.41104765  1
  C  C85  1  0.80709024  0.97971772  0.41119439  1
  C  C86  1  0.17212552  0.19122372  0.41005512  1
  C  C87  1  0.02028228  0.19290976  0.91119439  1
  C  C88  1  0.17167036  0.97758040  0.91104765  1
  C  C89  1  0.80877628  0.82787448  0.91005512  1
  C  C90  1  0.97371213  0.17485336  0.58847746  1
  C  C91  1  0.19459658  0.01453042  0.58748641  1
  C  C92  1  0.82543206  0.80453532  0.58650308  1
  C  C93  1  0.98546958  0.80540342  0.08748641  1
  C  C94  1  0.82514664  0.02628787  0.08847746  1
  C  C95  1  0.19546468  0.17456794  0.08650308  1
  C  C96  1  0.67723676  0.15360156  0.74396009  1
  C  C97  1  0.48425502  0.33553388  0.74494189  1
  C  C98  1  0.83868653  0.52438411  0.74323101  1
  C  C99  1  0.66446612  0.51574498  0.24494189  1
  C  C100  1  0.84639844  0.32276324  0.24396009  1
  C  C101  1  0.47561589  0.16131347  0.24323101  1
  C  C102  1  0.63777483  0.50184951  0.91983419  1
  C  C103  1  0.86327283  0.36149550  0.92038215  1
  C  C104  1  0.49869006  0.13669979  0.92066172  1
  C  C105  1  0.63850450  0.13672717  0.42038215  1
  C  C106  1  0.49815049  0.36222517  0.41983419  1
  C  C107  1  0.86330021  0.50130994  0.42066172  1
  C  C108  1  0.34779299  0.48666218  0.07912062  1
  C  C109  1  0.13663262  0.64567479  0.07954896  1
  C  C110  1  0.50805197  0.86665791  0.07816145  1
  C  C111  1  0.35432521  0.86336738  0.57954896  1
  C  C112  1  0.51333782  0.65220701  0.57912062  1
  C  C113  1  0.13334209  0.49194803  0.57816145  1
  C  C114  1  0.31492629  0.83531105  0.25923375  1
  C  C115  1  0.51547957  0.68318000  0.25987468  1
  C  C116  1  0.17073167  0.48067880  0.25935615  1
  C  C117  1  0.31682000  0.48452043  0.75987468  1
  C  C118  1  0.16468895  0.68507371  0.75923375  1
  C  C119  1  0.51932120  0.82926833  0.75935615  1
