# generated using pymatgen
data_CuNi5C57
_symmetry_space_group_name_H-M   'P 1'
_cell_length_a   9.14399375
_cell_length_b   9.12127189
_cell_length_c   22.21889457
_cell_angle_alpha   90.09308931
_cell_angle_beta   89.86995761
_cell_angle_gamma   119.85041788
_symmetry_Int_Tables_number   1
_chemical_formula_structural   CuNi5C57
_chemical_formula_sum   'Cu2 Ni10 C114'
_cell_volume   1607.29594365
_cell_formula_units_Z   2
loop_
 _symmetry_equiv_pos_site_id
 _symmetry_equiv_pos_as_xyz
  1  'x, y, z'
loop_
 _atom_site_type_symbol
 _atom_site_label
 _atom_site_symmetry_multiplicity
 _atom_site_fract_x
 _atom_site_fract_y
 _atom_site_fract_z
 _atom_site_occupancy
  C  C0  1  0.63930453  0.00564530  0.24654289  1
  C  C1  1  0.37599609  0.35268302  0.25373569  1
  C  C2  1  0.99408783  0.64998366  0.24961570  1
  C  C3  1  0.64357715  0.63430156  0.75087015  1
  C  C4  1  0.98497435  0.34684442  0.75232233  1
  C  C5  1  0.36725720  0.01850988  0.75267954  1
  C  C6  1  0.29334172  0.32966735  0.58863264  1
  C  C7  1  0.03160528  0.70481797  0.59407897  1
  C  C8  1  0.67048196  0.96435296  0.58942117  1
  C  C9  1  0.29588400  0.96191407  0.07889574  1
  C  C10  1  0.66941256  0.70387055  0.08560538  1
  C  C11  1  0.03702294  0.33565495  0.07273234  1
  C  C12  1  0.97741044  0.67377401  0.90749360  1
  C  C13  1  0.71048592  0.04788386  0.90485031  1
  C  C14  1  0.31499737  0.27935955  0.90768418  1
  C  C15  1  0.96855129  0.28779427  0.42038183  1
  C  C16  1  0.33926768  0.05035935  0.41140067  1
  C  C17  1  0.69574332  0.67214735  0.41480035  1
  C  C18  1  0.99965113  0.01013746  0.49617368  1
  C  C19  1  0.00979443  0.00819115  0.98796647  1
  C  C20  1  0.66681288  0.32555942  0.82827703  1
  C  C21  1  0.64877667  0.32732622  0.33427037  1
  C  C22  1  0.33723437  0.67558976  0.16548051  1
  C  C23  1  0.33707447  0.66583381  0.67135737  1
  Ni  Ni24  1  0.00310181  0.99865406  0.35064745  1
  Ni  Ni25  1  0.00822471  0.00797844  0.84673060  1
  Ni  Ni26  1  0.00116240  0.00441687  0.66647040  1
  Ni  Ni27  1  0.99745335  0.98632005  0.15648672  1
  Ni  Ni28  1  0.66773881  0.33233643  0.69144204  1
  Ni  Ni29  1  0.65748484  0.33144874  0.18638682  1
  Ni  Ni30  1  0.66782015  0.32655781  0.97465199  1
  Ni  Ni31  1  0.65617055  0.32724842  0.47929865  1
  Ni  Ni32  1  0.32585535  0.66371036  0.00595575  1
  Ni  Ni33  1  0.34128374  0.66447791  0.51366154  1
  Cu  Cu34  1  0.35526930  0.67978320  0.31600771  1
  Cu  Cu35  1  0.32030302  0.66990690  0.81205916  1
  C  C36  1  0.29443370  0.00006871  0.24948618  1
  C  C37  1  0.71219665  0.70559008  0.24955022  1
  C  C38  1  0.29692264  0.29649729  0.74908534  1
  C  C39  1  0.99326668  0.70765297  0.74921665  1
  C  C40  1  0.70635970  0.99832914  0.74981523  1
  C  C41  1  0.03626747  0.36649169  0.92115216  1
  C  C42  1  0.33058944  0.96455914  0.92162901  1
  C  C43  1  0.63962976  0.97045125  0.42223527  1
  C  C44  1  0.32859053  0.36638719  0.42066792  1
  C  C45  1  0.00069884  0.29384265  0.24850106  1
  C  C46  1  0.95924684  0.33650588  0.58113329  1
  C  C47  1  0.37108828  0.03745732  0.58146900  1
  C  C48  1  0.66731566  0.62509157  0.58153423  1
  C  C49  1  0.95651013  0.62380049  0.08446849  1
  C  C50  1  0.67116518  0.04199112  0.08428299  1
  C  C51  1  0.37348518  0.33555814  0.08409252  1
  C  C52  1  0.62509563  0.66577723  0.92001830  1
  C  C53  1  0.04318169  0.66595903  0.41863645  1
  C  C54  1  0.21244868  0.03395952  0.30835533  1
  C  C55  1  0.82199074  0.79102883  0.30892004  1
  C  C56  1  0.97330514  0.19135604  0.30279550  1
  C  C57  1  0.21629719  0.18010157  0.80761028  1
  C  C58  1  0.96296937  0.78852722  0.80879234  1
  C  C59  1  0.82116344  0.03001727  0.80850407  1
  C  C60  1  0.77329932  0.95202865  0.68814155  1
  C  C61  1  0.18035745  0.23126274  0.68827943  1
  C  C62  1  0.04452926  0.82252240  0.68838958  1
  C  C63  1  0.77504658  0.82334476  0.18969028  1
  C  C64  1  0.03144472  0.21768255  0.19440294  1
  C  C65  1  0.18118077  0.95882604  0.18886789  1
  C  C66  1  0.87585760  0.35495178  0.63485796  1
  C  C67  1  0.47508867  0.11747099  0.63488867  1
  C  C68  1  0.64773326  0.52235596  0.63496800  1
  C  C69  1  0.87484247  0.52033681  0.13932021  1
  C  C70  1  0.64747688  0.12218764  0.13928382  1
  C  C71  1  0.47539199  0.35533814  0.13902010  1
  C  C72  1  0.45507971  0.31229729  0.03065068  1
  C  C73  1  0.85282344  0.54145094  0.03111244  1
  C  C74  1  0.68952579  0.14516363  0.03096088  1
  C  C75  1  0.45442726  0.14055811  0.52665984  1
  C  C76  1  0.68686342  0.54182264  0.52645463  1
  C  C77  1  0.85725569  0.31778980  0.52609995  1
  C  C78  1  0.54544636  0.69052571  0.97510660  1
  C  C79  1  0.15244020  0.44631790  0.98088568  1
  C  C80  1  0.30906122  0.85504232  0.98208719  1
  C  C81  1  0.54265233  0.84753720  0.47736370  1
  C  C82  1  0.29212843  0.45226615  0.47749437  1
  C  C83  1  0.14876838  0.69081655  0.47164472  1
  C  C84  1  0.12386188  0.63982588  0.36292377  1
  C  C85  1  0.50796695  0.86667006  0.36014517  1
  C  C86  1  0.35010929  0.49728663  0.36037321  1
  C  C87  1  0.14555910  0.49838703  0.86344903  1
  C  C88  1  0.35847690  0.86006124  0.86318469  1
  C  C89  1  0.51786068  0.63876898  0.86615785  1
  C  C90  1  0.02571550  0.81793658  0.41238573  1
  C  C91  1  0.81925255  0.98064944  0.41111330  1
  C  C92  1  0.16528876  0.18058146  0.41103857  1
  C  C93  1  0.01018336  0.17847555  0.91353626  1
  C  C94  1  0.15832938  0.97215914  0.91386439  1
  C  C95  1  0.79282112  0.81667500  0.91475203  1
  C  C96  1  0.97860160  0.18280881  0.58325251  1
  C  C97  1  0.20032973  0.02209115  0.58425088  1
  C  C98  1  0.82036803  0.79734208  0.58357271  1
  C  C99  1  0.97379612  0.79654290  0.08847155  1
  C  C100  1  0.82812927  0.02836317  0.08831134  1
  C  C101  1  0.19969198  0.18463098  0.08931325  1
  C  C102  1  0.67405827  0.15749674  0.74259005  1
  C  C103  1  0.48648024  0.32693818  0.74107265  1
  C  C104  1  0.84060724  0.51514430  0.74209953  1
  C  C105  1  0.68276665  0.51438432  0.24325771  1
  C  C106  1  0.85117636  0.31634107  0.24118591  1
  C  C107  1  0.48994966  0.15502021  0.24361090  1
  C  C108  1  0.63975100  0.51118668  0.92598630  1
  C  C109  1  0.85886549  0.36936875  0.92120595  1
  C  C110  1  0.50109388  0.15056342  0.92050837  1
  C  C111  1  0.65048936  0.15383372  0.41941675  1
  C  C112  1  0.50765734  0.36667898  0.41902292  1
  C  C113  1  0.87413873  0.51218291  0.42271445  1
  C  C114  1  0.36040593  0.49368906  0.08132891  1
  C  C115  1  0.12929809  0.64270949  0.08184301  1
  C  C116  1  0.52038243  0.86715278  0.08113479  1
  C  C117  1  0.34907672  0.86239216  0.57676573  1
  C  C118  1  0.51167426  0.64263336  0.57862636  1
  C  C119  1  0.13078608  0.49332867  0.57784607  1
  C  C120  1  0.30333209  0.81663740  0.25839039  1
  C  C121  1  0.51089850  0.68023166  0.25693106  1
  C  C122  1  0.15421305  0.46788553  0.25449475  1
  C  C123  1  0.31754945  0.48988975  0.75985242  1
  C  C124  1  0.17105551  0.68952412  0.75670352  1
  C  C125  1  0.51439816  0.82359158  0.75966451  1
