# generated using pymatgen
data_CuNiC13
_symmetry_space_group_name_H-M   'P 1'
_cell_length_a   5.78784150
_cell_length_b   5.81738850
_cell_length_c   8.05230948
_cell_angle_alpha   93.35639374
_cell_angle_beta   88.31395603
_cell_angle_gamma   120.16902589
_symmetry_Int_Tables_number   1
_chemical_formula_structural   CuNiC13
_chemical_formula_sum   'Cu1 Ni1 C13'
_cell_volume   233.99575125
_cell_formula_units_Z   1
loop_
 _symmetry_equiv_pos_site_id
 _symmetry_equiv_pos_as_xyz
  1  'x, y, z'
loop_
 _atom_site_type_symbol
 _atom_site_label
 _atom_site_symmetry_multiplicity
 _atom_site_fract_x
 _atom_site_fract_y
 _atom_site_fract_z
 _atom_site_occupancy
  Ni  Ni0  1  0.00000000  0.88113400  0.03497200  1
  Cu  Cu1  1  0.00000000  0.99772700  0.50259300  1
  C  C2  1  0.00000000  0.35589400  0.85737500  1
  C  C3  1  0.66710500  0.30106200  0.23380400  1
  C  C4  1  0.61416500  0.37894800  0.73611700  1
  C  C5  1  0.38583500  0.76478200  0.73611700  1
  C  C6  1  0.33289500  0.63395600  0.23380400  1
  C  C7  1  0.28354100  0.36072500  0.70509600  1
  C  C8  1  0.71645900  0.07718300  0.70509600  1
  C  C9  1  0.99999900  0.67317100  0.72602700  1
  C  C10  1  0.64722400  0.62164500  0.29858800  1
  C  C11  1  0.00000100  0.32335000  0.29387700  1
  C  C12  1  0.35277600  0.97442200  0.29858800  1
  C  C13  1  0.30138400  0.63940700  0.00256400  1
  C  C14  1  0.69861600  0.33802400  0.00256400  1
