# generated using pymatgen
data_CuNiC11
_symmetry_space_group_name_H-M   'P 1'
_cell_length_a   9.27600052
_cell_length_b   9.27141843
_cell_length_c   23.17438736
_cell_angle_alpha   90.35796508
_cell_angle_beta   89.84282968
_cell_angle_gamma   119.90927520
_symmetry_Int_Tables_number   1
_chemical_formula_structural   CuNiC11
_chemical_formula_sum   'Cu9 Ni9 C99'
_cell_volume   1727.56195732
_cell_formula_units_Z   9
loop_
 _symmetry_equiv_pos_site_id
 _symmetry_equiv_pos_as_xyz
  1  'x, y, z'
loop_
 _atom_site_type_symbol
 _atom_site_label
 _atom_site_symmetry_multiplicity
 _atom_site_fract_x
 _atom_site_fract_y
 _atom_site_fract_z
 _atom_site_occupancy
  C  C0  1  0.99717581  0.63591148  0.26164117  1
  C  C1  1  0.30077747  0.34606580  0.58935721  1
  C  C2  1  0.02464301  0.68768618  0.57837722  1
  C  C3  1  0.67281665  0.95826257  0.57524241  1
  C  C4  1  0.66839328  0.69666639  0.07769863  1
  C  C5  1  0.03771523  0.34424969  0.08393776  1
  C  C6  1  0.98470304  0.67722752  0.90897669  1
  C  C7  1  0.32435074  0.29810368  0.90215398  1
  C  C8  1  0.69358329  0.67958067  0.41959230  1
  C  C9  1  0.99472192  0.00387303  0.49345234  1
  C  C10  1  0.99859580  0.98982248  0.99152371  1
  C  C11  1  0.65272966  0.31765638  0.82327673  1
  C  C12  1  0.65655200  0.29306014  0.33903116  1
  C  C13  1  0.33718269  0.68178535  0.17680934  1
  C  C14  1  0.32959860  0.64381462  0.67346466  1
  C  C15  1  0.00201376  0.01034729  0.35202631  1
  C  C16  1  0.99409419  0.00487604  0.84648861  1
  C  C17  1  0.00238562  0.00804870  0.65728617  1
  C  C18  1  0.00681446  0.99698647  0.14929872  1
  C  C19  1  0.66775268  0.34095771  0.68829988  1
  C  C20  1  0.65838287  0.32603958  0.18729785  1
  C  C21  1  0.33179859  0.67492229  0.01495787  1
  C  C22  1  0.32591496  0.66694175  0.50979347  1
  C  C23  1  0.33584518  0.67311450  0.32489630  1
  C  C24  1  0.66815068  0.33006337  0.97727362  1
  C  C25  1  0.68328206  0.33732906  0.48312822  1
  C  C26  1  0.33830035  0.66705289  0.82158465  1
  Ni  Ni27  1  0.31077509  0.32211546  0.75583316  1
  Ni  Ni28  1  0.96143228  0.33045069  0.58371966  1
  Ni  Ni29  1  0.66676110  0.62654311  0.57980103  1
  Ni  Ni30  1  0.95079670  0.62112426  0.08103284  1
  Ni  Ni31  1  0.63040964  0.65688629  0.92177641  1
  Ni  Ni32  1  0.03377140  0.37428457  0.92066646  1
  Ni  Ni33  1  0.34172306  0.96891023  0.91637187  1
  Ni  Ni34  1  0.64116968  0.98157933  0.42307255  1
  Ni  Ni35  1  0.01252694  0.66052027  0.41828385  1
  Cu  Cu36  1  0.29934766  0.99228458  0.25063498  1
  Cu  Cu37  1  0.69477373  0.69922905  0.24839768  1
  Cu  Cu38  1  0.00650719  0.31212437  0.24619027  1
  Cu  Cu39  1  0.01695891  0.69488566  0.75490918  1
  Cu  Cu40  1  0.67599390  0.98472355  0.75187738  1
  Cu  Cu41  1  0.37606394  0.04602959  0.58148948  1
  Cu  Cu42  1  0.67315502  0.04299873  0.07951632  1
  Cu  Cu43  1  0.37221612  0.33084108  0.07807659  1
  Cu  Cu44  1  0.34809593  0.36058986  0.42189703  1
  C  C45  1  0.21049164  0.00207366  0.30164695  1
  C  C46  1  0.79758897  0.79207338  0.29884926  1
  C  C47  1  0.00230852  0.21078820  0.29495246  1
  C  C48  1  0.21830100  0.22237948  0.80947038  1
  C  C49  1  0.00190345  0.77935892  0.80696973  1
  C  C50  1  0.77867773  0.99630754  0.80148502  1
  C  C51  1  0.74643341  0.96360534  0.69687134  1
  C  C52  1  0.21396835  0.24545369  0.69904084  1
  C  C53  1  0.03080472  0.78892235  0.70157752  1
  C  C54  1  0.77315695  0.79008750  0.19373206  1
  C  C55  1  0.01078865  0.23439328  0.19002744  1
  C  C56  1  0.20748582  0.98424025  0.19707870  1
  C  C57  1  0.87417346  0.35226669  0.63542027  1
  C  C58  1  0.47559975  0.12246998  0.63290550  1
  C  C59  1  0.63999242  0.51149048  0.62979357  1
  C  C60  1  0.86143295  0.51889430  0.13417274  1
  C  C61  1  0.65542413  0.12349461  0.13119330  1
  C  C62  1  0.47089406  0.33825466  0.12811498  1
  C  C63  1  0.44966671  0.31078612  0.02295997  1
  C  C64  1  0.83772810  0.52918584  0.02442031  1
  C  C65  1  0.68362566  0.14108589  0.02589177  1
  C  C66  1  0.45794533  0.15083871  0.52869045  1
  C  C67  1  0.68836335  0.54341814  0.52137276  1
  C  C68  1  0.84975540  0.30057332  0.52764144  1
  C  C69  1  0.56431224  0.67826102  0.97933447  1
  C  C70  1  0.12378744  0.44240385  0.97788344  1
  C  C71  1  0.31404148  0.86800834  0.97030760  1
  C  C72  1  0.56621741  0.88511561  0.47941719  1
  C  C73  1  0.32966638  0.43351379  0.47645405  1
  C  C74  1  0.10448480  0.66973242  0.47432649  1
  C  C75  1  0.09364918  0.64040086  0.36308618  1
  C  C76  1  0.53240430  0.89205481  0.37065280  1
  C  C77  1  0.37225275  0.47181540  0.37277763  1
  C  C78  1  0.12648596  0.50523450  0.87079542  1
  C  C79  1  0.37044673  0.88353430  0.86214255  1
  C  C80  1  0.50577894  0.62865227  0.87112873  1
  C  C81  1  0.98157842  0.80932745  0.41537218  1
  C  C82  1  0.81654894  0.00338877  0.41718677  1
  C  C83  1  0.20525619  0.19221544  0.41490099  1
  C  C84  1  0.01543911  0.20388701  0.91031720  1
  C  C85  1  0.19144369  0.99509076  0.90839624  1
  C  C86  1  0.80954673  0.79533517  0.91153369  1
  C  C87  1  0.97957161  0.17259434  0.58561639  1
  C  C88  1  0.20825597  0.03205591  0.58471645  1
  C  C89  1  0.83057458  0.79754987  0.58363100  1
  C  C90  1  0.95895142  0.79206892  0.07942349  1
  C  C91  1  0.83291833  0.03967399  0.07975557  1
  C  C92  1  0.19899564  0.18984621  0.07954910  1
  C  C93  1  0.65226485  0.13004510  0.75049398  1
  C  C94  1  0.48778307  0.34950292  0.75465663  1
  C  C95  1  0.87457992  0.52426988  0.75291962  1
  C  C96  1  0.69071892  0.53594885  0.24830871  1
  C  C97  1  0.85629168  0.33284118  0.24951827  1
  C  C98  1  0.46997456  0.13673056  0.25000820  1
  C  C99  1  0.63034459  0.48284252  0.92047980  1
  C  C100  1  0.85733977  0.36590707  0.92053717  1
  C  C101  1  0.50336217  0.14990416  0.92006507  1
  C  C102  1  0.65153786  0.15785933  0.42503041  1
  C  C103  1  0.50688486  0.35180324  0.42353783  1
  C  C104  1  0.83096748  0.49781248  0.41978782  1
  C  C105  1  0.36627958  0.48883404  0.07732474  1
  C  C106  1  0.12140795  0.63238825  0.07731943  1
  C  C107  1  0.53412957  0.87015512  0.07692613  1
  C  C108  1  0.35326880  0.87597225  0.57557706  1
  C  C109  1  0.51466520  0.65242801  0.57537732  1
  C  C110  1  0.13622156  0.48729108  0.57757570  1
  C  C111  1  0.30564985  0.83402795  0.25177459  1
  C  C112  1  0.52494291  0.67427784  0.25171259  1
  C  C113  1  0.15538659  0.48288259  0.24847394  1
  C  C114  1  0.32054471  0.50043078  0.76009960  1
  C  C115  1  0.17729558  0.68870058  0.75838615  1
  C  C116  1  0.50692033  0.82774058  0.75737714  1
