# generated using pymatgen
data_Cu2NiC32
_symmetry_space_group_name_H-M   'P 1'
_cell_length_a   8.83337207
_cell_length_b   8.83145986
_cell_length_c   22.92701440
_cell_angle_alpha   89.87348800
_cell_angle_beta   89.98657016
_cell_angle_gamma   119.92950250
_symmetry_Int_Tables_number   1
_chemical_formula_structural   Cu2NiC32
_chemical_formula_sum   'Cu6 Ni3 C96'
_cell_volume   1550.04269066
_cell_formula_units_Z   3
loop_
 _symmetry_equiv_pos_site_id
 _symmetry_equiv_pos_as_xyz
  1  'x, y, z'
loop_
 _atom_site_type_symbol
 _atom_site_label
 _atom_site_symmetry_multiplicity
 _atom_site_fract_x
 _atom_site_fract_y
 _atom_site_fract_z
 _atom_site_occupancy
  Ni  Ni0  1  0.00019269  0.99950096  0.00497727  1
  Ni  Ni1  1  0.66652543  0.33264411  0.83287308  1
  Ni  Ni2  1  0.66752499  0.33182465  0.33906581  1
  Cu  Cu3  1  0.99414477  0.99410160  0.64619776  1
  Cu  Cu4  1  0.00599204  0.00443416  0.14718303  1
  Cu  Cu5  1  0.66401471  0.33998001  0.68825135  1
  Cu  Cu6  1  0.66710872  0.33409580  0.97724745  1
  Cu  Cu7  1  0.66958816  0.34003709  0.47993377  1
  Cu  Cu8  1  0.32838973  0.66728676  0.31093731  1
  C  C9  1  0.00685488  0.00909701  0.35957967  1
  C  C10  1  0.99962759  0.00018058  0.85472226  1
  C  C11  1  0.66579409  0.32691792  0.18679049  1
  C  C12  1  0.33181121  0.66589531  0.02549434  1
  C  C13  1  0.33869745  0.66850136  0.51982998  1
  C  C14  1  0.33407362  0.66658761  0.80917951  1
  C  C15  1  0.28744172  0.00284078  0.25024128  1
  C  C16  1  0.99850461  0.28542321  0.25013361  1
  C  C17  1  0.28672602  0.28505645  0.74991612  1
  C  C18  1  0.99840422  0.71205922  0.75054541  1
  C  C19  1  0.71388389  0.00385351  0.75030628  1
  C  C20  1  0.66747269  0.62294847  0.58309542  1
  C  C21  1  0.95045316  0.62105737  0.08179554  1
  C  C22  1  0.66929799  0.04583529  0.08113324  1
  C  C23  1  0.37983632  0.33106570  0.08149084  1
  C  C24  1  0.61754398  0.66785826  0.91645026  1
  C  C25  1  0.04995026  0.38241266  0.91629397  1
  C  C26  1  0.33274366  0.95012293  0.91613045  1
  C  C27  1  0.61959666  0.95554300  0.41460566  1
  C  C28  1  0.33898466  0.38456994  0.41524141  1
  C  C29  1  0.04555594  0.66494198  0.41537187  1
  C  C30  1  0.71370671  0.71015924  0.25037331  1
  C  C31  1  0.95920450  0.33568077  0.58286516  1
  C  C32  1  0.37705118  0.04211517  0.58284048  1
  C  C33  1  0.19779624  0.03360785  0.30481779  1
  C  C34  1  0.82544015  0.79047546  0.30267229  1
  C  C35  1  0.96531132  0.16543647  0.30517441  1
  C  C36  1  0.19051936  0.16873996  0.80529347  1
  C  C37  1  0.97671623  0.80756589  0.80551968  1
  C  C38  1  0.83036285  0.02341729  0.80547045  1
  C  C39  1  0.78950029  0.96852200  0.69652876  1
  C  C40  1  0.17760182  0.20957738  0.69608060  1
  C  C41  1  0.03378195  0.82219025  0.69648000  1
  C  C42  1  0.79297408  0.81140252  0.19738355  1
  C  C43  1  0.01589834  0.19878458  0.19569551  1
  C  C44  1  0.18110495  0.97919678  0.19582051  1
  C  C45  1  0.88272577  0.36891324  0.63517997  1
  C  C46  1  0.48721144  0.11498575  0.63520622  1
  C  C47  1  0.62717049  0.50652722  0.63754692  1
  C  C48  1  0.86285744  0.50322454  0.13734436  1
  C  C49  1  0.63967743  0.13399154  0.13726692  1
  C  C50  1  0.49535132  0.35878240  0.13704994  1
  C  C51  1  0.46426259  0.30639120  0.02768303  1
  C  C52  1  0.84234563  0.53688733  0.02788540  1
  C  C53  1  0.69565244  0.15739701  0.02790741  1
  C  C54  1  0.45980270  0.14759212  0.53061709  1
  C  C55  1  0.69100769  0.53632605  0.52907161  1
  C  C56  1  0.85160968  0.30855146  0.53088862  1
  C  C57  1  0.53145863  0.69508393  0.97137464  1
  C  C58  1  0.16318690  0.46814669  0.97129579  1
  C  C59  1  0.30503476  0.83648391  0.97125536  1
  C  C60  1  0.53209527  0.83844341  0.47032159  1
  C  C61  1  0.30771932  0.46951124  0.47047128  1
  C  C62  1  0.16094076  0.69524237  0.47053202  1
  C  C63  1  0.12837426  0.63818187  0.36167607  1
  C  C64  1  0.50981766  0.87092001  0.36150669  1
  C  C65  1  0.36441362  0.49223668  0.36145984  1
  C  C66  1  0.14405886  0.49326325  0.86215352  1
  C  C67  1  0.34950895  0.85609338  0.86209599  1
  C  C68  1  0.50702779  0.65100447  0.86223804  1
  C  C69  1  0.03087742  0.83483042  0.40610765  1
  C  C70  1  0.80213042  0.96589673  0.40635256  1
  C  C71  1  0.16524742  0.20035052  0.40851382  1
  C  C72  1  0.03634536  0.19895987  0.90924382  1
  C  C73  1  0.16283046  0.96373501  0.90902335  1
  C  C74  1  0.80099028  0.83733300  0.90921474  1
  C  C75  1  0.98694908  0.18661487  0.59024912  1
  C  C76  1  0.20212215  0.01846172  0.59018067  1
  C  C77  1  0.82092668  0.80664313  0.59115601  1
  C  C78  1  0.97994560  0.80428214  0.09030854  1
  C  C79  1  0.82146148  0.01449960  0.09024181  1
  C  C80  1  0.19516494  0.17785395  0.08899148  1
  C  C81  1  0.69170846  0.16357910  0.74729260  1
  C  C82  1  0.46859865  0.30506450  0.74826280  1
  C  C83  1  0.83832093  0.52972932  0.74791024  1
  C  C84  1  0.69828536  0.53069388  0.24403578  1
  C  C85  1  0.82656125  0.30116261  0.24270147  1
  C  C86  1  0.47307946  0.17615267  0.24264593  1
  C  C87  1  0.63952239  0.50780243  0.91954485  1
  C  C88  1  0.86818988  0.36072882  0.91960395  1
  C  C89  1  0.49267839  0.13174905  0.91958718  1
  C  C90  1  0.65006799  0.13841884  0.42495530  1
  C  C91  1  0.48897714  0.34899078  0.42373504  1
  C  C92  1  0.86195289  0.51010054  0.42371488  1
  C  C93  1  0.36738476  0.50249388  0.07384010  1
  C  C94  1  0.13427512  0.63316350  0.07388351  1
  C  C95  1  0.49708260  0.86428186  0.07387582  1
  C  C96  1  0.35747577  0.86261797  0.57295799  1
  C  C97  1  0.49877942  0.64135283  0.57022661  1
  C  C98  1  0.13634047  0.49728283  0.57264610  1
  C  C99  1  0.31969290  0.85269183  0.25974868  1
  C  C100  1  0.53935288  0.68576168  0.25808224  1
  C  C101  1  0.15221035  0.46513640  0.25952882  1
  C  C102  1  0.30649915  0.46808523  0.76323875  1
  C  C103  1  0.16237649  0.69364312  0.76355014  1
  C  C104  1  0.53191281  0.83879504  0.76345486  1
