# generated using pymatgen
data_Cu(NiC9)2
_symmetry_space_group_name_H-M   'P 1'
_cell_length_a   9.13870502
_cell_length_b   8.92534480
_cell_length_c   21.97209741
_cell_angle_alpha   92.36523920
_cell_angle_beta   90.00000000
_cell_angle_gamma   120.79397198
_symmetry_Int_Tables_number   1
_chemical_formula_structural   Cu(NiC9)2
_chemical_formula_sum   'Cu6 Ni12 C108'
_cell_volume   1537.72798871
_cell_formula_units_Z   6
loop_
 _symmetry_equiv_pos_site_id
 _symmetry_equiv_pos_as_xyz
  1  'x, y, z'
loop_
 _atom_site_type_symbol
 _atom_site_label
 _atom_site_symmetry_multiplicity
 _atom_site_fract_x
 _atom_site_fract_y
 _atom_site_fract_z
 _atom_site_occupancy
  C  C0  1  0.63889490  0.01292224  0.25301505  1
  C  C1  1  0.36673093  0.35894342  0.24727619  1
  C  C2  1  0.99337126  0.62668498  0.24447234  1
  C  C3  1  0.63331371  0.62668498  0.74447234  1
  C  C4  1  0.99221250  0.35894342  0.74727619  1
  C  C5  1  0.37402734  0.01292224  0.75301505  1
  C  C6  1  0.30556190  0.34625524  0.58634805  1
  C  C7  1  0.03339793  0.69227642  0.58060919  1
  C  C8  1  0.66003826  0.96001798  0.57780534  1
  C  C9  1  0.29998071  0.96001798  0.07780534  1
  C  C10  1  0.65887950  0.69227642  0.08060919  1
  C  C11  1  0.04069434  0.34625524  0.08634805  1
  C  C12  1  0.97222790  0.67958924  0.91968205  1
  C  C13  1  0.70006393  0.02561042  0.91394319  1
  C  C14  1  0.32670426  0.29335198  0.91113934  1
  C  C15  1  0.96664671  0.29335198  0.41113934  1
  C  C16  1  0.32554550  0.02561042  0.41394319  1
  C  C17  1  0.70736034  0.67958924  0.41968205  1
  C  C18  1  0.98925511  0.99123985  0.49673988  1
  C  C19  1  0.00198473  0.99123985  0.99673988  1
  C  C20  1  0.65592211  0.32457285  0.83007288  1
  C  C21  1  0.66865173  0.32457285  0.33007288  1
  C  C22  1  0.32258811  0.65790685  0.16340688  1
  C  C23  1  0.33531773  0.65790685  0.66340688  1
  C  C24  1  0.00048185  0.00218780  0.35178441  1
  C  C25  1  0.00170594  0.00218780  0.85178441  1
  C  C26  1  0.66714885  0.33552080  0.68511741  1
  C  C27  1  0.66837294  0.33552080  0.18511741  1
  C  C28  1  0.33381485  0.66885480  0.01845141  1
  C  C29  1  0.33503894  0.66885480  0.51845141  1
  Ni  Ni30  1  0.29780334  0.00368428  0.25341319  1
  Ni  Ni31  1  0.00271963  0.29095327  0.25322950  1
  Ni  Ni32  1  0.28823364  0.29095327  0.75322950  1
  Ni  Ni33  1  0.70588095  0.00368428  0.75341319  1
  Ni  Ni34  1  0.96447034  0.33701728  0.58674619  1
  Ni  Ni35  1  0.66938663  0.62428627  0.58656250  1
  Ni  Ni36  1  0.95490064  0.62428627  0.08656250  1
  Ni  Ni37  1  0.37254795  0.33701728  0.08674619  1
  Ni  Ni38  1  0.63113634  0.67035128  0.92008019  1
  Ni  Ni39  1  0.33605263  0.95762027  0.91989650  1
  Ni  Ni40  1  0.62156664  0.95762027  0.41989650  1
  Ni  Ni41  1  0.03921395  0.67035128  0.42008019  1
  C  C42  1  0.97131571  0.01323250  0.64857911  1
  C  C43  1  0.04191679  0.01323250  0.14857911  1
  C  C44  1  0.63798271  0.34656550  0.98191211  1
  C  C45  1  0.70858379  0.34656550  0.48191211  1
  C  C46  1  0.30464871  0.67989950  0.31524611  1
  C  C47  1  0.37524979  0.67989950  0.81524611  1
  Cu  Cu48  1  0.70773056  0.71045968  0.24955926  1
  Cu  Cu49  1  0.00272912  0.71045968  0.74955926  1
  Cu  Cu50  1  0.37439756  0.04379268  0.58289226  1
  Cu  Cu51  1  0.66939612  0.04379268  0.08289226  1
  Cu  Cu52  1  0.04106356  0.37712668  0.91622626  1
  Cu  Cu53  1  0.33606212  0.37712668  0.41622626  1
  C  C54  1  0.20916431  0.03143372  0.31149377  1
  C  C55  1  0.81305797  0.79184406  0.30520391  1
  C  C56  1  0.96810938  0.17514665  0.31047877  1
  C  C57  1  0.20703727  0.17514665  0.81047877  1
  C  C58  1  0.97878609  0.79184406  0.80520391  1
  C  C59  1  0.82226941  0.03143372  0.81149377  1
  C  C60  1  0.78147509  0.95340140  0.69016952  1
  C  C61  1  0.15752908  0.19765614  0.68900641  1
  C  C62  1  0.03264738  0.81838534  0.69514973  1
  C  C63  1  0.78573795  0.81838534  0.19514973  1
  C  C64  1  0.04012706  0.19765614  0.18900641  1
  C  C65  1  0.17192631  0.95340140  0.19016952  1
  C  C66  1  0.87583131  0.36476672  0.64482677  1
  C  C67  1  0.47972497  0.12517706  0.63853691  1
  C  C68  1  0.63477638  0.50847965  0.64381177  1
  C  C69  1  0.87370427  0.50847965  0.14381177  1
  C  C70  1  0.64545309  0.12517706  0.13853691  1
  C  C71  1  0.48893641  0.36476672  0.14482677  1
  C  C72  1  0.44814209  0.28673440  0.02350252  1
  C  C73  1  0.82419608  0.53098914  0.02233941  1
  C  C74  1  0.69931438  0.15171834  0.02848273  1
  C  C75  1  0.45240495  0.15171834  0.52848273  1
  C  C76  1  0.70679406  0.53098914  0.52233941  1
  C  C77  1  0.83859331  0.28673440  0.52350252  1
  C  C78  1  0.54249731  0.69810072  0.97816077  1
  C  C79  1  0.14639097  0.45851106  0.97187091  1
  C  C80  1  0.30144238  0.84181365  0.97714577  1
  C  C81  1  0.54037027  0.84181365  0.47714577  1
  C  C82  1  0.31211909  0.45851106  0.47187091  1
  C  C83  1  0.15560241  0.69810072  0.47816077  1
  C  C84  1  0.11480809  0.62006840  0.35683652  1
  C  C85  1  0.49086208  0.86432314  0.35567341  1
  C  C86  1  0.36598038  0.48505234  0.36181673  1
  C  C87  1  0.11907095  0.48505234  0.86181673  1
  C  C88  1  0.37346006  0.86432314  0.85567341  1
  C  C89  1  0.50525931  0.62006840  0.85683652  1
  C  C90  1  0.01332661  0.83423865  0.41184863  1
  C  C91  1  0.81134496  0.98934426  0.41117633  1
  C  C92  1  0.18024393  0.20127701  0.41119957  1
  C  C93  1  0.02103308  0.20127701  0.91119957  1
  C  C94  1  0.17799929  0.98934426  0.91117633  1
  C  C95  1  0.82091205  0.83423865  0.91184863  1
  C  C96  1  0.97426653  0.15192340  0.58757857  1
  C  C97  1  0.20139029  0.02401408  0.58717165  1
  C  C98  1  0.85975689  0.82102727  0.59145421  1
  C  C99  1  0.96127038  0.82102727  0.09145421  1
  C  C100  1  0.82262379  0.02401408  0.08717165  1
  C  C101  1  0.17765687  0.15192340  0.08757857  1
  C  C102  1  0.67999361  0.16757165  0.74518163  1
  C  C103  1  0.47801196  0.32267726  0.74450933  1
  C  C104  1  0.84691093  0.53461001  0.74453257  1
  C  C105  1  0.68770008  0.53461001  0.24453257  1
  C  C106  1  0.84466629  0.32267726  0.24450933  1
  C  C107  1  0.48757905  0.16757165  0.24518163  1
  C  C108  1  0.64093353  0.48525640  0.92091157  1
  C  C109  1  0.86805729  0.35734708  0.92050465  1
  C  C110  1  0.52642389  0.15436027  0.92478721  1
  C  C111  1  0.62793738  0.15436027  0.42478721  1
  C  C112  1  0.48929079  0.35734708  0.42050465  1
  C  C113  1  0.84432387  0.48525640  0.42091157  1
  C  C114  1  0.34665961  0.50090565  0.07851563  1
  C  C115  1  0.14467796  0.65601126  0.07784333  1
  C  C116  1  0.51357693  0.86794401  0.07786657  1
  C  C117  1  0.35436608  0.86794401  0.57786657  1
  C  C118  1  0.51133229  0.65601126  0.57784333  1
  C  C119  1  0.15424505  0.50090565  0.57851563  1
  C  C120  1  0.30759953  0.81859040  0.25424557  1
  C  C121  1  0.53472329  0.69068108  0.25383865  1
  C  C122  1  0.19308989  0.48769427  0.25812121  1
  C  C123  1  0.29460338  0.48769427  0.75812121  1
  C  C124  1  0.15595679  0.69068108  0.75383865  1
  C  C125  1  0.51098987  0.81859040  0.75424557  1
