# generated using pymatgen
data_Cu5Ni7C58
_symmetry_space_group_name_H-M   'P 1'
_cell_length_a   17.64505197
_cell_length_b   8.80822010
_cell_length_c   22.77591648
_cell_angle_alpha   90.19082806
_cell_angle_beta   89.58871259
_cell_angle_gamma   120.01269402
_symmetry_Int_Tables_number   1
_chemical_formula_structural   Cu5Ni7C58
_chemical_formula_sum   'Cu15 Ni21 C174'
_cell_volume   3065.14354482
_cell_formula_units_Z   3
loop_
 _symmetry_equiv_pos_site_id
 _symmetry_equiv_pos_as_xyz
  1  'x, y, z'
loop_
 _atom_site_type_symbol
 _atom_site_label
 _atom_site_symmetry_multiplicity
 _atom_site_fract_x
 _atom_site_fract_y
 _atom_site_fract_z
 _atom_site_occupancy
  C  C0  1  0.99549320  0.99940519  0.49832393  1
  C  C1  1  0.49506603  0.98891502  0.00380701  1
  C  C2  1  0.32851278  0.33139360  0.83986542  1
  C  C3  1  0.82796879  0.32999648  0.83876585  1
  C  C4  1  0.33064070  0.32756835  0.33622019  1
  C  C5  1  0.82700319  0.32335810  0.33842226  1
  C  C6  1  0.00668371  0.01513859  0.35896370  1
  C  C7  1  0.50820771  0.00017824  0.85969957  1
  C  C8  1  0.00111109  0.01995227  0.64216231  1
  C  C9  1  0.50283542  0.00019736  0.14733644  1
  C  C10  1  0.33777602  0.33919516  0.97931415  1
  C  C11  1  0.83366118  0.33474065  0.97819830  1
  C  C12  1  0.33786264  0.33915316  0.47516758  1
  C  C13  1  0.83793403  0.33621406  0.47581070  1
  C  C14  1  0.17760817  0.68705113  0.31327722  1
  C  C15  1  0.67037098  0.67332823  0.30943217  1
  C  C16  1  0.17761501  0.66713628  0.81380241  1
  C  C17  1  0.67605850  0.66632376  0.81432478  1
  C  C18  1  0.50513192  0.02129650  0.35875612  1
  C  C19  1  0.00640497  0.00138619  0.86096949  1
  C  C20  1  0.50189895  0.01661058  0.64079745  1
  C  C21  1  0.00230743  0.98797582  0.14094457  1
  C  C22  1  0.33273722  0.34337874  0.68738066  1
  C  C23  1  0.83384098  0.34726172  0.68786364  1
  C  C24  1  0.33809245  0.32179292  0.19058860  1
  C  C25  1  0.83279573  0.32275444  0.18832504  1
  C  C26  1  0.17394211  0.68985695  0.02459532  1
  C  C27  1  0.66927294  0.68635668  0.02460338  1
  C  C28  1  0.17022694  0.65330881  0.52362947  1
  C  C29  1  0.67328025  0.65720814  0.52272901  1
  Ni  Ni30  1  0.14164243  0.99565656  0.25301019  1
  Ni  Ni31  1  0.64076973  0.99349134  0.25005668  1
  Ni  Ni32  1  0.50691199  0.29278909  0.24943769  1
  Ni  Ni33  1  0.14110592  0.28922855  0.74974583  1
  Ni  Ni34  1  0.64180503  0.28837152  0.75310341  1
  Ni  Ni35  1  0.47463268  0.34305038  0.58020578  1
  Ni  Ni36  1  0.97402190  0.33478391  0.58164043  1
  Ni  Ni37  1  0.33726325  0.62120390  0.58069368  1
  Ni  Ni38  1  0.84088987  0.62831820  0.58088190  1
  Ni  Ni39  1  0.47389160  0.62252936  0.08286434  1
  Ni  Ni40  1  0.97418576  0.60669688  0.08072608  1
  Ni  Ni41  1  0.34238472  0.05676029  0.08170394  1
  Ni  Ni42  1  0.83780277  0.05416785  0.08098438  1
  Ni  Ni43  1  0.31391417  0.66630634  0.91667751  1
  Ni  Ni44  1  0.80905994  0.65994690  0.91769829  1
  Ni  Ni45  1  0.17490212  0.95688039  0.91471396  1
  Ni  Ni46  1  0.67074533  0.95703634  0.91404260  1
  Ni  Ni47  1  0.31013548  0.95702500  0.41773127  1
  Ni  Ni48  1  0.81082202  0.95470939  0.41406391  1
  Ni  Ni49  1  0.17058529  0.38318911  0.41330270  1
  Ni  Ni50  1  0.67447281  0.38964873  0.41413045  1
  Cu  Cu51  1  0.35589891  0.71324675  0.25009454  1
  Cu  Cu52  1  0.85763131  0.71574825  0.25098144  1
  Cu  Cu53  1  0.00215624  0.28864440  0.25139667  1
  Cu  Cu54  1  0.00302654  0.71682802  0.75007886  1
  Cu  Cu55  1  0.50216282  0.71573954  0.75133903  1
  Cu  Cu56  1  0.35681547  -0.00076751  0.75125397  1
  Cu  Cu57  1  0.85645901  0.99868172  0.74990353  1
  Cu  Cu58  1  0.18863432  0.04709873  0.58254218  1
  Cu  Cu59  1  0.69115278  0.04843964  0.58281248  1
  Cu  Cu60  1  0.19112053  0.33511535  0.08314556  1
  Cu  Cu61  1  0.68952294  0.33163840  0.08212923  1
  Cu  Cu62  1  0.02322375  0.38365844  0.91565441  1
  Cu  Cu63  1  0.52352540  0.37879683  0.91546241  1
  Cu  Cu64  1  0.02375797  0.66833984  0.41553625  1
  Cu  Cu65  1  0.52385957  0.66649510  0.41579471  1
  C  C66  1  0.09053013  0.02376890  0.30837000  1
  C  C67  1  0.59429371  0.02587433  0.30729556  1
  C  C68  1  0.40935909  0.78752986  0.30292901  1
  C  C69  1  0.91201853  0.79424440  0.30255141  1
  C  C70  1  0.48326844  0.16390677  0.30743956  1
  C  C71  1  0.98298674  0.17621646  0.30397059  1
  C  C72  1  0.09322244  0.16192968  0.80664417  1
  C  C73  1  0.59212395  0.15842257  0.80827928  1
  C  C74  1  0.48309291  0.79048179  0.80393178  1
  C  C75  1  0.98329691  0.79153977  0.80345739  1
  C  C76  1  0.41088842  0.02843963  0.80271561  1
  C  C77  1  0.91080693  0.02869623  0.80216504  1
  C  C78  1  0.39711748  0.97332723  0.69663466  1
  C  C79  1  0.89659835  0.97305285  0.69613566  1
  C  C80  1  0.08109762  0.18594749  0.69270833  1
  C  C81  1  0.58323341  0.18886119  0.69435907  1
  C  C82  1  0.01086862  0.81734653  0.69726665  1
  C  C83  1  0.51128752  0.81751653  0.69793492  1
  C  C84  1  0.39525604  0.81865483  0.19665369  1
  C  C85  1  0.89918945  0.82214795  0.19640604  1
  C  C86  1  0.01125702  0.20499285  0.19787265  1
  C  C87  1  0.51238613  0.18863629  0.19204331  1
  C  C88  1  0.08195770  0.97478797  0.19428543  1
  C  C89  1  0.58272100  0.97250293  0.19183579  1
  C  C90  1  0.42637204  0.35621877  0.64069903  1
  C  C91  1  0.92605462  0.35377414  0.64141607  1
  C  C92  1  0.24297215  0.12856467  0.63666713  1
  C  C93  1  0.74428683  0.12890390  0.63693081  1
  C  C94  1  0.31757363  0.49714951  0.64037779  1
  C  C95  1  0.81965807  0.50173562  0.64076757  1
  C  C96  1  0.42560050  0.49839965  0.14048576  1
  C  C97  1  0.92676694  0.49686812  0.14061438  1
  C  C98  1  0.31879177  0.13635201  0.14056649  1
  C  C99  1  0.81766685  0.13914824  0.14023247  1
  C  C100  1  0.24297043  0.36419277  0.13623700  1
  C  C101  1  0.74364532  0.35978199  0.13595495  1
  C  C102  1  0.22768113  0.29860873  0.03022462  1
  C  C103  1  0.73016620  0.30265663  0.02944574  1
  C  C104  1  0.41258405  0.52692233  0.02517296  1
  C  C105  1  0.91182677  0.52351318  0.02440001  1
  C  C106  1  0.34793718  0.17315205  0.02489559  1
  C  C107  1  0.84823315  0.17300475  0.02490836  1
  C  C108  1  0.22714962  0.15686018  0.53046077  1
  C  C109  1  0.72771954  0.15754506  0.53086960  1
  C  C110  1  0.34845187  0.52341905  0.52517682  1
  C  C111  1  0.85055455  0.52603833  0.52552375  1
  C  C112  1  0.41137531  0.29921077  0.52482811  1
  C  C113  1  0.91214321  0.29717660  0.52547446  1
  C  C114  1  0.26354711  0.69238575  0.97332652  1
  C  C115  1  0.76084306  0.68870698  0.97393092  1
  C  C116  1  0.07519221  0.45322962  0.96879727  1
  C  C117  1  0.57566821  0.45297459  0.96893984  1
  C  C118  1  0.15211621  0.83276406  0.97339228  1
  C  C119  1  0.65092902  0.83423975  0.97337399  1
  C  C120  1  0.25878514  0.83259214  0.47421836  1
  C  C121  1  0.76335603  0.83490505  0.47356997  1
  C  C122  1  0.15078000  0.46655699  0.47356593  1
  C  C123  1  0.65321810  0.46982771  0.47423370  1
  C  C124  1  0.07521835  0.69668610  0.46956028  1
  C  C125  1  0.57568533  0.69437815  0.46976917  1
  C  C126  1  0.06394927  0.64074157  0.36298351  1
  C  C127  1  0.56247131  0.63435175  0.36338692  1
  C  C128  1  0.24895263  0.86579907  0.35935385  1
  C  C129  1  0.74871960  0.86166086  0.35806045  1
  C  C130  1  0.17932350  0.50461947  0.35751643  1
  C  C131  1  0.68459728  0.50820631  0.35831857  1
  C  C132  1  0.06404945  0.48966259  0.86258490  1
  C  C133  1  0.56433726  0.48718749  0.86265385  1
  C  C134  1  0.18022476  0.85260438  0.85736110  1
  C  C135  1  0.67938600  0.85384500  0.85737230  1
  C  C136  1  0.25090161  0.63598169  0.85878645  1
  C  C137  1  0.74853453  0.63148529  0.85909073  1
  C  C138  1  0.01153305  0.82389172  0.40981003  1
  C  C139  1  0.51102114  0.81865372  0.40854152  1
  C  C140  1  0.40222822  0.96207750  0.40661818  1
  C  C141  1  0.90740167  0.97147352  0.40510465  1
  C  C142  1  0.08160880  0.18740661  0.40836384  1
  C  C143  1  0.58562803  0.19443343  0.40923418  1
  C  C144  1  0.01115990  0.20194825  0.90726916  1
  C  C145  1  0.51159699  0.19909066  0.90862449  1
  C  C146  1  0.08467576  0.97191498  0.90631593  1
  C  C147  1  0.58209698  0.97555856  0.90813042  1
  C  C148  1  0.40772694  0.84404464  0.90466968  1
  C  C149  1  0.90315029  0.83603521  0.90238577  1
  C  C150  1  0.48658179  0.16981563  0.59319162  1
  C  C151  1  0.98831070  0.16474096  0.59131744  1
  C  C152  1  0.10022125  0.02740847  0.59162014  1
  C  C153  1  0.60213158  0.02801427  0.59311657  1
  C  C154  1  0.42139684  0.80926474  0.59770530  1
  C  C155  1  0.92492782  0.81854466  0.59486913  1
  C  C156  1  0.48889627  0.81807460  0.09070129  1
  C  C157  1  0.98659321  0.80399068  0.09226524  1
  C  C158  1  0.42487768  0.02978469  0.09022770  1
  C  C159  1  0.92168951  0.03427210  0.09709035  1
  C  C160  1  0.10145401  0.17641568  0.09214104  1
  C  C161  1  0.60259137  0.17308061  0.08864553  1
  C  C162  1  0.34594523  0.15657532  0.74322770  1
  C  C163  1  0.84573523  0.15675287  0.74342101  1
  C  C164  1  0.23854574  0.30470839  0.74267912  1
  C  C165  1  0.73934960  0.30484765  0.74392583  1
  C  C166  1  0.41962659  0.53313542  0.74482223  1
  C  C167  1  0.91980863  0.53405632  0.74509255  1
  C  C168  1  0.34260801  0.53250863  0.24299750  1
  C  C169  1  0.84779045  0.53685707  0.24288108  1
  C  C170  1  0.41700976  0.31107604  0.24414909  1
  C  C171  1  0.91970648  0.30601716  0.24499968  1
  C  C172  1  0.23712372  0.17431327  0.24365662  1
  C  C173  1  0.73867504  0.17627481  0.24218241  1
  C  C174  1  0.32346249  0.49382625  0.92393811  1
  C  C175  1  0.82234438  0.49186860  0.92357455  1
  C  C176  1  0.43518099  0.36102916  0.92069835  1
  C  C177  1  0.93449791  0.36104897  0.92061702  1
  C  C178  1  0.25655008  0.15083678  0.92320929  1
  C  C179  1  0.75510299  0.14935003  0.92342740  1
  C  C180  1  0.32149109  0.15069855  0.42439722  1
  C  C181  1  0.82379770  0.15089249  0.42508405  1
  C  C182  1  0.25507817  0.36075340  0.42381439  1
  C  C183  1  0.75721895  0.36122747  0.42520001  1
  C  C184  1  0.43477940  0.50613519  0.42214411  1
  C  C185  1  0.93512217  0.50873024  0.42087378  1
  C  C186  1  0.17764331  0.48560039  0.07427981  1
  C  C187  1  0.68045657  0.48764583  0.07527863  1
  C  C188  1  0.06963458  0.62652315  0.07196399  1
  C  C189  1  0.56757218  0.62816738  0.07148610  1
  C  C190  1  0.25250403  0.86215042  0.07516548  1
  C  C191  1  0.75091750  0.86006525  0.07530903  1
  C  C192  1  0.17889443  0.87240920  0.57647961  1
  C  C193  1  0.67921963  0.87254202  0.57661736  1
  C  C194  1  0.25111292  0.64331467  0.57540842  1
  C  C195  1  0.75293946  0.64638866  0.57543884  1
  C  C196  1  0.06864992  0.50985698  0.57308735  1
  C  C197  1  0.57020426  0.51390482  0.57262912  1
  C  C198  1  0.15060771  0.82308239  0.26292184  1
  C  C199  1  0.65557893  0.83012214  0.26112371  1
  C  C200  1  0.26806511  0.69634343  0.25727574  1
  C  C201  1  0.77088383  0.69744829  0.25510954  1
  C  C202  1  0.07739809  0.46338911  0.25857918  1
  C  C203  1  0.58865264  0.48290077  0.26214058  1
  C  C204  1  0.15138624  0.47970071  0.76141300  1
  C  C205  1  0.65154379  0.47928840  0.76252922  1
  C  C206  1  0.07719124  0.69176784  0.75852223  1
  C  C207  1  0.57728396  0.69143382  0.75846295  1
  C  C208  1  0.26908124  0.84240416  0.75645363  1
  C  C209  1  0.76880025  0.84208515  0.75670415  1
