# generated using pymatgen
data_Cu(NiC8)2
_symmetry_space_group_name_H-M   'P 1'
_cell_length_a   8.72190616
_cell_length_b   8.68654370
_cell_length_c   21.92884732
_cell_angle_alpha   90.61121928
_cell_angle_beta   90.00000000
_cell_angle_gamma   120.13475747
_symmetry_Int_Tables_number   1
_chemical_formula_structural   Cu(NiC8)2
_chemical_formula_sum   'Cu6 Ni12 C96'
_cell_volume   1436.74759856
_cell_formula_units_Z   6
loop_
 _symmetry_equiv_pos_site_id
 _symmetry_equiv_pos_as_xyz
  1  'x, y, z'
loop_
 _atom_site_type_symbol
 _atom_site_label
 _atom_site_symmetry_multiplicity
 _atom_site_fract_x
 _atom_site_fract_y
 _atom_site_fract_z
 _atom_site_occupancy
  C  C0  1  0.99221382  0.63220965  0.24552441  1
  C  C1  1  0.63999583  0.63220965  0.74552441  1
  C  C2  1  0.65888082  0.96554265  0.57885741  1
  C  C3  1  0.30666283  0.96554265  0.07885741  1
  C  C4  1  0.32554682  0.29887665  0.91219141  1
  C  C5  1  0.97332883  0.29887665  0.41219141  1
  C  C6  1  0.00358000  0.98187373  0.49619212  1
  C  C7  1  0.97829373  0.98187373  0.99619212  1
  C  C8  1  0.67024700  0.31520673  0.82952512  1
  C  C9  1  0.64496073  0.31520673  0.32952512  1
  C  C10  1  0.33691300  0.64854073  0.16285912  1
  C  C11  1  0.31162673  0.64854073  0.66285912  1
  C  C12  1  0.99942009  0.99637728  0.35131630  1
  C  C13  1  0.99695719  0.99637728  0.85131630  1
  C  C14  1  0.66608709  0.32971028  0.68464930  1
  C  C15  1  0.66362419  0.32971028  0.18464930  1
  C  C16  1  0.33275309  0.66304428  0.01798330  1
  C  C17  1  0.33029019  0.66304428  0.51798330  1
  C  C18  1  0.99293129  0.00812448  0.64934145  1
  C  C19  1  0.01519319  0.00812448  0.14934145  1
  C  C20  1  0.65959829  0.34145748  0.98267445  1
  C  C21  1  0.68186019  0.34145748  0.48267445  1
  C  C22  1  0.32626429  0.67479148  0.31600845  1
  C  C23  1  0.34852619  0.67479148  0.81600845  1
  Ni  Ni24  1  0.29571139  0.00084536  0.25200127  1
  Ni  Ni25  1  0.00742074  0.29345310  0.25326842  1
  Ni  Ni26  1  0.28603237  0.29345310  0.75326842  1
  Ni  Ni27  1  0.70513398  0.00084536  0.75200127  1
  Ni  Ni28  1  0.96237839  0.33417836  0.58533427  1
  Ni  Ni29  1  0.67408774  0.62678610  0.58660142  1
  Ni  Ni30  1  0.95269937  0.62678610  0.08660142  1
  Ni  Ni31  1  0.37180098  0.33417836  0.08533427  1
  Ni  Ni32  1  0.62904439  0.66751236  0.91866827  1
  Ni  Ni33  1  0.34075374  0.96012010  0.91993542  1
  Ni  Ni34  1  0.61936537  0.96012010  0.41993542  1
  Ni  Ni35  1  0.03846698  0.66751236  0.41866827  1
  Cu  Cu36  1  0.70072396  0.71334201  0.25013635  1
  Cu  Cu37  1  0.01261805  0.71334201  0.75013635  1
  Cu  Cu38  1  0.36739096  0.04667501  0.58346935  1
  Cu  Cu39  1  0.67928505  0.04667501  0.08346935  1
  Cu  Cu40  1  0.03405696  0.38000901  0.91680335  1
  Cu  Cu41  1  0.34595105  0.38000901  0.41680335  1
  C  C42  1  0.20544128  0.02118826  0.30690681  1
  C  C43  1  0.80853538  0.79104266  0.30476356  1
  C  C44  1  0.98157558  0.19201482  0.31137036  1
  C  C45  1  0.21043923  0.19201482  0.81137036  1
  C  C46  1  0.98250727  0.79104266  0.80476356  1
  C  C47  1  0.81574698  0.02118826  0.80690681  1
  C  C48  1  0.78088970  0.95316193  0.69140746  1
  C  C49  1  0.16353088  0.20336944  0.69456600  1
  C  C50  1  0.04070584  0.82489965  0.69386198  1
  C  C51  1  0.78419381  0.82489965  0.19386198  1
  C  C52  1  0.03983856  0.20336944  0.19456600  1
  C  C53  1  0.17227223  0.95316193  0.19140746  1
  C  C54  1  0.87210828  0.35452126  0.64023981  1
  C  C55  1  0.47520238  0.12437566  0.63809656  1
  C  C56  1  0.64824258  0.52534782  0.64470336  1
  C  C57  1  0.87710623  0.52534782  0.14470336  1
  C  C58  1  0.64917427  0.12437566  0.13809656  1
  C  C59  1  0.48241398  0.35452126  0.14023981  1
  C  C60  1  0.44755670  0.28649493  0.02474046  1
  C  C61  1  0.83019788  0.53670244  0.02789900  1
  C  C62  1  0.70737284  0.15823265  0.02719498  1
  C  C63  1  0.45086081  0.15823265  0.52719498  1
  C  C64  1  0.70650556  0.53670244  0.52789900  1
  C  C65  1  0.83893923  0.28649493  0.52474046  1
  C  C66  1  0.53877428  0.68785526  0.97357381  1
  C  C67  1  0.14186838  0.45770966  0.97143056  1
  C  C68  1  0.31490858  0.85868182  0.97803736  1
  C  C69  1  0.54377223  0.85868182  0.47803736  1
  C  C70  1  0.31584027  0.45770966  0.47143056  1
  C  C71  1  0.14907998  0.68785526  0.47357381  1
  C  C72  1  0.11422270  0.61982893  0.35807446  1
  C  C73  1  0.49686388  0.87003644  0.36123300  1
  C  C74  1  0.37403884  0.49156665  0.36052898  1
  C  C75  1  0.11752681  0.49156665  0.86052898  1
  C  C76  1  0.37317156  0.87003644  0.86123300  1
  C  C77  1  0.50560523  0.61982893  0.85807446  1
  C  C78  1  0.00931391  0.82285584  0.41059851  1
  C  C79  1  0.80798751  0.99514567  0.41138421  1
  C  C80  1  0.18807120  0.20170579  0.41035548  1
  C  C81  1  0.01363459  0.20170579  0.91035548  1
  C  C82  1  0.18715816  0.99514567  0.91138421  1
  C  C83  1  0.81354193  0.82285584  0.91059851  1
  C  C84  1  0.96768158  0.15133610  0.58909170  1
  C  C85  1  0.18873073  0.03244221  0.58787744  1
  C  C86  1  0.85196772  0.81931202  0.59003616  1
  C  C87  1  0.96734430  0.81931202  0.09003616  1
  C  C88  1  0.84371148  0.03244221  0.08787744  1
  C  C89  1  0.18365452  0.15133610  0.08909170  1
  C  C90  1  0.67598091  0.15618884  0.74393151  1
  C  C91  1  0.47465451  0.32847867  0.74471721  1
  C  C92  1  0.85473820  0.53503879  0.74368848  1
  C  C93  1  0.68030159  0.53503879  0.24368848  1
  C  C94  1  0.85382516  0.32847867  0.24471721  1
  C  C95  1  0.48020893  0.15618884  0.24393151  1
  C  C96  1  0.63434858  0.48466910  0.92242470  1
  C  C97  1  0.85539773  0.36577521  0.92121044  1
  C  C98  1  0.51863472  0.15264502  0.92336916  1
  C  C99  1  0.63401130  0.15264502  0.42336916  1
  C  C100  1  0.51037848  0.36577521  0.42121044  1
  C  C101  1  0.85032152  0.48466910  0.42242470  1
  C  C102  1  0.34264691  0.48952284  0.07726551  1
  C  C103  1  0.14132051  0.66181267  0.07805121  1
  C  C104  1  0.52140420  0.86837279  0.07702248  1
  C  C105  1  0.34696759  0.86837279  0.57702248  1
  C  C106  1  0.52049116  0.66181267  0.57805121  1
  C  C107  1  0.14687493  0.48952284  0.57726551  1
  C  C108  1  0.30101458  0.81800310  0.25575870  1
  C  C109  1  0.52206373  0.69910921  0.25454444  1
  C  C110  1  0.18530072  0.48597902  0.25670316  1
  C  C111  1  0.30067730  0.48597902  0.75670316  1
  C  C112  1  0.17704448  0.69910921  0.75454444  1
  C  C113  1  0.51698752  0.81800310  0.75575870  1
