# generated using pymatgen
data_Cu4NiC10
_symmetry_space_group_name_H-M   'P 1'
_cell_length_a   6.28707048
_cell_length_b   5.96453699
_cell_length_c   5.95513856
_cell_angle_alpha   60.08917349
_cell_angle_beta   61.67288489
_cell_angle_gamma   62.51493556
_symmetry_Int_Tables_number   1
_chemical_formula_structural   Cu4NiC10
_chemical_formula_sum   'Cu4 Ni1 C10'
_cell_volume   162.81988159
_cell_formula_units_Z   1
loop_
 _symmetry_equiv_pos_site_id
 _symmetry_equiv_pos_as_xyz
  1  'x, y, z'
loop_
 _atom_site_type_symbol
 _atom_site_label
 _atom_site_symmetry_multiplicity
 _atom_site_fract_x
 _atom_site_fract_y
 _atom_site_fract_z
 _atom_site_occupancy
  Ni  Ni0  1  0.60250000  0.11976500  0.14055600  1
  C  C1  1  0.16847800  0.57951600  0.62634200  1
  C  C2  1  0.66910900  0.09219800  0.62082900  1
  Cu  Cu3  1  0.08578000  0.99730400  0.95781700  1
  Cu  Cu4  1  0.14225500  0.28409000  0.28383500  1
  Cu  Cu5  1  0.61826400  0.62953100  0.12375600  1
  Cu  Cu6  1  0.62025000  0.62847100  0.62763300  1
  C  C7  1  0.38771900  0.35152000  0.39475200  1
  C  C8  1  0.35760900  0.85241100  0.39460700  1
  C  C9  1  0.39081700  0.34960600  0.86538300  1
  C  C10  1  0.78873400  0.39934300  0.40463000  1
  C  C11  1  0.44074800  0.86720900  0.84616300  1
  C  C12  1  0.88747500  0.41275800  0.85109000  1
  C  C13  1  0.85757600  0.90491300  0.36549400  1
  C  C14  1  0.85768300  0.90636500  0.87211300  1
