# generated using pymatgen
data_Cu4NiC14
_symmetry_space_group_name_H-M   'P 1'
_cell_length_a   5.49768915
_cell_length_b   5.75142935
_cell_length_c   10.13849108
_cell_angle_alpha   106.52068155
_cell_angle_beta   105.68132828
_cell_angle_gamma   89.88308567
_symmetry_Int_Tables_number   1
_chemical_formula_structural   Cu4NiC14
_chemical_formula_sum   'Cu4 Ni1 C14'
_cell_volume   294.92756932
_cell_formula_units_Z   1
loop_
 _symmetry_equiv_pos_site_id
 _symmetry_equiv_pos_as_xyz
  1  'x, y, z'
loop_
 _atom_site_type_symbol
 _atom_site_label
 _atom_site_symmetry_multiplicity
 _atom_site_fract_x
 _atom_site_fract_y
 _atom_site_fract_z
 _atom_site_occupancy
  C  C0  1  0.62220900  0.12859600  0.22342200  1
  C  C1  1  0.42054100  0.90697800  0.80257100  1
  C  C2  1  0.11771100  0.60486800  0.19784900  1
  C  C3  1  0.89885900  0.40483700  0.77650400  1
  Ni  Ni4  1  0.06939300  0.55786700  0.50121800  1
  Cu  Cu5  1  0.01596200  0.01055200  0.00033700  1
  Cu  Cu6  1  0.51574900  0.51030400  0.99985300  1
  Cu  Cu7  1  0.19824900  0.12912900  0.49907500  1
  Cu  Cu8  1  0.68680800  0.83836200  0.50019300  1
  C  C9  1  0.26831300  0.26509800  0.99574700  1
  C  C10  1  0.26179800  0.76778500  0.00239300  1
  C  C11  1  0.77038000  0.25392600  0.99795800  1
  C  C12  1  0.76160700  0.75702300  0.00401000  1
  C  C13  1  0.15720500  0.22184000  0.33645900  1
  C  C14  1  0.91079300  0.77159400  0.65974500  1
  C  C15  1  0.75411700  0.61032500  0.34194400  1
  C  C16  1  0.31670200  0.38853300  0.66075700  1
  C  C17  1  0.83589300  0.13943900  0.49959600  1
  C  C18  1  0.32904400  0.81627700  0.50037200  1
