# generated using pymatgen
data_Cu2NiC17
_symmetry_space_group_name_H-M   'P 1'
_cell_length_a   15.54868994
_cell_length_b   9.02928337
_cell_length_c   9.09172066
_cell_angle_alpha   89.60615639
_cell_angle_beta   124.89959068
_cell_angle_gamma   90.06323088
_symmetry_Int_Tables_number   1
_chemical_formula_structural   Cu2NiC17
_chemical_formula_sum   'Cu8 Ni4 C68'
_cell_volume   1046.83147597
_cell_formula_units_Z   4
loop_
 _symmetry_equiv_pos_site_id
 _symmetry_equiv_pos_as_xyz
  1  'x, y, z'
loop_
 _atom_site_type_symbol
 _atom_site_label
 _atom_site_symmetry_multiplicity
 _atom_site_fract_x
 _atom_site_fract_y
 _atom_site_fract_z
 _atom_site_occupancy
  C  C0  1  0.25135679  0.74950731  0.00100087  1
  C  C1  1  0.74364367  0.74439531  0.48043962  1
  C  C2  1  0.75135679  0.24950731  0.00100087  1
  C  C3  1  0.24364367  0.24439531  0.48043962  1
  C  C4  1  0.50790740  0.09385638  0.76297815  1
  C  C5  1  0.49891899  0.88239171  0.23382208  1
  C  C6  1  0.00790740  0.59385638  0.76297815  1
  C  C7  1  0.99891899  0.38239171  0.23382208  1
  C  C8  1  0.79928162  0.92356921  0.21143944  1
  C  C9  1  0.18482728  0.08160008  0.80277194  1
  C  C10  1  0.29928162  0.42356921  0.21143944  1
  C  C11  1  0.68482728  0.58160008  0.80277194  1
  C  C12  1  0.10426923  0.24120446  0.05470157  1
  C  C13  1  0.60426923  0.74120446  0.05470157  1
  Ni  Ni14  1  0.65036272  0.89937911  0.74888304  1
  Ni  Ni15  1  0.35266958  0.10012182  0.25464392  1
  Ni  Ni16  1  0.15036272  0.39937911  0.74888304  1
  Ni  Ni17  1  0.85266958  0.60012182  0.25464392  1
  C  C18  1  0.10421101  0.75171161  0.55926960  1
  C  C19  1  0.89793717  0.75374917  0.93997634  1
  C  C20  1  0.89716469  0.25118261  0.44410524  1
  C  C21  1  0.60421101  0.25171161  0.55926960  1
  C  C22  1  0.39793717  0.25374917  0.93997634  1
  C  C23  1  0.39716469  0.75118261  0.44410524  1
  Cu  Cu24  1  0.99617809  0.95516968  0.74489486  1
  Cu  Cu25  1  0.00154153  0.04542890  0.25636607  1
  Cu  Cu26  1  0.49617809  0.45516968  0.74489486  1
  Cu  Cu27  1  0.50154153  0.54542890  0.25636607  1
  Cu  Cu28  1  0.35556137  0.89697850  0.76096351  1
  Cu  Cu29  1  0.64807027  0.10958640  0.24773298  1
  Cu  Cu30  1  0.85556137  0.39697850  0.76096351  1
  Cu  Cu31  1  0.14807027  0.60958640  0.24773298  1
  C  C32  1  0.15689793  0.58201370  0.74110608  1
  C  C33  1  0.85065454  0.57209158  0.75462384  1
  C  C34  1  0.85138802  0.41665218  0.25772164  1
  C  C35  1  0.15371060  0.44045414  0.25025285  1
  C  C36  1  0.65689793  0.08201370  0.74110608  1
  C  C37  1  0.35065454  0.07209158  0.75462384  1
  C  C38  1  0.35138802  0.91665218  0.25772164  1
  C  C39  1  0.65371060  0.94045414  0.25025285  1
  C  C40  1  0.42532090  0.54070144  0.56350444  1
  C  C41  1  0.55775194  0.55531848  0.90490872  1
  C  C42  1  0.56888925  0.45614724  0.43429975  1
  C  C43  1  0.43781696  0.43970069  0.09349586  1
  C  C44  1  0.92532090  0.04070144  0.56350444  1
  C  C45  1  0.05775194  0.05531848  0.90490872  1
  C  C46  1  0.06888925  0.95614724  0.43429975  1
  C  C47  1  0.93781696  0.93970069  0.09349586  1
  C  C48  1  0.25405656  0.84276232  0.74304445  1
  C  C49  1  0.74698473  0.81618728  0.75437397  1
  C  C50  1  0.74359636  0.17471820  0.25496307  1
  C  C51  1  0.25705374  0.18138835  0.24270910  1
  C  C52  1  0.75405656  0.34276232  0.74304445  1
  C  C53  1  0.24698473  0.31618728  0.75437397  1
  C  C54  1  0.24359636  0.67471820  0.25496307  1
  C  C55  1  0.75705374  0.68138835  0.24270910  1
  C  C56  1  0.35470737  0.85685847  0.59389207  1
  C  C57  1  0.64872729  0.86727919  0.92152567  1
  C  C58  1  0.64761208  0.15913225  0.40858806  1
  C  C59  1  0.35680175  0.12993256  0.07731477  1
  C  C60  1  0.85470737  0.35685847  0.59389207  1
  C  C61  1  0.14872729  0.36727919  0.92152567  1
  C  C62  1  0.14761208  0.65913225  0.40858806  1
  C  C63  1  0.85680175  0.62993256  0.07731477  1
  C  C64  1  0.45132402  0.84092817  0.93689965  1
  C  C65  1  0.54596214  0.82607485  0.56577631  1
  C  C66  1  0.54913358  0.16894115  0.06560358  1
  C  C67  1  0.46029474  0.16481058  0.43678119  1
  C  C68  1  0.95132402  0.34092817  0.93689965  1
  C  C69  1  0.04596214  0.32607485  0.56577631  1
  C  C70  1  0.04913358  0.66894115  0.06560358  1
  C  C71  1  0.96029474  0.66481058  0.43678119  1
  C  C72  1  0.08097049  0.86041404  0.74211107  1
  C  C73  1  0.92418888  0.84003889  0.75370029  1
  C  C74  1  0.91217969  0.13084514  0.25508222  1
  C  C75  1  0.07007500  0.15677688  0.24373214  1
  C  C76  1  0.58097049  0.36041404  0.74211107  1
  C  C77  1  0.42418888  0.34003889  0.75370029  1
  C  C78  1  0.41217969  0.63084514  0.25508222  1
  C  C79  1  0.57007500  0.65677688  0.24373214  1
