# generated using pymatgen
data_CuNiC12
_symmetry_space_group_name_H-M   'P 1'
_cell_length_a   6.47149500
_cell_length_b   7.49245200
_cell_length_c   14.26355600
_cell_angle_alpha   90.00000000
_cell_angle_beta   90.00000000
_cell_angle_gamma   90.00000000
_symmetry_Int_Tables_number   1
_chemical_formula_structural   CuNiC12
_chemical_formula_sum   'Cu4 Ni4 C48'
_cell_volume   691.60225532
_cell_formula_units_Z   4
loop_
 _symmetry_equiv_pos_site_id
 _symmetry_equiv_pos_as_xyz
  1  'x, y, z'
loop_
 _atom_site_type_symbol
 _atom_site_label
 _atom_site_symmetry_multiplicity
 _atom_site_fract_x
 _atom_site_fract_y
 _atom_site_fract_z
 _atom_site_occupancy
  C  C0  1  0.75000000  0.88029200  0.77981200  1
  C  C1  1  0.75000000  0.61970800  0.27981200  1
  C  C2  1  0.25000000  0.11970800  0.22018800  1
  C  C3  1  0.25000000  0.38029200  0.72018800  1
  Ni  Ni4  1  0.75000000  0.34579700  0.88243100  1
  Ni  Ni5  1  0.25000000  0.65420300  0.11756900  1
  Ni  Ni6  1  0.25000000  0.84579700  0.61756900  1
  Ni  Ni7  1  0.75000000  0.15420300  0.38243100  1
  Cu  Cu8  1  0.50000000  0.00000000  0.00000000  1
  Cu  Cu9  1  0.50000000  0.50000000  0.50000000  1
  Cu  Cu10  1  0.00000000  0.50000000  0.50000000  1
  Cu  Cu11  1  0.00000000  0.00000000  0.00000000  1
  C  C12  1  0.25000000  0.35131500  0.93769100  1
  C  C13  1  0.75000000  0.64868500  0.06230900  1
  C  C14  1  0.75000000  0.85131500  0.56230900  1
  C  C15  1  0.25000000  0.14868500  0.43769100  1
  C  C16  1  0.75000000  0.38574900  0.69181400  1
  C  C17  1  0.25000000  0.61425100  0.30818600  1
  C  C18  1  0.25000000  0.88574900  0.80818600  1
  C  C19  1  0.75000000  0.11425100  0.19181400  1
  C  C20  1  0.05191500  0.60691100  0.36789100  1
  C  C21  1  0.55191500  0.39308900  0.63210900  1
  C  C22  1  0.94808500  0.10691100  0.13210900  1
  C  C23  1  0.44808500  0.89308900  0.86789100  1
  C  C24  1  0.94808500  0.39308900  0.63210900  1
  C  C25  1  0.44808500  0.60691100  0.36789100  1
  C  C26  1  0.05191500  0.89308900  0.86789100  1
  C  C27  1  0.55191500  0.10691100  0.13210900  1
  C  C28  1  0.25000000  0.33442500  0.48418200  1
  C  C29  1  0.75000000  0.66557500  0.51581800  1
  C  C30  1  0.75000000  0.83442500  0.01581800  1
  C  C31  1  0.25000000  0.16557500  0.98418200  1
  C  C32  1  0.75000000  0.14321400  0.93923700  1
  C  C33  1  0.25000000  0.85678600  0.06076300  1
  C  C34  1  0.25000000  0.64321400  0.56076300  1
  C  C35  1  0.75000000  0.35678600  0.43923700  1
  C  C36  1  0.75000000  0.21315800  0.75450600  1
  C  C37  1  0.25000000  0.78684200  0.24549400  1
  C  C38  1  0.25000000  0.71315800  0.74549400  1
  C  C39  1  0.75000000  0.28684200  0.25450600  1
  C  C40  1  0.43790500  0.13086500  0.37000800  1
  C  C41  1  0.93790500  0.86913500  0.62999200  1
  C  C42  1  0.56209500  0.63086500  0.12999200  1
  C  C43  1  0.06209500  0.36913500  0.87000800  1
  C  C44  1  0.56209500  0.86913500  0.62999200  1
  C  C45  1  0.06209500  0.13086500  0.37000800  1
  C  C46  1  0.43790500  0.36913500  0.87000800  1
  C  C47  1  0.93790500  0.63086500  0.12999200  1
  C  C48  1  0.75000000  0.96535300  0.26996300  1
  C  C49  1  0.25000000  0.03464700  0.73003700  1
  C  C50  1  0.25000000  0.46535300  0.23003700  1
  C  C51  1  0.75000000  0.53464700  0.76996300  1
  C  C52  1  0.75000000  0.99251200  0.48586600  1
  C  C53  1  0.25000000  0.00748800  0.51413400  1
  C  C54  1  0.25000000  0.49251200  0.01413400  1
  C  C55  1  0.75000000  0.50748800  0.98586600  1
