# generated using pymatgen
data_Cu7(NiC)5
_symmetry_space_group_name_H-M   'P 1'
_cell_length_a   5.15613143
_cell_length_b   5.56592874
_cell_length_c   8.97323018
_cell_angle_alpha   71.18435003
_cell_angle_beta   89.97739471
_cell_angle_gamma   61.27864386
_symmetry_Int_Tables_number   1
_chemical_formula_structural   Cu7(NiC)5
_chemical_formula_sum   'Cu7 Ni5 C5'
_cell_volume   210.02803229
_cell_formula_units_Z   1
loop_
 _symmetry_equiv_pos_site_id
 _symmetry_equiv_pos_as_xyz
  1  'x, y, z'
loop_
 _atom_site_type_symbol
 _atom_site_label
 _atom_site_symmetry_multiplicity
 _atom_site_fract_x
 _atom_site_fract_y
 _atom_site_fract_z
 _atom_site_occupancy
  C  C0  1  0.45345700  0.09533500  0.15194600  1
  C  C1  1  0.73579400  0.46430700  0.26653000  1
  C  C2  1  0.47597700  0.01771500  0.50932800  1
  C  C3  1  0.28234000  0.50722600  0.75335700  1
  C  C4  1  0.01697500  0.99938100  0.98991700  1
  Ni  Ni5  1  0.42600400  0.77058600  0.08992900  1
  Ni  Ni6  1  0.42444900  0.76656000  0.66614300  1
  Ni  Ni7  1  0.55142900  0.23102800  0.31562100  1
  Ni  Ni8  1  0.55511000  0.25785700  0.92845800  1
  Ni  Ni9  1  0.05301900  0.26017300  0.41629400  1
  Cu  Cu10  1  0.92902000  0.76281400  0.58095000  1
  Cu  Cu11  1  0.89677900  0.78147400  0.17600200  1
  Cu  Cu12  1  0.99926500  0.26480200  0.11831800  1
  Cu  Cu13  1  0.50508200  0.77033000  0.37155300  1
  Cu  Cu14  1  0.47724500  0.27608700  0.61720100  1
  Cu  Cu15  1  0.02903900  0.74438900  0.87214800  1
  Cu  Cu16  1  0.07026500  0.26743300  0.80844700  1
