# generated using pymatgen
data_Cu(NiC3)2
_symmetry_space_group_name_H-M   'P 1'
_cell_length_a   5.70813832
_cell_length_b   5.70813832
_cell_length_c   7.54545580
_cell_angle_alpha   113.19870306
_cell_angle_beta   113.19870306
_cell_angle_gamma   87.61980296
_symmetry_Int_Tables_number   1
_chemical_formula_structural   Cu(NiC3)2
_chemical_formula_sum   'Cu1 Ni2 C6'
_cell_volume   205.81479174
_cell_formula_units_Z   1
loop_
 _symmetry_equiv_pos_site_id
 _symmetry_equiv_pos_as_xyz
  1  'x, y, z'
loop_
 _atom_site_type_symbol
 _atom_site_label
 _atom_site_symmetry_multiplicity
 _atom_site_fract_x
 _atom_site_fract_y
 _atom_site_fract_z
 _atom_site_occupancy
  C  C0  1  0.24970800  0.24970800  0.49889600  1
  Ni  Ni1  1  0.25109300  0.75094100  0.50128500  1
  Ni  Ni2  1  0.75094100  0.25109300  0.50128500  1
  C  C3  1  0.50423000  0.50423000  0.00842400  1
  Cu  Cu4  1  0.99906900  0.99906900  0.99835000  1
  C  C5  1  0.38219600  0.38219600  0.28453800  1
  C  C6  1  0.90306800  0.90306800  0.28497200  1
  C  C7  1  0.08575500  0.61203500  0.69723600  1
  C  C8  1  0.61203500  0.08575500  0.69723600  1
