# generated using pymatgen
data_Cu(NiC)2
_symmetry_space_group_name_H-M   'P 1'
_cell_length_a   3.27677101
_cell_length_b   3.27680012
_cell_length_c   37.19862095
_cell_angle_alpha   90.02648901
_cell_angle_beta   89.99276189
_cell_angle_gamma   119.99980997
_symmetry_Int_Tables_number   1
_chemical_formula_structural   Cu(NiC)2
_chemical_formula_sum   'Cu2 Ni4 C4'
_cell_volume   345.90297488
_cell_formula_units_Z   2
loop_
 _symmetry_equiv_pos_site_id
 _symmetry_equiv_pos_as_xyz
  1  'x, y, z'
loop_
 _atom_site_type_symbol
 _atom_site_label
 _atom_site_symmetry_multiplicity
 _atom_site_fract_x
 _atom_site_fract_y
 _atom_site_fract_z
 _atom_site_occupancy
  C  C0  1  0.00003300  0.00016000  0.23013200  1
  C  C1  1  0.66671500  0.33346200  0.35361400  1
  C  C2  1  0.33338000  0.66684600  0.10705000  1
  C  C3  1  0.33319700  0.66625300  0.57868200  1
  Ni  Ni4  1  0.33344200  0.66701600  0.39907000  1
  Ni  Ni5  1  0.66645900  0.33264600  0.53296500  1
  Ni  Ni6  1  0.66663800  0.33328300  0.62439800  1
  Ni  Ni7  1  0.33331600  0.66653000  0.30766400  1
  Cu  Cu8  1  0.66665500  0.33331700  0.06570700  1
  Cu  Cu9  1  0.66676700  0.33368800  0.14855900  1
