# generated using pymatgen
data_Cu4NiC2
_symmetry_space_group_name_H-M   'P 1'
_cell_length_a   8.80307900
_cell_length_b   10.21814900
_cell_length_c   12.87482576
_cell_angle_alpha   74.94103857
_cell_angle_beta   90.00000000
_cell_angle_gamma   90.00000000
_symmetry_Int_Tables_number   1
_chemical_formula_structural   Cu4NiC2
_chemical_formula_sum   'Cu16 Ni4 C8'
_cell_volume   1118.33513751
_cell_formula_units_Z   4
loop_
 _symmetry_equiv_pos_site_id
 _symmetry_equiv_pos_as_xyz
  1  'x, y, z'
loop_
 _atom_site_type_symbol
 _atom_site_label
 _atom_site_symmetry_multiplicity
 _atom_site_fract_x
 _atom_site_fract_y
 _atom_site_fract_z
 _atom_site_occupancy
  C  C0  1  0.92585300  0.19585000  0.65899300  1
  C  C1  1  0.42585300  0.30415000  0.34100700  1
  C  C2  1  0.07414700  0.80415000  0.34100700  1
  C  C3  1  0.57414700  0.69585000  0.65899300  1
  C  C4  1  0.56203700  0.21388700  0.95526000  1
  C  C5  1  0.06203700  0.28611300  0.04474000  1
  C  C6  1  0.43796300  0.78611300  0.04474000  1
  C  C7  1  0.93796300  0.71388700  0.95526000  1
  Ni  Ni8  1  0.63865900  0.95999500  0.25804700  1
  Ni  Ni9  1  0.13865900  0.54000500  0.74195300  1
  Ni  Ni10  1  0.36134100  0.04000500  0.74195300  1
  Ni  Ni11  1  0.86134100  0.45999500  0.25804700  1
  Cu  Cu12  1  0.72364600  0.04448900  0.43024100  1
  Cu  Cu13  1  0.22364600  0.45551100  0.56975900  1
  Cu  Cu14  1  0.27635400  0.95551100  0.56975900  1
  Cu  Cu15  1  0.77635400  0.54448900  0.43024100  1
  Cu  Cu16  1  0.34143200  0.52721600  0.88539900  1
  Cu  Cu17  1  0.84143200  0.97278400  0.11460100  1
  Cu  Cu18  1  0.65856800  0.47278400  0.11460100  1
  Cu  Cu19  1  0.15856800  0.02721600  0.88539900  1
  Cu  Cu20  1  0.36328900  0.03550800  0.20274900  1
  Cu  Cu21  1  0.86328900  0.46449200  0.79725100  1
  Cu  Cu22  1  0.63671100  0.96449200  0.79725100  1
  Cu  Cu23  1  0.13671100  0.53550800  0.20274900  1
  Cu  Cu24  1  0.53317400  0.71449100  0.35363300  1
  Cu  Cu25  1  0.03317400  0.78550900  0.64636700  1
  Cu  Cu26  1  0.46682600  0.28550900  0.64636700  1
  Cu  Cu27  1  0.96682600  0.21449100  0.35363300  1
