# generated using pymatgen
data_Cu2NiC10
_symmetry_space_group_name_H-M   'P 1'
_cell_length_a   5.33609812
_cell_length_b   6.06963300
_cell_length_c   5.15705025
_cell_angle_alpha   90.00000000
_cell_angle_beta   87.28944240
_cell_angle_gamma   90.00000000
_symmetry_Int_Tables_number   1
_chemical_formula_structural   Cu2NiC10
_chemical_formula_sum   'Cu2 Ni1 C10'
_cell_volume   166.84048045
_cell_formula_units_Z   1
loop_
 _symmetry_equiv_pos_site_id
 _symmetry_equiv_pos_as_xyz
  1  'x, y, z'
loop_
 _atom_site_type_symbol
 _atom_site_label
 _atom_site_symmetry_multiplicity
 _atom_site_fract_x
 _atom_site_fract_y
 _atom_site_fract_z
 _atom_site_occupancy
  C  C0  1  0.25000000  0.85327000  0.50000000  1
  C  C1  1  0.75000000  0.13749400  0.50000000  1
  Ni  Ni2  1  0.25000000  0.38228800  0.50000000  1
  Cu  Cu3  1  0.25000000  0.35979300  0.00000000  1
  Cu  Cu4  1  0.75000000  0.63997400  0.00000000  1
  C  C5  1  0.08634900  0.60095600  0.24515800  1
  C  C6  1  0.10617400  0.13833000  0.27880600  1
  C  C7  1  0.39382600  0.13833000  0.72119400  1
  C  C8  1  0.41365100  0.60095600  0.75484200  1
  C  C9  1  0.56603700  0.37011900  0.23550900  1
  C  C10  1  0.60312200  0.85299500  0.25672900  1
  C  C11  1  0.89687800  0.85299500  0.74327100  1
  C  C12  1  0.93396300  0.37011900  0.76449100  1
