# generated using pymatgen
data_Cu(NiC6)2
_symmetry_space_group_name_H-M   'P 1'
_cell_length_a   5.29400623
_cell_length_b   5.28705392
_cell_length_c   8.23568732
_cell_angle_alpha   96.45721675
_cell_angle_beta   95.40003435
_cell_angle_gamma   119.33599566
_symmetry_Int_Tables_number   1
_chemical_formula_structural   Cu(NiC6)2
_chemical_formula_sum   'Cu1 Ni2 C12'
_cell_volume   196.69427983
_cell_formula_units_Z   1
loop_
 _symmetry_equiv_pos_site_id
 _symmetry_equiv_pos_as_xyz
  1  'x, y, z'
loop_
 _atom_site_type_symbol
 _atom_site_label
 _atom_site_symmetry_multiplicity
 _atom_site_fract_x
 _atom_site_fract_y
 _atom_site_fract_z
 _atom_site_occupancy
  C  C0  1  0.99141400  0.99220100  0.94523300  1
  C  C1  1  0.64558900  0.32994700  0.00495900  1
  C  C2  1  0.32583000  0.65130200  0.00502800  1
  Ni  Ni3  1  0.86152500  0.52639700  0.63814400  1
  Ni  Ni4  1  0.52761300  0.86807000  0.63864600  1
  Cu  Cu5  1  0.08609800  0.08853200  0.29848400  1
  C  C6  1  0.00295500  0.32601100  0.12689400  1
  C  C7  1  0.34904900  0.03424900  0.12764900  1
  C  C8  1  0.73985100  0.71881200  0.13064800  1
  C  C9  1  0.93217800  0.59568200  0.83874600  1
  C  C10  1  0.61071400  0.95456900  0.83882700  1
  C  C11  1  0.32182900  0.30617200  0.86408400  1
  C  C12  1  0.17249900  0.67407500  0.56229900  1
  C  C13  1  0.67163100  0.17143800  0.55613100  1
  C  C14  1  0.67422400  0.67554100  0.56356400  1
