# generated using pymatgen
data_Cu2Ni2C9
_symmetry_space_group_name_H-M   'P 1'
_cell_length_a   5.34459141
_cell_length_b   5.35560633
_cell_length_c   6.36021807
_cell_angle_alpha   94.18881935
_cell_angle_beta   86.62788437
_cell_angle_gamma   114.11847793
_symmetry_Int_Tables_number   1
_chemical_formula_structural   Cu2Ni2C9
_chemical_formula_sum   'Cu2 Ni2 C9'
_cell_volume   165.63137550
_cell_formula_units_Z   1
loop_
 _symmetry_equiv_pos_site_id
 _symmetry_equiv_pos_as_xyz
  1  'x, y, z'
loop_
 _atom_site_type_symbol
 _atom_site_label
 _atom_site_symmetry_multiplicity
 _atom_site_fract_x
 _atom_site_fract_y
 _atom_site_fract_z
 _atom_site_occupancy
  C  C0  1  0.50000400  0.49997000  0.00000700  1
  Ni  Ni1  1  0.66820900  0.33660800  0.30083600  1
  Ni  Ni2  1  0.33177500  0.66343200  0.69908200  1
  Cu  Cu3  1  0.00009100  0.00006700  0.49997700  1
  Cu  Cu4  1  0.99996900  0.99998200  0.00002200  1
  C  C5  1  0.69107500  0.76580000  0.75417600  1
  C  C6  1  0.30890500  0.23418800  0.24583900  1
  C  C7  1  0.77144900  0.69630700  0.24942100  1
  C  C8  1  0.22855300  0.30370000  0.75059100  1
  C  C9  1  0.22236100  0.77492500  0.93103500  1
  C  C10  1  0.76706200  0.23387900  0.51403200  1
  C  C11  1  0.23294600  0.76607900  0.48600900  1
  C  C12  1  0.77760400  0.22506200  0.06897500  1
