# generated using pymatgen
data_Cu4Ni6C7
_symmetry_space_group_name_H-M   'P 1'
_cell_length_a   6.05981385
_cell_length_b   7.65738095
_cell_length_c   7.78241415
_cell_angle_alpha   92.37656842
_cell_angle_beta   99.79392382
_cell_angle_gamma   102.06567078
_symmetry_Int_Tables_number   1
_chemical_formula_structural   Cu4Ni6C7
_chemical_formula_sum   'Cu4 Ni6 C7'
_cell_volume   346.88411672
_cell_formula_units_Z   1
loop_
 _symmetry_equiv_pos_site_id
 _symmetry_equiv_pos_as_xyz
  1  'x, y, z'
loop_
 _atom_site_type_symbol
 _atom_site_label
 _atom_site_symmetry_multiplicity
 _atom_site_fract_x
 _atom_site_fract_y
 _atom_site_fract_z
 _atom_site_occupancy
  C  C0  1  0.92147200  0.37510600  0.34629300  1
  C  C1  1  0.74844900  0.86653100  0.01297300  1
  C  C2  1  0.23047200  0.11639800  0.97919900  1
  C  C3  1  0.70178600  0.64197800  0.33427400  1
  C  C4  1  0.82035500  0.15221500  0.68704000  1
  C  C5  1  0.27852900  0.38605400  0.69306600  1
  C  C6  1  0.16696500  0.82229000  0.29898100  1
  Ni  Ni7  1  0.00405300  0.29983400  0.60511400  1
  Ni  Ni8  1  0.05566400  0.91076400  0.13611100  1
  Ni  Ni9  1  0.98943100  0.67413100  0.38078000  1
  Ni  Ni10  1  0.62972400  0.72042900  0.15458800  1
  Ni  Ni11  1  0.35328800  0.28421400  0.85343100  1
  Ni  Ni12  1  0.93740300  0.07652900  0.85740600  1
  Cu  Cu13  1  0.37682500  0.89309700  0.82894900  1
  Cu  Cu14  1  0.21152800  0.35606700  0.19097700  1
  Cu  Cu15  1  0.63392500  0.12244500  0.19731000  1
  Cu  Cu16  1  0.78388200  0.65191600  0.81069600  1
