# generated using pymatgen
data_CuNiC17
_symmetry_space_group_name_H-M   'P 1'
_cell_length_a   5.06506347
_cell_length_b   5.07064838
_cell_length_c   9.93919420
_cell_angle_alpha   94.08326388
_cell_angle_beta   97.25204594
_cell_angle_gamma   61.02815353
_symmetry_Int_Tables_number   1
_chemical_formula_structural   CuNiC17
_chemical_formula_sum   'Cu1 Ni1 C17'
_cell_volume   221.52345993
_cell_formula_units_Z   1
loop_
 _symmetry_equiv_pos_site_id
 _symmetry_equiv_pos_as_xyz
  1  'x, y, z'
loop_
 _atom_site_type_symbol
 _atom_site_label
 _atom_site_symmetry_multiplicity
 _atom_site_fract_x
 _atom_site_fract_y
 _atom_site_fract_z
 _atom_site_occupancy
  Ni  Ni0  1  0.74651095  0.67064404  0.25184576  1
  C  C1  1  0.16165026  0.65454913  0.50305844  1
  C  C2  1  0.67471261  0.66429687  0.98032219  1
  C  C3  1  0.34596056  0.33118140  0.00180247  1
  C  C4  1  0.83033901  0.32289269  0.50292455  1
  C  C5  1  0.49709825  0.99053318  0.51296918  1
  Cu  Cu6  1  0.01334322  0.99831529  0.00362965  1
  C  C7  1  0.01972443  0.65532180  0.10118535  1
  C  C8  1  0.31961621  0.65156641  0.89864654  1
  C  C9  1  0.09346728  0.36158450  0.38926851  1
  C  C10  1  0.48414187  0.65411367  0.40078467  1
  C  C11  1  0.51429430  0.33753956  0.59889307  1
  C  C12  1  0.17266360  0.99542245  0.59882516  1
  C  C13  1  0.89310170  0.61849552  0.60715321  1
  C  C14  1  0.69041170  0.36499954  0.10160550  1
  C  C15  1  0.40368216  0.98007545  0.10215495  1
  C  C16  1  0.99933906  0.32719435  0.89907539  1
  C  C17  1  0.64254438  0.00998056  0.89833333  1
  C  C18  1  0.80364746  0.97379359  0.40064709  1
