# generated using pymatgen
data_Cu2Ni2C37
_symmetry_space_group_name_H-M   'P 1'
_cell_length_a   9.13119483
_cell_length_b   9.13423131
_cell_length_c   22.66723911
_cell_angle_alpha   89.80298211
_cell_angle_beta   89.85459568
_cell_angle_gamma   120.01779511
_symmetry_Int_Tables_number   1
_chemical_formula_structural   Cu2Ni2C37
_chemical_formula_sum   'Cu6 Ni6 C111'
_cell_volume   1636.97915512
_cell_formula_units_Z   3
loop_
 _symmetry_equiv_pos_site_id
 _symmetry_equiv_pos_as_xyz
  1  'x, y, z'
loop_
 _atom_site_type_symbol
 _atom_site_label
 _atom_site_symmetry_multiplicity
 _atom_site_fract_x
 _atom_site_fract_y
 _atom_site_fract_z
 _atom_site_occupancy
  C  C0  1  0.63229801  0.00319343  0.25261999  1
  C  C1  1  0.36770547  0.37087981  0.24764159  1
  C  C2  1  -0.00000590  0.62350910  0.24998421  1
  C  C3  1  0.63150879  0.63511456  0.74988201  1
  C  C4  1  0.99352744  0.36296453  0.74845927  1
  C  C5  1  0.37507044  0.00200064  0.74730296  1
  C  C6  1  0.03387123  0.69603549  0.58254130  1
  C  C7  1  0.66368264  0.97072855  0.58250752  1
  C  C8  1  0.66544939  0.69024875  0.08198097  1
  C  C9  1  0.03218033  0.33663339  0.08595676  1
  C  C10  1  0.95901671  0.66478140  0.91957176  1
  C  C11  1  0.70185304  0.03133861  0.91612192  1
  C  C12  1  0.34038274  0.30362813  0.91863353  1
  C  C13  1  0.96482972  0.30245296  0.41624293  1
  C  C14  1  0.33599809  0.02842947  0.41873927  1
  C  C15  1  0.99926334  0.00008174  0.50009382  1
  C  C16  1  0.00733124  0.99611779  0.00162042  1
  C  C17  1  0.66626843  0.33318085  0.83334751  1
  C  C18  1  0.67371423  0.33984031  0.33516088  1
  C  C19  1  0.32625143  0.66588217  0.16556814  1
  C  C20  1  0.33398106  0.66297505  0.66434040  1
  Ni  Ni21  1  0.99532530  0.99853223  0.85064972  1
  Ni  Ni22  1  0.66803705  0.32937673  0.67973914  1
  Ni  Ni23  1  0.67039539  0.33547192  0.18088236  1
  Ni  Ni24  1  0.66483926  0.33832681  0.98706669  1
  Ni  Ni25  1  0.32909872  0.66378496  0.31894028  1
  Ni  Ni26  1  0.33860566  0.66895591  0.81591189  1
  C  C27  1  0.99980267  0.29166356  0.25019993  1
  C  C28  1  0.70601980  0.00200740  0.74940335  1
  C  C29  1  0.96736453  0.33555311  0.58272358  1
  C  C30  1  0.36843855  0.03673976  0.58305682  1
  C  C31  1  0.96963137  0.63610501  0.08338903  1
  C  C32  1  0.36720061  0.33138599  0.08331741  1
  C  C33  1  0.62868392  0.66493247  0.91672000  1
  C  C34  1  0.62791083  0.96069861  0.41668107  1
  C  C35  1  0.03268013  0.66554322  0.41666915  1
  Cu  Cu36  1  0.99169477  0.99473573  0.35394206  1
  Cu  Cu37  1  0.00336865  0.00600408  0.64668605  1
  Cu  Cu38  1  0.00713356  0.00268965  0.14747006  1
  Cu  Cu39  1  0.66555164  0.33195620  0.48330944  1
  Cu  Cu40  1  0.33513033  0.66970228  0.01867436  1
  Cu  Cu41  1  0.33304100  0.66728198  0.51648464  1
  C  C42  1  0.28954022  0.00009553  0.25105487  1
  C  C43  1  0.71024263  0.71043168  0.24952381  1
  C  C44  1  0.29281299  0.29243934  0.75049058  1
  C  C45  1  0.99908236  0.70617182  0.74945777  1
  C  C46  1  0.66386380  0.62584282  0.58389480  1
  C  C47  1  0.66462841  0.03384915  0.08356826  1
  C  C48  1  0.04036294  0.37397786  0.91686232  1
  C  C49  1  0.33435919  0.96057800  0.91635575  1
  C  C50  1  0.33696995  0.37297128  0.41635475  1
  C  C51  1  0.20913738  0.03013521  0.30727196  1
  C  C52  1  0.82736135  0.79224706  0.30332009  1
  C  C53  1  0.96755317  0.17181689  0.30893218  1
  C  C54  1  0.22127558  0.18470258  0.80736470  1
  C  C55  1  0.97165226  0.78335739  0.80610895  1
  C  C56  1  0.82050324  0.04075333  0.80856247  1
  C  C57  1  0.79404107  0.96331489  0.69177118  1
  C  C58  1  0.17611391  0.20524553  0.69683997  1
  C  C59  1  0.03267540  0.82188319  0.69423900  1
  C  C60  1  0.79025019  0.82053816  0.19318035  1
  C  C61  1  0.03150724  0.20447249  0.19181203  1
  C  C62  1  0.17312687  0.96508054  0.19721232  1
  C  C63  1  0.89841670  0.38311886  0.64191709  1
  C  C64  1  0.48085083  0.10850978  0.64230981  1
  C  C65  1  0.63481713  0.52602349  0.64178079  1
  C  C66  1  0.89715693  0.51709264  0.14240235  1
  C  C67  1  0.63428329  0.10872620  0.14007996  1
  C  C68  1  0.48416628  0.37331258  0.14228692  1
  C  C69  1  0.44008774  0.29601134  0.02322799  1
  C  C70  1  0.85448257  0.56145532  0.02437147  1
  C  C71  1  0.70271705  0.14576947  0.02799038  1
  C  C72  1  0.45140771  0.15459066  0.52418105  1
  C  C73  1  0.70039142  0.54259623  0.53078793  1
  C  C74  1  0.84234496  0.29606639  0.52551018  1
  C  C75  1  0.54174851  0.70389124  0.97437116  1
  C  C76  1  0.15280451  0.45918214  0.97181349  1
  C  C77  1  0.29823668  0.84045377  0.96979451  1
  C  C78  1  0.54456762  0.84390552  0.47567734  1
  C  C79  1  0.29843223  0.45560565  0.46918230  1
  C  C80  1  0.15656909  0.70547799  0.47421582  1
  C  C81  1  0.10295694  0.61995172  0.35734964  1
  C  C82  1  0.51463243  0.88703339  0.35726346  1
  C  C83  1  0.36808301  0.47299967  0.35836160  1
  C  C84  1  0.11385690  0.48367364  0.86050552  1
  C  C85  1  0.36252694  0.88615661  0.85901066  1
  C  C86  1  0.51280884  0.62617105  0.85796692  1
  C  C87  1  0.03214008  0.84612408  0.41081628  1
  C  C88  1  0.82244951  0.99210892  0.41363890  1
  C  C89  1  0.17398518  0.19323364  0.41204417  1
  C  C90  1  0.03210429  0.20054382  0.91393522  1
  C  C91  1  0.17559928  0.98087206  0.91314701  1
  C  C92  1  0.81667043  0.83692473  0.91541112  1
  C  C93  1  0.96989373  0.15635648  0.58778376  1
  C  C94  1  0.17301702  0.00311321  0.58852324  1
  C  C95  1  0.82863215  0.80445472  0.58781421  1
  C  C96  1  0.97178089  0.81704743  0.09071730  1
  C  C97  1  0.82556821  0.01523039  0.08957804  1
  C  C98  1  0.17227879  0.17070682  0.08805118  1
  C  C99  1  0.68739390  0.17163412  0.74596361  1
  C  C100  1  0.47239944  0.31710104  0.74413636  1
  C  C101  1  0.83646071  0.53177958  0.74442267  1
  C  C102  1  0.69088905  0.53221674  0.24619140  1
  C  C103  1  0.82673300  0.30506131  0.24730014  1
  C  C104  1  0.46527788  0.16212161  0.24571785  1
  C  C105  1  0.64806930  0.49580395  0.91990265  1
  C  C106  1  0.86016179  0.34874117  0.92295153  1
  C  C107  1  0.49759830  0.13441239  0.92238561  1
  C  C108  1  0.64281186  0.14941632  0.42264103  1
  C  C109  1  0.49081127  0.34747694  0.42421911  1
  C  C110  1  0.84641872  0.49508422  0.42498982  1
  C  C111  1  0.35206883  0.50583215  0.07766071  1
  C  C112  1  0.15494635  0.64825264  0.07615636  1
  C  C113  1  0.50976573  0.85400599  0.07763210  1
  C  C114  1  0.35458875  0.84885273  0.57684447  1
  C  C115  1  0.51044857  0.65251706  0.57618794  1
  C  C116  1  0.15377954  0.50596189  0.57465079  1
  C  C117  1  0.30951248  0.84163816  0.25424258  1
  C  C118  1  0.53488112  0.69702227  0.25438775  1
  C  C119  1  0.17266783  0.47822977  0.25274460  1
  C  C120  1  0.30135928  0.46638111  0.75315802  1
  C  C121  1  0.15806079  0.68636784  0.75308418  1
  C  C122  1  0.51787087  0.83019526  0.75086466  1
