# generated using pymatgen
data_Cu(NiC)2
_symmetry_space_group_name_H-M   'P 1'
_cell_length_a   3.27168900
_cell_length_b   3.27165516
_cell_length_c   37.20034400
_cell_angle_alpha   90.00014643
_cell_angle_beta   90.00000000
_cell_angle_gamma   120.00033205
_symmetry_Int_Tables_number   1
_chemical_formula_structural   Cu(NiC)2
_chemical_formula_sum   'Cu2 Ni4 C4'
_cell_volume   344.83843859
_cell_formula_units_Z   2
loop_
 _symmetry_equiv_pos_site_id
 _symmetry_equiv_pos_as_xyz
  1  'x, y, z'
loop_
 _atom_site_type_symbol
 _atom_site_label
 _atom_site_symmetry_multiplicity
 _atom_site_fract_x
 _atom_site_fract_y
 _atom_site_fract_z
 _atom_site_occupancy
  C  C0  1  0.99997900  0.99995800  0.23215300  1
  C  C1  1  0.33332600  0.66665200  0.10818000  1
  C  C2  1  0.33333700  0.66667500  0.57851700  1
  C  C3  1  0.66666000  0.33331900  0.35588400  1
  Ni  Ni4  1  0.66665400  0.33330800  0.06271300  1
  Ni  Ni5  1  0.66667000  0.33334000  0.53301300  1
  Ni  Ni6  1  0.66666400  0.33332800  0.15424500  1
  Ni  Ni7  1  0.66665800  0.33331700  0.62405400  1
  Cu  Cu8  1  0.33332900  0.66665800  0.39723400  1
  Cu  Cu9  1  0.33332300  0.66664600  0.31434900  1
