# generated using pymatgen
data_Cu2Ni2C7
_symmetry_space_group_name_H-M   'P 1'
_cell_length_a   6.34715090
_cell_length_b   6.34715070
_cell_length_c   6.34715044
_cell_angle_alpha   55.91097455
_cell_angle_beta   55.91097802
_cell_angle_gamma   55.91097719
_symmetry_Int_Tables_number   1
_chemical_formula_structural   Cu2Ni2C7
_chemical_formula_sum   'Cu2 Ni2 C7'
_cell_volume   163.67450448
_cell_formula_units_Z   1
loop_
 _symmetry_equiv_pos_site_id
 _symmetry_equiv_pos_as_xyz
  1  'x, y, z'
loop_
 _atom_site_type_symbol
 _atom_site_label
 _atom_site_symmetry_multiplicity
 _atom_site_fract_x
 _atom_site_fract_y
 _atom_site_fract_z
 _atom_site_occupancy
  C  C0  1  0.50000000  0.50000000  0.50000000  1
  Ni  Ni1  1  0.09208100  0.09208100  0.09208100  1
  Ni  Ni2  1  0.90791900  0.90791900  0.90791900  1
  Cu  Cu3  1  0.30801100  0.30801100  0.30801100  1
  Cu  Cu4  1  0.69198900  0.69198900  0.69198900  1
  C  C5  1  0.67244900  0.43181600  0.13011100  1
  C  C6  1  0.32755100  0.56818400  0.86988900  1
  C  C7  1  0.86988900  0.32755100  0.56818400  1
  C  C8  1  0.56818400  0.86988900  0.32755100  1
  C  C9  1  0.43181600  0.13011100  0.67244900  1
  C  C10  1  0.13011100  0.67244900  0.43181600  1
