# generated using pymatgen
data_Cu4NiC12
_symmetry_space_group_name_H-M   'P 1'
_cell_length_a   5.10306193
_cell_length_b   9.45632511
_cell_length_c   5.32523268
_cell_angle_alpha   103.97721226
_cell_angle_beta   120.08788739
_cell_angle_gamma   74.38018457
_symmetry_Int_Tables_number   1
_chemical_formula_structural   Cu4NiC12
_chemical_formula_sum   'Cu4 Ni1 C12'
_cell_volume   212.38072052
_cell_formula_units_Z   1
loop_
 _symmetry_equiv_pos_site_id
 _symmetry_equiv_pos_as_xyz
  1  'x, y, z'
loop_
 _atom_site_type_symbol
 _atom_site_label
 _atom_site_symmetry_multiplicity
 _atom_site_fract_x
 _atom_site_fract_y
 _atom_site_fract_z
 _atom_site_occupancy
  Ni  Ni0  1  0.59982700  0.19200700  0.40359800  1
  Cu  Cu1  1  0.95493000  0.98112300  0.97580800  1
  Cu  Cu2  1  0.71469000  0.75361900  0.25394500  1
  Cu  Cu3  1  0.52565500  0.50941400  0.52785000  1
  Cu  Cu4  1  0.26536300  0.26364700  0.74158400  1
  C  C5  1  0.38093600  0.87244100  0.19653800  1
  C  C6  1  0.79203600  0.86558200  0.02432800  1
  C  C7  1  0.31346800  0.36707700  0.51549500  1
  C  C8  1  0.70256300  0.62300400  0.47233700  1
  C  C9  1  0.61278200  0.12121400  0.74291500  1
  C  C10  1  0.89405500  0.35268200  0.69362400  1
  C  C11  1  0.11696300  0.62984100  0.30319700  1
  C  C12  1  0.98035100  0.11909500  0.34986700  1
  C  C13  1  0.49903600  0.36239400  0.13585000  1
  C  C14  1  0.26318500  0.12471700  0.01469000  1
  C  C15  1  0.53615900  0.61248500  0.89525400  1
  C  C16  1  0.97300300  0.87822700  0.61561900  1
