# generated using pymatgen
data_Cu(NiC4)2
_symmetry_space_group_name_H-M   'P 1'
_cell_length_a   6.31534670
_cell_length_b   7.60875672
_cell_length_c   6.31534686
_cell_angle_alpha   65.20990357
_cell_angle_beta   59.97991316
_cell_angle_gamma   65.20990817
_symmetry_Int_Tables_number   1
_chemical_formula_structural   Cu(NiC4)2
_chemical_formula_sum   'Cu1 Ni2 C8'
_cell_volume   229.91220746
_cell_formula_units_Z   1
loop_
 _symmetry_equiv_pos_site_id
 _symmetry_equiv_pos_as_xyz
  1  'x, y, z'
loop_
 _atom_site_type_symbol
 _atom_site_label
 _atom_site_symmetry_multiplicity
 _atom_site_fract_x
 _atom_site_fract_y
 _atom_site_fract_z
 _atom_site_occupancy
  Ni  Ni0  1  0.82703053  0.51094442  0.82703053  1
  Ni  Ni1  1  0.27941406  0.15797000  0.27941406  1
  Cu  Cu2  1  0.00403955  0.98568537  0.00403955  1
  C  C3  1  0.59198288  0.21762054  0.59198288  1
  C  C4  1  0.44898024  0.65343472  0.44898024  1
  C  C5  1  0.25086903  0.80088921  0.70780822  1
  C  C6  1  0.24558897  0.81568390  0.24558897  1
  C  C7  1  0.76558183  0.22219556  0.76558183  1
  C  C8  1  0.23953674  0.22463504  0.76416796  1
  C  C9  1  0.76416796  0.22463504  0.23953674  1
  C  C10  1  0.70780822  0.80088921  0.25086903  1
