# generated using pymatgen
data_Cu3Ni2C15
_symmetry_space_group_name_H-M   'P 1'
_cell_length_a   9.36366800
_cell_length_b   8.87366500
_cell_length_c   15.56377790
_cell_angle_alpha   56.68106809
_cell_angle_beta   90.00000000
_cell_angle_gamma   90.00000000
_symmetry_Int_Tables_number   1
_chemical_formula_structural   Cu3Ni2C15
_chemical_formula_sum   'Cu12 Ni8 C60'
_cell_volume   1080.62735197
_cell_formula_units_Z   4
loop_
 _symmetry_equiv_pos_site_id
 _symmetry_equiv_pos_as_xyz
  1  'x, y, z'
loop_
 _atom_site_type_symbol
 _atom_site_label
 _atom_site_symmetry_multiplicity
 _atom_site_fract_x
 _atom_site_fract_y
 _atom_site_fract_z
 _atom_site_occupancy
  C  C0  1  0.50751600  0.59401200  0.35076000  1
  C  C1  1  0.49248400  0.40598800  0.64924000  1
  C  C2  1  0.91552800  0.77502500  0.31703100  1
  C  C3  1  0.21880000  0.36096700  0.81531100  1
  C  C4  1  0.71880000  0.63903300  0.68468900  1
  C  C5  1  0.41552800  0.22497500  0.18296900  1
  C  C6  1  0.99248400  0.59401200  0.85076000  1
  C  C7  1  0.00751600  0.40598800  0.14924000  1
  C  C8  1  0.58447200  0.77502500  0.81703100  1
  C  C9  1  0.08447200  0.22497500  0.68296900  1
  C  C10  1  0.78120000  0.63903300  0.18468900  1
  C  C11  1  0.28120000  0.36096700  0.31531100  1
  Ni  Ni12  1  0.54283300  0.33491500  0.90546500  1
  Ni  Ni13  1  0.95991400  0.12952300  0.09215000  1
  Ni  Ni14  1  0.04283300  0.66508500  0.59453500  1
  Ni  Ni15  1  0.45991400  0.87047700  0.40785000  1
  Ni  Ni16  1  0.54008600  0.12952300  0.59215000  1
  Ni  Ni17  1  0.95716700  0.33491500  0.40546500  1
  Ni  Ni18  1  0.04008600  0.87047700  0.90785000  1
  Ni  Ni19  1  0.45716700  0.66508500  0.09453500  1
  Cu  Cu20  1  0.60074500  0.29129500  0.33534600  1
  Cu  Cu21  1  0.88086600  0.93436400  0.67486500  1
  Cu  Cu22  1  0.75908700  0.55221000  0.00771700  1
  Cu  Cu23  1  0.24091300  0.44779000  0.99228300  1
  Cu  Cu24  1  0.11913400  0.06563600  0.32513500  1
  Cu  Cu25  1  0.39925500  0.70870500  0.66465400  1
  Cu  Cu26  1  0.89925500  0.29129500  0.83534600  1
  Cu  Cu27  1  0.61913400  0.93436400  0.17486500  1
  Cu  Cu28  1  0.25908700  0.44779000  0.49228300  1
  Cu  Cu29  1  0.38086600  0.06563600  0.82513500  1
  Cu  Cu30  1  0.10074500  0.70870500  0.16465400  1
  Cu  Cu31  1  0.74091300  0.55221000  0.50771700  1
  C  C32  1  0.20078800  0.35355900  0.43919300  1
  C  C33  1  0.77899800  0.90980300  0.20554800  1
  C  C34  1  0.00205500  0.36344200  0.74092100  1
  C  C35  1  0.62995100  0.67789300  0.42266800  1
  C  C36  1  0.43092500  0.25785000  0.79664100  1
  C  C37  1  0.32870200  0.62938800  0.41077000  1
  C  C38  1  0.11639700  0.91598600  0.10436100  1
  C  C39  1  0.13493400  0.46552400  0.55262600  1
  C  C40  1  0.86506600  0.53447600  0.44737400  1
  C  C41  1  0.88360300  0.08401400  0.89563900  1
  C  C42  1  0.67129800  0.37061200  0.58923000  1
  C  C43  1  0.56907500  0.74215000  0.20335900  1
  C  C44  1  0.37004900  0.32210700  0.57733200  1
  C  C45  1  0.99794500  0.63655800  0.25907900  1
  C  C46  1  0.22100200  0.09019700  0.79445200  1
  C  C47  1  0.39314800  0.92733800  0.94205500  1
  C  C48  1  0.24877800  0.61442200  0.19915700  1
  C  C49  1  0.60685200  0.07266200  0.05794500  1
  C  C50  1  0.47512100  0.00577200  0.76665000  1
  C  C51  1  0.02663400  0.65936100  0.09310100  1
  C  C52  1  0.52663400  0.34063900  0.40689900  1
  C  C53  1  0.97512100  0.99422800  0.73335000  1
  C  C54  1  0.70078800  0.64644100  0.06080700  1
  C  C55  1  0.74877800  0.38557800  0.30084300  1
  C  C56  1  0.89314800  0.07266200  0.55794500  1
  C  C57  1  0.72100200  0.90980300  0.70554800  1
  C  C58  1  0.49794500  0.36344200  0.24092100  1
  C  C59  1  0.87004900  0.67789300  0.92266800  1
  C  C60  1  0.06907500  0.25785000  0.29664100  1
  C  C61  1  0.17129800  0.62938800  0.91077000  1
  C  C62  1  0.36506600  0.46552400  0.05262600  1
  C  C63  1  0.38360300  0.91598600  0.60436100  1
  C  C64  1  0.61639700  0.08401400  0.39563900  1
  C  C65  1  0.63493400  0.53447600  0.94737400  1
  C  C66  1  0.82870200  0.37061200  0.08923000  1
  C  C67  1  0.93092500  0.74215000  0.70335900  1
  C  C68  1  0.12995100  0.32210700  0.07733200  1
  C  C69  1  0.50205500  0.63655800  0.75907900  1
  C  C70  1  0.27899800  0.09019700  0.29445200  1
  C  C71  1  0.10685200  0.92733800  0.44205500  1
  C  C72  1  0.75122200  0.38557800  0.80084300  1
  C  C73  1  0.29921200  0.35355900  0.93919300  1
  C  C74  1  0.02487900  0.00577200  0.26665000  1
  C  C75  1  0.47336600  0.65936100  0.59310100  1
  C  C76  1  0.97336600  0.34063900  0.90689900  1
  C  C77  1  0.52487900  0.99422800  0.23335000  1
  C  C78  1  0.79921200  0.64644100  0.56080700  1
  C  C79  1  0.25122200  0.61442200  0.69915700  1
