# generated using pymatgen
data_CuNi11C7
_symmetry_space_group_name_H-M   'P 1'
_cell_length_a   8.10578058
_cell_length_b   5.66452923
_cell_length_c   5.88372833
_cell_angle_alpha   67.39854001
_cell_angle_beta   62.73725150
_cell_angle_gamma   65.52446599
_symmetry_Int_Tables_number   1
_chemical_formula_structural   CuNi11C7
_chemical_formula_sum   'Cu1 Ni11 C7'
_cell_volume   212.15151658
_cell_formula_units_Z   1
loop_
 _symmetry_equiv_pos_site_id
 _symmetry_equiv_pos_as_xyz
  1  'x, y, z'
loop_
 _atom_site_type_symbol
 _atom_site_label
 _atom_site_symmetry_multiplicity
 _atom_site_fract_x
 _atom_site_fract_y
 _atom_site_fract_z
 _atom_site_occupancy
  C  C0  1  0.32396142  0.66583478  0.18670911  1
  C  C1  1  0.79187610  0.66294578  0.64632602  1
  C  C2  1  0.66884234  0.33530747  0.34731864  1
  C  C3  1  0.34012551  0.65997403  0.66730904  1
  C  C4  1  0.11130588  0.29933448  0.30594023  1
  C  C5  1  0.54747899  0.03912273  0.02855625  1
  C  C6  1  0.98213641  0.01159391  0.99159957  1
  Ni  Ni7  1  0.68768035  0.03961285  0.65316941  1
  Ni  Ni8  1  0.35004984  0.39476517  0.00943482  1
  Ni  Ni9  1  0.94724609  0.25038714  0.19105690  1
  Ni  Ni10  1  0.62123530  0.58647196  0.54046937  1
  Ni  Ni11  1  0.07031767  0.75886267  0.79605379  1
  Ni  Ni12  1  0.39693358  0.40569729  0.48635025  1
  Ni  Ni13  1  0.70136040  0.09668061  0.15607235  1
  Ni  Ni14  1  0.31567149  0.95195353  0.33382920  1
  Ni  Ni15  1  0.63465763  0.64331833  0.03260660  1
  Ni  Ni16  1  0.96863864  0.30242789  0.67969694  1
  Ni  Ni17  1  0.01921454  0.69657783  0.30458337  1
  Cu  Cu18  1  0.28978582  0.93722457  0.86910614  1
