# generated using pymatgen
data_Cu9Ni10C
_symmetry_space_group_name_H-M   'P 1'
_cell_length_a   7.30088900
_cell_length_b   12.71810600
_cell_length_c   19.06721500
_cell_angle_alpha   90.00000000
_cell_angle_beta   90.00000000
_cell_angle_gamma   90.00000000
_symmetry_Int_Tables_number   1
_chemical_formula_structural   Cu9Ni10C
_chemical_formula_sum   'Cu72 Ni80 C8'
_cell_volume   1770.45727040
_cell_formula_units_Z   8
loop_
 _symmetry_equiv_pos_site_id
 _symmetry_equiv_pos_as_xyz
  1  'x, y, z'
loop_
 _atom_site_type_symbol
 _atom_site_label
 _atom_site_symmetry_multiplicity
 _atom_site_fract_x
 _atom_site_fract_y
 _atom_site_fract_z
 _atom_site_occupancy
  C  C0  1  0.17022300  0.12656500  0.41933300  1
  C  C1  1  0.82977700  0.87343500  0.91933300  1
  C  C2  1  0.32977700  0.62656500  0.41933300  1
  C  C3  1  0.67022300  0.37343500  0.91933300  1
  C  C4  1  0.82485600  0.86609100  0.58158000  1
  C  C5  1  0.17514400  0.13390900  0.08158000  1
  C  C6  1  0.67514400  0.36609100  0.58158000  1
  C  C7  1  0.32485600  0.63390900  0.08158000  1
  Ni  Ni8  1  0.43377300  0.30002600  0.18274000  1
  Ni  Ni9  1  0.56622700  0.69997400  0.68274000  1
  Ni  Ni10  1  0.06622700  0.80002600  0.18274000  1
  Ni  Ni11  1  0.93377300  0.19997400  0.68274000  1
  Ni  Ni12  1  0.63991700  0.31027600  0.22199000  1
  Ni  Ni13  1  0.36008300  0.68972400  0.72199000  1
  Ni  Ni14  1  0.86008300  0.81027600  0.22199000  1
  Ni  Ni15  1  0.13991700  0.18972400  0.72199000  1
  Ni  Ni16  1  0.60157000  0.21778700  0.15090600  1
  Ni  Ni17  1  0.39843000  0.78221300  0.65090600  1
  Ni  Ni18  1  0.89843000  0.71778700  0.15090600  1
  Ni  Ni19  1  0.10157000  0.28221300  0.65090600  1
  Ni  Ni20  1  0.50734800  0.32708600  0.09974100  1
  Ni  Ni21  1  0.49265200  0.67291400  0.59974100  1
  Ni  Ni22  1  0.99265200  0.82708600  0.09974100  1
  Ni  Ni23  1  0.00734800  0.17291400  0.59974100  1
  Ni  Ni24  1  0.54283000  0.41766600  0.17148200  1
  Ni  Ni25  1  0.45717000  0.58233400  0.67148200  1
  Ni  Ni26  1  0.95717000  0.91766600  0.17148200  1
  Ni  Ni27  1  0.04283000  0.08233400  0.67148200  1
  Ni  Ni28  1  0.83059900  0.26412900  0.16991400  1
  Ni  Ni29  1  0.16940100  0.73587100  0.66991400  1
  Ni  Ni30  1  0.66940100  0.76412900  0.16991400  1
  Ni  Ni31  1  0.33059900  0.23587100  0.66991400  1
  Ni  Ni32  1  0.73674500  0.27861200  0.08276400  1
  Ni  Ni33  1  0.26325500  0.72138800  0.58276400  1
  Ni  Ni34  1  0.76325500  0.77861200  0.08276400  1
  Ni  Ni35  1  0.23674500  0.22138800  0.58276400  1
  Ni  Ni36  1  0.69579000  0.41940300  0.09702800  1
  Ni  Ni37  1  0.30421000  0.58059700  0.59702800  1
  Ni  Ni38  1  0.80421000  0.91940300  0.09702800  1
  Ni  Ni39  1  0.19579000  0.08059700  0.59702800  1
  Ni  Ni40  1  0.78731600  0.40295700  0.18489200  1
  Ni  Ni41  1  0.21268400  0.59704300  0.68489200  1
  Ni  Ni42  1  0.71268400  0.90295700  0.18489200  1
  Ni  Ni43  1  0.28731600  0.09704300  0.68489200  1
  Ni  Ni44  1  0.90347600  0.36055500  0.11384000  1
  Ni  Ni45  1  0.09652400  0.63944500  0.61384000  1
  Ni  Ni46  1  0.59652400  0.86055500  0.11384000  1
  Ni  Ni47  1  0.40347600  0.13944500  0.61384000  1
  Ni  Ni48  1  0.60324100  0.39857100  0.39013000  1
  Ni  Ni49  1  0.39675900  0.60142900  0.89013000  1
  Ni  Ni50  1  0.89675900  0.89857100  0.39013000  1
  Ni  Ni51  1  0.10324100  0.10142900  0.89013000  1
  Ni  Ni52  1  0.67572400  0.49559500  0.33457800  1
  Ni  Ni53  1  0.32427600  0.50440500  0.83457800  1
  Ni  Ni54  1  0.82427600  0.99559500  0.33457800  1
  Ni  Ni55  1  0.17572400  0.00440500  0.83457800  1
  Ni  Ni56  1  0.77019500  0.47984400  0.42180500  1
  Ni  Ni57  1  0.22980500  0.52015600  0.92180500  1
  Ni  Ni58  1  0.72980500  0.97984400  0.42180500  1
  Ni  Ni59  1  0.27019500  0.02015600  0.92180500  1
  Ni  Ni60  1  0.81090100  0.33938700  0.40645300  1
  Ni  Ni61  1  0.18909900  0.66061300  0.90645300  1
  Ni  Ni62  1  0.68909900  0.83938700  0.40645300  1
  Ni  Ni63  1  0.31090100  0.16061300  0.90645300  1
  Ni  Ni64  1  0.71917700  0.35695800  0.31882700  1
  Ni  Ni65  1  0.28082300  0.64304200  0.81882700  1
  Ni  Ni66  1  0.78082300  0.85695800  0.31882700  1
  Ni  Ni67  1  0.21917700  0.14304200  0.81882700  1
  Ni  Ni68  1  0.90465300  0.54170900  0.35387600  1
  Ni  Ni69  1  0.09534700  0.45829100  0.85387600  1
  Ni  Ni70  1  0.59534700  0.04170900  0.35387600  1
  Ni  Ni71  1  0.40465300  0.95829100  0.85387600  1
  Ni  Ni72  1  0.99953600  0.43178800  0.40448200  1
  Ni  Ni73  1  0.00046400  0.56821200  0.90448200  1
  Ni  Ni74  1  0.50046400  0.93178800  0.40448200  1
  Ni  Ni75  1  0.49953600  0.06821200  0.90448200  1
  Ni  Ni76  1  0.96368200  0.34225000  0.33204300  1
  Ni  Ni77  1  0.03631800  0.65775000  0.83204300  1
  Ni  Ni78  1  0.53631800  0.84225000  0.33204300  1
  Ni  Ni79  1  0.46368200  0.15775000  0.83204300  1
  Ni  Ni80  1  0.86634100  0.45006300  0.28215000  1
  Ni  Ni81  1  0.13365900  0.54993700  0.78215000  1
  Ni  Ni82  1  0.63365900  0.95006300  0.28215000  1
  Ni  Ni83  1  0.36634100  0.04993700  0.78215000  1
  Ni  Ni84  1  0.07242600  0.46005600  0.32151900  1
  Ni  Ni85  1  0.92757400  0.53994400  0.82151900  1
  Ni  Ni86  1  0.42757400  0.96005600  0.32151900  1
  Ni  Ni87  1  0.57242600  0.03994400  0.82151900  1
  Cu  Cu88  1  0.61676800  0.28495300  0.28827600  1
  Cu  Cu89  1  0.38323200  0.71504700  0.78827600  1
  Cu  Cu90  1  0.88323200  0.78495300  0.28827600  1
  Cu  Cu91  1  0.11676800  0.21504700  0.78827600  1
  Cu  Cu92  1  0.88851700  0.47543300  0.21573900  1
  Cu  Cu93  1  0.11148300  0.52456700  0.71573900  1
  Cu  Cu94  1  0.61148300  0.97543300  0.21573900  1
  Cu  Cu95  1  0.38851700  0.02456700  0.71573900  1
  Cu  Cu96  1  0.28569200  0.28110200  0.20595600  1
  Cu  Cu97  1  0.71430800  0.71889800  0.70595600  1
  Cu  Cu98  1  0.21430800  0.78110200  0.20595600  1
  Cu  Cu99  1  0.78569200  0.21889800  0.70595600  1
  Cu  Cu100  1  0.57603500  0.12472500  0.14912300  1
  Cu  Cu101  1  0.42396500  0.87527500  0.64912300  1
  Cu  Cu102  1  0.92396500  0.62472500  0.14912300  1
  Cu  Cu103  1  0.07603500  0.37527500  0.64912300  1
  Cu  Cu104  1  0.39687700  0.32917100  0.05290400  1
  Cu  Cu105  1  0.60312300  0.67082900  0.55290400  1
  Cu  Cu106  1  0.10312300  0.82917100  0.05290400  1
  Cu  Cu107  1  0.89687700  0.17082900  0.55290400  1
  Cu  Cu108  1  0.47107700  0.49747300  0.19019300  1
  Cu  Cu109  1  0.52892300  0.50252700  0.69019300  1
  Cu  Cu110  1  0.02892300  0.99747300  0.19019300  1
  Cu  Cu111  1  0.97107700  0.00252700  0.69019300  1
  Cu  Cu112  1  0.93593300  0.20404400  0.19644000  1
  Cu  Cu113  1  0.06406700  0.79595600  0.69644000  1
  Cu  Cu114  1  0.56406700  0.70404400  0.19644000  1
  Cu  Cu115  1  0.43593300  0.29595600  0.69644000  1
  Cu  Cu116  1  0.76625600  0.22812100  0.03050700  1
  Cu  Cu117  1  0.23374400  0.77187900  0.53050700  1
  Cu  Cu118  1  0.73374400  0.72812100  0.03050700  1
  Cu  Cu119  1  0.26625600  0.27187900  0.53050700  1
  Cu  Cu120  1  0.69046000  0.49376300  0.05813100  1
  Cu  Cu121  1  0.30954000  0.50623700  0.55813100  1
  Cu  Cu122  1  0.80954000  0.99376300  0.05813100  1
  Cu  Cu123  1  0.19046000  0.00623700  0.55813100  1
  Cu  Cu124  1  0.05323800  0.38049900  0.09242500  1
  Cu  Cu125  1  0.94676200  0.61950100  0.59242500  1
  Cu  Cu126  1  0.44676200  0.88049900  0.09242500  1
  Cu  Cu127  1  0.55323800  0.11950100  0.59242500  1
  Cu  Cu128  1  0.45327500  0.37789300  0.41129500  1
  Cu  Cu129  1  0.54672500  0.62210700  0.91129500  1
  Cu  Cu130  1  0.04672500  0.87789300  0.41129500  1
  Cu  Cu131  1  0.95327500  0.12210700  0.91129500  1
  Cu  Cu132  1  0.57063100  0.55587600  0.30809300  1
  Cu  Cu133  1  0.42936900  0.44412400  0.80809300  1
  Cu  Cu134  1  0.92936900  0.05587600  0.30809300  1
  Cu  Cu135  1  0.07063100  0.94412400  0.80809300  1
  Cu  Cu136  1  0.74209400  0.52928500  0.47455500  1
  Cu  Cu137  1  0.25790600  0.47071500  0.97455500  1
  Cu  Cu138  1  0.75790600  0.02928500  0.47455500  1
  Cu  Cu139  1  0.24209400  0.97071500  0.97455500  1
  Cu  Cu140  1  0.81608600  0.26432100  0.44463400  1
  Cu  Cu141  1  0.18391400  0.73567900  0.94463400  1
  Cu  Cu142  1  0.68391400  0.76432100  0.44463400  1
  Cu  Cu143  1  0.31608600  0.23567900  0.94463400  1
  Cu  Cu144  1  0.92952500  0.63486300  0.35621800  1
  Cu  Cu145  1  0.07047500  0.36513700  0.85621800  1
  Cu  Cu146  1  0.57047500  0.13486300  0.35621800  1
  Cu  Cu147  1  0.42952500  0.86513700  0.85621800  1
  Cu  Cu148  1  0.10889200  0.42933300  0.45159600  1
  Cu  Cu149  1  0.89110800  0.57066700  0.95159600  1
  Cu  Cu150  1  0.39110800  0.92933300  0.45159600  1
  Cu  Cu151  1  0.60889200  0.07066700  0.95159600  1
  Cu  Cu152  1  0.03572900  0.26300700  0.31250400  1
  Cu  Cu153  1  0.96427100  0.73699300  0.81250400  1
  Cu  Cu154  1  0.46427100  0.76300700  0.31250400  1
  Cu  Cu155  1  0.53572900  0.23699300  0.81250400  1
  Cu  Cu156  1  0.22046400  0.47932300  0.29834000  1
  Cu  Cu157  1  0.77953600  0.52067700  0.79834000  1
  Cu  Cu158  1  0.27953600  0.97932300  0.29834000  1
  Cu  Cu159  1  0.72046400  0.02067700  0.79834000  1
