# generated using pymatgen
data_CuNi3C5
_symmetry_space_group_name_H-M   'P 1'
_cell_length_a   6.53908700
_cell_length_b   7.69772100
_cell_length_c   8.20397000
_cell_angle_alpha   90.00000000
_cell_angle_beta   90.00000000
_cell_angle_gamma   90.00000000
_symmetry_Int_Tables_number   1
_chemical_formula_structural   CuNi3C5
_chemical_formula_sum   'Cu4 Ni12 C20'
_cell_volume   412.95558622
_cell_formula_units_Z   4
loop_
 _symmetry_equiv_pos_site_id
 _symmetry_equiv_pos_as_xyz
  1  'x, y, z'
loop_
 _atom_site_type_symbol
 _atom_site_label
 _atom_site_symmetry_multiplicity
 _atom_site_fract_x
 _atom_site_fract_y
 _atom_site_fract_z
 _atom_site_occupancy
  Ni  Ni0  1  0.25000000  0.92007600  0.73161000  1
  Ni  Ni1  1  0.75000000  0.07992400  0.26839000  1
  Ni  Ni2  1  0.75000000  0.42007600  0.76839000  1
  Ni  Ni3  1  0.25000000  0.57992400  0.23161000  1
  Ni  Ni4  1  0.62014100  0.18718300  0.41501900  1
  Ni  Ni5  1  0.12014100  0.81281700  0.58498100  1
  Ni  Ni6  1  0.37985900  0.68718300  0.08498100  1
  Ni  Ni7  1  0.87985900  0.31281700  0.91501900  1
  Ni  Ni8  1  0.62014100  0.31281700  0.91501900  1
  Ni  Ni9  1  0.12014100  0.68718300  0.08498100  1
  Ni  Ni10  1  0.37985900  0.81281700  0.58498100  1
  Ni  Ni11  1  0.87985900  0.18718300  0.41501900  1
  Cu  Cu12  1  0.25000000  0.19260400  0.01335000  1
  Cu  Cu13  1  0.75000000  0.80739600  0.98665000  1
  Cu  Cu14  1  0.75000000  0.69260400  0.48665000  1
  Cu  Cu15  1  0.25000000  0.30739600  0.51335000  1
  C  C16  1  0.43586000  0.29598900  0.02839000  1
  C  C17  1  0.93586000  0.79598900  0.47161000  1
  C  C18  1  0.06414000  0.29598900  0.02839000  1
  C  C19  1  0.56414000  0.70401100  0.97161000  1
  C  C20  1  0.25000000  0.43938000  0.38848000  1
  C  C21  1  0.75000000  0.56062000  0.61152000  1
  C  C22  1  0.75000000  0.93938000  0.11152000  1
  C  C23  1  0.25000000  0.06062000  0.88848000  1
  C  C24  1  0.25000000  0.68095200  0.15523900  1
  C  C25  1  0.75000000  0.31904800  0.84476100  1
  C  C26  1  0.75000000  0.18095200  0.34476100  1
  C  C27  1  0.25000000  0.81904800  0.65523900  1
  C  C28  1  0.56414000  0.79598900  0.47161000  1
  C  C29  1  0.06414000  0.20401100  0.52839000  1
  C  C30  1  0.43586000  0.20401100  0.52839000  1
  C  C31  1  0.93586000  0.70401100  0.97161000  1
  C  C32  1  0.25000000  0.08275400  0.18062100  1
  C  C33  1  0.75000000  0.91724600  0.81937900  1
  C  C34  1  0.75000000  0.58275400  0.31937900  1
  C  C35  1  0.25000000  0.41724600  0.68062100  1
