# generated using pymatgen
data_Cu(NiC8)2
_symmetry_space_group_name_H-M   'P 1'
_cell_length_a   8.95656475
_cell_length_b   8.95656446
_cell_length_c   22.77829190
_cell_angle_alpha   90.00857393
_cell_angle_beta   89.99142223
_cell_angle_gamma   120.04987692
_symmetry_Int_Tables_number   1
_chemical_formula_structural   Cu(NiC8)2
_chemical_formula_sum   'Cu6 Ni12 C96'
_cell_volume   1581.67121834
_cell_formula_units_Z   6
loop_
 _symmetry_equiv_pos_site_id
 _symmetry_equiv_pos_as_xyz
  1  'x, y, z'
loop_
 _atom_site_type_symbol
 _atom_site_label
 _atom_site_symmetry_multiplicity
 _atom_site_fract_x
 _atom_site_fract_y
 _atom_site_fract_z
 _atom_site_occupancy
  C  C0  1  0.99277138  0.62617868  0.25372834  1
  C  C1  1  0.37382118  0.00722855  0.75372845  1
  C  C2  1  0.65943548  0.95951082  0.58706106  1
  C  C3  1  0.04048940  0.34056463  0.08706109  1
  C  C4  1  0.32610248  0.29284761  0.92039537  1
  C  C5  1  0.70715248  0.67389756  0.42039530  1
  C  C6  1  0.01225434  0.98952057  0.50045959  1
  C  C7  1  0.01047945  0.98774565  0.00045966  1
  C  C8  1  0.67892159  0.32285255  0.83379277  1
  C  C9  1  0.67714838  0.32107900  0.33379277  1
  C  C10  1  0.34558723  0.65618589  0.16712648  1
  C  C11  1  0.34381378  0.65441242  0.66712650  1
  Ni  Ni12  1  0.70267732  0.70891338  0.24987064  1
  Ni  Ni13  1  0.99839156  0.29084433  0.24841818  1
  Ni  Ni14  1  0.29108665  0.29732261  0.74987067  1
  Ni  Ni15  1  0.70915573  0.00160828  0.74841821  1
  Ni  Ni16  1  0.36934775  0.04224925  0.58320392  1
  Ni  Ni17  1  0.66506061  0.62418087  0.58175120  1
  Ni  Ni18  1  0.95775067  0.63065220  0.08320399  1
  Ni  Ni19  1  0.37581906  0.33493941  0.08175131  1
  Ni  Ni20  1  0.03601339  0.37558182  0.91653693  1
  Ni  Ni21  1  0.33172288  0.95751185  0.91508459  1
  Ni  Ni22  1  0.62441809  0.96398661  0.41653687  1
  Ni  Ni23  1  0.04248811  0.66827703  0.41508449  1
  C  C24  1  0.98487646  0.99410734  0.35234182  1
  C  C25  1  0.00589249  0.01512332  0.85234199  1
  C  C26  1  -0.00006981  0.99832636  0.64742144  1
  C  C27  1  0.00167377  0.00006989  0.14742152  1
  C  C28  1  0.65154345  0.32744607  0.68567316  1
  C  C29  1  0.67255412  0.34845667  0.18567331  1
  C  C30  1  0.66658784  0.33167461  0.98075580  1
  C  C31  1  0.66832556  0.33341234  0.48075568  1
  C  C32  1  0.31820630  0.66077427  0.01900758  1
  C  C33  1  0.33922559  0.68179357  0.51900755  1
  C  C34  1  0.33327456  0.66501649  0.31408653  1
  C  C35  1  0.33498329  0.66672537  0.81408655  1
  Cu  Cu36  1  0.29494893  0.00404606  0.25068751  1
  Cu  Cu37  1  0.99595491  0.70505093  0.75068749  1
  Cu  Cu38  1  0.96161215  0.33737664  0.58402096  1
  Cu  Cu39  1  0.66262292  0.03838781  0.08402107  1
  Cu  Cu40  1  0.62827969  0.67071293  0.91735469  1
  Cu  Cu41  1  0.32928750  0.37172051  0.41735452  1
  C  C42  1  0.21803244  0.03252491  0.30379711  1
  C  C43  1  0.82557243  0.77873334  0.30899715  1
  C  C44  1  0.97856213  0.17821019  0.30695767  1
  C  C45  1  0.22126659  0.17442752  0.80899711  1
  C  C46  1  0.96747519  0.78196750  0.80379709  1
  C  C47  1  0.82178945  0.02143776  0.80695746  1
  C  C48  1  0.78564410  0.96675714  0.68783162  1
  C  C49  1  0.17168259  0.20273832  0.69286339  1
  C  C50  1  0.02855568  0.81348839  0.69756669  1
  C  C51  1  0.79726164  0.82831733  0.19286344  1
  C  C52  1  0.03324283  0.21435538  0.18783150  1
  C  C53  1  0.18651158  0.97144423  0.19756665  1
  C  C54  1  0.88470095  0.36585986  0.63712986  1
  C  C55  1  0.49223994  0.11206632  0.64233016  1
  C  C56  1  0.64522976  0.51154646  0.64028983  1
  C  C57  1  0.88793346  0.50776037  0.14233005  1
  C  C58  1  0.63414004  0.11529904  0.13712985  1
  C  C59  1  0.48845376  0.35477043  0.14028989  1
  C  C60  1  0.45231296  0.30008851  0.02116471  1
  C  C61  1  0.83835016  0.53607195  0.02619571  1
  C  C62  1  0.69522286  0.14682230  0.03089874  1
  C  C63  1  0.46392794  0.16164948  0.52619575  1
  C  C64  1  0.69991139  0.54768717  0.52116486  1
  C  C65  1  0.85317765  0.30477721  0.53089867  1
  C  C66  1  0.55136722  0.69919233  0.97046376  1
  C  C67  1  0.15890591  0.44540090  0.97566478  1
  C  C68  1  0.31189703  0.84487822  0.97362408  1
  C  C69  1  0.55459913  0.84109421  0.47566478  1
  C  C70  1  0.30080750  0.44863263  0.47046373  1
  C  C71  1  0.15512166  0.68810289  0.47362406  1
  C  C72  1  0.11897534  0.63342055  0.35449870  1
  C  C73  1  0.50501489  0.86940557  0.35952993  1
  C  C74  1  0.36188869  0.48015635  0.36423262  1
  C  C75  1  0.13059465  0.49498539  0.85952983  1
  C  C76  1  0.36657967  0.88102451  0.85449862  1
  C  C77  1  0.51984371  0.63811127  0.86423268  1
  C  C78  1  0.02741175  0.84539570  0.41071229  1
  C  C79  1  0.81516421  0.97743027  0.41346214  1
  C  C80  1  0.17838031  0.19701153  0.41068439  1
  C  C81  1  0.02256966  0.18483599  0.91346211  1
  C  C82  1  0.15460402  0.97258817  0.91071230  1
  C  C83  1  0.80298903  0.82162015  0.91068434  1
  C  C84  1  0.97151763  0.17684579  0.58817606  1
  C  C85  1  0.17945536  0.02409609  0.58872004  1
  C  C86  1  0.82910307  0.82444165  0.58730679  1
  C  C87  1  0.97590386  0.82054454  0.08872009  1
  C  C88  1  0.82315397  0.02848222  0.08817607  1
  C  C89  1  0.17555824  0.17089674  0.08730684  1
  C  C90  1  0.69407935  0.17873185  0.74404507  1
  C  C91  1  0.48183149  0.31076477  0.74679477  1
  C  C92  1  0.84504327  0.53034028  0.74401783  1
  C  C93  1  0.68923535  0.51816846  0.24679479  1
  C  C94  1  0.82126781  0.30592076  0.24404503  1
  C  C95  1  0.46965939  0.15495649  0.24401787  1
  C  C96  1  0.63818588  0.51018375  0.92150909  1
  C  C97  1  0.84611728  0.35742797  0.92205317  1
  C  C98  1  0.49577185  0.15777334  0.92063976  1
  C  C99  1  0.64257198  0.15388240  0.42205325  1
  C  C100  1  0.48981651  0.36181403  0.42150912  1
  C  C101  1  0.84222653  0.50422793  0.42063977  1
  C  C102  1  0.36074260  0.51206538  0.07737899  1
  C  C103  1  0.14849729  0.64409760  0.08012897  1
  C  C104  1  0.51171240  0.86367748  0.07735161  1
  C  C105  1  0.35590246  0.85150285  0.58012892  1
  C  C106  1  0.48793458  0.63925736  0.57737895  1
  C  C107  1  0.13632274  0.48828789  0.57735164  1
  C  C108  1  0.30484894  0.84351519  0.25484311  1
  C  C109  1  0.51278787  0.69076211  0.25538712  1
  C  C110  1  0.16243523  0.49110638  0.25397369  1
  C  C111  1  0.30923791  0.48721238  0.75538716  1
  C  C112  1  0.15648474  0.69515085  0.75484311  1
  C  C113  1  0.50889380  0.83756498  0.75397371  1
