# generated using pymatgen
data_Cu8NiC16
_symmetry_space_group_name_H-M   'P 1'
_cell_length_a   9.89355483
_cell_length_b   9.89772241
_cell_length_c   3.14732200
_cell_angle_alpha   90.00000000
_cell_angle_beta   90.00000000
_cell_angle_gamma   88.47254761
_symmetry_Int_Tables_number   1
_chemical_formula_structural   Cu8NiC16
_chemical_formula_sum   'Cu8 Ni1 C16'
_cell_volume   308.08777496
_cell_formula_units_Z   1
loop_
 _symmetry_equiv_pos_site_id
 _symmetry_equiv_pos_as_xyz
  1  'x, y, z'
loop_
 _atom_site_type_symbol
 _atom_site_label
 _atom_site_symmetry_multiplicity
 _atom_site_fract_x
 _atom_site_fract_y
 _atom_site_fract_z
 _atom_site_occupancy
  Ni  Ni0  1  0.74859100  0.01473200  0.50000000  1
  Cu  Cu1  1  0.06299700  0.00438500  0.00000000  1
  Cu  Cu2  1  0.01831700  0.49553200  0.00000000  1
  Cu  Cu3  1  0.23267800  0.26129000  0.50000000  1
  Cu  Cu4  1  0.21883800  0.72833500  0.50000000  1
  Cu  Cu5  1  0.50121500  0.49921100  0.00000000  1
  Cu  Cu6  1  0.46718200  0.98980400  0.00000000  1
  Cu  Cu7  1  0.78059000  0.39509200  0.50000000  1
  Cu  Cu8  1  0.73052500  0.69964500  0.50000000  1
  C  C9  1  0.11101100  0.41164500  0.50000000  1
  C  C10  1  0.11217500  0.90201400  0.50000000  1
  C  C11  1  0.16683800  0.15820300  0.00000000  1
  C  C12  1  0.13305700  0.65425500  0.00000000  1
  C  C13  1  0.59709900  0.40827700  0.50000000  1
  C  C14  1  0.63575600  0.66061100  0.00000000  1
  C  C15  1  0.87544600  0.34776400  0.00000000  1
  C  C16  1  0.88092200  0.57630900  0.50000000  1
  C  C17  1  0.34713300  0.34028000  0.00000000  1
  C  C18  1  0.33497100  0.83167600  0.00000000  1
  C  C19  1  0.39498800  0.10325800  0.50000000  1
  C  C20  1  0.37949200  0.60262500  0.50000000  1
  C  C21  1  0.58706500  0.89604000  0.50000000  1
  C  C22  1  0.66231500  0.09971500  0.00000000  1
  C  C23  1  0.81528700  0.87822900  0.00000000  1
  C  C24  1  0.92773600  0.08273800  0.50000000  1
