# generated using pymatgen
data_Cu4Ni4C3
_symmetry_space_group_name_H-M   'P 1'
_cell_length_a   7.75524532
_cell_length_b   3.85782327
_cell_length_c   8.48089193
_cell_angle_alpha   90.00000000
_cell_angle_beta   90.00000000
_cell_angle_gamma   90.08796167
_symmetry_Int_Tables_number   1
_chemical_formula_structural   Cu4Ni4C3
_chemical_formula_sum   'Cu4 Ni4 C3'
_cell_volume   253.73412819
_cell_formula_units_Z   1
loop_
 _symmetry_equiv_pos_site_id
 _symmetry_equiv_pos_as_xyz
  1  'x, y, z'
loop_
 _atom_site_type_symbol
 _atom_site_label
 _atom_site_symmetry_multiplicity
 _atom_site_fract_x
 _atom_site_fract_y
 _atom_site_fract_z
 _atom_site_occupancy
  C  C0  1  0.79559538  0.50068916  0.50000000  1
  C  C1  1  0.03229382  0.99860550  0.00000000  1
  C  C2  1  0.53533560  0.00147207  0.00000000  1
  Ni  Ni3  1  0.01590543  0.99652267  0.31479207  1
  Ni  Ni4  1  0.01590543  0.99652267  0.68520793  1
  Ni  Ni5  1  0.55240348  0.00296567  0.31393495  1
  Ni  Ni6  1  0.55240348  0.00296567  0.68606505  1
  Cu  Cu7  1  0.03432801  0.49890309  0.00000000  1
  Cu  Cu8  1  0.29156176  0.00021528  0.00000000  1
  Cu  Cu9  1  0.53417997  0.50120133  0.00000000  1
  Cu  Cu10  1  0.77751464  0.99993691  0.00000000  1
