# generated using pymatgen
data_Cu4NiC14
_symmetry_space_group_name_H-M   'P 1'
_cell_length_a   5.48361339
_cell_length_b   5.84962266
_cell_length_c   8.97514211
_cell_angle_alpha   108.59038653
_cell_angle_beta   107.39074263
_cell_angle_gamma   90.97622087
_symmetry_Int_Tables_number   1
_chemical_formula_structural   Cu4NiC14
_chemical_formula_sum   'Cu4 Ni1 C14'
_cell_volume   258.38525508
_cell_formula_units_Z   1
loop_
 _symmetry_equiv_pos_site_id
 _symmetry_equiv_pos_as_xyz
  1  'x, y, z'
loop_
 _atom_site_type_symbol
 _atom_site_label
 _atom_site_symmetry_multiplicity
 _atom_site_fract_x
 _atom_site_fract_y
 _atom_site_fract_z
 _atom_site_occupancy
  C  C0  1  0.61930100  0.13863400  0.21634200  1
  C  C1  1  0.40872200  0.88558600  0.80614700  1
  C  C2  1  0.10253500  0.57943900  0.19362800  1
  C  C3  1  0.90359400  0.42200400  0.78389900  1
  Ni  Ni4  1  0.04215200  0.53124200  0.49995100  1
  Cu  Cu5  1  0.01697500  0.00890200  0.00627800  1
  Cu  Cu6  1  0.51136000  0.50286500  0.99457600  1
  Cu  Cu7  1  0.23873600  0.13871300  0.50048700  1
  Cu  Cu8  1  0.68450800  0.84853300  0.49983400  1
  C  C9  1  0.25531100  0.24986500  0.98731300  1
  C  C10  1  0.28573500  0.77385900  0.03724200  1
  C  C11  1  0.74586600  0.23872100  0.96285700  1
  C  C12  1  0.76936200  0.76483800  0.01227400  1
  C  C13  1  0.14231600  0.23251700  0.29900500  1
  C  C14  1  0.93294800  0.76094100  0.69110100  1
  C  C15  1  0.74186500  0.56997700  0.30844200  1
  C  C16  1  0.34193600  0.43312800  0.70081300  1
  C  C17  1  0.81992200  0.17236400  0.50015400  1
  C  C18  1  0.31247100  0.79548700  0.49965500  1
