# generated using pymatgen
data_Cu6NiC12
_symmetry_space_group_name_H-M   'P 1'
_cell_length_a   5.11489964
_cell_length_b   7.93360578
_cell_length_c   5.73781628
_cell_angle_alpha   95.68625995
_cell_angle_beta   96.12845946
_cell_angle_gamma   85.49867300
_symmetry_Int_Tables_number   1
_chemical_formula_structural   Cu6NiC12
_chemical_formula_sum   'Cu6 Ni1 C12'
_cell_volume   229.82524011
_cell_formula_units_Z   1
loop_
 _symmetry_equiv_pos_site_id
 _symmetry_equiv_pos_as_xyz
  1  'x, y, z'
loop_
 _atom_site_type_symbol
 _atom_site_label
 _atom_site_symmetry_multiplicity
 _atom_site_fract_x
 _atom_site_fract_y
 _atom_site_fract_z
 _atom_site_occupancy
  Ni  Ni0  1  0.99073600  0.51589800  0.99094300  1
  Cu  Cu1  1  0.45432900  0.99122100  0.54422200  1
  Cu  Cu2  1  0.48043400  0.34953900  0.83243700  1
  Cu  Cu3  1  0.51768300  0.66808200  0.18387300  1
  Cu  Cu4  1  0.04116800  0.71591900  0.61325900  1
  Cu  Cu5  1  0.96834300  0.30171800  0.36982900  1
  Cu  Cu6  1  0.00350700  0.00288000  0.00582500  1
  C  C7  1  0.84552000  0.09131200  0.28077700  1
  C  C8  1  0.67019600  0.78289700  0.49039000  1
  C  C9  1  0.70636200  0.42164400  0.12939400  1
  C  C10  1  0.30419600  0.57216300  0.85647200  1
  C  C11  1  0.31247600  0.23815400  0.54448300  1
  C  C12  1  0.19619700  0.93522400  0.73855300  1
  C  C13  1  0.81329400  0.42155000  0.66379500  1
  C  C14  1  0.85004800  0.76543000  0.99102300  1
  C  C15  1  0.69542100  0.10787700  0.80747900  1
  C  C16  1  0.31254800  0.91747500  0.20971400  1
  C  C17  1  0.17887600  0.26216400  0.02819000  1
  C  C18  1  0.15866600  0.55551900  0.32648600  1
