# generated using pymatgen
data_Cu2NiC16
_symmetry_space_group_name_H-M   'P 1'
_cell_length_a   4.90593718
_cell_length_b   4.91714455
_cell_length_c   10.24533107
_cell_angle_alpha   89.99152720
_cell_angle_beta   89.99169820
_cell_angle_gamma   87.62500884
_symmetry_Int_Tables_number   1
_chemical_formula_structural   Cu2NiC16
_chemical_formula_sum   'Cu2 Ni1 C16'
_cell_volume   246.93788976
_cell_formula_units_Z   1
loop_
 _symmetry_equiv_pos_site_id
 _symmetry_equiv_pos_as_xyz
  1  'x, y, z'
loop_
 _atom_site_type_symbol
 _atom_site_label
 _atom_site_symmetry_multiplicity
 _atom_site_fract_x
 _atom_site_fract_y
 _atom_site_fract_z
 _atom_site_occupancy
  Ni  Ni0  1  0.00008900  0.50014700  0.75938300  1
  Cu  Cu1  1  0.99990900  0.99993500  0.31810600  1
  Cu  Cu2  1  0.50016900  0.50022500  0.88266700  1
  C  C3  1  0.00013300  0.00008600  0.01314300  1
  C  C4  1  0.99997700  0.00000100  0.62047000  1
  C  C5  1  0.50004000  0.50001700  0.17488300  1
  C  C6  1  0.49991500  0.49992300  0.48584800  1
  C  C7  1  0.17127300  0.77586600  0.86849700  1
  C  C8  1  0.19722600  0.79562600  0.16102600  1
  C  C9  1  0.22126200  0.81731800  0.47896800  1
  C  C10  1  0.30453600  0.28620600  0.02981400  1
  C  C11  1  0.31324300  0.32497800  0.32895000  1
  C  C12  1  0.28205400  0.34123800  0.63381300  1
  C  C13  1  0.69572400  0.71395600  0.02986100  1
  C  C14  1  0.68677400  0.67490600  0.32898400  1
  C  C15  1  0.71718400  0.65829000  0.63403500  1
  C  C16  1  0.80293300  0.20448500  0.16101500  1
  C  C17  1  0.82904200  0.22431000  0.86847600  1
  C  C18  1  0.77851800  0.18248600  0.47900300  1
