# generated using pymatgen
data_Cu2NiC16
_symmetry_space_group_name_H-M   'P 1'
_cell_length_a   5.59499200
_cell_length_b   5.59499200
_cell_length_c   8.64725400
_cell_angle_alpha   90.00000000
_cell_angle_beta   90.00000000
_cell_angle_gamma   90.00000000
_symmetry_Int_Tables_number   1
_chemical_formula_structural   Cu2NiC16
_chemical_formula_sum   'Cu2 Ni1 C16'
_cell_volume   270.69308130
_cell_formula_units_Z   1
loop_
 _symmetry_equiv_pos_site_id
 _symmetry_equiv_pos_as_xyz
  1  'x, y, z'
loop_
 _atom_site_type_symbol
 _atom_site_label
 _atom_site_symmetry_multiplicity
 _atom_site_fract_x
 _atom_site_fract_y
 _atom_site_fract_z
 _atom_site_occupancy
  C  C0  1  0.50000000  0.50000000  0.53675800  1
  C  C1  1  0.00000000  0.00000000  0.59737300  1
  C  C2  1  0.50000000  0.50000000  0.98678700  1
  C  C3  1  0.00000000  0.00000000  0.95717200  1
  Ni  Ni4  1  0.00000000  0.00000000  0.26149200  1
  Cu  Cu5  1  0.00000000  0.50000000  0.80315900  1
  Cu  Cu6  1  0.50000000  0.00000000  0.80315900  1
  C  C7  1  0.50000000  0.00000000  0.24945800  1
  C  C8  1  0.00000000  0.50000000  0.24945800  1
  C  C9  1  0.32424900  0.12927500  0.16839000  1
  C  C10  1  0.12927500  0.67575100  0.16839000  1
  C  C11  1  0.00000000  0.50000000  0.41161300  1
  C  C12  1  0.50000000  0.00000000  0.41161300  1
  C  C13  1  0.87072500  0.32424900  0.16839000  1
  C  C14  1  0.67575100  0.87072500  0.16839000  1
  C  C15  1  0.26701900  0.75405300  0.80779900  1
  C  C16  1  0.24594700  0.26701900  0.80779900  1
  C  C17  1  0.75405300  0.73298100  0.80779900  1
  C  C18  1  0.73298100  0.24594700  0.80779900  1
