# generated using pymatgen
data_Cu4NiC
_symmetry_space_group_name_H-M   'P 1'
_cell_length_a   8.53918022
_cell_length_b   8.53917995
_cell_length_c   22.30266937
_cell_angle_alpha   90.00000000
_cell_angle_beta   90.00000000
_cell_angle_gamma   120.00000103
_symmetry_Int_Tables_number   1
_chemical_formula_structural   Cu4NiC
_chemical_formula_sum   'Cu72 Ni18 C18'
_cell_volume   1408.37990125
_cell_formula_units_Z   18
loop_
 _symmetry_equiv_pos_site_id
 _symmetry_equiv_pos_as_xyz
  1  'x, y, z'
loop_
 _atom_site_type_symbol
 _atom_site_label
 _atom_site_symmetry_multiplicity
 _atom_site_fract_x
 _atom_site_fract_y
 _atom_site_fract_z
 _atom_site_occupancy
  C  C0  1  0.00000000  -0.00000000  0.49897711  1
  C  C1  1  0.00000000  -0.00000000  0.99897711  1
  C  C2  1  0.66666700  0.33333300  0.83231011  1
  C  C3  1  0.66666700  0.33333300  0.33231011  1
  C  C4  1  0.33333300  0.66666700  0.16564411  1
  C  C5  1  0.33333300  0.66666700  0.66564411  1
  C  C6  1  0.00000000  -0.00000000  0.35232127  1
  C  C7  1  0.00000000  -0.00000000  0.85232127  1
  C  C8  1  0.66666700  0.33333300  0.68565427  1
  C  C9  1  0.66666700  0.33333300  0.18565427  1
  C  C10  1  0.33333300  0.66666700  0.01898827  1
  C  C11  1  0.33333300  0.66666700  0.51898827  1
  C  C12  1  0.00000000  -0.00000000  0.65018056  1
  C  C13  1  0.00000000  -0.00000000  0.15018056  1
  C  C14  1  0.66666700  0.33333300  0.98351356  1
  C  C15  1  0.66666700  0.33333300  0.48351356  1
  C  C16  1  0.33333300  0.66666700  0.31684756  1
  C  C17  1  0.33333300  0.66666700  0.81684756  1
  Ni  Ni18  1  0.29050294  0.99638797  0.25086521  1
  Ni  Ni19  1  0.70588503  0.70949706  0.25086521  1
  Ni  Ni20  1  0.00361203  0.29411497  0.25086521  1
  Ni  Ni21  1  0.29050294  0.29411497  0.75086521  1
  Ni  Ni22  1  0.00361203  0.70949706  0.75086521  1
  Ni  Ni23  1  0.70588503  0.99638797  0.75086521  1
  Ni  Ni24  1  0.95716994  0.32972097  0.58419821  1
  Ni  Ni25  1  0.37255203  0.04283006  0.58419821  1
  Ni  Ni26  1  0.67027903  0.62744797  0.58419821  1
  Ni  Ni27  1  0.95716994  0.62744797  0.08419821  1
  Ni  Ni28  1  0.67027903  0.04283006  0.08419821  1
  Ni  Ni29  1  0.37255203  0.32972097  0.08419821  1
  Ni  Ni30  1  0.62383594  0.66305497  0.91753221  1
  Ni  Ni31  1  0.03921803  0.37616406  0.91753221  1
  Ni  Ni32  1  0.33694503  0.96078197  0.91753221  1
  Ni  Ni33  1  0.62383594  0.96078197  0.41753221  1
  Ni  Ni34  1  0.33694503  0.37616406  0.41753221  1
  Ni  Ni35  1  0.03921803  0.66305497  0.41753221  1
  Cu  Cu36  1  0.20642817  0.02164838  0.30383925  1
  Cu  Cu37  1  0.81522022  0.79357183  0.30383925  1
  Cu  Cu38  1  0.97835162  0.18477978  0.30383925  1
  Cu  Cu39  1  0.20642817  0.18477978  0.80383925  1
  Cu  Cu40  1  0.97835162  0.79357183  0.80383925  1
  Cu  Cu41  1  0.81522022  0.02164838  0.80383925  1
  Cu  Cu42  1  0.78468319  0.96376925  0.69506098  1
  Cu  Cu43  1  0.17908606  0.21531681  0.69506098  1
  Cu  Cu44  1  0.03623075  0.82091394  0.69506098  1
  Cu  Cu45  1  0.78468319  0.82091394  0.19506098  1
  Cu  Cu46  1  0.03623075  0.21531681  0.19506098  1
  Cu  Cu47  1  0.17908606  0.96376925  0.19506098  1
  Cu  Cu48  1  0.87309517  0.35498138  0.63717225  1
  Cu  Cu49  1  0.48188722  0.12690483  0.63717225  1
  Cu  Cu50  1  0.64501862  0.51811278  0.63717225  1
  Cu  Cu51  1  0.87309517  0.51811278  0.13717225  1
  Cu  Cu52  1  0.64501862  0.12690483  0.13717225  1
  Cu  Cu53  1  0.48188722  0.35498138  0.13717225  1
  Cu  Cu54  1  0.45135019  0.29710225  0.02839398  1
  Cu  Cu55  1  0.84575306  0.54864981  0.02839398  1
  Cu  Cu56  1  0.70289775  0.15424694  0.02839398  1
  Cu  Cu57  1  0.45135019  0.15424694  0.52839398  1
  Cu  Cu58  1  0.70289775  0.54864981  0.52839398  1
  Cu  Cu59  1  0.84575306  0.29710225  0.52839398  1
  Cu  Cu60  1  0.53976117  0.68831538  0.97050625  1
  Cu  Cu61  1  0.14855322  0.46023883  0.97050625  1
  Cu  Cu62  1  0.31168462  0.85144678  0.97050625  1
  Cu  Cu63  1  0.53976117  0.85144678  0.47050625  1
  Cu  Cu64  1  0.31168462  0.46023883  0.47050625  1
  Cu  Cu65  1  0.14855322  0.68831538  0.47050625  1
  Cu  Cu66  1  0.11801619  0.63043625  0.36172798  1
  Cu  Cu67  1  0.51241906  0.88198381  0.36172798  1
  Cu  Cu68  1  0.36956375  0.48758094  0.36172798  1
  Cu  Cu69  1  0.11801619  0.48758094  0.86172798  1
  Cu  Cu70  1  0.36956375  0.88198381  0.86172798  1
  Cu  Cu71  1  0.51241906  0.63043625  0.86172798  1
  Cu  Cu72  1  0.01712533  0.82198506  0.41037696  1
  Cu  Cu73  1  0.80485973  0.98287467  0.41037696  1
  Cu  Cu74  1  0.17801494  0.19514027  0.41037696  1
  Cu  Cu75  1  0.01712533  0.19514027  0.91037696  1
  Cu  Cu76  1  0.17801494  0.98287467  0.91037696  1
  Cu  Cu77  1  0.80485973  0.82198506  0.91037696  1
  Cu  Cu78  1  0.97396627  0.16300681  0.58936462  1
  Cu  Cu79  1  0.18904054  0.02603373  0.58936462  1
  Cu  Cu80  1  0.83699319  0.81095946  0.58936462  1
  Cu  Cu81  1  0.97396627  0.81095946  0.08936462  1
  Cu  Cu82  1  0.83699319  0.02603373  0.08936462  1
  Cu  Cu83  1  0.18904054  0.16300681  0.08936462  1
  Cu  Cu84  1  0.68379233  0.15531806  0.74370996  1
  Cu  Cu85  1  0.47152673  0.31620767  0.74370996  1
  Cu  Cu86  1  0.84468194  0.52847327  0.74370996  1
  Cu  Cu87  1  0.68379233  0.52847327  0.24370996  1
  Cu  Cu88  1  0.84468194  0.31620767  0.24370996  1
  Cu  Cu89  1  0.47152673  0.15531806  0.24370996  1
  Cu  Cu90  1  0.64063327  0.49633981  0.92269762  1
  Cu  Cu91  1  0.85570754  0.35936673  0.92269762  1
  Cu  Cu92  1  0.50366019  0.14429246  0.92269762  1
  Cu  Cu93  1  0.64063327  0.14429246  0.42269762  1
  Cu  Cu94  1  0.50366019  0.35936673  0.42269762  1
  Cu  Cu95  1  0.85570754  0.49633981  0.42269762  1
  Cu  Cu96  1  0.35045833  0.48865206  0.07704396  1
  Cu  Cu97  1  0.13819273  0.64954167  0.07704396  1
  Cu  Cu98  1  0.51134794  0.86180727  0.07704396  1
  Cu  Cu99  1  0.35045833  0.86180727  0.57704396  1
  Cu  Cu100  1  0.51134794  0.64954167  0.57704396  1
  Cu  Cu101  1  0.13819273  0.48865206  0.57704396  1
  Cu  Cu102  1  0.30729927  0.82967381  0.25603162  1
  Cu  Cu103  1  0.52237354  0.69270073  0.25603162  1
  Cu  Cu104  1  0.17032619  0.47762646  0.25603162  1
  Cu  Cu105  1  0.30729927  0.47762646  0.75603162  1
  Cu  Cu106  1  0.17032619  0.69270073  0.75603162  1
  Cu  Cu107  1  0.52237354  0.82967381  0.75603162  1
