# generated using pymatgen
data_CuNiC5
_symmetry_space_group_name_H-M   'P 1'
_cell_length_a   5.14558700
_cell_length_b   8.36671300
_cell_length_c   19.30335200
_cell_angle_alpha   90.00000000
_cell_angle_beta   90.00000000
_cell_angle_gamma   90.00000000
_symmetry_Int_Tables_number   1
_chemical_formula_structural   CuNiC5
_chemical_formula_sum   'Cu8 Ni8 C40'
_cell_volume   831.04114729
_cell_formula_units_Z   8
loop_
 _symmetry_equiv_pos_site_id
 _symmetry_equiv_pos_as_xyz
  1  'x, y, z'
loop_
 _atom_site_type_symbol
 _atom_site_label
 _atom_site_symmetry_multiplicity
 _atom_site_fract_x
 _atom_site_fract_y
 _atom_site_fract_z
 _atom_site_occupancy
  Ni  Ni0  1  0.72112500  0.00032700  0.44228100  1
  Ni  Ni1  1  0.22112500  0.99967300  0.55771900  1
  Ni  Ni2  1  0.22112500  0.49967300  0.94228100  1
  Ni  Ni3  1  0.72112500  0.50032700  0.05771900  1
  Ni  Ni4  1  0.71992800  0.31978700  0.34447800  1
  Ni  Ni5  1  0.21992800  0.68021300  0.65552200  1
  Ni  Ni6  1  0.21992800  0.18021300  0.84447800  1
  Ni  Ni7  1  0.71992800  0.81978700  0.15552200  1
  Cu  Cu8  1  0.21069400  0.22961600  0.42745600  1
  Cu  Cu9  1  0.71069400  0.77038400  0.57254400  1
  Cu  Cu10  1  0.71069400  0.27038400  0.92745600  1
  Cu  Cu11  1  0.21069400  0.72961600  0.07254400  1
  Cu  Cu12  1  0.72615500  0.70132600  0.32224200  1
  Cu  Cu13  1  0.22615500  0.29867400  0.67775800  1
  Cu  Cu14  1  0.22615500  0.79867400  0.82224200  1
  Cu  Cu15  1  0.72615500  0.20132600  0.17775800  1
  C  C16  1  0.28659300  0.64727700  0.44050100  1
  C  C17  1  0.78659300  0.35272300  0.55949900  1
  C  C18  1  0.78659300  0.85272300  0.94050100  1
  C  C19  1  0.28659300  0.14727700  0.05949900  1
  C  C20  1  0.25331400  0.54108100  0.23176200  1
  C  C21  1  0.75331400  0.45891900  0.76823800  1
  C  C22  1  0.75331400  0.95891900  0.73176200  1
  C  C23  1  0.25331400  0.04108100  0.26823800  1
  C  C24  1  0.52805300  0.20162400  0.41985500  1
  C  C25  1  0.02805300  0.79837600  0.58014500  1
  C  C26  1  0.02805300  0.29837600  0.91985500  1
  C  C27  1  0.52805300  0.70162400  0.08014500  1
  C  C28  1  0.14791000  0.38880300  0.47388700  1
  C  C29  1  0.64791000  0.61119700  0.52611300  1
  C  C30  1  0.64791000  0.11119700  0.97388700  1
  C  C31  1  0.14791000  0.88880300  0.02611300  1
  C  C32  1  0.08178200  0.06992300  0.46548500  1
  C  C33  1  0.58178200  0.93007700  0.53451500  1
  C  C34  1  0.58178200  0.43007700  0.96548500  1
  C  C35  1  0.08178200  0.56992300  0.03451500  1
  C  C36  1  0.08386400  0.24584400  0.34901400  1
  C  C37  1  0.58386400  0.75415600  0.65098600  1
  C  C38  1  0.58386400  0.25415600  0.84901400  1
  C  C39  1  0.08386400  0.74584400  0.15098600  1
  C  C40  1  0.04048500  0.67606000  0.31930500  1
  C  C41  1  0.54048500  0.32394000  0.68069500  1
  C  C42  1  0.54048500  0.82394000  0.81930500  1
  C  C43  1  0.04048500  0.17606000  0.18069500  1
  C  C44  1  0.57796200  0.53738100  0.35316900  1
  C  C45  1  0.07796200  0.46261900  0.64683100  1
  C  C46  1  0.07796200  0.96261900  0.85316900  1
  C  C47  1  0.57796200  0.03738100  0.14683100  1
  C  C48  1  0.59867700  0.22280000  0.25640000  1
  C  C49  1  0.09867700  0.77720000  0.74360000  1
  C  C50  1  0.09867700  0.27720000  0.75640000  1
  C  C51  1  0.59867700  0.72280000  0.24360000  1
  C  C52  1  0.63445900  0.34942000  0.12872100  1
  C  C53  1  0.13445900  0.65058000  0.87127900  1
  C  C54  1  0.13445900  0.15058000  0.62872100  1
  C  C55  1  0.63445900  0.84942000  0.37127900  1
