# generated using pymatgen
data_Cu2NiC9
_symmetry_space_group_name_H-M   'P 1'
_cell_length_a   5.97061522
_cell_length_b   5.97281602
_cell_length_c   6.34020000
_cell_angle_alpha   89.99934491
_cell_angle_beta   89.99918005
_cell_angle_gamma   120.01910300
_symmetry_Int_Tables_number   1
_chemical_formula_structural   Cu2NiC9
_chemical_formula_sum   'Cu2 Ni1 C9'
_cell_volume   195.77091900
_cell_formula_units_Z   1
loop_
 _symmetry_equiv_pos_site_id
 _symmetry_equiv_pos_as_xyz
  1  'x, y, z'
loop_
 _atom_site_type_symbol
 _atom_site_label
 _atom_site_symmetry_multiplicity
 _atom_site_fract_x
 _atom_site_fract_y
 _atom_site_fract_z
 _atom_site_occupancy
  C  C0  1  0.99997800  0.99996200  0.99998800  1
  Ni  Ni1  1  0.99999500  0.99998300  0.50000000  1
  Cu  Cu2  1  0.33316000  0.66649800  0.36015900  1
  Cu  Cu3  1  0.66684600  0.33361200  0.63959800  1
  C  C4  1  0.16228700  0.83781000  0.28166600  1
  C  C5  1  0.16220600  0.32441600  0.28175200  1
  C  C6  1  0.33285400  0.66648300  0.63643200  1
  C  C7  1  0.32473300  0.16250400  0.71830400  1
  C  C8  1  0.67524900  0.83749200  0.28174300  1
  C  C9  1  0.66707500  0.33356500  0.36371500  1
  C  C10  1  0.83771600  0.67551400  0.71827400  1
  C  C11  1  0.83769800  0.16216100  0.71837000  1
