# generated using pymatgen
data_CuNi5C31
_symmetry_space_group_name_H-M   'P 1'
_cell_length_a   8.82716620
_cell_length_b   8.80585219
_cell_length_c   22.47073580
_cell_angle_alpha   90.25712898
_cell_angle_beta   90.08406054
_cell_angle_gamma   119.38694004
_symmetry_Int_Tables_number   1
_chemical_formula_structural   CuNi5C31
_chemical_formula_sum   'Cu3 Ni15 C93'
_cell_volume   1521.88655537
_cell_formula_units_Z   3
loop_
 _symmetry_equiv_pos_site_id
 _symmetry_equiv_pos_as_xyz
  1  'x, y, z'
loop_
 _atom_site_type_symbol
 _atom_site_label
 _atom_site_symmetry_multiplicity
 _atom_site_fract_x
 _atom_site_fract_y
 _atom_site_fract_z
 _atom_site_occupancy
  C  C0  1  0.00595801  0.36012158  0.75065799  1
  C  C1  1  0.67131231  0.95326431  0.58320075  1
  C  C2  1  0.05012932  0.33046605  0.08332999  1
  C  C3  1  0.01403024  0.99499165  0.49435946  1
  C  C4  1  0.00678427  0.98897121  0.99370583  1
  C  C5  1  0.65372359  0.32411950  0.83539245  1
  C  C6  1  0.67639063  0.33468919  0.33397250  1
  C  C7  1  0.35373317  0.67460136  0.16902413  1
  C  C8  1  0.33626447  0.66763261  0.66857153  1
  C  C9  1  0.01222990  0.99777272  0.64209292  1
  C  C10  1  0.99724006  0.98808995  0.14279958  1
  C  C11  1  0.33534275  0.67557125  0.01668496  1
  C  C12  1  0.32142712  0.66616896  0.51683936  1
  C  C13  1  0.32769843  0.66512269  0.31921825  1
  C  C14  1  0.33656830  0.67781255  0.82121009  1
  C  C15  1  0.96463817  0.98028367  0.34770931  1
  C  C16  1  0.01576207  0.01372347  0.84580635  1
  C  C17  1  0.66395224  0.33787669  0.68805802  1
  C  C18  1  0.67726079  0.34247182  0.18630547  1
  C  C19  1  0.66233801  0.32226685  0.98185907  1
  C  C20  1  0.67691120  0.33909105  0.48181423  1
  Ni  Ni21  1  0.70439956  0.69050190  0.24853158  1
  Ni  Ni22  1  0.98281304  0.28247935  0.24814559  1
  Ni  Ni23  1  0.30456991  0.29114898  0.74987219  1
  Ni  Ni24  1  0.98322815  0.69926822  0.75178967  1
  Ni  Ni25  1  0.71278980  0.01017859  0.74685510  1
  Ni  Ni26  1  0.94589156  0.34272413  0.58628616  1
  Ni  Ni27  1  0.40208799  0.06771234  0.58140225  1
  Ni  Ni28  1  0.65985962  0.60463977  0.58293364  1
  Ni  Ni29  1  0.93805525  0.60240389  0.08033435  1
  Ni  Ni30  1  0.65894183  0.05603268  0.08550476  1
  Ni  Ni31  1  0.39843294  0.33907238  0.08444209  1
  Ni  Ni32  1  0.01187305  0.34437120  0.91656518  1
  Ni  Ni33  1  0.33222946  0.99059398  0.91677580  1
  Ni  Ni34  1  0.64753456  0.98596528  0.41945285  1
  Ni  Ni35  1  0.01015373  0.66931248  0.41564876  1
  Cu  Cu36  1  0.30359352  0.01689963  0.25190136  1
  Cu  Cu37  1  0.65498902  0.66790119  0.91710596  1
  Cu  Cu38  1  0.33055922  0.34487781  0.41645709  1
  C  C39  1  0.20976823  0.03160857  0.30520669  1
  C  C40  1  0.81967827  0.77985266  0.30593319  1
  C  C41  1  0.95699506  0.15628641  0.30270446  1
  C  C42  1  0.21710413  0.17333578  0.80595295  1
  C  C43  1  0.96650061  0.79913180  0.80760593  1
  C  C44  1  0.84616979  0.04550030  0.79993351  1
  C  C45  1  0.78299039  0.98522269  0.68818198  1
  C  C46  1  0.18914670  0.21657751  0.69577351  1
  C  C47  1  0.01481621  0.79989504  0.69513128  1
  C  C48  1  0.78752226  0.79821908  0.19421198  1
  C  C49  1  0.01247728  0.21326887  0.18991832  1
  C  C50  1  0.20738518  0.99386121  0.19658246  1
  C  C51  1  0.86064442  0.35739658  0.64602089  1
  C  C52  1  0.50732719  0.15054555  0.64009211  1
  C  C53  1  0.64679863  0.50434202  0.64144203  1
  C  C54  1  0.85955327  0.50050966  0.13955194  1
  C  C55  1  0.64411887  0.14673031  0.14320584  1
  C  C56  1  0.50223592  0.35677751  0.14294922  1
  C  C57  1  0.48813909  0.32714861  0.02695512  1
  C  C58  1  0.83436416  0.50751310  0.02384954  1
  C  C59  1  0.67720588  0.15836296  0.02730995  1
  C  C60  1  0.49395878  0.16620794  0.52413051  1
  C  C61  1  0.67059138  0.51353311  0.52540666  1
  C  C62  1  0.84018926  0.32644926  0.52908642  1
  C  C63  1  0.57330164  0.69732590  0.96997316  1
  C  C64  1  0.12565668  0.42143570  0.97248438  1
  C  C65  1  0.29688113  0.87504842  0.97123203  1
  C  C66  1  0.57878975  0.87817347  0.47638992  1
  C  C67  1  0.30105313  0.42588633  0.46979689  1
  C  C68  1  0.12431777  0.70941729  0.47119385  1
  C  C69  1  0.08723271  0.62632574  0.36209030  1
  C  C70  1  0.52868497  0.89968309  0.36630968  1
  C  C71  1  0.36292386  0.45608666  0.36403735  1
  C  C72  1  0.09221084  0.45974727  0.86196602  1
  C  C73  1  0.37752378  0.91800560  0.86227941  1
  C  C74  1  0.54528157  0.63554735  0.86393095  1
  C  C75  1  0.99612836  0.83924799  0.40458220  1
  C  C76  1  0.83317137  0.00601429  0.40763257  1
  C  C77  1  0.17403244  0.17089876  0.40788606  1
  C  C78  1  0.99196765  0.15873275  0.90494603  1
  C  C79  1  0.16245952  0.00184734  0.90601232  1
  C  C80  1  0.82772763  0.82500878  0.90963432  1
  C  C81  1  0.95553865  0.17339079  0.58459815  1
  C  C82  1  0.22316806  0.05291785  0.57942526  1
  C  C83  1  0.82167639  0.78735505  0.58201673  1
  C  C84  1  0.95421314  0.78220314  0.07860917  1
  C  C85  1  0.82815465  0.04593401  0.08473527  1
  C  C86  1  0.21583107  0.17646546  0.08440820  1
  C  C87  1  0.70353813  0.18562213  0.74552872  1
  C  C88  1  0.48501444  0.30118166  0.74400050  1
  C  C89  1  0.81280019  0.51573705  0.74815218  1
  C  C90  1  0.69648856  0.50836640  0.24476257  1
  C  C91  1  0.81060147  0.29491289  0.24516428  1
  C  C92  1  0.47636523  0.17904789  0.24958653  1
  C  C93  1  0.67473122  0.50993075  0.92424254  1
  C  C94  1  0.82471889  0.32062807  0.92504277  1
  C  C95  1  0.49011879  0.17834053  0.92655252  1
  C  C96  1  0.67632041  0.17575463  0.42599689  1
  C  C97  1  0.48810650  0.32480498  0.42369927  1
  C  C98  1  0.82390862  0.50968806  0.42562527  1
  C  C99  1  0.37325223  0.50074545  0.08269441  1
  C  C100  1  0.11821794  0.61404007  0.07951686  1
  C  C101  1  0.49739526  0.87615026  0.08416823  1
  C  C102  1  0.38760531  0.88527814  0.58136384  1
  C  C103  1  0.49740294  0.62742084  0.58186969  1
  C  C104  1  0.12534986  0.50513095  0.58484174  1
  C  C105  1  0.32924289  0.86315585  0.25619836  1
  C  C106  1  0.52285926  0.66675415  0.25656979  1
  C  C107  1  0.13706387  0.46317089  0.25897933  1
  C  C108  1  0.32362283  0.47188675  0.75985242  1
  C  C109  1  0.13539911  0.66152678  0.75916807  1
  C  C110  1  0.53320508  0.85522239  0.75716588  1
