# generated using pymatgen
data_CuNi7C4
_symmetry_space_group_name_H-M   'P 1'
_cell_length_a   6.50357122
_cell_length_b   6.54579237
_cell_length_c   4.00721000
_cell_angle_alpha   90.00000000
_cell_angle_beta   90.00000000
_cell_angle_gamma   61.22977041
_symmetry_Int_Tables_number   1
_chemical_formula_structural   CuNi7C4
_chemical_formula_sum   'Cu1 Ni7 C4'
_cell_volume   149.53275337
_cell_formula_units_Z   1
loop_
 _symmetry_equiv_pos_site_id
 _symmetry_equiv_pos_as_xyz
  1  'x, y, z'
loop_
 _atom_site_type_symbol
 _atom_site_label
 _atom_site_symmetry_multiplicity
 _atom_site_fract_x
 _atom_site_fract_y
 _atom_site_fract_z
 _atom_site_occupancy
  C  C0  1  0.04253000  0.65638000  0.50000000  1
  C  C1  1  0.98587900  0.03224100  0.00000000  1
  C  C2  1  0.32172100  0.27869700  0.00000000  1
  C  C3  1  0.67974200  0.70194800  0.00000000  1
  Ni  Ni4  1  0.04687800  0.66004000  0.00000000  1
  Ni  Ni5  1  0.33592100  0.95834200  0.00000000  1
  Ni  Ni6  1  0.00614100  0.97643600  0.50000000  1
  Ni  Ni7  1  0.29664600  0.32274900  0.50000000  1
  Ni  Ni8  1  0.70878400  0.69231400  0.50000000  1
  Ni  Ni9  1  0.95288000  0.34394900  0.00000000  1
  Ni  Ni10  1  0.66273100  0.03734400  0.00000000  1
  Cu  Cu11  1  0.50181300  0.49580800  0.00000000  1
