# generated using pymatgen
data_Cu2Ni2C9
_symmetry_space_group_name_H-M   'P 1'
_cell_length_a   5.58076431
_cell_length_b   5.62379237
_cell_length_c   5.74134651
_cell_angle_alpha   73.47508796
_cell_angle_beta   106.75398733
_cell_angle_gamma   65.10932396
_symmetry_Int_Tables_number   1
_chemical_formula_structural   Cu2Ni2C9
_chemical_formula_sum   'Cu2 Ni2 C9'
_cell_volume   138.38944200
_cell_formula_units_Z   1
loop_
 _symmetry_equiv_pos_site_id
 _symmetry_equiv_pos_as_xyz
  1  'x, y, z'
loop_
 _atom_site_type_symbol
 _atom_site_label
 _atom_site_symmetry_multiplicity
 _atom_site_fract_x
 _atom_site_fract_y
 _atom_site_fract_z
 _atom_site_occupancy
  C  C0  1  0.26401900  0.24316600  0.99467900  1
  Ni  Ni1  1  0.25590500  0.22987900  0.49792300  1
  Ni  Ni2  1  0.99072700  0.94789000  0.02240800  1
  Cu  Cu3  1  0.75888800  0.74338200  0.50005600  1
  Cu  Cu4  1  0.52831800  0.51266800  0.99744300  1
  C  C5  1  0.55513900  0.22032600  0.82518700  1
  C  C6  1  0.06774300  0.71041800  0.83572600  1
  C  C7  1  0.99072400  0.28397500  0.66456100  1
  C  C8  1  0.49227100  0.81264900  0.67949700  1
  C  C9  1  0.02473000  0.68198600  0.31316700  1
  C  C10  1  0.53104300  0.20195500  0.33254500  1
  C  C11  1  0.98777200  0.24819800  0.17129000  1
  C  C12  1  0.43367300  0.79446100  0.16551700  1
