# generated using pymatgen
data_Cu6NiC12
_symmetry_space_group_name_H-M   'P 1'
_cell_length_a   5.02643809
_cell_length_b   14.34814472
_cell_length_c   3.07824200
_cell_angle_alpha   90.00000000
_cell_angle_beta   90.00000000
_cell_angle_gamma   91.26862677
_symmetry_Int_Tables_number   1
_chemical_formula_structural   Cu6NiC12
_chemical_formula_sum   'Cu6 Ni1 C12'
_cell_volume   221.94858444
_cell_formula_units_Z   1
loop_
 _symmetry_equiv_pos_site_id
 _symmetry_equiv_pos_as_xyz
  1  'x, y, z'
loop_
 _atom_site_type_symbol
 _atom_site_label
 _atom_site_symmetry_multiplicity
 _atom_site_fract_x
 _atom_site_fract_y
 _atom_site_fract_z
 _atom_site_occupancy
  Ni  Ni0  1  0.50000000  0.00000000  0.00000000  1
  Cu  Cu1  1  0.00000000  0.00000000  0.00000000  1
  Cu  Cu2  1  0.04188500  0.34043200  0.00000000  1
  Cu  Cu3  1  0.95811500  0.65956800  0.00000000  1
  Cu  Cu4  1  0.59699900  0.18488300  0.50000000  1
  Cu  Cu5  1  0.50000000  0.50000000  0.50000000  1
  Cu  Cu6  1  0.40300100  0.81511700  0.50000000  1
  C  C7  1  0.25011300  0.94819600  0.50000000  1
  C  C8  1  0.23124900  0.75546600  0.00000000  1
  C  C9  1  0.32103500  0.43462200  0.00000000  1
  C  C10  1  0.67896500  0.56537800  0.00000000  1
  C  C11  1  0.76875100  0.24453400  0.00000000  1
  C  C12  1  0.74988700  0.05180400  0.50000000  1
  C  C13  1  0.23842900  0.27503900  0.50000000  1
  C  C14  1  0.15710700  0.59538300  0.50000000  1
  C  C15  1  0.32619700  0.12148900  0.00000000  1
  C  C16  1  0.67380300  0.87851100  0.00000000  1
  C  C17  1  0.84289300  0.40461700  0.50000000  1
  C  C18  1  0.76157100  0.72496100  0.50000000  1
