# generated using pymatgen
data_Cu2Ni5C33
_symmetry_space_group_name_H-M   'P 1'
_cell_length_a   9.09464538
_cell_length_b   9.09513621
_cell_length_c   22.91075225
_cell_angle_alpha   90.16842235
_cell_angle_beta   89.76015542
_cell_angle_gamma   119.94711586
_symmetry_Int_Tables_number   1
_chemical_formula_structural   Cu2Ni5C33
_chemical_formula_sum   'Cu6 Ni15 C99'
_cell_volume   1642.07175530
_cell_formula_units_Z   3
loop_
 _symmetry_equiv_pos_site_id
 _symmetry_equiv_pos_as_xyz
  1  'x, y, z'
loop_
 _atom_site_type_symbol
 _atom_site_label
 _atom_site_symmetry_multiplicity
 _atom_site_fract_x
 _atom_site_fract_y
 _atom_site_fract_z
 _atom_site_occupancy
  C  C0  1  0.63612823  0.00040041  0.25178405  1
  C  C1  1  0.36395694  0.36429618  0.24762235  1
  C  C2  1  0.00133214  0.63550168  0.25011480  1
  C  C3  1  0.63521987  0.63440797  0.74830232  1
  C  C4  1  0.99750530  0.36288819  0.75034082  1
  C  C5  1  0.36722285  0.00393418  0.75066853  1
  C  C6  1  0.30199655  0.33256916  0.58503539  1
  C  C7  1  0.02943154  0.69837343  0.58298997  1
  C  C8  1  0.66934963  0.96912962  0.58322090  1
  C  C9  1  0.03879676  0.33710225  0.08472881  1
  C  C10  1  0.97526197  0.66768495  0.91742240  1
  C  C11  1  0.33394958  0.02549251  0.41641087  1
  C  C12  1  0.98788709  0.99188401  0.49882783  1
  C  C13  1  0.01411301  0.00548164  0.00010228  1
  C  C14  1  0.66143531  0.32084657  0.83451722  1
  C  C15  1  0.67906750  0.33765073  0.33458297  1
  C  C16  1  0.33334836  0.66637080  0.16549089  1
  C  C17  1  0.33458465  0.66612314  0.66674272  1
  C  C18  1  0.98687890  0.98988732  0.35163789  1
  C  C19  1  0.99953113  0.99974330  0.64846999  1
  C  C20  1  0.66735731  0.33360079  0.68507444  1
  C  C21  1  0.68176232  0.33660060  0.48102538  1
  C  C22  1  0.33659076  0.67757943  0.51907455  1
  C  C23  1  0.32516882  0.67040762  0.81494657  1
  Ni  Ni24  1  0.29485638  0.00308767  0.25135057  1
  Ni  Ni25  1  0.70762478  0.71032069  0.24850531  1
  Ni  Ni26  1  0.99914265  0.28922001  0.24879063  1
  Ni  Ni27  1  0.29428055  0.29454771  0.74942264  1
  Ni  Ni28  1  0.99773811  0.71058164  0.75163340  1
  Ni  Ni29  1  0.70942535  0.99890665  0.75127261  1
  Ni  Ni30  1  0.96159117  0.33312781  0.58405638  1
  Ni  Ni31  1  0.37591397  0.04528644  0.58212576  1
  Ni  Ni32  1  0.66573355  0.62399731  0.58304570  1
  Ni  Ni33  1  0.95453548  0.62809186  0.08239411  1
  Ni  Ni34  1  0.37489428  0.33515440  0.08267948  1
  Ni  Ni35  1  0.03449263  0.36608050  0.91710226  1
  Ni  Ni36  1  0.33656039  0.96379942  0.91783400  1
  Ni  Ni37  1  0.62906233  0.96082698  0.41631773  1
  Ni  Ni38  1  0.03848424  0.66606093  0.41593548  1
  Cu  Cu39  1  0.01251664  0.01377486  0.85167120  1
  Cu  Cu40  1  0.01080234  0.99571138  0.14883434  1
  Cu  Cu41  1  0.66725208  0.34345258  0.18508446  1
  Cu  Cu42  1  0.66063371  0.32869059  0.98139202  1
  Cu  Cu43  1  0.31595890  0.65690930  0.01843476  1
  Cu  Cu44  1  0.33031007  0.67253806  0.31427398  1
  C  C45  1  0.66482960  0.03788474  0.08350199  1
  C  C46  1  0.62391446  0.66825927  0.91697752  1
  C  C47  1  0.33350286  0.37533273  0.41650300  1
  C  C48  1  0.21366589  0.04219599  0.30887452  1
  C  C49  1  0.83118285  0.79339906  0.30485557  1
  C  C50  1  0.96464365  0.16642061  0.30458722  1
  C  C51  1  0.21615651  0.16934326  0.80523674  1
  C  C52  1  0.95812728  0.79038949  0.80983064  1
  C  C53  1  0.83403758  0.03813505  0.80690786  1
  C  C54  1  0.79048634  0.96346430  0.69236804  1
  C  C55  1  0.17369740  0.21217538  0.69187790  1
  C  C56  1  0.03650423  0.82894916  0.69364944  1
  C  C57  1  0.78875550  0.83618988  0.19255211  1
  C  C58  1  0.03656674  0.21099411  0.18946811  1
  C  C59  1  0.17151691  0.95555953  0.19500445  1
  C  C60  1  0.87914856  0.37157391  0.64155207  1
  C  C61  1  0.49471285  0.12571140  0.64012577  1
  C  C62  1  0.63113949  0.50740183  0.64160294  1
  C  C63  1  0.87898511  0.50255198  0.14041470  1
  C  C64  1  0.63495621  0.11258828  0.13740336  1
  C  C65  1  0.48426909  0.36497311  0.14305431  1
  C  C66  1  0.46063466  0.29780692  0.02645506  1
  C  C67  1  0.84196659  0.53862552  0.02351147  1
  C  C68  1  0.69860836  0.14942366  0.03167434  1
  C  C69  1  0.45977542  0.16352786  0.52480595  1
  C  C70  1  0.69983089  0.53285434  0.52791487  1
  C  C71  1  0.83568792  0.29575090  0.52879477  1
  C  C72  1  0.54494800  0.69444847  0.96960798  1
  C  C73  1  0.15141879  0.44854547  0.97528894  1
  C  C74  1  0.30022804  0.83600936  0.97355561  1
  C  C75  1  0.53861593  0.84251764  0.47395892  1
  C  C76  1  0.30882347  0.45656372  0.46905575  1
  C  C77  1  0.15992736  0.69647871  0.47317854  1
  C  C78  1  0.12143455  0.63115041  0.35715925  1
  C  C79  1  0.50755416  0.87645966  0.35825129  1
  C  C80  1  0.36107067  0.47880885  0.36296724  1
  C  C81  1  0.12451146  0.49137131  0.86034710  1
  C  C82  1  0.36401520  0.87525140  0.85914966  1
  C  C83  1  0.51996366  0.64256921  0.86383838  1
  C  C84  1  0.03875233  0.84672412  0.41072060  1
  C  C85  1  0.81715515  0.98245125  0.41131369  1
  C  C86  1  0.18128952  0.20437585  0.41137194  1
  C  C87  1  0.01414513  0.17793970  0.91216167  1
  C  C88  1  0.15368535  0.96218141  0.91191231  1
  C  C89  1  0.79679142  0.81796750  0.91181918  1
  C  C90  1  0.97805440  0.16307593  0.58900746  1
  C  C91  1  0.18636298  0.02172960  0.58886795  1
  C  C92  1  0.83471002  0.81230428  0.58907027  1
  C  C93  1  0.97037505  0.81449512  0.08805009  1
  C  C94  1  0.82267145  0.02850262  0.08879351  1
  C  C95  1  0.17797367  0.17230514  0.08825906  1
  C  C96  1  0.68887299  0.16732951  0.74443554  1
  C  C97  1  0.48196902  0.31299434  0.74344273  1
  C  C98  1  0.83172789  0.52148730  0.74497658  1
  C  C99  1  0.69064242  0.52136599  0.24531861  1
  C  C100  1  0.82755491  0.30767119  0.24256126  1
  C  C101  1  0.48573365  0.17093274  0.24292502  1
  C  C102  1  0.64367657  0.51453860  0.92102234  1
  C  C103  1  0.85235819  0.36693378  0.92342795  1
  C  C104  1  0.50645111  0.15156744  0.92262305  1
  C  C105  1  0.62944132  0.14127088  0.42215924  1
  C  C106  1  0.48439541  0.35449925  0.42216749  1
  C  C107  1  0.85063326  0.50011420  0.42165870  1
  C  C108  1  0.35572135  0.50804461  0.07643771  1
  C  C109  1  0.14249183  0.63834325  0.07918499  1
  C  C110  1  0.51338987  0.86810138  0.07621796  1
  C  C111  1  0.35641084  0.85495197  0.57747269  1
  C  C112  1  0.49476733  0.64037015  0.57650721  1
  C  C113  1  0.14926123  0.50038369  0.57564090  1
  C  C114  1  0.31401180  0.83204497  0.25469433  1
  C  C115  1  0.51606768  0.68466530  0.25739202  1
  C  C116  1  0.17161346  0.47838610  0.25615819  1
  C  C117  1  0.31457539  0.48292307  0.75771038  1
  C  C118  1  0.16858294  0.69133035  0.75657335  1
  C  C119  1  0.52151673  0.82788367  0.75745586  1
