# generated using pymatgen
data_Cu4Ni2C9
_symmetry_space_group_name_H-M   'P 1'
_cell_length_a   6.34505330
_cell_length_b   6.00322671
_cell_length_c   6.01429900
_cell_angle_alpha   59.93897480
_cell_angle_beta   61.70990616
_cell_angle_gamma   61.24401653
_symmetry_Int_Tables_number   1
_chemical_formula_structural   Cu4Ni2C9
_chemical_formula_sum   'Cu4 Ni2 C9'
_cell_volume   165.42813574
_cell_formula_units_Z   1
loop_
 _symmetry_equiv_pos_site_id
 _symmetry_equiv_pos_as_xyz
  1  'x, y, z'
loop_
 _atom_site_type_symbol
 _atom_site_label
 _atom_site_symmetry_multiplicity
 _atom_site_fract_x
 _atom_site_fract_y
 _atom_site_fract_z
 _atom_site_occupancy
  C  C0  1  0.62500000  0.12500000  0.12500000  1
  Ni  Ni1  1  0.62500000  0.62500000  0.12500000  1
  Ni  Ni2  1  0.62500000  0.62500000  0.62500000  1
  Cu  Cu3  1  0.08120700  0.95407500  0.98235900  1
  Cu  Cu4  1  0.16879300  0.29592500  0.26764100  1
  Cu  Cu5  1  0.12500000  0.62500000  0.62500000  1
  Cu  Cu6  1  0.62500000  0.12500000  0.62500000  1
  C  C7  1  0.38884700  0.38435100  0.35980600  1
  C  C8  1  0.39826000  0.87271900  0.36451000  1
  C  C9  1  0.38884700  0.38435100  0.86699400  1
  C  C10  1  0.43443000  0.85009400  0.85773900  1
  C  C11  1  0.81557000  0.39990600  0.39226100  1
  C  C12  1  0.86115300  0.86564900  0.38300600  1
  C  C13  1  0.85174000  0.37728100  0.88549000  1
  C  C14  1  0.86115300  0.86564900  0.89019400  1
