# generated using pymatgen
data_Cu5NiC13
_symmetry_space_group_name_H-M   'P 1'
_cell_length_a   4.99973371
_cell_length_b   4.96689061
_cell_length_c   9.99900200
_cell_angle_alpha   86.17824140
_cell_angle_beta   82.38998217
_cell_angle_gamma   59.78101817
_symmetry_Int_Tables_number   1
_chemical_formula_structural   Cu5NiC13
_chemical_formula_sum   'Cu5 Ni1 C13'
_cell_volume   212.67388666
_cell_formula_units_Z   1
loop_
 _symmetry_equiv_pos_site_id
 _symmetry_equiv_pos_as_xyz
  1  'x, y, z'
loop_
 _atom_site_type_symbol
 _atom_site_label
 _atom_site_symmetry_multiplicity
 _atom_site_fract_x
 _atom_site_fract_y
 _atom_site_fract_z
 _atom_site_occupancy
  C  C0  1  0.59569700  0.00000000  0.24708800  1
  Ni  Ni1  1  0.99317000  0.00000000  0.98256200  1
  Cu  Cu2  1  0.18319000  0.66525300  0.49805200  1
  Cu  Cu3  1  0.65220200  0.66649300  0.00053300  1
  Cu  Cu4  1  0.31869500  0.33350700  0.00053300  1
  Cu  Cu5  1  0.84844400  0.33474700  0.49805200  1
  Cu  Cu6  1  0.51019900  0.00000000  0.50961600  1
  C  C7  1  0.94333800  0.67172300  0.10306600  1
  C  C8  1  0.37259900  0.64164800  0.90240200  1
  C  C9  1  0.23642300  0.31581700  0.39732500  1
  C  C10  1  0.55224100  0.68418300  0.39732500  1
  C  C11  1  0.47914100  0.34267400  0.59591700  1
  C  C12  1  0.15511400  0.00000000  0.59641700  1
  C  C13  1  0.82181500  0.65732600  0.59591700  1
  C  C14  1  0.61506200  0.32827700  0.10306600  1
  C  C15  1  0.31286100  0.00000000  0.10541600  1
  C  C16  1  0.01424700  0.35835200  0.90240200  1
  C  C17  1  0.64892300  0.00000000  0.90082000  1
  C  C18  1  0.85913700  0.00000000  0.40099200  1
