# generated using pymatgen
data_CuNiC18
_symmetry_space_group_name_H-M   'P 1'
_cell_length_a   9.04890591
_cell_length_b   9.04890559
_cell_length_c   22.28932248
_cell_angle_alpha   87.16708639
_cell_angle_beta   92.83291364
_cell_angle_gamma   119.25303369
_symmetry_Int_Tables_number   1
_chemical_formula_structural   CuNiC18
_chemical_formula_sum   'Cu6 Ni6 C108'
_cell_volume   1589.73882563
_cell_formula_units_Z   6
loop_
 _symmetry_equiv_pos_site_id
 _symmetry_equiv_pos_as_xyz
  1  'x, y, z'
loop_
 _atom_site_type_symbol
 _atom_site_label
 _atom_site_symmetry_multiplicity
 _atom_site_fract_x
 _atom_site_fract_y
 _atom_site_fract_z
 _atom_site_occupancy
  C  C0  1  0.64082094  0.00550423  0.24336334  1
  C  C1  1  0.99604471  0.63258930  0.24942527  1
  C  C2  1  0.99449577  0.35917906  0.74336334  1
  C  C3  1  0.36741070  0.00395529  0.74942527  1
  C  C4  1  0.30748794  0.33883723  0.57669634  1
  C  C5  1  0.66271171  0.96592230  0.58275827  1
  C  C6  1  0.66116277  0.69251206  0.07669634  1
  C  C7  1  0.03407770  0.33728829  0.08275827  1
  C  C8  1  0.97415394  0.67217123  0.91003034  1
  C  C9  1  0.32937771  0.29925630  0.91609227  1
  C  C10  1  0.32782877  0.02584606  0.41003034  1
  C  C11  1  0.70074370  0.67062229  0.41609227  1
  C  C12  1  0.00157842  0.01766637  0.49795573  1
  C  C13  1  0.98233363  0.99842158  0.99795573  1
  C  C14  1  0.66824542  0.35099937  0.83128873  1
  C  C15  1  0.64900063  0.33175458  0.33128873  1
  C  C16  1  0.33491142  0.68433337  0.16462273  1
  C  C17  1  0.31566663  0.66508858  0.66462273  1
  Ni  Ni18  1  0.00426841  0.00648314  0.35134020  1
  Ni  Ni19  1  0.99351686  0.99573159  0.85134020  1
  Ni  Ni20  1  0.67093541  0.33981614  0.68467320  1
  Ni  Ni21  1  0.66018386  0.32906459  0.18467320  1
  Ni  Ni22  1  0.33760141  0.67315014  0.01800720  1
  Ni  Ni23  1  0.32684986  0.66239859  0.51800720  1
  C  C24  1  0.28674700  0.99222477  0.25277058  1
  C  C25  1  0.70310848  0.70146797  0.25166172  1
  C  C26  1  0.29853203  0.29689152  0.75166172  1
  C  C27  1  0.00777523  0.71325300  0.75277058  1
  C  C28  1  0.95341400  0.32555777  0.58610358  1
  C  C29  1  0.36977548  0.03480097  0.58499472  1
  C  C30  1  0.96519903  0.63022452  0.08499472  1
  C  C31  1  0.67444223  0.04658600  0.08610358  1
  C  C32  1  0.62008000  0.65889177  0.91943758  1
  C  C33  1  0.03644148  0.36813497  0.91832872  1
  C  C34  1  0.63186503  0.96355852  0.41832872  1
  C  C35  1  0.34110823  0.37992000  0.41943758  1
  Cu  Cu36  1  0.04642786  0.02684310  0.64649348  1
  Cu  Cu37  1  0.97315690  0.95357214  0.14649348  1
  Cu  Cu38  1  0.71309486  0.36017610  0.97982648  1
  Cu  Cu39  1  0.63982390  0.28690514  0.47982648  1
  Cu  Cu40  1  0.37976086  0.69351010  0.31316048  1
  Cu  Cu41  1  0.30648990  0.62023914  0.81316048  1
  C  C42  1  0.01274745  0.30463899  0.24761434  1
  C  C43  1  0.69536101  0.98725255  0.74761434  1
  C  C44  1  0.67941445  0.63797199  0.58094734  1
  C  C45  1  0.36202801  0.32058555  0.08094734  1
  C  C46  1  0.34608045  0.97130599  0.91428134  1
  C  C47  1  0.02869401  0.65391955  0.41428134  1
  C  C48  1  0.21573040  0.01787688  0.31347173  1
  C  C49  1  0.81475649  0.78582158  0.31118839  1
  C  C50  1  0.98615918  0.20016146  0.30294747  1
  C  C51  1  0.21417842  0.18524351  0.81118839  1
  C  C52  1  0.98212312  0.78426960  0.81347173  1
  C  C53  1  0.79983854  0.01384082  0.80294747  1
  C  C54  1  0.77690808  0.97516587  0.69406659  1
  C  C55  1  0.17463700  0.21557231  0.68979979  1
  C  C56  1  0.04514889  0.85538242  0.69445210  1
  C  C57  1  0.78442769  0.82536300  0.18979979  1
  C  C58  1  0.02483413  0.22309192  0.19406659  1
  C  C59  1  0.14461758  0.95485111  0.19445210  1
  C  C60  1  0.88239740  0.35120988  0.64680473  1
  C  C61  1  0.48142349  0.11915458  0.64452139  1
  C  C62  1  0.65282618  0.53349446  0.63628047  1
  C  C63  1  0.88084542  0.51857651  0.14452139  1
  C  C64  1  0.64879012  0.11760260  0.14680473  1
  C  C65  1  0.46650554  0.34717382  0.13628047  1
  C  C66  1  0.44357508  0.30849887  0.02739959  1
  C  C67  1  0.84130400  0.54890531  0.02313279  1
  C  C68  1  0.71181589  0.18871542  0.02778510  1
  C  C69  1  0.45109469  0.15869600  0.52313279  1
  C  C70  1  0.69150113  0.55642492  0.52739959  1
  C  C71  1  0.81128458  0.28818411  0.52778510  1
  C  C72  1  0.54906340  0.68454388  0.98013873  1
  C  C73  1  0.14808949  0.45248858  0.97785539  1
  C  C74  1  0.31949218  0.86682846  0.96961447  1
  C  C75  1  0.54751142  0.85191051  0.47785539  1
  C  C76  1  0.31545612  0.45093660  0.48013873  1
  C  C77  1  0.13317154  0.68050782  0.46961447  1
  C  C78  1  0.11024108  0.64183287  0.36073359  1
  C  C79  1  0.50797000  0.88223931  0.35646679  1
  C  C80  1  0.37848189  0.52204942  0.36111910  1
  C  C81  1  0.11776069  0.49203000  0.85646679  1
  C  C82  1  0.35816713  0.88975892  0.86073359  1
  C  C83  1  0.47795058  0.62151811  0.86111910  1
  C  C84  1  0.00878520  0.80998874  0.41338891  1
  C  C85  1  0.81615854  0.97920922  0.41304259  1
  C  C86  1  0.19054828  0.18690590  0.41189092  1
  C  C87  1  0.02079078  0.18384146  0.91304259  1
  C  C88  1  0.19001126  0.99121480  0.91338891  1
  C  C89  1  0.81309410  0.80945172  0.91189092  1
  C  C90  1  0.96042434  0.13758169  0.59192543  1
  C  C91  1  0.18461728  0.03633421  0.58736205  1
  C  C92  1  0.83071570  0.80891451  0.58583936  1
  C  C93  1  0.96366579  0.81538272  0.08736205  1
  C  C94  1  0.86241831  0.03957566  0.09192543  1
  C  C95  1  0.19108549  0.16928430  0.08583936  1
  C  C96  1  0.67545220  0.14332174  0.74672191  1
  C  C97  1  0.48282554  0.31254222  0.74637559  1
  C  C98  1  0.85721528  0.52023890  0.74522392  1
  C  C99  1  0.68745778  0.51717446  0.24637559  1
  C  C100  1  0.85667826  0.32454780  0.24672191  1
  C  C101  1  0.47976110  0.14278472  0.24522392  1
  C  C102  1  0.62709134  0.47091469  0.92525843  1
  C  C103  1  0.85128428  0.36966721  0.92069505  1
  C  C104  1  0.49738270  0.14224751  0.91917236  1
  C  C105  1  0.63033279  0.14871572  0.42069505  1
  C  C106  1  0.52908531  0.37290866  0.42525843  1
  C  C107  1  0.85775249  0.50261730  0.41917236  1
  C  C108  1  0.34211820  0.47665574  0.08005591  1
  C  C109  1  0.14949154  0.64587622  0.07970959  1
  C  C110  1  0.52388128  0.85357290  0.07855792  1
  C  C111  1  0.35412378  0.85050846  0.57970959  1
  C  C112  1  0.52334426  0.65788180  0.58005591  1
  C  C113  1  0.14642710  0.47611872  0.57855792  1
  C  C114  1  0.29375734  0.80424869  0.25859243  1
  C  C115  1  0.51795028  0.70300121  0.25402905  1
  C  C116  1  0.16404870  0.47558151  0.25250636  1
  C  C117  1  0.29699879  0.48204972  0.75402905  1
  C  C118  1  0.19575131  0.70624266  0.75859243  1
  C  C119  1  0.52441849  0.83595130  0.75250636  1
