# generated using pymatgen
data_Cu3(NiC2)2
_symmetry_space_group_name_H-M   'P 1'
_cell_length_a   13.30855200
_cell_length_b   13.30855200
_cell_length_c   13.30855200
_cell_angle_alpha   90.00000000
_cell_angle_beta   90.00000000
_cell_angle_gamma   90.00000000
_symmetry_Int_Tables_number   1
_chemical_formula_structural   Cu3(NiC2)2
_chemical_formula_sum   'Cu24 Ni16 C32'
_cell_volume   2357.17820862
_cell_formula_units_Z   8
loop_
 _symmetry_equiv_pos_site_id
 _symmetry_equiv_pos_as_xyz
  1  'x, y, z'
loop_
 _atom_site_type_symbol
 _atom_site_label
 _atom_site_symmetry_multiplicity
 _atom_site_fract_x
 _atom_site_fract_y
 _atom_site_fract_z
 _atom_site_occupancy
  C  C0  1  0.03396300  0.00089800  0.25605600  1
  C  C1  1  0.25605600  0.03396300  0.00089800  1
  C  C2  1  0.00089800  0.25605600  0.03396300  1
  C  C3  1  0.49910200  0.74394400  0.53396300  1
  C  C4  1  0.75605600  0.46603700  0.99910200  1
  C  C5  1  0.99910200  0.75605600  0.46603700  1
  C  C6  1  0.24394400  0.96603700  0.50089800  1
  C  C7  1  0.74394400  0.53396300  0.49910200  1
  C  C8  1  0.50089800  0.24394400  0.96603700  1
  C  C9  1  0.53396300  0.49910200  0.74394400  1
  C  C10  1  0.96603700  0.50089800  0.24394400  1
  C  C11  1  0.46603700  0.99910200  0.75605600  1
  C  C12  1  0.96603700  0.99910200  0.74394400  1
  C  C13  1  0.74394400  0.96603700  0.99910200  1
  C  C14  1  0.99910200  0.74394400  0.96603700  1
  C  C15  1  0.50089800  0.25605600  0.46603700  1
  C  C16  1  0.24394400  0.53396300  0.00089800  1
  C  C17  1  0.00089800  0.24394400  0.53396300  1
  C  C18  1  0.75605600  0.03396300  0.49910200  1
  C  C19  1  0.25605600  0.46603700  0.50089800  1
  C  C20  1  0.49910200  0.75605600  0.03396300  1
  C  C21  1  0.46603700  0.50089800  0.25605600  1
  C  C22  1  0.03396300  0.49910200  0.75605600  1
  C  C23  1  0.53396300  0.00089800  0.24394400  1
  C  C24  1  0.22143300  0.22143300  0.22143300  1
  C  C25  1  0.27856700  0.77856700  0.72143300  1
  C  C26  1  0.72143300  0.27856700  0.77856700  1
  C  C27  1  0.77856700  0.72143300  0.27856700  1
  C  C28  1  0.77856700  0.77856700  0.77856700  1
  C  C29  1  0.72143300  0.22143300  0.27856700  1
  C  C30  1  0.27856700  0.72143300  0.22143300  1
  C  C31  1  0.22143300  0.27856700  0.72143300  1
  Ni  Ni32  1  0.10828700  0.10828700  0.10828700  1
  Ni  Ni33  1  0.39171300  0.89171300  0.60828700  1
  Ni  Ni34  1  0.60828700  0.39171300  0.89171300  1
  Ni  Ni35  1  0.89171300  0.60828700  0.39171300  1
  Ni  Ni36  1  0.89171300  0.89171300  0.89171300  1
  Ni  Ni37  1  0.60828700  0.10828700  0.39171300  1
  Ni  Ni38  1  0.39171300  0.60828700  0.10828700  1
  Ni  Ni39  1  0.10828700  0.39171300  0.60828700  1
  Ni  Ni40  1  0.44656300  0.44656300  0.44656300  1
  Ni  Ni41  1  0.05343700  0.55343700  0.94656300  1
  Ni  Ni42  1  0.94656300  0.05343700  0.55343700  1
  Ni  Ni43  1  0.55343700  0.94656300  0.05343700  1
  Ni  Ni44  1  0.55343700  0.55343700  0.55343700  1
  Ni  Ni45  1  0.94656300  0.44656300  0.05343700  1
  Ni  Ni46  1  0.05343700  0.94656300  0.44656300  1
  Ni  Ni47  1  0.44656300  0.05343700  0.94656300  1
  Cu  Cu48  1  0.18611300  0.43815100  0.26212300  1
  Cu  Cu49  1  0.26212300  0.18611300  0.43815100  1
  Cu  Cu50  1  0.43815100  0.26212300  0.18611300  1
  Cu  Cu51  1  0.06184900  0.73787700  0.68611300  1
  Cu  Cu52  1  0.76212300  0.31388700  0.56184900  1
  Cu  Cu53  1  0.56184900  0.76212300  0.31388700  1
  Cu  Cu54  1  0.23787700  0.81388700  0.93815100  1
  Cu  Cu55  1  0.73787700  0.68611300  0.06184900  1
  Cu  Cu56  1  0.93815100  0.23787700  0.81388700  1
  Cu  Cu57  1  0.68611300  0.06184900  0.73787700  1
  Cu  Cu58  1  0.81388700  0.93815100  0.23787700  1
  Cu  Cu59  1  0.31388700  0.56184900  0.76212300  1
  Cu  Cu60  1  0.81388700  0.56184900  0.73787700  1
  Cu  Cu61  1  0.73787700  0.81388700  0.56184900  1
  Cu  Cu62  1  0.56184900  0.73787700  0.81388700  1
  Cu  Cu63  1  0.93815100  0.26212300  0.31388700  1
  Cu  Cu64  1  0.23787700  0.68611300  0.43815100  1
  Cu  Cu65  1  0.43815100  0.23787700  0.68611300  1
  Cu  Cu66  1  0.76212300  0.18611300  0.06184900  1
  Cu  Cu67  1  0.26212300  0.31388700  0.93815100  1
  Cu  Cu68  1  0.06184900  0.76212300  0.18611300  1
  Cu  Cu69  1  0.31388700  0.93815100  0.26212300  1
  Cu  Cu70  1  0.18611300  0.06184900  0.76212300  1
  Cu  Cu71  1  0.68611300  0.43815100  0.23787700  1
