# generated using pymatgen
data_Cu4NiC2
_symmetry_space_group_name_H-M   'P 1'
_cell_length_a   8.32349420
_cell_length_b   8.32349420
_cell_length_c   10.33024273
_cell_angle_alpha   78.36350416
_cell_angle_beta   78.36350416
_cell_angle_gamma   42.33529971
_symmetry_Int_Tables_number   1
_chemical_formula_structural   Cu4NiC2
_chemical_formula_sum   'Cu16 Ni4 C8'
_cell_volume   470.58121919
_cell_formula_units_Z   4
loop_
 _symmetry_equiv_pos_site_id
 _symmetry_equiv_pos_as_xyz
  1  'x, y, z'
loop_
 _atom_site_type_symbol
 _atom_site_label
 _atom_site_symmetry_multiplicity
 _atom_site_fract_x
 _atom_site_fract_y
 _atom_site_fract_z
 _atom_site_occupancy
  C  C0  1  0.03362000  0.58671700  0.15231100  1
  C  C1  1  0.41328300  0.96638000  0.34768900  1
  C  C2  1  0.96638000  0.41328300  0.84768900  1
  C  C3  1  0.58671700  0.03362000  0.65231100  1
  C  C4  1  0.24410200  0.75589800  0.75000000  1
  C  C5  1  0.75589800  0.24410200  0.25000000  1
  C  C6  1  0.50000000  0.50000000  0.50000000  1
  C  C7  1  0.50000000  0.50000000  0.00000000  1
  Ni  Ni8  1  0.83165700  0.39865100  0.53515700  1
  Ni  Ni9  1  0.60134900  0.16834300  0.96484300  1
  Ni  Ni10  1  0.16834300  0.60134900  0.46484300  1
  Ni  Ni11  1  0.39865100  0.83165700  0.03515700  1
  Cu  Cu12  1  0.05229900  0.19710500  0.60338900  1
  Cu  Cu13  1  0.80289500  0.94770100  0.89661100  1
  Cu  Cu14  1  0.94770100  0.80289500  0.39661100  1
  Cu  Cu15  1  0.19710500  0.05229900  0.10338900  1
  Cu  Cu16  1  0.88239500  0.42074400  0.39028800  1
  Cu  Cu17  1  0.57925600  0.11760500  0.10971200  1
  Cu  Cu18  1  0.11760500  0.57925600  0.60971200  1
  Cu  Cu19  1  0.42074400  0.88239500  0.89028800  1
  Cu  Cu20  1  0.34158500  0.68665800  0.05392500  1
  Cu  Cu21  1  0.31334200  0.65841500  0.44607500  1
  Cu  Cu22  1  0.65841500  0.31334200  0.94607500  1
  Cu  Cu23  1  0.68665800  0.34158500  0.55392500  1
  Cu  Cu24  1  0.62747300  0.67785300  0.09477900  1
  Cu  Cu25  1  0.32214700  0.37252700  0.40522100  1
  Cu  Cu26  1  0.37252700  0.32214700  0.90522100  1
  Cu  Cu27  1  0.67785300  0.62747300  0.59477900  1
