# generated using pymatgen
data_CuNi3C16
_symmetry_space_group_name_H-M   'P 1'
_cell_length_a   15.75845649
_cell_length_b   27.22440287
_cell_length_c   9.02813297
_cell_angle_alpha   90.00000000
_cell_angle_beta   124.89907772
_cell_angle_gamma   90.00000000
_symmetry_Int_Tables_number   1
_chemical_formula_structural   CuNi3C16
_chemical_formula_sum   'Cu12 Ni36 C192'
_cell_volume   3176.64838194
_cell_formula_units_Z   12
loop_
 _symmetry_equiv_pos_site_id
 _symmetry_equiv_pos_as_xyz
  1  'x, y, z'
loop_
 _atom_site_type_symbol
 _atom_site_label
 _atom_site_symmetry_multiplicity
 _atom_site_fract_x
 _atom_site_fract_y
 _atom_site_fract_z
 _atom_site_occupancy
  Ni  Ni0  1  0.25418000  0.25460015  0.00647545  1
  Ni  Ni1  1  0.24658264  0.58740393  0.01648357  1
  Ni  Ni2  1  0.24905737  0.91821780  0.01789761  1
  Ni  Ni3  1  0.75418000  0.24539985  0.50647545  1
  Ni  Ni4  1  0.74905737  0.58178220  0.51789761  1
  Ni  Ni5  1  0.74658264  0.91259607  0.51648357  1
  Ni  Ni6  1  0.74658264  0.08740393  0.01648357  1
  Ni  Ni7  1  0.74905737  0.41821780  0.01789761  1
  Ni  Ni8  1  0.75418000  0.75460015  0.00647545  1
  Ni  Ni9  1  0.24905737  0.08178220  0.51789761  1
  Ni  Ni10  1  0.24658264  0.41259607  0.51648357  1
  Ni  Ni11  1  0.25418000  0.74539985  0.50647545  1
  Ni  Ni12  1  0.49405530  0.03403593  0.75252899  1
  Ni  Ni13  1  0.49667480  0.36786878  0.75872234  1
  Ni  Ni14  1  0.49402768  0.70048516  0.74838927  1
  Ni  Ni15  1  0.49402768  0.29951484  0.24838927  1
  Ni  Ni16  1  0.49667480  0.63213122  0.25872234  1
  Ni  Ni17  1  0.49405530  0.96596407  0.25252899  1
  Ni  Ni18  1  0.99402768  0.20048516  0.74838927  1
  Ni  Ni19  1  0.99405530  0.53403593  0.75252899  1
  Ni  Ni20  1  0.99667480  0.86786878  0.75872234  1
  Ni  Ni21  1  0.99667480  0.13213122  0.25872234  1
  Ni  Ni22  1  0.99405530  0.46596407  0.25252899  1
  Ni  Ni23  1  0.99402768  0.79951484  0.24838927  1
  Ni  Ni24  1  0.81658508  0.64471253  0.20219477  1
  Ni  Ni25  1  0.81667646  0.97881778  0.20916246  1
  Ni  Ni26  1  0.19504666  0.30726951  0.28826238  1
  Ni  Ni27  1  0.19504666  0.69273049  0.78826238  1
  Ni  Ni28  1  0.81667646  0.02118222  0.70916246  1
  Ni  Ni29  1  0.81658508  0.35528747  0.70219477  1
  Ni  Ni30  1  0.31658508  0.14471253  0.20219477  1
  Ni  Ni31  1  0.31667646  0.47881778  0.20916246  1
  Ni  Ni32  1  0.69504666  0.80726951  0.28826238  1
  Ni  Ni33  1  0.69504666  0.19273049  0.78826238  1
  Ni  Ni34  1  0.31667646  0.52118222  0.70916246  1
  Ni  Ni35  1  0.31658508  0.85528747  0.70219477  1
  Cu  Cu36  1  0.89802018  0.25038969  0.94102035  1
  Cu  Cu37  1  0.89255703  0.58289099  0.93265946  1
  Cu  Cu38  1  0.89345675  0.91437305  0.93493663  1
  Cu  Cu39  1  0.89345675  0.08562695  0.43493663  1
  Cu  Cu40  1  0.89255703  0.41710901  0.43265946  1
  Cu  Cu41  1  0.89802018  0.74961031  0.44102035  1
  Cu  Cu42  1  0.39255703  0.08289099  0.93265946  1
  Cu  Cu43  1  0.39345675  0.41437305  0.93493663  1
  Cu  Cu44  1  0.39802018  0.75038969  0.94102035  1
  Cu  Cu45  1  0.39802018  0.24961031  0.44102035  1
  Cu  Cu46  1  0.39345675  0.58562695  0.43493663  1
  Cu  Cu47  1  0.39255703  0.91710901  0.43265946  1
  C  C48  1  0.10684886  0.24802349  0.56618082  1
  C  C49  1  0.10442412  0.58267048  0.56520403  1
  C  C50  1  0.10584998  0.91711301  0.56527788  1
  C  C51  1  0.10584998  0.08288699  0.06527788  1
  C  C52  1  0.10442412  0.41732952  0.06520403  1
  C  C53  1  0.10684886  0.75197651  0.06618082  1
  C  C54  1  0.60442412  0.08267048  0.56520403  1
  C  C55  1  0.60584998  0.41711301  0.56527788  1
  C  C56  1  0.60684886  0.74802349  0.56618082  1
  C  C57  1  0.60684886  0.25197651  0.06618082  1
  C  C58  1  0.60584998  0.58288699  0.06527788  1
  C  C59  1  0.60442412  0.91732952  0.06520403  1
  C  C60  1  0.34967259  0.29646589  0.74767379  1
  C  C61  1  0.35226001  0.63040675  0.75569819  1
  C  C62  1  0.35116858  0.96399542  0.75214388  1
  C  C63  1  0.64481421  0.30099158  0.73984871  1
  C  C64  1  0.64456232  0.63230089  0.73897807  1
  C  C65  1  0.64477403  0.96641653  0.73904863  1
  C  C66  1  0.64477403  0.03358347  0.23904863  1
  C  C67  1  0.64456232  0.36769911  0.23897807  1
  C  C68  1  0.64481421  0.69900842  0.23984871  1
  C  C69  1  0.35116858  0.03600458  0.25214388  1
  C  C70  1  0.35226001  0.36959325  0.25569819  1
  C  C71  1  0.34967259  0.70353411  0.24767379  1
  C  C72  1  0.85226001  0.13040675  0.75569819  1
  C  C73  1  0.85116858  0.46399542  0.75214388  1
  C  C74  1  0.84967259  0.79646589  0.74767379  1
  C  C75  1  0.14456232  0.13230089  0.73897807  1
  C  C76  1  0.14477403  0.46641653  0.73904863  1
  C  C77  1  0.14481421  0.80099158  0.73984871  1
  C  C78  1  0.14481421  0.19900842  0.23984871  1
  C  C79  1  0.14477403  0.53358347  0.23904863  1
  C  C80  1  0.14456232  0.86769911  0.23897807  1
  C  C81  1  0.84967259  0.20353411  0.24767379  1
  C  C82  1  0.85116858  0.53600458  0.25214388  1
  C  C83  1  0.85226001  0.86959325  0.25569819  1
  C  C84  1  0.00669286  0.32001899  0.75084947  1
  C  C85  1  0.00131138  0.65328743  0.74672487  1
  C  C86  1  0.00407119  0.98684118  0.74545270  1
  C  C87  1  0.00407119  0.01315882  0.24545270  1
  C  C88  1  0.00131138  0.34671257  0.24672487  1
  C  C89  1  0.00669286  0.67998101  0.25084947  1
  C  C90  1  0.50131138  0.15328743  0.74672487  1
  C  C91  1  0.50407119  0.48684118  0.74545270  1
  C  C92  1  0.50669286  0.82001899  0.75084947  1
  C  C93  1  0.50669286  0.17998101  0.25084947  1
  C  C94  1  0.50407119  0.51315882  0.24545270  1
  C  C95  1  0.50131138  0.84671257  0.24672487  1
  C  C96  1  0.14370241  0.19428409  0.74193657  1
  C  C97  1  0.14548162  0.52877068  0.74589510  1
  C  C98  1  0.14527529  0.86203682  0.74307794  1
  C  C99  1  0.84286271  0.18989361  0.75506692  1
  C  C100  1  0.84707201  0.52283416  0.75498131  1
  C  C101  1  0.84445738  0.85616215  0.75296287  1
  C  C102  1  0.84445738  0.14383785  0.25296287  1
  C  C103  1  0.84707201  0.47716584  0.25498131  1
  C  C104  1  0.84286271  0.81010639  0.25506692  1
  C  C105  1  0.14527529  0.13796318  0.24307794  1
  C  C106  1  0.14548162  0.47122932  0.24589510  1
  C  C107  1  0.14370241  0.80571591  0.24193657  1
  C  C108  1  0.64548162  0.02877068  0.74589510  1
  C  C109  1  0.64527529  0.36203682  0.74307794  1
  C  C110  1  0.64370241  0.69428409  0.74193657  1
  C  C111  1  0.34707201  0.02283416  0.75498131  1
  C  C112  1  0.34445738  0.35616215  0.75296287  1
  C  C113  1  0.34286271  0.68989361  0.75506692  1
  C  C114  1  0.34286271  0.31010639  0.25506692  1
  C  C115  1  0.34445738  0.64383785  0.25296287  1
  C  C116  1  0.34707201  0.97716584  0.25498131  1
  C  C117  1  0.64370241  0.30571591  0.24193657  1
  C  C118  1  0.64527529  0.63796318  0.24307794  1
  C  C119  1  0.64548162  0.97122932  0.24589510  1
  C  C120  1  0.43964822  0.18218422  0.57111142  1
  C  C121  1  0.43833598  0.51707952  0.57361636  1
  C  C122  1  0.44443397  0.85261159  0.58885096  1
  C  C123  1  0.56471446  0.18929180  0.91134218  1
  C  C124  1  0.56400481  0.52247802  0.91343116  1
  C  C125  1  0.57114616  0.85274136  0.92864806  1
  C  C126  1  0.57114616  0.14725864  0.42864806  1
  C  C127  1  0.56400481  0.47752198  0.41343116  1
  C  C128  1  0.56471446  0.81070820  0.41134218  1
  C  C129  1  0.44443397  0.14738841  0.08885096  1
  C  C130  1  0.43833598  0.48292048  0.07361636  1
  C  C131  1  0.43964822  0.81781578  0.07111142  1
  C  C132  1  0.93833598  0.01707952  0.57361636  1
  C  C133  1  0.94443397  0.35261159  0.58885096  1
  C  C134  1  0.93964822  0.68218422  0.57111142  1
  C  C135  1  0.06400481  0.02247802  0.91343116  1
  C  C136  1  0.07114616  0.35274136  0.92864806  1
  C  C137  1  0.06471446  0.68929180  0.91134218  1
  C  C138  1  0.06471446  0.31070820  0.41134218  1
  C  C139  1  0.07114616  0.64725864  0.42864806  1
  C  C140  1  0.06400481  0.97752198  0.41343116  1
  C  C141  1  0.93964822  0.31781578  0.07111142  1
  C  C142  1  0.94443397  0.64738841  0.08885096  1
  C  C143  1  0.93833598  0.98292048  0.07361636  1
  C  C144  1  0.25030351  0.27173011  0.73603304  1
  C  C145  1  0.25319868  0.60551452  0.74784621  1
  C  C146  1  0.25341573  0.93695151  0.74193473  1
  C  C147  1  0.74616267  0.28133101  0.75338202  1
  C  C148  1  0.74636284  0.61298320  0.75967745  1
  C  C149  1  0.74905257  0.95130011  0.75596372  1
  C  C150  1  0.74905257  0.04869989  0.25596372  1
  C  C151  1  0.74636284  0.38701680  0.25967745  1
  C  C152  1  0.74616267  0.71866899  0.25338202  1
  C  C153  1  0.25341573  0.06304849  0.24193473  1
  C  C154  1  0.25319868  0.39448548  0.24784621  1
  C  C155  1  0.25030351  0.72826989  0.23603304  1
  C  C156  1  0.75319868  0.10551452  0.74784621  1
  C  C157  1  0.75341573  0.43695151  0.74193473  1
  C  C158  1  0.75030351  0.77173011  0.73603304  1
  C  C159  1  0.24636284  0.11298320  0.75967745  1
  C  C160  1  0.24905257  0.45130011  0.75596372  1
  C  C161  1  0.24616267  0.78133101  0.75338202  1
  C  C162  1  0.24616267  0.21866899  0.25338202  1
  C  C163  1  0.24905257  0.54869989  0.25596372  1
  C  C164  1  0.24636284  0.88701680  0.25967745  1
  C  C165  1  0.75030351  0.22826989  0.23603304  1
  C  C166  1  0.75341573  0.56304849  0.24193473  1
  C  C167  1  0.75319868  0.89448548  0.24784621  1
  C  C168  1  0.34476853  0.28252677  0.56870021  1
  C  C169  1  0.35094085  0.61179798  0.58628148  1
  C  C170  1  0.35432206  0.94429704  0.58879244  1
  C  C171  1  0.63762182  0.28473378  0.91287995  1
  C  C172  1  0.63894370  0.61864825  0.91886515  1
  C  C173  1  0.64216743  0.95106646  0.92132420  1
  C  C174  1  0.64216743  0.04893354  0.42132420  1
  C  C175  1  0.63894370  0.38135175  0.41886515  1
  C  C176  1  0.63762182  0.71526622  0.41287995  1
  C  C177  1  0.35432206  0.05570296  0.08879244  1
  C  C178  1  0.35094085  0.38820202  0.08628148  1
  C  C179  1  0.34476853  0.71747323  0.06870021  1
  C  C180  1  0.85094085  0.11179798  0.58628148  1
  C  C181  1  0.85432206  0.44429704  0.58879244  1
  C  C182  1  0.84476853  0.78252677  0.56870021  1
  C  C183  1  0.13894370  0.11864825  0.91886515  1
  C  C184  1  0.14216743  0.45106646  0.92132420  1
  C  C185  1  0.13762182  0.78473378  0.91287995  1
  C  C186  1  0.13762182  0.21526622  0.41287995  1
  C  C187  1  0.14216743  0.54893354  0.42132420  1
  C  C188  1  0.13894370  0.88135175  0.41886515  1
  C  C189  1  0.84476853  0.21747323  0.06870021  1
  C  C190  1  0.85432206  0.55570296  0.08879244  1
  C  C191  1  0.85094085  0.88820202  0.08628148  1
  C  C192  1  0.46030463  0.27440328  0.92896353  1
  C  C193  1  0.46092400  0.60762127  0.94047538  1
  C  C194  1  0.46172919  0.94001288  0.93906975  1
  C  C195  1  0.54095601  0.28054802  0.55921795  1
  C  C196  1  0.53762956  0.61530105  0.55805992  1
  C  C197  1  0.54011266  0.94859413  0.55905383  1
  C  C198  1  0.54011266  0.05140587  0.05905383  1
  C  C199  1  0.53762956  0.38469895  0.05805992  1
  C  C200  1  0.54095601  0.71945198  0.05921795  1
  C  C201  1  0.46172919  0.05998712  0.43906975  1
  C  C202  1  0.46092400  0.39237873  0.44047538  1
  C  C203  1  0.46030463  0.72559672  0.42896353  1
  C  C204  1  0.96092400  0.10762127  0.94047538  1
  C  C205  1  0.96172919  0.44001288  0.93906975  1
  C  C206  1  0.96030463  0.77440328  0.92896353  1
  C  C207  1  0.03762956  0.11530105  0.55805992  1
  C  C208  1  0.04011266  0.44859413  0.55905383  1
  C  C209  1  0.04095601  0.78054802  0.55921795  1
  C  C210  1  0.04095601  0.21945198  0.05921795  1
  C  C211  1  0.04011266  0.55140587  0.05905383  1
  C  C212  1  0.03762956  0.88469895  0.05805992  1
  C  C213  1  0.96030463  0.22559672  0.42896353  1
  C  C214  1  0.96172919  0.55998712  0.43906975  1
  C  C215  1  0.96092400  0.89237873  0.44047538  1
  C  C216  1  0.08571016  0.28681127  0.74678373  1
  C  C217  1  0.08893411  0.62347718  0.74841748  1
  C  C218  1  0.08631956  0.95522670  0.74574829  1
  C  C219  1  0.93086125  0.28607253  0.76034380  1
  C  C220  1  0.93365829  0.61637399  0.75980393  1
  C  C221  1  0.93109509  0.95272267  0.75964664  1
  C  C222  1  0.93109509  0.04727733  0.25964664  1
  C  C223  1  0.93365829  0.38362601  0.25980393  1
  C  C224  1  0.93086125  0.71392747  0.26034380  1
  C  C225  1  0.08631956  0.04477330  0.24574829  1
  C  C226  1  0.08893411  0.37652282  0.24841748  1
  C  C227  1  0.08571016  0.71318873  0.24678373  1
  C  C228  1  0.58893411  0.12347718  0.74841748  1
  C  C229  1  0.58631956  0.45522670  0.74574829  1
  C  C230  1  0.58571016  0.78681127  0.74678373  1
  C  C231  1  0.43365829  0.11637399  0.75980393  1
  C  C232  1  0.43109509  0.45272267  0.75964664  1
  C  C233  1  0.43086125  0.78607253  0.76034380  1
  C  C234  1  0.43086125  0.21392747  0.26034380  1
  C  C235  1  0.43109509  0.54727733  0.25964664  1
  C  C236  1  0.43365829  0.88362601  0.25980393  1
  C  C237  1  0.58571016  0.21318873  0.24678373  1
  C  C238  1  0.58631956  0.54477330  0.24574829  1
  C  C239  1  0.58893411  0.87652282  0.24841748  1
