# generated using pymatgen
data_Cu9Ni2C5
_symmetry_space_group_name_H-M   'P 1'
_cell_length_a   5.17717000
_cell_length_b   9.20608300
_cell_length_c   18.20780145
_cell_angle_alpha   73.76592948
_cell_angle_beta   90.00000000
_cell_angle_gamma   90.00000000
_symmetry_Int_Tables_number   1
_chemical_formula_structural   Cu9Ni2C5
_chemical_formula_sum   'Cu36 Ni8 C20'
_cell_volume   833.20867378
_cell_formula_units_Z   4
loop_
 _symmetry_equiv_pos_site_id
 _symmetry_equiv_pos_as_xyz
  1  'x, y, z'
loop_
 _atom_site_type_symbol
 _atom_site_label
 _atom_site_symmetry_multiplicity
 _atom_site_fract_x
 _atom_site_fract_y
 _atom_site_fract_z
 _atom_site_occupancy
  C  C0  1  0.26342600  0.22418700  0.01532100  1
  C  C1  1  0.76342600  0.77581300  0.48467900  1
  C  C2  1  0.73657400  0.77581300  0.98467900  1
  C  C3  1  0.23657400  0.22418700  0.51532100  1
  C  C4  1  0.31811000  0.86500000  0.72494500  1
  C  C5  1  0.81811000  0.13500000  0.77505500  1
  C  C6  1  0.68189000  0.13500000  0.27505500  1
  C  C7  1  0.18189000  0.86500000  0.22494500  1
  C  C8  1  0.14709600  0.63930200  0.92391800  1
  C  C9  1  0.64709600  0.36069800  0.57608200  1
  C  C10  1  0.85290400  0.36069800  0.07608200  1
  C  C11  1  0.35290400  0.63930200  0.42391800  1
  C  C12  1  0.94354500  0.87842000  0.70519400  1
  C  C13  1  0.44354500  0.12158000  0.79480600  1
  C  C14  1  0.05645500  0.12158000  0.29480600  1
  C  C15  1  0.55645500  0.87842000  0.20519400  1
  C  C16  1  0.14527200  0.74599700  0.78520600  1
  C  C17  1  0.64527200  0.25400300  0.71479400  1
  C  C18  1  0.85472800  0.25400300  0.21479400  1
  C  C19  1  0.35472800  0.74599700  0.28520600  1
  Ni  Ni20  1  0.23988700  0.98876200  0.89922200  1
  Ni  Ni21  1  0.73988700  0.01123800  0.60077800  1
  Ni  Ni22  1  0.76011300  0.01123800  0.10077800  1
  Ni  Ni23  1  0.26011300  0.98876200  0.39922200  1
  Ni  Ni24  1  0.74645900  0.41214100  0.91112200  1
  Ni  Ni25  1  0.24645900  0.58785900  0.58887800  1
  Ni  Ni26  1  0.25354100  0.58785900  0.08887800  1
  Ni  Ni27  1  0.75354100  0.41214100  0.41112200  1
  Cu  Cu28  1  0.33491700  0.80113000  0.23003800  1
  Cu  Cu29  1  0.83491700  0.19887000  0.26996200  1
  Cu  Cu30  1  0.66508300  0.19887000  0.76996200  1
  Cu  Cu31  1  0.16508300  0.80113000  0.73003800  1
  Cu  Cu32  1  0.75588700  0.93418600  0.68781400  1
  Cu  Cu33  1  0.25588700  0.06581400  0.81218600  1
  Cu  Cu34  1  0.24411300  0.06581400  0.31218600  1
  Cu  Cu35  1  0.74411300  0.93418600  0.18781400  1
  Cu  Cu36  1  0.02846700  0.06397100  0.08919100  1
  Cu  Cu37  1  0.52846700  0.93602900  0.41080900  1
  Cu  Cu38  1  0.97153300  0.93602900  0.91080900  1
  Cu  Cu39  1  0.47153300  0.06397100  0.58919100  1
  Cu  Cu40  1  0.57301400  0.13737500  0.08272900  1
  Cu  Cu41  1  0.07301400  0.86262500  0.41727100  1
  Cu  Cu42  1  0.42698600  0.86262500  0.91727100  1
  Cu  Cu43  1  0.92698600  0.13737500  0.58272900  1
  Cu  Cu44  1  0.30369900  0.10178300  0.93916100  1
  Cu  Cu45  1  0.80369900  0.89821700  0.56083900  1
  Cu  Cu46  1  0.69630100  0.89821700  0.06083900  1
  Cu  Cu47  1  0.19630100  0.10178300  0.43916100  1
  Cu  Cu48  1  0.06309900  0.63636600  0.87533500  1
  Cu  Cu49  1  0.56309900  0.36363400  0.62466500  1
  Cu  Cu50  1  0.93690100  0.36363400  0.12466500  1
  Cu  Cu51  1  0.43690100  0.63636600  0.37533500  1
  Cu  Cu52  1  0.79366800  0.61507200  0.89917700  1
  Cu  Cu53  1  0.29366800  0.38492800  0.60082300  1
  Cu  Cu54  1  0.20633200  0.38492800  0.10082300  1
  Cu  Cu55  1  0.70633200  0.61507200  0.39917700  1
  Cu  Cu56  1  0.48060300  0.40055500  0.94339300  1
  Cu  Cu57  1  0.98060300  0.59944500  0.55660700  1
  Cu  Cu58  1  0.51939700  0.59944500  0.05660700  1
  Cu  Cu59  1  0.01939700  0.40055500  0.44339300  1
  Cu  Cu60  1  0.93286200  0.34390600  0.97424000  1
  Cu  Cu61  1  0.43286200  0.65609400  0.52576000  1
  Cu  Cu62  1  0.06713800  0.65609400  0.02576000  1
  Cu  Cu63  1  0.56713800  0.34390600  0.47424000  1
