# generated using pymatgen
data_Cu6NiC10
_symmetry_space_group_name_H-M   'P 1'
_cell_length_a   3.78603300
_cell_length_b   5.42458315
_cell_length_c   10.15569700
_cell_angle_alpha   90.00750576
_cell_angle_beta   90.00000000
_cell_angle_gamma   110.42431983
_symmetry_Int_Tables_number   1
_chemical_formula_structural   Cu6NiC10
_chemical_formula_sum   'Cu6 Ni1 C10'
_cell_volume   195.46192348
_cell_formula_units_Z   1
loop_
 _symmetry_equiv_pos_site_id
 _symmetry_equiv_pos_as_xyz
  1  'x, y, z'
loop_
 _atom_site_type_symbol
 _atom_site_label
 _atom_site_symmetry_multiplicity
 _atom_site_fract_x
 _atom_site_fract_y
 _atom_site_fract_z
 _atom_site_occupancy
  Ni  Ni0  1  0.50582200  0.01164500  0.77271500  1
  Cu  Cu1  1  0.18982600  0.37965200  0.24501100  1
  Cu  Cu2  1  0.16053700  0.32107500  0.96276200  1
  Cu  Cu3  1  0.11989300  0.23978500  0.53755400  1
  Cu  Cu4  1  0.78783900  0.57567800  0.73831300  1
  Cu  Cu5  1  0.86394100  0.72788200  0.03451900  1
  Cu  Cu6  1  0.86453700  0.72907600  0.43213600  1
  C  C7  1  0.31918200  0.63836400  0.08352300  1
  C  C8  1  0.03447300  0.06894600  0.37098600  1
  C  C9  1  0.65252500  0.30505100  0.60553300  1
  C  C10  1  0.68823800  0.37647400  0.90896100  1
  C  C11  1  0.30000800  0.60001800  0.43891200  1
  C  C12  1  0.30620600  0.61241200  0.75430000  1
  C  C13  1  0.05129400  0.10258800  0.11404900  1
  C  C14  1  0.74458100  0.48916200  0.26815200  1
  C  C15  1  0.96874300  0.93748500  0.87010200  1
  C  C16  1  0.94235300  0.88470900  0.61246900  1
