# generated using pymatgen
data_CuNiC18
_symmetry_space_group_name_H-M   'P 1'
_cell_length_a   8.72064309
_cell_length_b   8.72064281
_cell_length_c   21.76660574
_cell_angle_alpha   90.18849228
_cell_angle_beta   89.81150772
_cell_angle_gamma   120.04756900
_symmetry_Int_Tables_number   1
_chemical_formula_structural   CuNiC18
_chemical_formula_sum   'Cu6 Ni6 C108'
_cell_volume   1432.87019329
_cell_formula_units_Z   6
loop_
 _symmetry_equiv_pos_site_id
 _symmetry_equiv_pos_as_xyz
  1  'x, y, z'
loop_
 _atom_site_type_symbol
 _atom_site_label
 _atom_site_symmetry_multiplicity
 _atom_site_fract_x
 _atom_site_fract_y
 _atom_site_fract_z
 _atom_site_occupancy
  C  C0  1  0.00003477  0.99702482  0.49831315  1
  C  C1  1  0.00297518  0.99996523  0.99831315  1
  C  C2  1  0.66707177  0.33010907  0.83179891  1
  C  C3  1  0.66989093  0.33292823  0.33179891  1
  C  C4  1  0.34594162  0.67407160  0.16496244  1
  C  C5  1  0.32592840  0.65405838  0.66496244  1
  C  C6  1  0.36487272  0.36400124  0.24876433  1
  C  C7  1  0.99447808  0.62799605  0.24869148  1
  C  C8  1  0.63599876  0.63512728  0.74876433  1
  C  C9  1  0.37200395  0.00552192  0.74869148  1
  C  C10  1  0.03635472  0.70003250  0.58164246  1
  C  C11  1  0.65864214  0.96393933  0.58407103  1
  C  C12  1  0.29996750  0.96364528  0.08164246  1
  C  C13  1  0.03606067  0.34135786  0.08407103  1
  C  C14  1  0.97033190  0.67114856  0.91775895  1
  C  C15  1  0.70105356  0.03076179  0.91396356  1
  C  C16  1  0.96923821  0.29894644  0.41396356  1
  C  C17  1  0.32885144  0.02966810  0.41775895  1
  Ni  Ni18  1  0.99215350  0.99217196  0.35204253  1
  Ni  Ni19  1  0.00782804  0.00784650  0.85204253  1
  Ni  Ni20  1  0.67070516  0.32679630  0.68546586  1
  Ni  Ni21  1  0.67320370  0.32929484  0.18546586  1
  Ni  Ni22  1  0.33000624  0.66920399  0.01843360  1
  Ni  Ni23  1  0.33079601  0.66999376  0.51843360  1
  C  C24  1  0.99544526  0.28405836  0.25154217  1
  C  C25  1  0.71594164  0.00455474  0.75154217  1
  C  C26  1  0.37468386  0.04818575  0.58393662  1
  C  C27  1  0.95181425  0.62531614  0.08393662  1
  C  C28  1  0.33379268  0.96377593  0.91770777  1
  C  C29  1  0.03622407  0.66620732  0.41770777  1
  Cu  Cu30  1  0.00640355  0.00787515  0.64821427  1
  Cu  Cu31  1  0.99212485  0.99359645  0.14821427  1
  Cu  Cu32  1  0.66087175  0.33526475  0.98127867  1
  Cu  Cu33  1  0.66473525  0.33912825  0.48127867  1
  Cu  Cu34  1  0.32716574  0.66127395  0.31467786  1
  Cu  Cu35  1  0.33872605  0.67283426  0.81467786  1
  C  C36  1  0.29282814  -0.00048961  0.25054757  1
  C  C37  1  0.70671162  0.71360000  0.25069022  1
  C  C38  1  0.28640000  0.29328838  0.75069022  1
  C  C39  1  0.00048961  0.70717186  0.75054757  1
  C  C40  1  0.95807233  0.33226823  0.58313818  1
  C  C41  1  0.66332821  0.61978102  0.58496840  1
  C  C42  1  0.66773177  0.04192767  0.08313818  1
  C  C43  1  0.38021898  0.33667179  0.08496840  1
  C  C44  1  0.61671127  0.66022927  0.91730490  1
  C  C45  1  0.04858701  0.37911629  0.91731809  1
  C  C46  1  0.62088371  0.95141299  0.41731809  1
  C  C47  1  0.33977073  0.38328873  0.41730490  1
  C  C48  1  0.21285051  0.03524266  0.30793341  1
  C  C49  1  0.82892478  0.78899355  0.30601068  1
  C  C50  1  0.97257098  0.17278977  0.31283210  1
  C  C51  1  0.21100645  0.17107522  0.80601068  1
  C  C52  1  0.96475734  0.78714949  0.80793341  1
  C  C53  1  0.82721023  0.02742902  0.81283210  1
  C  C54  1  0.80036172  0.95816964  0.68969014  1
  C  C55  1  0.17061787  0.21088777  0.69207180  1
  C  C56  1  0.04378059  0.83060519  0.69244812  1
  C  C57  1  0.78911223  0.82938213  0.19207180  1
  C  C58  1  0.04183036  0.19963828  0.18969014  1
  C  C59  1  0.16939481  0.95621941  0.19244812  1
  C  C60  1  0.87826641  0.37503133  0.63866720  1
  C  C61  1  0.49779587  0.12717539  0.64383051  1
  C  C62  1  0.63850555  0.51311043  0.64337004  1
  C  C63  1  0.87282461  0.50220413  0.14383051  1
  C  C64  1  0.62496867  0.12173359  0.13866720  1
  C  C65  1  0.48688957  0.36149445  0.14337004  1
  C  C66  1  0.46051397  0.29054253  0.02783692  1
  C  C67  1  0.83127824  0.53580455  0.02113579  1
  C  C68  1  0.70924261  0.16307925  0.02444148  1
  C  C69  1  0.46419545  0.16872176  0.52113579  1
  C  C70  1  0.70945747  0.53948603  0.52783692  1
  C  C71  1  0.83692075  0.29075739  0.52444148  1
  C  C72  1  0.53273482  0.69728751  0.97245588  1
  C  C73  1  0.15447846  0.45584504  0.97637438  1
  C  C74  1  0.29358807  0.83985950  0.97742085  1
  C  C75  1  0.54415496  0.84552154  0.47637438  1
  C  C76  1  0.30271249  0.46726518  0.47245588  1
  C  C77  1  0.16014050  0.70641193  0.47742085  1
  C  C78  1  0.12343364  0.62043318  0.35637421  1
  C  C79  1  0.49493100  0.86604442  0.36064223  1
  C  C80  1  0.37313416  0.49416673  0.35683590  1
  C  C81  1  0.13395558  0.50506900  0.86064223  1
  C  C82  1  0.37956682  0.87656636  0.85637421  1
  C  C83  1  0.50583327  0.62686584  0.85683590  1
  C  C84  1  0.02493463  0.84475138  0.40962180  1
  C  C85  1  0.80893456  0.98127682  0.41166877  1
  C  C86  1  0.17508940  0.19626734  0.41204316  1
  C  C87  1  0.01872318  0.19106544  0.91166877  1
  C  C88  1  0.15524862  0.97506537  0.90962180  1
  C  C89  1  0.80373266  0.82491060  0.91204316  1
  C  C90  1  0.96519644  0.15703646  0.58945426  1
  C  C91  1  0.17193739  0.02042872  0.59053541  1
  C  C92  1  0.83595874  0.80921414  0.58836232  1
  C  C93  1  0.97957128  0.82806261  0.09053541  1
  C  C94  1  0.84296354  0.03480356  0.08945426  1
  C  C95  1  0.19078586  0.16404126  0.08836232  1
  C  C96  1  0.68349233  0.17134505  0.74630818  1
  C  C97  1  0.47518076  0.32062809  0.74383523  1
  C  C98  1  0.83230056  0.52658418  0.74264083  1
  C  C99  1  0.67937191  0.52481924  0.24383523  1
  C  C100  1  0.82865495  0.31650767  0.24630818  1
  C  C101  1  0.47341582  0.16769944  0.24264083  1
  C  C102  1  0.63966949  0.49359709  0.92176077  1
  C  C103  1  0.86002918  0.36441853  0.92089705  1
  C  C104  1  0.52092478  0.15669857  0.92462215  1
  C  C105  1  0.63558147  0.13997082  0.42089705  1
  C  C106  1  0.50640291  0.36033051  0.42176077  1
  C  C107  1  0.84330143  0.47907522  0.42462215  1
  C  C108  1  0.35519469  0.49711693  0.07723727  1
  C  C109  1  0.15015486  0.64699323  0.07858529  1
  C  C110  1  0.50498885  0.85739132  0.07638163  1
  C  C111  1  0.35300677  0.84984514  0.57858529  1
  C  C112  1  0.50288307  0.64480531  0.57723727  1
  C  C113  1  0.14260868  0.49501115  0.57638163  1
  C  C114  1  0.30676409  0.82798086  0.25622135  1
  C  C115  1  0.51996161  0.69609491  0.25727830  1
  C  C116  1  0.18197362  0.48555444  0.25494159  1
  C  C117  1  0.30390509  0.48003839  0.75727830  1
  C  C118  1  0.17201914  0.69323591  0.75622135  1
  C  C119  1  0.51444556  0.81802638  0.75494159  1
