# generated using pymatgen
data_Cu(NiC11)3
_symmetry_space_group_name_H-M   'P 1'
_cell_length_a   8.57793100
_cell_length_b   8.57816640
_cell_length_c   8.57804226
_cell_angle_alpha   60.47543516
_cell_angle_beta   60.46508358
_cell_angle_gamma   60.47206408
_symmetry_Int_Tables_number   1
_chemical_formula_structural   Cu(NiC11)3
_chemical_formula_sum   'Cu1 Ni3 C33'
_cell_volume   451.07436698
_cell_formula_units_Z   1
loop_
 _symmetry_equiv_pos_site_id
 _symmetry_equiv_pos_as_xyz
  1  'x, y, z'
loop_
 _atom_site_type_symbol
 _atom_site_label
 _atom_site_symmetry_multiplicity
 _atom_site_fract_x
 _atom_site_fract_y
 _atom_site_fract_z
 _atom_site_occupancy
  C  C0  1  0.74931500  0.74935100  0.75009700  1
  C  C1  1  0.00452000  0.00441000  0.00446400  1
  C  C2  1  0.49571500  0.49583900  0.49603100  1
  Ni  Ni3  1  0.14880700  0.14882200  0.14895100  1
  Ni  Ni4  1  0.35126800  0.35123900  0.35138700  1
  Ni  Ni5  1  0.62868400  0.62866500  0.62854700  1
  Cu  Cu6  1  0.87096100  0.87089100  0.87122200  1
  C  C7  1  0.05172200  0.74994900  0.44981500  1
  C  C8  1  0.44963600  0.05179100  0.75001300  1
  C  C9  1  0.74990600  0.44954900  0.05200200  1
  C  C10  1  0.24631400  0.54537000  0.95782200  1
  C  C11  1  0.54539400  0.95764100  0.24647800  1
  C  C12  1  0.95764100  0.24626500  0.54557000  1
  C  C13  1  0.09677200  0.34238900  0.48773000  1
  C  C14  1  0.34237700  0.48744600  0.09696000  1
  C  C15  1  0.06836200  0.90774200  0.24877100  1
  C  C16  1  0.48752900  0.09676500  0.34262700  1
  C  C17  1  0.99881400  0.80953900  0.61620100  1
  C  C18  1  0.25322200  0.59324000  0.43112400  1
  C  C19  1  0.24861900  0.06838100  0.90787400  1
  C  C20  1  0.43093400  0.25323800  0.59339100  1
  C  C21  1  0.14929300  0.40569900  0.02064900  1
  C  C22  1  0.59321900  0.43098000  0.25343100  1
  C  C23  1  0.10309900  0.75266200  0.94941100  1
  C  C24  1  0.40563600  0.02039900  0.14959300  1
  C  C25  1  0.61588900  0.99883800  0.80979700  1
  C  C26  1  0.90773100  0.24860100  0.06854900  1
  C  C27  1  0.38904400  0.55131900  0.75113200  1
  C  C28  1  0.80960900  0.61589400  0.99903800  1
  C  C29  1  0.55134300  0.75096200  0.38921900  1
  C  C30  1  0.75269700  0.94917700  0.10331400  1
  C  C31  1  0.75096100  0.38899800  0.55155200  1
  C  C32  1  0.02043300  0.14928900  0.40584900  1
  C  C33  1  0.49987300  0.88876100  0.68710900  1
  C  C34  1  0.94912200  0.10307100  0.75291000  1
  C  C35  1  0.68680600  0.49992600  0.88903600  1
  C  C36  1  0.88873000  0.68690800  0.50014800  1
