# generated using pymatgen
data_Cu8NiC5
_symmetry_space_group_name_H-M   'P 1'
_cell_length_a   5.55521100
_cell_length_b   5.62586200
_cell_length_c   29.31197800
_cell_angle_alpha   90.00000000
_cell_angle_beta   90.00000000
_cell_angle_gamma   90.00000000
_symmetry_Int_Tables_number   1
_chemical_formula_structural   Cu8NiC5
_chemical_formula_sum   'Cu32 Ni4 C20'
_cell_volume   916.08286532
_cell_formula_units_Z   4
loop_
 _symmetry_equiv_pos_site_id
 _symmetry_equiv_pos_as_xyz
  1  'x, y, z'
loop_
 _atom_site_type_symbol
 _atom_site_label
 _atom_site_symmetry_multiplicity
 _atom_site_fract_x
 _atom_site_fract_y
 _atom_site_fract_z
 _atom_site_occupancy
  C  C0  1  0.00000000  0.98749200  0.75000000  1
  C  C1  1  0.50000000  0.48749200  0.75000000  1
  C  C2  1  0.00000000  0.01250800  0.25000000  1
  C  C3  1  0.50000000  0.51250800  0.25000000  1
  C  C4  1  0.48829600  0.49360300  0.06853100  1
  C  C5  1  0.47593100  0.05224300  0.84301800  1
  C  C6  1  0.97593100  0.55224300  0.65698200  1
  C  C7  1  0.47593100  0.94775700  0.34301800  1
  C  C8  1  0.97593100  0.44775700  0.15698200  1
  C  C9  1  0.51170400  0.50639700  0.93146900  1
  C  C10  1  0.01170400  0.00639700  0.56853100  1
  C  C11  1  0.51170400  0.49360300  0.43146900  1
  C  C12  1  0.02406900  0.44775700  0.34301800  1
  C  C13  1  0.52406900  0.05224300  0.65698200  1
  C  C14  1  0.02406900  0.55224300  0.84301800  1
  C  C15  1  0.52406900  0.94775700  0.15698200  1
  C  C16  1  0.98829600  0.00639700  0.93146900  1
  C  C17  1  0.48829600  0.50639700  0.56853100  1
  C  C18  1  0.98829600  0.99360300  0.43146900  1
  C  C19  1  0.01170400  0.99360300  0.06853100  1
  Ni  Ni20  1  0.50000000  0.00000000  0.50000000  1
  Ni  Ni21  1  0.00000000  0.50000000  0.50000000  1
  Ni  Ni22  1  0.50000000  0.00000000  0.00000000  1
  Ni  Ni23  1  0.00000000  0.50000000  0.00000000  1
  Cu  Cu24  1  0.24573600  0.30798900  0.23258600  1
  Cu  Cu25  1  0.74573600  0.19201100  0.76741400  1
  Cu  Cu26  1  0.24573600  0.69201100  0.73258600  1
  Cu  Cu27  1  0.74573600  0.80798900  0.26741400  1
  Cu  Cu28  1  0.75426400  0.30798900  0.26741400  1
  Cu  Cu29  1  0.25426400  0.19201100  0.73258600  1
  Cu  Cu30  1  0.75426400  0.69201100  0.76741400  1
  Cu  Cu31  1  0.25426400  0.80798900  0.23258600  1
  Cu  Cu32  1  0.38871500  0.58471900  0.31403900  1
  Cu  Cu33  1  0.88871500  0.91528100  0.68596100  1
  Cu  Cu34  1  0.38871500  0.41528100  0.81403900  1
  Cu  Cu35  1  0.88871500  0.08471900  0.18596100  1
  Cu  Cu36  1  0.61128500  0.58471900  0.18596100  1
  Cu  Cu37  1  0.11128500  0.91528100  0.81403900  1
  Cu  Cu38  1  0.61128500  0.41528100  0.68596100  1
  Cu  Cu39  1  0.11128500  0.08471900  0.31403900  1
  Cu  Cu40  1  0.74658500  0.25464700  0.10507400  1
  Cu  Cu41  1  0.24658500  0.24535300  0.89492600  1
  Cu  Cu42  1  0.74658500  0.74535300  0.60507400  1
  Cu  Cu43  1  0.24658500  0.75464700  0.39492600  1
  Cu  Cu44  1  0.24300400  0.24600800  0.10655700  1
  Cu  Cu45  1  0.74300400  0.25399200  0.89344300  1
  Cu  Cu46  1  0.24300400  0.75399200  0.60655700  1
  Cu  Cu47  1  0.74300400  0.74600800  0.39344300  1
  Cu  Cu48  1  0.75699600  0.24600800  0.39344300  1
  Cu  Cu49  1  0.25699600  0.25399200  0.60655700  1
  Cu  Cu50  1  0.75699600  0.75399200  0.89344300  1
  Cu  Cu51  1  0.25699600  0.74600800  0.10655700  1
  Cu  Cu52  1  0.25341500  0.25464700  0.39492600  1
  Cu  Cu53  1  0.75341500  0.24535300  0.60507400  1
  Cu  Cu54  1  0.25341500  0.74535300  0.89492600  1
  Cu  Cu55  1  0.75341500  0.75464700  0.10507400  1
