# generated using pymatgen
data_Cu12Ni3C2
_symmetry_space_group_name_H-M   'P 1'
_cell_length_a   11.34984350
_cell_length_b   11.34984350
_cell_length_c   7.00254956
_cell_angle_alpha   73.65240370
_cell_angle_beta   73.65240370
_cell_angle_gamma   34.61159766
_symmetry_Int_Tables_number   1
_chemical_formula_structural   Cu12Ni3C2
_chemical_formula_sum   'Cu24 Ni6 C4'
_cell_volume   489.60778512
_cell_formula_units_Z   2
loop_
 _symmetry_equiv_pos_site_id
 _symmetry_equiv_pos_as_xyz
  1  'x, y, z'
loop_
 _atom_site_type_symbol
 _atom_site_label
 _atom_site_symmetry_multiplicity
 _atom_site_fract_x
 _atom_site_fract_y
 _atom_site_fract_z
 _atom_site_occupancy
  C  C0  1  0.22180000  0.51434600  0.63102100  1
  C  C1  1  0.48565400  0.77820000  0.86897900  1
  C  C2  1  0.77820000  0.48565400  0.36897900  1
  C  C3  1  0.51434600  0.22180000  0.13102100  1
  Ni  Ni4  1  0.66557900  0.33442100  0.25000000  1
  Ni  Ni5  1  0.33442100  0.66557900  0.75000000  1
  Ni  Ni6  1  0.99997300  0.36650800  0.82173400  1
  Ni  Ni7  1  0.63349200  0.00002700  0.67826600  1
  Ni  Ni8  1  0.00002700  0.63349200  0.17826600  1
  Ni  Ni9  1  0.36650800  0.99997300  0.32173400  1
  Cu  Cu10  1  0.59101400  0.52084700  0.14362400  1
  Cu  Cu11  1  0.47915300  0.40898600  0.35637600  1
  Cu  Cu12  1  0.40898600  0.47915300  0.85637600  1
  Cu  Cu13  1  0.52084700  0.59101400  0.64362400  1
  Cu  Cu14  1  0.15060200  0.14380800  0.87429000  1
  Cu  Cu15  1  0.85619200  0.84939800  0.62571000  1
  Cu  Cu16  1  0.84939800  0.85619200  0.12571000  1
  Cu  Cu17  1  0.14380800  0.15060200  0.37429000  1
  Cu  Cu18  1  0.80872900  0.23868300  0.39034300  1
  Cu  Cu19  1  0.76131700  0.19127100  0.10965700  1
  Cu  Cu20  1  0.53694700  0.15908200  0.80195900  1
  Cu  Cu21  1  0.84091800  0.46305300  0.69804100  1
  Cu  Cu22  1  0.46305300  0.84091800  0.19804100  1
  Cu  Cu23  1  0.15908200  0.53694700  0.30195900  1
  Cu  Cu24  1  0.39776200  0.10391900  0.21012500  1
  Cu  Cu25  1  0.89608100  0.60223800  0.28987500  1
  Cu  Cu26  1  0.60223800  0.89608100  0.78987500  1
  Cu  Cu27  1  0.10391900  0.39776200  0.71012500  1
  Cu  Cu28  1  0.48209900  0.87217300  0.50442200  1
  Cu  Cu29  1  0.12782700  0.51790100  0.99557800  1
  Cu  Cu30  1  0.51790100  0.12782700  0.49557800  1
  Cu  Cu31  1  0.87217300  0.48209900  0.00442200  1
  Cu  Cu32  1  0.23868300  0.80872900  0.89034300  1
  Cu  Cu33  1  0.19127100  0.76131700  0.60965700  1
