# generated using pymatgen
data_Cu2NiC37
_symmetry_space_group_name_H-M   'P 1'
_cell_length_a   15.82828554
_cell_length_b   9.15080136
_cell_length_c   9.13916987
_cell_angle_alpha   90.23391525
_cell_angle_beta   124.77598122
_cell_angle_gamma   89.84740271
_symmetry_Int_Tables_number   1
_chemical_formula_structural   Cu2NiC37
_chemical_formula_sum   'Cu4 Ni2 C74'
_cell_volume   1087.28815075
_cell_formula_units_Z   2
loop_
 _symmetry_equiv_pos_site_id
 _symmetry_equiv_pos_as_xyz
  1  'x, y, z'
loop_
 _atom_site_type_symbol
 _atom_site_label
 _atom_site_symmetry_multiplicity
 _atom_site_fract_x
 _atom_site_fract_y
 _atom_site_fract_z
 _atom_site_occupancy
  C  C0  1  0.25027660  0.74904623  0.99920958  1
  C  C1  1  0.74104937  0.74567693  0.47531217  1
  C  C2  1  0.75027660  0.24904623  0.99920958  1
  C  C3  1  0.24104937  0.24567693  0.47531217  1
  C  C4  1  0.51042785  0.08731226  0.77306126  1
  C  C5  1  0.49665119  0.88657700  0.22626738  1
  C  C6  1  0.01042785  0.58731226  0.77306126  1
  C  C7  1  0.99665119  0.38657700  0.22626738  1
  C  C8  1  0.79888527  0.92357258  0.20677162  1
  C  C9  1  0.18416769  0.08240489  0.80938223  1
  C  C10  1  0.29888527  0.42357258  0.20677162  1
  C  C11  1  0.68416769  0.58240489  0.80938223  1
  C  C12  1  0.10378111  0.74834864  0.55701059  1
  C  C13  1  0.89469345  0.75589480  0.93569917  1
  C  C14  1  0.89619444  0.25408307  0.44267417  1
  C  C15  1  0.60378111  0.24834864  0.55701059  1
  C  C16  1  0.39469345  0.25589480  0.93569917  1
  C  C17  1  0.39619444  0.75408307  0.44267417  1
  Ni  Ni18  1  0.10484202  0.24156356  0.05587150  1
  Ni  Ni19  1  0.60484202  0.74156356  0.05587150  1
  Cu  Cu20  1  0.64937267  0.89901146  0.75209088  1
  Cu  Cu21  1  0.34995681  0.10115019  0.25075186  1
  Cu  Cu22  1  0.14937267  0.39901146  0.75209088  1
  Cu  Cu23  1  0.84995681  0.60115019  0.25075186  1
  C  C24  1  0.99899780  0.95729588  0.74771668  1
  C  C25  1  0.00198357  0.04776670  0.25473847  1
  C  C26  1  0.49899780  0.45729588  0.74771668  1
  C  C27  1  0.50198357  0.54776670  0.25473847  1
  C  C28  1  0.35677466  0.89611783  0.76621899  1
  C  C29  1  0.64690660  0.10363997  0.24132071  1
  C  C30  1  0.85677466  0.39611783  0.76621899  1
  C  C31  1  0.14690660  0.60363997  0.24132071  1
  C  C32  1  0.15501612  0.57805429  0.73884534  1
  C  C33  1  0.85283048  0.56799175  0.75765049  1
  C  C34  1  0.84873828  0.42037483  0.25522717  1
  C  C35  1  0.15277255  0.43725729  0.25236287  1
  C  C36  1  0.65501612  0.07805429  0.73884534  1
  C  C37  1  0.35283048  0.06799175  0.75765049  1
  C  C38  1  0.34873828  0.92037483  0.25522717  1
  C  C39  1  0.65277255  0.93725729  0.25236287  1
  C  C40  1  0.43260228  0.54739943  0.57328816  1
  C  C41  1  0.56348786  0.55485164  0.90972538  1
  C  C42  1  0.56425757  0.45461276  0.42566753  1
  C  C43  1  0.44253691  0.44014195  0.09246083  1
  C  C44  1  0.93260228  0.04739943  0.57328816  1
  C  C45  1  0.06348786  0.05485164  0.90972538  1
  C  C46  1  0.06425757  0.95461276  0.42566753  1
  C  C47  1  0.94253691  0.94014195  0.09246083  1
  C  C48  1  0.25767922  0.84363267  0.74619981  1
  C  C49  1  0.74342786  0.81653513  0.75540014  1
  C  C50  1  0.74074349  0.16570699  0.24953703  1
  C  C51  1  0.25922143  0.18367347  0.24649819  1
  C  C52  1  0.75767922  0.34363267  0.74619981  1
  C  C53  1  0.24342786  0.31653513  0.75540014  1
  C  C54  1  0.24074349  0.66570699  0.24953703  1
  C  C55  1  0.75922143  0.68367347  0.24649819  1
  C  C56  1  0.35911161  0.84914579  0.60329407  1
  C  C57  1  0.65029436  0.86814644  0.92659716  1
  C  C58  1  0.64593582  0.16137065  0.40138941  1
  C  C59  1  0.35202350  0.13928944  0.07417121  1
  C  C60  1  0.85911161  0.34914579  0.60329407  1
  C  C61  1  0.15029436  0.36814644  0.92659716  1
  C  C62  1  0.14593582  0.66137065  0.40138941  1
  C  C63  1  0.85202350  0.63928944  0.07417121  1
  C  C64  1  0.45230651  0.84195879  0.93948051  1
  C  C65  1  0.54137173  0.83201390  0.57448204  1
  C  C66  1  0.54684955  0.15904593  0.06643171  1
  C  C67  1  0.46198395  0.16126517  0.42426341  1
  C  C68  1  0.95230651  0.34195879  0.93948051  1
  C  C69  1  0.04137173  0.33201390  0.57448204  1
  C  C70  1  0.04684955  0.65904593  0.06643171  1
  C  C71  1  0.96198395  0.66126517  0.42426341  1
  C  C72  1  0.07867768  0.86053567  0.73880860  1
  C  C73  1  0.92700852  0.84791687  0.75651381  1
  C  C74  1  0.91503071  0.13276124  0.25313112  1
  C  C75  1  0.07113093  0.15685592  0.24447674  1
  C  C76  1  0.57867768  0.36053567  0.73880860  1
  C  C77  1  0.42700852  0.34791687  0.75651381  1
  C  C78  1  0.41503071  0.63276124  0.25313112  1
  C  C79  1  0.57113093  0.65685592  0.24447674  1
