# generated using pymatgen
data_Cu(NiC2)6
_symmetry_space_group_name_H-M   'P 1'
_cell_length_a   6.59690851
_cell_length_b   6.59690851
_cell_length_c   6.59690835
_cell_angle_alpha   99.02344701
_cell_angle_beta   99.02344701
_cell_angle_gamma   99.02344380
_symmetry_Int_Tables_number   1
_chemical_formula_structural   Cu(NiC2)6
_chemical_formula_sum   'Cu1 Ni6 C12'
_cell_volume   275.14292633
_cell_formula_units_Z   1
loop_
 _symmetry_equiv_pos_site_id
 _symmetry_equiv_pos_as_xyz
  1  'x, y, z'
loop_
 _atom_site_type_symbol
 _atom_site_label
 _atom_site_symmetry_multiplicity
 _atom_site_fract_x
 _atom_site_fract_y
 _atom_site_fract_z
 _atom_site_occupancy
  Ni  Ni0  1  0.39035700  0.67795500  0.85487700  1
  Ni  Ni1  1  0.85487700  0.39035700  0.67795500  1
  Ni  Ni2  1  0.67795500  0.85487700  0.39035700  1
  Ni  Ni3  1  0.60964300  0.32204500  0.14512300  1
  Ni  Ni4  1  0.14512300  0.60964300  0.32204500  1
  Ni  Ni5  1  0.32204500  0.14512300  0.60964300  1
  Cu  Cu6  1  0.00000000  0.00000000  0.00000000  1
  C  C7  1  0.17753200  0.42731000  0.58836400  1
  C  C8  1  0.58836400  0.17753200  0.42731000  1
  C  C9  1  0.42731000  0.58836400  0.17753200  1
  C  C10  1  0.82246800  0.57269000  0.41163600  1
  C  C11  1  0.41163600  0.82246800  0.57269000  1
  C  C12  1  0.57269000  0.41163600  0.82246800  1
  C  C13  1  0.91926400  0.04675000  0.69247700  1
  C  C14  1  0.95325000  0.30752300  0.08073600  1
  C  C15  1  0.30752300  0.08073600  0.95325000  1
  C  C16  1  0.08073600  0.95325000  0.30752300  1
  C  C17  1  0.04675000  0.69247700  0.91926400  1
  C  C18  1  0.69247700  0.91926400  0.04675000  1
