# generated using pymatgen
data_Cu4NiC8
_symmetry_space_group_name_H-M   'P 1'
_cell_length_a   5.25742398
_cell_length_b   5.25807898
_cell_length_c   6.34259641
_cell_angle_alpha   90.23194114
_cell_angle_beta   89.75601933
_cell_angle_gamma   65.29249668
_symmetry_Int_Tables_number   1
_chemical_formula_structural   Cu4NiC8
_chemical_formula_sum   'Cu4 Ni1 C8'
_cell_volume   159.27843755
_cell_formula_units_Z   1
loop_
 _symmetry_equiv_pos_site_id
 _symmetry_equiv_pos_as_xyz
  1  'x, y, z'
loop_
 _atom_site_type_symbol
 _atom_site_label
 _atom_site_symmetry_multiplicity
 _atom_site_fract_x
 _atom_site_fract_y
 _atom_site_fract_z
 _atom_site_occupancy
  Ni  Ni0  1  0.66101100  0.66614200  0.25009300  1
  Cu  Cu1  1  0.00392400  0.00210700  0.99424300  1
  Cu  Cu2  1  0.00066700  0.00522900  0.50566900  1
  Cu  Cu3  1  0.34394000  0.34566200  0.24995100  1
  Cu  Cu4  1  0.64776300  0.64861200  0.75011900  1
  C  C5  1  0.22370300  0.21209800  0.03732900  1
  C  C6  1  0.21361000  0.22210500  0.46256000  1
  C  C7  1  0.23923200  0.73567700  0.24871700  1
  C  C8  1  0.26488200  0.78431700  0.74728500  1
  C  C9  1  0.73386600  0.24199900  0.25123200  1
  C  C10  1  0.78404800  0.26533600  0.75263900  1
  C  C11  1  0.77951300  0.76626300  0.98107100  1
  C  C12  1  0.76634000  0.77945400  0.51909300  1
