# generated using pymatgen
data_Cu3NiC
_symmetry_space_group_name_H-M   'P 1'
_cell_length_a   5.21069800
_cell_length_b   5.72366900
_cell_length_c   6.25279800
_cell_angle_alpha   90.00000000
_cell_angle_beta   90.00000000
_cell_angle_gamma   90.00000000
_symmetry_Int_Tables_number   1
_chemical_formula_structural   Cu3NiC
_chemical_formula_sum   'Cu6 Ni2 C2'
_cell_volume   186.48538974
_cell_formula_units_Z   2
loop_
 _symmetry_equiv_pos_site_id
 _symmetry_equiv_pos_as_xyz
  1  'x, y, z'
loop_
 _atom_site_type_symbol
 _atom_site_label
 _atom_site_symmetry_multiplicity
 _atom_site_fract_x
 _atom_site_fract_y
 _atom_site_fract_z
 _atom_site_occupancy
  C  C0  1  0.59597000  0.50000000  0.00000000  1
  C  C1  1  0.40403000  0.00000000  0.50000000  1
  Ni  Ni2  1  0.00367400  0.00000000  0.00000000  1
  Ni  Ni3  1  0.99632600  0.50000000  0.50000000  1
  Cu  Cu4  1  0.11807700  0.50000000  0.67601000  1
  Cu  Cu5  1  0.88192300  0.00000000  0.82399000  1
  Cu  Cu6  1  0.75196500  0.50000000  0.50000000  1
  Cu  Cu7  1  0.24803500  0.00000000  0.00000000  1
  Cu  Cu8  1  0.11807700  0.50000000  0.32399000  1
  Cu  Cu9  1  0.88192300  0.00000000  0.17601000  1
