# generated using pymatgen
data_Cu(NiC2)3
_symmetry_space_group_name_H-M   'P 1'
_cell_length_a   7.31403300
_cell_length_b   6.91755500
_cell_length_c   12.30634428
_cell_angle_alpha   56.56285329
_cell_angle_beta   90.00000000
_cell_angle_gamma   90.00000000
_symmetry_Int_Tables_number   1
_chemical_formula_structural   Cu(NiC2)3
_chemical_formula_sum   'Cu2 Ni6 C12'
_cell_volume   519.58923723
_cell_formula_units_Z   2
loop_
 _symmetry_equiv_pos_site_id
 _symmetry_equiv_pos_as_xyz
  1  'x, y, z'
loop_
 _atom_site_type_symbol
 _atom_site_label
 _atom_site_symmetry_multiplicity
 _atom_site_fract_x
 _atom_site_fract_y
 _atom_site_fract_z
 _atom_site_occupancy
  Ni  Ni0  1  0.57634500  0.28440800  0.23999600  1
  Ni  Ni1  1  0.07634500  0.71559200  0.26000400  1
  Ni  Ni2  1  0.00000000  0.50000000  0.00000000  1
  Ni  Ni3  1  0.50000000  0.50000000  0.50000000  1
  Ni  Ni4  1  0.42365500  0.71559200  0.76000400  1
  Ni  Ni5  1  0.92365500  0.28440800  0.73999600  1
  Cu  Cu6  1  0.00000000  0.00000000  0.50000000  1
  Cu  Cu7  1  0.50000000  0.00000000  0.00000000  1
  C  C8  1  0.93517000  0.09969700  0.26225100  1
  C  C9  1  0.30403800  0.24667800  0.42141900  1
  C  C10  1  0.80403800  0.75332200  0.07858100  1
  C  C11  1  0.69596200  0.75332200  0.57858100  1
  C  C12  1  0.32167600  0.62254700  0.06415000  1
  C  C13  1  0.82167600  0.37745300  0.43585000  1
  C  C14  1  0.67832400  0.37745300  0.93585000  1
  C  C15  1  0.17832400  0.62254700  0.56415000  1
  C  C16  1  0.06483000  0.90030300  0.73774900  1
  C  C17  1  0.56483000  0.09969700  0.76225100  1
  C  C18  1  0.19596200  0.24667800  0.92141900  1
  C  C19  1  0.43517000  0.90030300  0.23774900  1
