# generated using pymatgen
data_Cu4NiC
_symmetry_space_group_name_H-M   'P 1'
_cell_length_a   8.70306335
_cell_length_b   8.70306307
_cell_length_c   22.93240810
_cell_angle_alpha   90.00000000
_cell_angle_beta   90.00000000
_cell_angle_gamma   120.00000109
_symmetry_Int_Tables_number   1
_chemical_formula_structural   Cu4NiC
_chemical_formula_sum   'Cu72 Ni18 C18'
_cell_volume   1504.26574012
_cell_formula_units_Z   18
loop_
 _symmetry_equiv_pos_site_id
 _symmetry_equiv_pos_as_xyz
  1  'x, y, z'
loop_
 _atom_site_type_symbol
 _atom_site_label
 _atom_site_symmetry_multiplicity
 _atom_site_fract_x
 _atom_site_fract_y
 _atom_site_fract_z
 _atom_site_occupancy
  C  C0  1  -0.00000000  -0.00000000  0.51075257  1
  C  C1  1  -0.00000000  -0.00000000  0.00870786  1
  C  C2  1  0.66666700  0.33333300  0.82584197  1
  C  C3  1  0.66666700  0.33333300  0.33821835  1
  C  C4  1  0.33333300  0.66666700  0.18036647  1
  C  C5  1  0.33333300  0.66666700  0.65796213  1
  C  C6  1  -0.00000000  -0.00000000  0.35282942  1
  C  C7  1  -0.00000000  -0.00000000  0.84974076  1
  C  C8  1  0.33333300  0.66666700  0.02019034  1
  C  C9  1  -0.00000000  -0.00000000  0.64619731  1
  C  C10  1  -0.00000000  -0.00000000  0.15486584  1
  C  C11  1  0.66666700  0.33333300  0.67370725  1
  C  C12  1  0.66666700  0.33333300  0.18679215  1
  C  C13  1  0.66666700  0.33333300  0.98687162  1
  C  C14  1  0.66666700  0.33333300  0.48940915  1
  C  C15  1  0.33333300  0.66666700  0.51843312  1
  C  C16  1  0.33333300  0.66666700  0.32147582  1
  C  C17  1  0.33333300  0.66666700  0.81221216  1
  Ni  Ni18  1  0.29727510  0.99831623  0.24812292  1
  Ni  Ni19  1  0.70104113  0.70272490  0.24812292  1
  Ni  Ni20  1  0.00168377  0.29895887  0.24812292  1
  Ni  Ni21  1  0.29809682  0.29738035  0.74845306  1
  Ni  Ni22  1  0.99928353  0.70190318  0.74845306  1
  Ni  Ni23  1  0.70261965  0.00071647  0.74845306  1
  Ni  Ni24  1  0.96590520  0.33486986  0.58342661  1
  Ni  Ni25  1  0.36896566  0.03409480  0.58342661  1
  Ni  Ni26  1  0.66513014  0.63103434  0.58342661  1
  Ni  Ni27  1  0.95649216  0.62956953  0.08315880  1
  Ni  Ni28  1  0.67307837  0.04350784  0.08315880  1
  Ni  Ni29  1  0.37043047  0.32692163  0.08315880  1
  Ni  Ni30  1  0.62546669  0.66192373  0.91544788  1
  Ni  Ni31  1  0.03645604  0.37453331  0.91544788  1
  Ni  Ni32  1  0.33807627  0.96354396  0.91544788  1
  Ni  Ni33  1  0.62352722  0.96356828  0.41627423  1
  Ni  Ni34  1  0.34004006  0.37647278  0.41627423  1
  Ni  Ni35  1  0.03643172  0.65995994  0.41627423  1
  Cu  Cu36  1  0.19935142  0.01436129  0.30005275  1
  Cu  Cu37  1  0.81500987  0.80064858  0.30005275  1
  Cu  Cu38  1  0.98563871  0.18499013  0.30005275  1
  Cu  Cu39  1  0.20261865  0.18571686  0.80376104  1
  Cu  Cu40  1  0.98309821  0.79738135  0.80376104  1
  Cu  Cu41  1  0.81428314  0.01690179  0.80376104  1
  Cu  Cu42  1  0.79012163  0.98011257  0.69743078  1
  Cu  Cu43  1  0.18999094  0.20987837  0.69743078  1
  Cu  Cu44  1  0.01988743  0.81000906  0.69743078  1
  Cu  Cu45  1  0.78114785  0.80538905  0.19426763  1
  Cu  Cu46  1  0.02424120  0.21885215  0.19426763  1
  Cu  Cu47  1  0.19461095  0.97575880  0.19426763  1
  Cu  Cu48  1  0.88621436  0.35800885  0.63789775  1
  Cu  Cu49  1  0.47179550  0.11378564  0.63789775  1
  Cu  Cu50  1  0.64199115  0.52820450  0.63789775  1
  Cu  Cu51  1  0.88059950  0.52058451  0.13506881  1
  Cu  Cu52  1  0.63998601  0.11940050  0.13506881  1
  Cu  Cu53  1  0.47941549  0.36001399  0.13506881  1
  Cu  Cu54  1  0.44946930  0.30542337  0.02894788  1
  Cu  Cu55  1  0.85595507  0.55053070  0.02894788  1
  Cu  Cu56  1  0.69457663  0.14404493  0.02894788  1
  Cu  Cu57  1  0.45320158  0.14117963  0.53077736  1
  Cu  Cu58  1  0.68797905  0.54679842  0.53077736  1
  Cu  Cu59  1  0.85882037  0.31202095  0.53077736  1
  Cu  Cu60  1  0.53899385  0.68730735  0.96879827  1
  Cu  Cu61  1  0.14831250  0.46100615  0.96879827  1
  Cu  Cu62  1  0.31269265  0.85168750  0.96879827  1
  Cu  Cu63  1  0.54806137  0.85392025  0.46808135  1
  Cu  Cu64  1  0.30585788  0.45193863  0.46808135  1
  Cu  Cu65  1  0.14607975  0.69414212  0.46808135  1
  Cu  Cu66  1  0.11534306  0.63821958  0.36207548  1
  Cu  Cu67  1  0.52287552  0.88465694  0.36207548  1
  Cu  Cu68  1  0.36178042  0.47712448  0.36207548  1
  Cu  Cu69  1  0.12168876  0.47779681  0.86337130  1
  Cu  Cu70  1  0.35610705  0.87831124  0.86337130  1
  Cu  Cu71  1  0.52220319  0.64389295  0.86337130  1
  Cu  Cu72  1  0.01842947  0.82603472  0.40824649  1
  Cu  Cu73  1  0.80760525  0.98157053  0.40824649  1
  Cu  Cu74  1  0.17396528  0.19239475  0.40824649  1
  Cu  Cu75  1  0.02496549  0.19557174  0.91292553  1
  Cu  Cu76  1  0.17060625  0.97503451  0.91292553  1
  Cu  Cu77  1  0.80442826  0.82939375  0.91292553  1
  Cu  Cu78  1  0.98240048  0.17266519  0.58729341  1
  Cu  Cu79  1  0.19026471  0.01759952  0.58729341  1
  Cu  Cu80  1  0.82733481  0.80973529  0.58729341  1
  Cu  Cu81  1  0.98364180  0.81032168  0.08837263  1
  Cu  Cu82  1  0.82667987  0.01635820  0.08837263  1
  Cu  Cu83  1  0.18967832  0.17332013  0.08837263  1
  Cu  Cu84  1  0.69156641  0.16363619  0.74797591  1
  Cu  Cu85  1  0.47207078  0.30843359  0.74797591  1
  Cu  Cu86  1  0.83636381  0.52792922  0.74797591  1
  Cu  Cu87  1  0.69297232  0.52895175  0.24737016  1
  Cu  Cu88  1  0.83598043  0.30702768  0.24737016  1
  Cu  Cu89  1  0.47104825  0.16401957  0.24737016  1
  Cu  Cu90  1  0.64944213  0.50784454  0.92317540  1
  Cu  Cu91  1  0.85840341  0.35055787  0.92317540  1
  Cu  Cu92  1  0.49215546  0.14159659  0.92317540  1
  Cu  Cu93  1  0.65059730  0.14402459  0.42191412  1
  Cu  Cu94  1  0.49342829  0.34940270  0.42191412  1
  Cu  Cu95  1  0.85597541  0.50657171  0.42191412  1
  Cu  Cu96  1  0.35191585  0.49269528  0.07549995  1
  Cu  Cu97  1  0.14077843  0.64808415  0.07549995  1
  Cu  Cu98  1  0.50730472  0.85922157  0.07549995  1
  Cu  Cu99  1  0.35127829  0.85580819  0.57898947  1
  Cu  Cu100  1  0.50452890  0.64872171  0.57898947  1
  Cu  Cu101  1  0.14419181  0.49547110  0.57898947  1
  Cu  Cu102  1  0.31468634  0.83947341  0.25538341  1
  Cu  Cu103  1  0.52478608  0.68531366  0.25538341  1
  Cu  Cu104  1  0.16052659  0.47521392  0.25538341  1
  Cu  Cu105  1  0.31353488  0.47311594  0.75591485  1
  Cu  Cu106  1  0.15958005  0.68646512  0.75591485  1
  Cu  Cu107  1  0.52688406  0.84041995  0.75591485  1
