# generated using pymatgen
data_CuNiC9
_symmetry_space_group_name_H-M   'P 1'
_cell_length_a   6.55049477
_cell_length_b   6.55049477
_cell_length_c   6.55049477
_cell_angle_alpha   53.88035123
_cell_angle_beta   53.88035123
_cell_angle_gamma   53.88035123
_symmetry_Int_Tables_number   1
_chemical_formula_structural   CuNiC9
_chemical_formula_sum   'Cu1 Ni1 C9'
_cell_volume   170.32834189
_cell_formula_units_Z   1
loop_
 _symmetry_equiv_pos_site_id
 _symmetry_equiv_pos_as_xyz
  1  'x, y, z'
loop_
 _atom_site_type_symbol
 _atom_site_label
 _atom_site_symmetry_multiplicity
 _atom_site_fract_x
 _atom_site_fract_y
 _atom_site_fract_z
 _atom_site_occupancy
  C  C0  1  0.31560666  0.31560666  0.31560666  1
  C  C1  1  0.71203450  0.71203450  0.71203450  1
  Ni  Ni2  1  0.13303945  0.13303945  0.13303945  1
  C  C3  1  0.97167505  0.97167505  0.97167505  1
  Cu  Cu4  1  0.50402696  0.50402696  0.50402696  1
  C  C5  1  0.75200628  0.23825357  0.23825357  1
  C  C6  1  0.74736394  0.27132808  0.74736394  1
  C  C7  1  0.74736394  0.74736394  0.27132808  1
  C  C8  1  0.27132808  0.74736394  0.74736394  1
  C  C9  1  0.23825357  0.75200628  0.23825357  1
  C  C10  1  0.23825357  0.23825357  0.75200628  1
