# generated using pymatgen
data_CuNiC16
_symmetry_space_group_name_H-M   'P 1'
_cell_length_a   9.11394577
_cell_length_b   9.11897598
_cell_length_c   23.59282929
_cell_angle_alpha   91.67536336
_cell_angle_beta   90.05876591
_cell_angle_gamma   119.82759866
_symmetry_Int_Tables_number   1
_chemical_formula_structural   CuNiC16
_chemical_formula_sum   'Cu6 Ni6 C96'
_cell_volume   1700.04075722
_cell_formula_units_Z   6
loop_
 _symmetry_equiv_pos_site_id
 _symmetry_equiv_pos_as_xyz
  1  'x, y, z'
loop_
 _atom_site_type_symbol
 _atom_site_label
 _atom_site_symmetry_multiplicity
 _atom_site_fract_x
 _atom_site_fract_y
 _atom_site_fract_z
 _atom_site_occupancy
  Ni  Ni0  1  0.97993458  0.97668995  0.49121217  1
  Ni  Ni1  1  0.01645207  0.99102094  0.00012800  1
  Ni  Ni2  1  0.64354573  0.31095732  0.82425571  1
  Ni  Ni3  1  0.66648690  0.30882343  0.32690435  1
  Ni  Ni4  1  0.30758630  0.65700118  0.17119160  1
  Ni  Ni5  1  0.35290044  0.66072036  0.65922004  1
  Cu  Cu6  1  0.99887804  0.00400972  0.35462854  1
  Cu  Cu7  1  0.00945433  0.00700648  0.85297322  1
  Cu  Cu8  1  0.65623180  0.33400849  0.68715825  1
  Cu  Cu9  1  0.68030891  0.33491011  0.18829700  1
  Cu  Cu10  1  0.32502769  0.67201170  0.02104837  1
  Cu  Cu11  1  0.34417848  0.67629051  0.51918693  1
  C  C12  1  0.98867147  0.00989708  0.64597652  1
  C  C13  1  0.00678137  0.99064163  0.15415267  1
  C  C14  1  0.66680462  0.33601576  0.98012190  1
  C  C15  1  0.67653981  0.34928152  0.47386274  1
  C  C16  1  0.31395799  0.67992378  0.31382484  1
  C  C17  1  0.34945575  0.68733236  0.80662970  1
  C  C18  1  0.29751914  0.00121191  0.25370196  1
  C  C19  1  0.01456277  0.30000515  0.25251877  1
  C  C20  1  0.28756693  0.29467985  0.75217522  1
  C  C21  1  0.71354668  0.00531032  0.75206361  1
  C  C22  1  0.67270327  0.62900491  0.58561815  1
  C  C23  1  0.95649019  0.63540222  0.08513442  1
  C  C24  1  0.33706572  0.96143894  0.91875539  1
  C  C25  1  0.62182056  0.96123114  0.41846305  1
  C  C26  1  0.03962538  0.66908805  0.41988086  1
  C  C27  1  0.70113783  0.71523489  0.24814072  1
  C  C28  1  0.01257974  0.71417319  0.74892717  1
  C  C29  1  0.95279816  0.32540693  0.58282248  1
  C  C30  1  0.36327498  0.04528310  0.58287100  1
  C  C31  1  0.68172081  0.05062393  0.07973506  1
  C  C32  1  0.37169030  0.32234692  0.08205448  1
  C  C33  1  0.61798349  0.65444741  0.91656437  1
  C  C34  1  0.03085001  0.37779552  0.91740781  1
  C  C35  1  0.34519603  0.38062179  0.41670620  1
  C  C36  1  0.20605162  0.01564755  0.30774624  1
  C  C37  1  0.80067210  0.78868394  0.29956930  1
  C  C38  1  0.98341960  0.18570685  0.30474263  1
  C  C39  1  0.20507216  0.18503693  0.80611793  1
  C  C40  1  0.98778810  0.78500292  0.80188725  1
  C  C41  1  0.80659679  0.00712407  0.80831927  1
  C  C42  1  0.80770237  0.97508605  0.69362871  1
  C  C43  1  0.16289607  0.19178148  0.69416499  1
  C  C44  1  0.03589581  0.81963545  0.69941980  1
  C  C45  1  0.79943959  0.82371873  0.19683150  1
  C  C46  1  0.02631728  0.18625887  0.19299567  1
  C  C47  1  0.16678384  0.96683681  0.19434067  1
  C  C48  1  0.87586434  0.34467721  0.63454012  1
  C  C49  1  0.46492161  0.12135361  0.63483570  1
  C  C50  1  0.66578037  0.52730622  0.63955772  1
  C  C51  1  0.86118673  0.52569395  0.13734005  1
  C  C52  1  0.65009336  0.12160060  0.13126171  1
  C  C53  1  0.47124016  0.34570387  0.13295140  1
  C  C54  1  0.46215296  0.30202557  0.02962925  1
  C  C55  1  0.82904490  0.52235491  0.02678463  1
  C  C56  1  0.69010571  0.15709450  0.02940419  1
  C  C57  1  0.44750160  0.14498295  0.53263281  1
  C  C58  1  0.68992348  0.52147787  0.52748170  1
  C  C59  1  0.84665777  0.29938529  0.53128203  1
  C  C60  1  0.53945791  0.67398579  0.96783744  1
  C  C61  1  0.13182462  0.45466618  0.96923296  1
  C  C62  1  0.32721265  0.85457418  0.97182238  1
  C  C63  1  0.53897839  0.85183928  0.47231797  1
  C  C64  1  0.32692140  0.45659348  0.46963158  1
  C  C65  1  0.14040487  0.67289713  0.47438478  1
  C  C66  1  0.13172185  0.63972641  0.36011706  1
  C  C67  1  0.49430323  0.85433195  0.36051280  1
  C  C68  1  0.36727095  0.48204178  0.36672644  1
  C  C69  1  0.10722000  0.47767483  0.86713718  1
  C  C70  1  0.35833028  0.85718280  0.86036618  1
  C  C71  1  0.51141057  0.63019061  0.86461420  1
  C  C72  1  0.00134699  0.81901204  0.41391549  1
  C  C73  1  0.81348781  0.00652216  0.41262875  1
  C  C74  1  0.20442707  0.20748780  0.41232106  1
  C  C75  1  0.99735091  0.20300449  0.91302869  1
  C  C76  1  0.17917954  0.99224631  0.91594936  1
  C  C77  1  0.79010490  0.79689176  0.91172257  1
  C  C78  1  0.96268966  0.16102804  0.58748496  1
  C  C79  1  0.19403070  0.03666507  0.58920364  1
  C  C80  1  0.85474677  0.82063464  0.59381395  1
  C  C81  1  0.96384775  0.82418352  0.09016528  1
  C  C82  1  0.84289836  0.04846700  0.08247934  1
  C  C83  1  0.20292235  0.16451433  0.08409392  1
  C  C84  1  0.67936024  0.15777030  0.74485530  1
  C  C85  1  0.48021170  0.33950423  0.74633657  1
  C  C86  1  0.87552483  0.53974735  0.74193876  1
  C  C87  1  0.67496050  0.54470212  0.23943176  1
  C  C88  1  0.86351858  0.34056383  0.24462267  1
  C  C89  1  0.47987694  0.15640822  0.24272473  1
  C  C90  1  0.62851606  0.49194624  0.92177346  1
  C  C91  1  0.85708137  0.36567219  0.92521451  1
  C  C92  1  0.51670324  0.15236483  0.92787287  1
  C  C93  1  0.62314047  0.14728349  0.42893760  1
  C  C94  1  0.50716520  0.36788356  0.42186624  1
  C  C95  1  0.84983854  0.48397451  0.42504112  1
  C  C96  1  0.35091106  0.47032902  0.07420246  1
  C  C97  1  0.14487597  0.66316214  0.08027577  1
  C  C98  1  0.53993447  0.87678582  0.07237085  1
  C  C99  1  0.33242361  0.87035505  0.57897169  1
  C  C100  1  0.51539243  0.66134983  0.58251857  1
  C  C101  1  0.12563307  0.46538227  0.57845094  1
  C  C102  1  0.30253899  0.81893672  0.25630075  1
  C  C103  1  0.53853447  0.71329712  0.24842507  1
  C  C104  1  0.19883066  0.48295947  0.25928737  1
  C  C105  1  0.29206268  0.48263426  0.76319913  1
  C  C106  1  0.17624567  0.70523961  0.75479396  1
  C  C107  1  0.52019314  0.82136159  0.75730131  1
