# generated using pymatgen
data_Cu2Ni10C7
_symmetry_space_group_name_H-M   'P 1'
_cell_length_a   4.96120844
_cell_length_b   14.12276467
_cell_length_c   2.97632490
_cell_angle_alpha   91.20223427
_cell_angle_beta   90.67038412
_cell_angle_gamma   89.43717003
_symmetry_Int_Tables_number   1
_chemical_formula_structural   Cu2Ni10C7
_chemical_formula_sum   'Cu2 Ni10 C7'
_cell_volume   208.46937334
_cell_formula_units_Z   1
loop_
 _symmetry_equiv_pos_site_id
 _symmetry_equiv_pos_as_xyz
  1  'x, y, z'
loop_
 _atom_site_type_symbol
 _atom_site_label
 _atom_site_symmetry_multiplicity
 _atom_site_fract_x
 _atom_site_fract_y
 _atom_site_fract_z
 _atom_site_occupancy
  C  C0  1  0.43882000  0.99816200  0.56102800  1
  C  C1  1  0.94308500  0.00832000  0.05043600  1
  C  C2  1  0.05792500  0.35305600  0.98114400  1
  C  C3  1  0.04541100  0.64509500  0.00840500  1
  C  C4  1  0.48310300  0.18398200  0.48967100  1
  C  C5  1  0.55593000  0.49931600  0.49299400  1
  C  C6  1  0.46700900  0.81024900  0.53060600  1
  Ni  Ni7  1  0.18949700  0.27501700  0.47593200  1
  Ni  Ni8  1  0.22085600  0.58446700  0.50104400  1
  Ni  Ni9  1  0.09070500  0.93652600  0.54610100  1
  Ni  Ni10  1  0.30884600  0.09368300  0.07150900  1
  Ni  Ni11  1  0.31651400  0.74383000  0.02129400  1
  Ni  Ni12  1  0.38462200  0.43397900  0.98572600  1
  Ni  Ni13  1  0.71701500  0.56930300  0.00142500  1
  Ni  Ni14  1  0.58122700  0.90212800  0.04313500  1
  Ni  Ni15  1  0.76687400  0.07671200  0.54645600  1
  Ni  Ni16  1  0.86908800  0.41166400  0.48465900  1
  Cu  Cu17  1  0.68589100  0.25084900  0.95940000  1
  Cu  Cu18  1  0.84980200  0.72366100  0.51986700  1
