# generated using pymatgen
data_Cu3Ni13C21
_symmetry_space_group_name_H-M   'P 1'
_cell_length_a   14.86421529
_cell_length_b   14.86421529
_cell_length_c   9.38658363
_cell_angle_alpha   78.22679300
_cell_angle_beta   78.22679300
_cell_angle_gamma   61.26299946
_symmetry_Int_Tables_number   1
_chemical_formula_structural   Cu3Ni13C21
_chemical_formula_sum   'Cu6 Ni26 C42'
_cell_volume   1766.62006576
_cell_formula_units_Z   2
loop_
 _symmetry_equiv_pos_site_id
 _symmetry_equiv_pos_as_xyz
  1  'x, y, z'
loop_
 _atom_site_type_symbol
 _atom_site_label
 _atom_site_symmetry_multiplicity
 _atom_site_fract_x
 _atom_site_fract_y
 _atom_site_fract_z
 _atom_site_occupancy
  Ni  Ni0  1  0.82109000  0.35605700  0.30144900  1
  Ni  Ni1  1  0.35605700  0.82109000  0.30144900  1
  Ni  Ni2  1  0.77696100  0.28384900  0.96600300  1
  Ni  Ni3  1  0.28384900  0.77696100  0.96600300  1
  Ni  Ni4  1  0.79109100  0.53265500  0.94790500  1
  Ni  Ni5  1  0.53265500  0.79109100  0.94790500  1
  Ni  Ni6  1  0.13990400  0.89739200  0.63113500  1
  Ni  Ni7  1  0.89739200  0.13990400  0.63113500  1
  Ni  Ni8  1  0.84865400  0.59366900  0.28501000  1
  Ni  Ni9  1  0.59366900  0.84865400  0.28501000  1
  Ni  Ni10  1  0.59459400  0.59459400  0.28566500  1
  Ni  Ni11  1  0.39962600  0.90109500  0.63335200  1
  Ni  Ni12  1  0.90109500  0.39962600  0.63335200  1
  Ni  Ni13  1  0.51763900  0.05249800  0.96267500  1
  Ni  Ni14  1  0.05249800  0.51763900  0.96267500  1
  Ni  Ni15  1  0.28661100  0.28661100  0.95592500  1
  Ni  Ni16  1  0.09452400  0.84543300  0.28813200  1
  Ni  Ni17  1  0.84543300  0.09452400  0.28813200  1
  Ni  Ni18  1  0.58603500  0.09336800  0.29730500  1
  Ni  Ni19  1  0.09336800  0.58603500  0.29730500  1
  Ni  Ni20  1  0.65249900  0.15159300  0.63094100  1
  Ni  Ni21  1  0.15159300  0.65249900  0.63094100  1
  Ni  Ni22  1  0.40101500  0.14725300  0.62205300  1
  Ni  Ni23  1  0.14725300  0.40101500  0.62205300  1
  Ni  Ni24  1  0.53963800  0.29012900  0.93637700  1
  Ni  Ni25  1  0.29012900  0.53963800  0.93637700  1
  Cu  Cu26  1  0.18284900  0.18284900  0.40594000  1
  Cu  Cu27  1  0.11158800  0.11158800  0.95754100  1
  Cu  Cu28  1  0.54896900  0.54896900  0.72019300  1
  Cu  Cu29  1  0.41912600  0.41912600  0.37937900  1
  Cu  Cu30  1  0.82089300  0.82089300  0.61065600  1
  Cu  Cu31  1  0.88996000  0.88996000  0.03965500  1
  C  C32  1  0.05115400  0.80746100  0.70600300  1
  C  C33  1  0.80746100  0.05115400  0.70600300  1
  C  C34  1  0.35170500  0.11904500  0.04158000  1
  C  C35  1  0.11904500  0.35170500  0.04158000  1
  C  C36  1  0.61743200  0.61743200  0.03344400  1
  C  C37  1  0.91516000  0.42134200  0.37453900  1
  C  C38  1  0.42134200  0.91516000  0.37453900  1
  C  C39  1  0.85754600  0.36335800  0.04825700  1
  C  C40  1  0.36335800  0.85754600  0.04825700  1
  C  C41  1  0.55598200  0.30946100  0.69245100  1
  C  C42  1  0.30946100  0.55598200  0.69245100  1
  C  C43  1  0.30154400  0.81396500  0.71132000  1
  C  C44  1  0.81396500  0.30154400  0.71132000  1
  C  C45  1  0.79822200  0.55451200  0.70738500  1
  C  C46  1  0.55451200  0.79822200  0.70738500  1
  C  C47  1  0.67437000  0.67437000  0.36356000  1
  C  C48  1  0.30554400  0.06249000  0.68799800  1
  C  C49  1  0.06249000  0.30554400  0.68799800  1
  C  C50  1  0.06066700  0.06066700  0.68128300  1
  C  C51  1  0.60907700  0.11728100  0.04052300  1
  C  C52  1  0.11728100  0.60907700  0.04052300  1
  C  C53  1  0.87417100  0.60575000  0.03186600  1
  C  C54  1  0.60575000  0.87417100  0.03186600  1
  C  C55  1  0.11734700  0.87196000  0.04372100  1
  C  C56  1  0.87196000  0.11734700  0.04372100  1
  C  C57  1  0.30874800  0.30874800  0.70253800  1
  C  C58  1  0.05657400  0.55962500  0.71178100  1
  C  C59  1  0.55962500  0.05657400  0.71178100  1
  C  C60  1  0.16662500  0.67166800  0.37426200  1
  C  C61  1  0.67166800  0.16662500  0.37426200  1
  C  C62  1  0.60725700  0.36937600  0.02547800  1
  C  C63  1  0.36937600  0.60725700  0.02547800  1
  C  C64  1  0.36640900  0.36640900  0.03304800  1
  C  C65  1  0.65624700  0.43106900  0.38380700  1
  C  C66  1  0.43106900  0.65624700  0.38380700  1
  C  C67  1  0.92158200  0.67551800  0.35013000  1
  C  C68  1  0.67551800  0.92158200  0.35013000  1
  C  C69  1  0.18196900  0.91215500  0.37528100  1
  C  C70  1  0.91215500  0.18196900  0.37528100  1
  C  C71  1  0.42173300  0.18693100  0.37920800  1
  C  C72  1  0.18693100  0.42173300  0.37920800  1
  C  C73  1  0.92312200  0.92312200  0.35492000  1
