# generated using pymatgen
data_CuNi4C5
_symmetry_space_group_name_H-M   'P 1'
_cell_length_a   7.52432500
_cell_length_b   7.52432500
_cell_length_c   7.52432500
_cell_angle_alpha   138.19657076
_cell_angle_beta   138.19657076
_cell_angle_gamma   60.60207441
_symmetry_Int_Tables_number   1
_chemical_formula_structural   CuNi4C5
_chemical_formula_sum   'Cu2 Ni8 C10'
_cell_volume   187.25552969
_cell_formula_units_Z   2
loop_
 _symmetry_equiv_pos_site_id
 _symmetry_equiv_pos_as_xyz
  1  'x, y, z'
loop_
 _atom_site_type_symbol
 _atom_site_label
 _atom_site_symmetry_multiplicity
 _atom_site_fract_x
 _atom_site_fract_y
 _atom_site_fract_z
 _atom_site_occupancy
  C  C0  1  0.50000000  0.50000000  0.00000000  1
  C  C1  1  0.00000000  0.00000000  0.00000000  1
  Ni  Ni2  1  0.81314500  0.09375900  0.50000000  1
  Ni  Ni3  1  0.18685500  0.90624100  0.50000000  1
  Ni  Ni4  1  0.40624100  0.68685500  0.50000000  1
  Ni  Ni5  1  0.68685500  0.18685500  0.28061300  1
  Ni  Ni6  1  0.90624100  0.40624100  0.71938700  1
  Ni  Ni7  1  0.09375900  0.59375900  0.28061300  1
  Ni  Ni8  1  0.31314500  0.81314500  0.71938700  1
  Ni  Ni9  1  0.59375900  0.31314500  0.50000000  1
  Cu  Cu10  1  0.75000000  0.25000000  0.50000000  1
  Cu  Cu11  1  0.25000000  0.75000000  0.50000000  1
  C  C12  1  0.19039000  0.69039000  0.88078100  1
  C  C13  1  0.85641400  0.85641400  0.00000000  1
  C  C14  1  0.35641400  0.35641400  0.00000000  1
  C  C15  1  0.14358600  0.14358600  0.00000000  1
  C  C16  1  0.30961000  0.19039000  0.50000000  1
  C  C17  1  0.69039000  0.80961000  0.50000000  1
  C  C18  1  0.80961000  0.30961000  0.11921900  1
  C  C19  1  0.64358600  0.64358600  0.00000000  1
