# generated using pymatgen
data_CuNi3C17
_symmetry_space_group_name_H-M   'P 1'
_cell_length_a   8.60921582
_cell_length_b   8.60921582
_cell_length_c   6.59595288
_cell_angle_alpha   73.19191948
_cell_angle_beta   73.19191948
_cell_angle_gamma   90.68380168
_symmetry_Int_Tables_number   1
_chemical_formula_structural   CuNi3C17
_chemical_formula_sum   'Cu2 Ni6 C34'
_cell_volume   445.56156332
_cell_formula_units_Z   2
loop_
 _symmetry_equiv_pos_site_id
 _symmetry_equiv_pos_as_xyz
  1  'x, y, z'
loop_
 _atom_site_type_symbol
 _atom_site_label
 _atom_site_symmetry_multiplicity
 _atom_site_fract_x
 _atom_site_fract_y
 _atom_site_fract_z
 _atom_site_occupancy
  Ni  Ni0  1  0.77853900  0.22146100  0.75000000  1
  Ni  Ni1  1  0.54890300  0.87161600  0.38018700  1
  Ni  Ni2  1  0.87161600  0.54890300  0.88018700  1
  Ni  Ni3  1  0.45109700  0.12838400  0.61981300  1
  Ni  Ni4  1  0.12838400  0.45109700  0.11981300  1
  Ni  Ni5  1  0.22146100  0.77853900  0.25000000  1
  Cu  Cu6  1  0.45968400  0.54031600  0.75000000  1
  Cu  Cu7  1  0.54031600  0.45968400  0.25000000  1
  C  C8  1  0.18094500  0.81905500  0.75000000  1
  C  C9  1  0.81905500  0.18094500  0.25000000  1
  C  C10  1  0.16559000  0.39316800  0.61066300  1
  C  C11  1  0.60683200  0.83441000  0.88933700  1
  C  C12  1  0.83441000  0.60683200  0.38933700  1
  C  C13  1  0.39316800  0.16559000  0.11066300  1
  C  C14  1  0.11064000  0.12431100  0.68829200  1
  C  C15  1  0.87568900  0.88936000  0.81170800  1
  C  C16  1  0.88936000  0.87568900  0.31170800  1
  C  C17  1  0.12431100  0.11064000  0.18829200  1
  C  C18  1  0.53553900  0.89974100  0.69629200  1
  C  C19  1  0.76731600  0.95214100  0.84462500  1
  C  C20  1  0.95214100  0.76731600  0.34462500  1
  C  C21  1  0.23268400  0.04785900  0.15537500  1
  C  C22  1  0.33733800  0.33900400  0.60429800  1
  C  C23  1  0.66099600  0.66266200  0.89570200  1
  C  C24  1  0.66266200  0.66099600  0.39570200  1
  C  C25  1  0.33900400  0.33733800  0.10429800  1
  C  C26  1  0.10025900  0.46446100  0.80370800  1
  C  C27  1  0.04785900  0.23268400  0.65537500  1
  C  C28  1  0.78601400  0.99824500  0.27095200  1
  C  C29  1  0.00175500  0.21398600  0.22904800  1
  C  C30  1  0.21398600  0.00175500  0.72904800  1
  C  C31  1  0.99824500  0.78601400  0.77095200  1
  C  C32  1  0.71027300  0.22025000  0.46179800  1
  C  C33  1  0.77975000  0.28972700  0.03820200  1
  C  C34  1  0.28972700  0.77975000  0.53820200  1
  C  C35  1  0.89974100  0.53553900  0.19629200  1
  C  C36  1  0.48349800  0.82995800  0.11393300  1
  C  C37  1  0.17004200  0.51650200  0.38606700  1
  C  C38  1  0.51650200  0.17004200  0.88606700  1
  C  C39  1  0.82995800  0.48349800  0.61393300  1
  C  C40  1  0.46446100  0.10025900  0.30370800  1
  C  C41  1  0.22025000  0.71027300  0.96179800  1
