# generated using pymatgen
data_Cu(NiC3)3
_symmetry_space_group_name_H-M   'P 1'
_cell_length_a   6.39428846
_cell_length_b   6.39428865
_cell_length_c   6.77372836
_cell_angle_alpha   74.46466009
_cell_angle_beta   105.53534029
_cell_angle_gamma   144.91349625
_symmetry_Int_Tables_number   1
_chemical_formula_structural   Cu(NiC3)3
_chemical_formula_sum   'Cu1 Ni3 C9'
_cell_volume   152.78864106
_cell_formula_units_Z   1
loop_
 _symmetry_equiv_pos_site_id
 _symmetry_equiv_pos_as_xyz
  1  'x, y, z'
loop_
 _atom_site_type_symbol
 _atom_site_label
 _atom_site_symmetry_multiplicity
 _atom_site_fract_x
 _atom_site_fract_y
 _atom_site_fract_z
 _atom_site_occupancy
  C  C0  1  0.90245700  0.09754300  0.99120100  1
  Ni  Ni1  1  0.41306400  0.58693600  0.31346300  1
  Ni  Ni2  1  0.60936500  0.39063500  0.72282900  1
  Ni  Ni3  1  0.29790600  0.70209400  0.67101500  1
  Cu  Cu4  1  0.70210300  0.29789700  0.28089100  1
  C  C5  1  0.13724500  0.86275500  0.68869700  1
  C  C6  1  0.25492900  0.74507100  0.37299600  1
  C  C7  1  0.38150200  0.61849800  0.99443500  1
  C  C8  1  0.44575500  0.55424500  0.63037100  1
  C  C9  1  0.56330900  0.43669100  0.37864800  1
  C  C10  1  0.63207400  0.36792600  0.98272200  1
  C  C11  1  0.78254100  0.21745900  0.70506200  1
  C  C12  1  0.87775000  0.12225000  0.26766600  1
