# generated using pymatgen
data_CuNi10C7
_symmetry_space_group_name_H-M   'P 1'
_cell_length_a   7.10100772
_cell_length_b   7.10100772
_cell_length_c   8.70982700
_cell_angle_alpha   90.00000000
_cell_angle_beta   90.00000000
_cell_angle_gamma   125.67034877
_symmetry_Int_Tables_number   1
_chemical_formula_structural   CuNi10C7
_chemical_formula_sum   'Cu2 Ni20 C14'
_cell_volume   356.78912778
_cell_formula_units_Z   2
loop_
 _symmetry_equiv_pos_site_id
 _symmetry_equiv_pos_as_xyz
  1  'x, y, z'
loop_
 _atom_site_type_symbol
 _atom_site_label
 _atom_site_symmetry_multiplicity
 _atom_site_fract_x
 _atom_site_fract_y
 _atom_site_fract_z
 _atom_site_occupancy
  C  C0  1  0.00000000  0.00000000  0.00000000  1
  C  C1  1  0.54325500  0.45674500  0.75000000  1
  C  C2  1  0.45674500  0.54325500  0.25000000  1
  C  C3  1  0.00000000  0.00000000  0.50000000  1
  Ni  Ni4  1  0.62672200  0.99467600  0.37915600  1
  Ni  Ni5  1  0.81900300  0.52105700  0.02096500  1
  Ni  Ni6  1  0.52105700  0.81900300  0.97903500  1
  Ni  Ni7  1  0.18099700  0.47894300  0.52096500  1
  Ni  Ni8  1  0.18099700  0.47894300  0.97903500  1
  Ni  Ni9  1  0.47894300  0.18099700  0.02096500  1
  Ni  Ni10  1  0.81900300  0.52105700  0.47903500  1
  Ni  Ni11  1  0.52105700  0.81900300  0.52096500  1
  Ni  Ni12  1  0.99467600  0.62672200  0.87915600  1
  Ni  Ni13  1  0.62672200  0.99467600  0.12084400  1
  Ni  Ni14  1  0.00532400  0.37327800  0.37915600  1
  Ni  Ni15  1  0.37327800  0.00532400  0.62084400  1
  Ni  Ni16  1  0.00532400  0.37327800  0.12084400  1
  Ni  Ni17  1  0.37327800  0.00532400  0.87915600  1
  Ni  Ni18  1  0.73896200  0.01512800  0.75000000  1
  Ni  Ni19  1  0.99467600  0.62672200  0.62084400  1
  Ni  Ni20  1  0.26103800  0.98487200  0.25000000  1
  Ni  Ni21  1  0.98487200  0.26103800  0.75000000  1
  Ni  Ni22  1  0.01512800  0.73896200  0.25000000  1
  Ni  Ni23  1  0.47894300  0.18099700  0.47903500  1
  Cu  Cu24  1  0.68990000  0.31010000  0.25000000  1
  Cu  Cu25  1  0.31010000  0.68990000  0.75000000  1
  C  C26  1  0.86103500  0.61611300  0.92644100  1
  C  C27  1  0.61611300  0.86103500  0.07355900  1
  C  C28  1  0.13896500  0.38388700  0.42644100  1
  C  C29  1  0.38388700  0.13896500  0.57355900  1
  C  C30  1  0.13896500  0.38388700  0.07355900  1
  C  C31  1  0.38388700  0.13896500  0.92644100  1
  C  C32  1  0.86103500  0.61611300  0.57355900  1
  C  C33  1  0.61611300  0.86103500  0.42644100  1
  C  C34  1  0.90804700  0.09195300  0.75000000  1
  C  C35  1  0.09195300  0.90804700  0.25000000  1
