# generated using pymatgen
data_Cu6NiC12
_symmetry_space_group_name_H-M   'P 1'
_cell_length_a   4.96812265
_cell_length_b   4.97965833
_cell_length_c   8.61320675
_cell_angle_alpha   89.06827837
_cell_angle_beta   91.67215628
_cell_angle_gamma   102.36653829
_symmetry_Int_Tables_number   1
_chemical_formula_structural   Cu6NiC12
_chemical_formula_sum   'Cu6 Ni1 C12'
_cell_volume   208.04317058
_cell_formula_units_Z   1
loop_
 _symmetry_equiv_pos_site_id
 _symmetry_equiv_pos_as_xyz
  1  'x, y, z'
loop_
 _atom_site_type_symbol
 _atom_site_label
 _atom_site_symmetry_multiplicity
 _atom_site_fract_x
 _atom_site_fract_y
 _atom_site_fract_z
 _atom_site_occupancy
  Ni  Ni0  1  0.03696050  0.51726342  -0.00181232  1
  Cu  Cu1  1  0.98665180  0.00183776  0.99584989  1
  Cu  Cu2  1  -0.00171429  0.99328370  0.33247378  1
  Cu  Cu3  1  0.02234830  0.98038405  0.65823264  1
  Cu  Cu4  1  0.57102163  0.40687443  0.17829427  1
  Cu  Cu5  1  0.51138534  0.48862726  0.82267776  1
  Cu  Cu6  1  0.42885945  0.56886753  0.49240140  1
  C  C7  1  0.13765297  0.82523092  0.84049336  1
  C  C8  1  0.17768351  0.80950012  0.49142946  1
  C  C9  1  0.30747382  0.29915612  0.33605911  1
  C  C10  1  0.31374046  0.29228047  0.99575434  1
  C  C11  1  0.29496831  0.32174692  0.65769661  1
  C  C12  1  0.67011985  0.71344579  0.65956722  1
  C  C13  1  0.69709368  0.67820300  0.00060310  1
  C  C14  1  0.68337364  0.68997652  0.33403485  1
  C  C15  1  0.83770082  0.19537202  0.15854515  1
  C  C16  1  0.17407872  0.79064304  0.16060137  1
  C  C17  1  0.82012690  0.24429882  0.83665548  1
  C  C18  1  0.83047457  0.16911810  0.50044552  1
