# generated using pymatgen
data_Cu5NiC35
_symmetry_space_group_name_H-M   'P 1'
_cell_length_a   9.08205309
_cell_length_b   9.06740190
_cell_length_c   22.08457409
_cell_angle_alpha   89.79327399
_cell_angle_beta   90.05727550
_cell_angle_gamma   119.82021581
_symmetry_Int_Tables_number   1
_chemical_formula_structural   Cu5NiC35
_chemical_formula_sum   'Cu15 Ni3 C105'
_cell_volume   1577.85642938
_cell_formula_units_Z   3
loop_
 _symmetry_equiv_pos_site_id
 _symmetry_equiv_pos_as_xyz
  1  'x, y, z'
loop_
 _atom_site_type_symbol
 _atom_site_label
 _atom_site_symmetry_multiplicity
 _atom_site_fract_x
 _atom_site_fract_y
 _atom_site_fract_z
 _atom_site_occupancy
  C  C0  1  0.64957383  0.01485021  0.24397731  1
  C  C1  1  0.98707589  0.63245126  0.24388105  1
  C  C2  1  0.64695781  0.63412065  0.74642939  1
  C  C3  1  0.98528939  0.35060766  0.74726553  1
  C  C4  1  0.36707724  0.01358153  0.74687820  1
  C  C5  1  0.29477908  0.33500709  0.58512430  1
  C  C6  1  0.04351816  0.70768476  0.58257517  1
  C  C7  1  0.66322111  0.95585002  0.58297572  1
  C  C8  1  0.29339724  0.95960567  0.08467980  1
  C  C9  1  0.66553424  0.70401165  0.08441765  1
  C  C10  1  0.04343132  0.33650891  0.08230083  1
  C  C11  1  0.97429933  0.67906227  0.91501283  1
  C  C12  1  0.97468427  0.29002906  0.41003129  1
  C  C13  1  0.31368538  0.02161605  0.41207314  1
  C  C14  1  0.71332678  0.69050133  0.41260710  1
  C  C15  1  0.99558574  0.99472580  0.49711559  1
  C  C16  1  0.00187794  0.01612763  0.99484835  1
  C  C17  1  0.65839811  0.32282386  0.83106182  1
  C  C18  1  0.65626218  0.33442964  0.32232080  1
  C  C19  1  0.33346881  0.65462363  0.15944658  1
  C  C20  1  0.33493309  0.66820751  0.66073527  1
  C  C21  1  0.66568616  0.32930255  0.97900609  1
  C  C22  1  0.66967740  0.33295880  0.47969735  1
  C  C23  1  0.33162023  0.66667539  0.31388844  1
  C  C24  1  0.33112532  0.66392289  0.81844690  1
  C  C25  1  0.99569977  0.99537080  0.34644757  1
  C  C26  1  0.00047691  0.01266519  0.85105470  1
  C  C27  1  0.99931570  0.00101602  0.65520659  1
  C  C28  1  0.00257292  0.00323315  0.15334166  1
  C  C29  1  0.66657902  0.33266005  0.68119542  1
  C  C30  1  0.66036719  0.33411416  0.18148576  1
  C  C31  1  0.33186633  0.66053142  0.01262621  1
  C  C32  1  0.33612081  0.67249465  0.51166404  1
  Ni  Ni33  1  0.03632768  0.36201484  0.92178478  1
  Ni  Ni34  1  0.62995988  0.95985021  0.41960465  1
  Ni  Ni35  1  0.04035585  0.67055640  0.41993459  1
  Cu  Cu36  1  0.29736225  0.00314796  0.25102199  1
  Cu  Cu37  1  0.70239542  0.70128284  0.25002864  1
  Cu  Cu38  1  0.00165104  0.29600478  0.25014470  1
  Cu  Cu39  1  0.29605155  0.29598433  0.74948569  1
  Cu  Cu40  1  0.00211420  0.70616310  0.75113662  1
  Cu  Cu41  1  0.70255685  0.99795571  0.74897147  1
  Cu  Cu42  1  0.96323210  0.33372614  0.58586287  1
  Cu  Cu43  1  0.37188527  0.03888439  0.58583459  1
  Cu  Cu44  1  0.66486157  0.62663453  0.58536199  1
  Cu  Cu45  1  0.96045846  0.62732071  0.08503298  1
  Cu  Cu46  1  0.66493761  0.03743769  0.08558697  1
  Cu  Cu47  1  0.37503705  0.33477115  0.08445315  1
  Cu  Cu48  1  0.63041401  0.66779670  0.91993289  1
  Cu  Cu49  1  0.33255433  0.96089415  0.91935441  1
  Cu  Cu50  1  0.33387384  0.37478961  0.41978511  1
  C  C51  1  0.21593833  0.02077541  0.30948151  1
  C  C52  1  0.80711850  0.78087507  0.30799911  1
  C  C53  1  0.97598437  0.18982716  0.30781330  1
  C  C54  1  0.21119862  0.17730453  0.80247587  1
  C  C55  1  0.97519042  0.78715528  0.80705186  1
  C  C56  1  0.81831799  0.02714728  0.80236094  1
  C  C57  1  0.76743061  0.95614805  0.68966657  1
  C  C58  1  0.18872601  0.23519367  0.69032049  1
  C  C59  1  0.04146368  0.81553294  0.69256763  1
  C  C60  1  0.77307741  0.81641572  0.19335095  1
  C  C61  1  0.03114641  0.22192676  0.19213633  1
  C  C62  1  0.18480840  0.96085594  0.19416696  1
  C  C63  1  0.88035884  0.36082584  0.64173848  1
  C  C64  1  0.47964912  0.12247001  0.64204500  1
  C  C65  1  0.64177257  0.51978407  0.64209936  1
  C  C66  1  0.87939810  0.51699637  0.14158842  1
  C  C67  1  0.63768668  0.11726371  0.14263581  1
  C  C68  1  0.48741861  0.36365120  0.13953107  1
  C  C69  1  0.47612497  0.31549220  0.02781749  1
  C  C70  1  0.84073413  0.52635189  0.02798608  1
  C  C71  1  0.68264231  0.16135536  0.02963969  1
  C  C72  1  0.47347288  0.15732466  0.52860040  1
  C  C73  1  0.68198406  0.52491040  0.52824966  1
  C  C74  1  0.84248258  0.31648839  0.52852933  1
  C  C75  1  0.55074735  0.69192318  0.97684665  1
  C  C76  1  0.13891681  0.45557060  0.98122454  1
  C  C77  1  0.31073460  0.85621963  0.97614985  1
  C  C78  1  0.55457082  0.84679492  0.47945335  1
  C  C79  1  0.30388666  0.44819850  0.47768822  1
  C  C80  1  0.14805810  0.69687126  0.48019150  1
  C  C81  1  0.13222968  0.62989215  0.36102959  1
  C  C82  1  0.49785510  0.86368481  0.36093891  1
  C  C83  1  0.36669435  0.49934699  0.36496742  1
  C  C84  1  0.13772283  0.50026938  0.86177368  1
  C  C85  1  0.36247790  0.86835749  0.86201438  1
  C  C86  1  0.50953078  0.64371233  0.86297291  1
  C  C87  1  0.01287000  0.83133245  0.41121400  1
  C  C88  1  0.82120658  0.99740269  0.41080859  1
  C  C89  1  0.18552068  0.19716307  0.41039657  1
  C  C90  1  0.00946993  0.17778629  0.91204588  1
  C  C91  1  0.17407938  0.97194422  0.90868355  1
  C  C92  1  0.80984490  0.80984076  0.91007297  1
  C  C93  1  0.96708270  0.16558376  0.58335840  1
  C  C94  1  0.19858686  0.03269149  0.58364144  1
  C  C95  1  0.83094153  0.79966159  0.58306000  1
  C  C96  1  0.96571596  0.80056844  0.08363969  1
  C  C97  1  0.83164706  0.03170981  0.08336695  1
  C  C98  1  0.20173731  0.16879897  0.08370574  1
  C  C99  1  0.67419288  0.15328176  0.74510785  1
  C  C100  1  0.47972521  0.32710431  0.74524962  1
  C  C101  1  0.84962471  0.52256385  0.74645884  1
  C  C102  1  0.68629611  0.52537250  0.24510821  1
  C  C103  1  0.84709009  0.32513636  0.24744430  1
  C  C104  1  0.48152552  0.14661490  0.24705839  1
  C  C105  1  0.63606563  0.49536343  0.92137079  1
  C  C106  1  0.85119969  0.36702241  0.92194577  1
  C  C107  1  0.49938305  0.13938826  0.92125460  1
  C  C108  1  0.63189036  0.14693628  0.42298552  1
  C  C109  1  0.50427700  0.36656181  0.42252561  1
  C  C110  1  0.84945925  0.49095094  0.42295221  1
  C  C111  1  0.35655624  0.49453805  0.07906839  1
  C  C112  1  0.13981651  0.65018534  0.07988091  1
  C  C113  1  0.50636490  0.86109131  0.07807488  1
  C  C114  1  0.35411482  0.86139745  0.58142864  1
  C  C115  1  0.50405453  0.64218883  0.58017215  1
  C  C116  1  0.14022806  0.49089160  0.57953664  1
  C  C117  1  0.30996647  0.82890397  0.25733882  1
  C  C118  1  0.52010701  0.68667228  0.25856656  1
  C  C119  1  0.16635852  0.48112047  0.25715825  1
  C  C120  1  0.31559856  0.48196303  0.75889559  1
  C  C121  1  0.17090331  0.68939703  0.75746118  1
  C  C122  1  0.51816841  0.83273661  0.75738869  1
