# generated using pymatgen
data_Cu(Ni5C4)2
_symmetry_space_group_name_H-M   'P 1'
_cell_length_a   7.51310200
_cell_length_b   7.51310200
_cell_length_c   6.46602000
_cell_angle_alpha   90.00000000
_cell_angle_beta   90.00000000
_cell_angle_gamma   90.00000000
_symmetry_Int_Tables_number   1
_chemical_formula_structural   Cu(Ni5C4)2
_chemical_formula_sum   'Cu2 Ni20 C16'
_cell_volume   364.98550188
_cell_formula_units_Z   2
loop_
 _symmetry_equiv_pos_site_id
 _symmetry_equiv_pos_as_xyz
  1  'x, y, z'
loop_
 _atom_site_type_symbol
 _atom_site_label
 _atom_site_symmetry_multiplicity
 _atom_site_fract_x
 _atom_site_fract_y
 _atom_site_fract_z
 _atom_site_occupancy
  Ni  Ni0  1  0.00000000  0.50000000  0.09093800  1
  Ni  Ni1  1  0.50000000  0.00000000  0.90906200  1
  Ni  Ni2  1  0.50000000  0.00000000  0.40906200  1
  Ni  Ni3  1  0.00000000  0.50000000  0.59093800  1
  Ni  Ni4  1  0.85236700  0.30813500  0.10515600  1
  Ni  Ni5  1  0.14763300  0.69186500  0.10515600  1
  Ni  Ni6  1  0.30813500  0.14763300  0.89484400  1
  Ni  Ni7  1  0.69186500  0.85236700  0.89484400  1
  Ni  Ni8  1  0.80813500  0.35236700  0.60515600  1
  Ni  Ni9  1  0.64763300  0.80813500  0.39484400  1
  Ni  Ni10  1  0.35236700  0.19186500  0.39484400  1
  Ni  Ni11  1  0.19186500  0.64763300  0.60515600  1
  Ni  Ni12  1  0.76791300  0.49402600  0.18849200  1
  Ni  Ni13  1  0.23208700  0.50597400  0.18849200  1
  Ni  Ni14  1  0.49402600  0.23208700  0.81150800  1
  Ni  Ni15  1  0.50597400  0.76791300  0.81150800  1
  Ni  Ni16  1  0.99402600  0.26791300  0.68849200  1
  Ni  Ni17  1  0.73208700  0.99402600  0.31150800  1
  Ni  Ni18  1  0.00597400  0.73208700  0.68849200  1
  Ni  Ni19  1  0.26791300  0.00597400  0.31150800  1
  Cu  Cu20  1  0.50000000  0.50000000  0.50000000  1
  Cu  Cu21  1  0.00000000  0.00000000  0.00000000  1
  C  C22  1  0.84982200  0.44082100  0.08295300  1
  C  C23  1  0.15017800  0.55917900  0.08295300  1
  C  C24  1  0.44082100  0.15017800  0.91704700  1
  C  C25  1  0.55917900  0.84982200  0.91704700  1
  C  C26  1  0.94082100  0.34982200  0.58295300  1
  C  C27  1  0.65017800  0.94082100  0.41704700  1
  C  C28  1  0.34982200  0.05917900  0.41704700  1
  C  C29  1  0.05917900  0.65017800  0.58295300  1
  C  C30  1  0.59050800  0.36367400  0.63129800  1
  C  C31  1  0.40949200  0.63632600  0.63129800  1
  C  C32  1  0.36367400  0.40949200  0.36870200  1
  C  C33  1  0.63632600  0.59050800  0.36870200  1
  C  C34  1  0.86367400  0.09050800  0.13129800  1
  C  C35  1  0.90949200  0.86367400  0.86870200  1
  C  C36  1  0.09050800  0.13632600  0.86870200  1
  C  C37  1  0.13632600  0.90949200  0.13129800  1
