# generated using pymatgen
data_Cu2Ni6C5
_symmetry_space_group_name_H-M   'P 1'
_cell_length_a   5.14367709
_cell_length_b   9.74566073
_cell_length_c   3.10739337
_cell_angle_alpha   99.19865160
_cell_angle_beta   90.02697868
_cell_angle_gamma   95.56381836
_symmetry_Int_Tables_number   1
_chemical_formula_structural   Cu2Ni6C5
_chemical_formula_sum   'Cu2 Ni6 C5'
_cell_volume   153.02124507
_cell_formula_units_Z   1
loop_
 _symmetry_equiv_pos_site_id
 _symmetry_equiv_pos_as_xyz
  1  'x, y, z'
loop_
 _atom_site_type_symbol
 _atom_site_label
 _atom_site_symmetry_multiplicity
 _atom_site_fract_x
 _atom_site_fract_y
 _atom_site_fract_z
 _atom_site_occupancy
  C  C0  1  0.55417474  0.53462313  0.66999701  1
  C  C1  1  0.91370625  0.99611404  0.90287766  1
  C  C2  1  0.07510725  0.45550390  0.12947138  1
  C  C3  1  0.54126732  0.24052146  0.52256732  1
  C  C4  1  0.39013503  0.81483754  0.31239101  1
  Ni  Ni5  1  0.24395956  0.37696934  0.59029107  1
  Ni  Ni6  1  0.08529832  0.90636769  0.35745501  1
  Ni  Ni7  1  0.37672758  0.61326261  0.20953949  1
  Ni  Ni8  1  0.59514367  0.85837426  0.83435506  1
  Ni  Ni9  1  0.70067738  0.37273006  0.08973507  1
  Ni  Ni10  1  0.79266914  0.10934492  0.45963810  1
  Cu  Cu11  1  0.33157663  0.14505351  0.97496447  1
  Cu  Cu12  1  0.92733612  0.58343954  0.69671634  1
