# generated using pymatgen
data_Cu4Ni8C7
_symmetry_space_group_name_H-M   'P 1'
_cell_length_a   5.02789242
_cell_length_b   4.97059119
_cell_length_c   8.98697207
_cell_angle_alpha   89.48151291
_cell_angle_beta   91.14741776
_cell_angle_gamma   88.41126876
_symmetry_Int_Tables_number   1
_chemical_formula_structural   Cu4Ni8C7
_chemical_formula_sum   'Cu4 Ni8 C7'
_cell_volume   224.45706839
_cell_formula_units_Z   1
loop_
 _symmetry_equiv_pos_site_id
 _symmetry_equiv_pos_as_xyz
  1  'x, y, z'
loop_
 _atom_site_type_symbol
 _atom_site_label
 _atom_site_symmetry_multiplicity
 _atom_site_fract_x
 _atom_site_fract_y
 _atom_site_fract_z
 _atom_site_occupancy
  C  C0  1  0.48098000  0.00082100  0.00299400  1
  C  C1  1  0.97821900  0.92714500  0.00478800  1
  C  C2  1  0.04212600  0.02297800  0.32143000  1
  C  C3  1  0.01155500  0.98296100  0.66006000  1
  C  C4  1  0.48598400  0.52463000  0.81136500  1
  C  C5  1  0.51727100  0.49312700  0.17218600  1
  C  C6  1  0.47576900  0.53294700  0.49899400  1
  Ni  Ni7  1  0.24047800  0.83704000  0.15806700  1
  Ni  Ni8  1  0.21643800  0.83503700  0.48876800  1
  Ni  Ni9  1  0.21170200  0.84179700  0.84788100  1
  Ni  Ni10  1  0.32379500  0.34700500  0.33030300  1
  Ni  Ni11  1  0.30456400  0.35216000  0.65439100  1
  Ni  Ni12  1  0.68037400  0.65389400  0.99284300  1
  Ni  Ni13  1  0.68895800  0.67871900  0.65837800  1
  Ni  Ni14  1  0.77600600  0.14138500  0.15188900  1
  Cu  Cu15  1  0.27931200  0.33268100  0.98414500  1
  Cu  Cu16  1  0.71761100  0.68395900  0.34361300  1
  Cu  Cu17  1  0.81919600  0.18710100  0.48561800  1
  Cu  Cu18  1  0.74966500  0.13850200  0.84657100  1
