# generated using pymatgen
data_Cu4Ni6C7
_symmetry_space_group_name_H-M   'P 1'
_cell_length_a   6.02567776
_cell_length_b   7.77832824
_cell_length_c   7.95941638
_cell_angle_alpha   90.19398836
_cell_angle_beta   101.48569142
_cell_angle_gamma   106.95848171
_symmetry_Int_Tables_number   1
_chemical_formula_structural   Cu4Ni6C7
_chemical_formula_sum   'Cu4 Ni6 C7'
_cell_volume   348.93525204
_cell_formula_units_Z   1
loop_
 _symmetry_equiv_pos_site_id
 _symmetry_equiv_pos_as_xyz
  1  'x, y, z'
loop_
 _atom_site_type_symbol
 _atom_site_label
 _atom_site_symmetry_multiplicity
 _atom_site_fract_x
 _atom_site_fract_y
 _atom_site_fract_z
 _atom_site_occupancy
  C  C0  1  0.05478800  0.64836100  0.64476200  1
  C  C1  1  0.25111800  0.01203100  0.12706500  1
  C  C2  1  0.75946400  0.99918900  0.88276500  1
  C  C3  1  0.20336000  0.30291500  0.81631000  1
  C  C4  1  0.28860800  0.71777100  0.38268400  1
  C  C5  1  0.80874800  0.72233000  0.21944500  1
  C  C6  1  0.73616600  0.25791300  0.58748800  1
  Ni  Ni7  1  0.99428200  0.65909500  0.36581400  1
  Ni  Ni8  1  0.64510100  0.09808900  0.69814300  1
  Ni  Ni9  1  0.37534200  0.89288900  0.28770700  1
  Ni  Ni10  1  0.93113600  0.87905600  0.11187500  1
  Ni  Ni11  1  0.01976800  0.36948800  0.66895800  1
  Ni  Ni12  1  0.06926800  0.13080700  0.90340400  1
  Cu  Cu13  1  0.73483400  0.72507400  0.71392400  1
  Cu  Cu14  1  0.64671700  0.19391400  0.06660800  1
  Cu  Cu15  1  0.25545300  0.24962000  0.29887700  1
  Cu  Cu16  1  0.33001400  0.79145900  0.90750500  1
