# generated using pymatgen
data_CuNi3C16
_symmetry_space_group_name_H-M   'P 1'
_cell_length_a   16.05383919
_cell_length_b   9.27126506
_cell_length_c   9.26479715
_cell_angle_alpha   90.00000000
_cell_angle_beta   125.00404674
_cell_angle_gamma   90.00000000
_symmetry_Int_Tables_number   1
_chemical_formula_structural   CuNi3C16
_chemical_formula_sum   'Cu4 Ni12 C64'
_cell_volume   1129.52763473
_cell_formula_units_Z   4
loop_
 _symmetry_equiv_pos_site_id
 _symmetry_equiv_pos_as_xyz
  1  'x, y, z'
loop_
 _atom_site_type_symbol
 _atom_site_label
 _atom_site_symmetry_multiplicity
 _atom_site_fract_x
 _atom_site_fract_y
 _atom_site_fract_z
 _atom_site_occupancy
  Ni  Ni0  1  0.25676870  0.71036241  0.00531023  1
  Ni  Ni1  1  0.75676870  0.78963759  0.50531023  1
  Ni  Ni2  1  0.75676870  0.21036241  0.00531023  1
  Ni  Ni3  1  0.25676870  0.28963759  0.50531023  1
  Ni  Ni4  1  0.50857116  0.11096078  0.76573792  1
  Ni  Ni5  1  0.50857116  0.88903922  0.26573792  1
  Ni  Ni6  1  0.00857116  0.61096078  0.76573792  1
  Ni  Ni7  1  0.00857116  0.38903922  0.26573792  1
  Ni  Ni8  1  0.18445707  0.93161609  0.29346115  1
  Ni  Ni9  1  0.18445707  0.06838391  0.79346115  1
  Ni  Ni10  1  0.68445707  0.43161609  0.29346115  1
  Ni  Ni11  1  0.68445707  0.56838391  0.79346115  1
  Cu  Cu12  1  0.10463296  0.74540803  0.56250026  1
  Cu  Cu13  1  0.10463296  0.25459197  0.06250026  1
  Cu  Cu14  1  0.60463296  0.24540803  0.56250026  1
  Cu  Cu15  1  0.60463296  0.75459197  0.06250026  1
  C  C16  1  0.89669779  0.75752869  0.94323569  1
  C  C17  1  0.89669779  0.24247131  0.44323569  1
  C  C18  1  0.39669779  0.25752869  0.94323569  1
  C  C19  1  0.39669779  0.74247131  0.44323569  1
  C  C20  1  0.64621582  0.88793695  0.73552515  1
  C  C21  1  0.64621582  0.11206305  0.23552515  1
  C  C22  1  0.14621582  0.38793695  0.73552515  1
  C  C23  1  0.14621582  0.61206305  0.23552515  1
  C  C24  1  0.99715014  0.95488275  0.76219260  1
  C  C25  1  0.99715014  0.04511725  0.26219260  1
  C  C26  1  0.49715014  0.45488275  0.76219260  1
  C  C27  1  0.49715014  0.54511725  0.26219260  1
  C  C28  1  0.35266176  0.90876358  0.75223886  1
  C  C29  1  0.35266176  0.09123642  0.25223886  1
  C  C30  1  0.85266176  0.40876358  0.75223886  1
  C  C31  1  0.85266176  0.59123642  0.25223886  1
  C  C32  1  0.15317982  0.56345162  0.75055490  1
  C  C33  1  0.85098959  0.57769992  0.74675435  1
  C  C34  1  0.85098959  0.42230008  0.24675435  1
  C  C35  1  0.15317982  0.43654838  0.25055490  1
  C  C36  1  0.65317982  0.06345162  0.75055490  1
  C  C37  1  0.35098959  0.07769992  0.74675435  1
  C  C38  1  0.35098959  0.92230008  0.24675435  1
  C  C39  1  0.65317982  0.93654838  0.25055490  1
  C  C40  1  0.44319019  0.56370525  0.60344825  1
  C  C41  1  0.55763872  0.53633890  0.93571088  1
  C  C42  1  0.55763872  0.46366110  0.43571088  1
  C  C43  1  0.44319019  0.43629475  0.10344825  1
  C  C44  1  0.94319019  0.06370525  0.60344825  1
  C  C45  1  0.05763872  0.03633890  0.93571088  1
  C  C46  1  0.05763872  0.96366110  0.43571088  1
  C  C47  1  0.94319019  0.93629475  0.10344825  1
  C  C48  1  0.25888966  0.85757206  0.74439011  1
  C  C49  1  0.74346951  0.81019579  0.74914954  1
  C  C50  1  0.74346951  0.18980421  0.24914954  1
  C  C51  1  0.25888966  0.14242794  0.24439011  1
  C  C52  1  0.75888966  0.35757206  0.74439011  1
  C  C53  1  0.24346951  0.31019579  0.74914954  1
  C  C54  1  0.24346951  0.68980421  0.24914954  1
  C  C55  1  0.75888966  0.64242794  0.24439011  1
  C  C56  1  0.35081208  0.85974777  0.58651344  1
  C  C57  1  0.64260764  0.82311680  0.89305023  1
  C  C58  1  0.64260764  0.17688320  0.39305023  1
  C  C59  1  0.35081208  0.14025223  0.08651344  1
  C  C60  1  0.85081208  0.35974777  0.58651344  1
  C  C61  1  0.14260764  0.32311680  0.89305023  1
  C  C62  1  0.14260764  0.67688320  0.39305023  1
  C  C63  1  0.85081208  0.64025223  0.08651344  1
  C  C64  1  0.44950336  0.85454856  0.92144639  1
  C  C65  1  0.53878749  0.83321791  0.54914915  1
  C  C66  1  0.53878749  0.16678209  0.04914915  1
  C  C67  1  0.44950336  0.14545144  0.42144639  1
  C  C68  1  0.94950336  0.35454856  0.92144639  1
  C  C69  1  0.03878749  0.33321791  0.54914915  1
  C  C70  1  0.03878749  0.66678209  0.04914915  1
  C  C71  1  0.94950336  0.64545144  0.42144639  1
  C  C72  1  0.07022665  0.85668028  0.74890626  1
  C  C73  1  0.91354989  0.86026162  0.75072463  1
  C  C74  1  0.91354989  0.13973838  0.25072463  1
  C  C75  1  0.07022665  0.14331972  0.24890626  1
  C  C76  1  0.57022665  0.35668028  0.74890626  1
  C  C77  1  0.41354989  0.36026162  0.75072463  1
  C  C78  1  0.41354989  0.63973838  0.25072463  1
  C  C79  1  0.57022665  0.64331972  0.24890626  1
