# generated using pymatgen
data_CuNi3C
_symmetry_space_group_name_H-M   'P 1'
_cell_length_a   13.19236300
_cell_length_b   8.51050000
_cell_length_c   9.33723003
_cell_angle_alpha   58.81438503
_cell_angle_beta   90.00000000
_cell_angle_gamma   90.00000000
_symmetry_Int_Tables_number   1
_chemical_formula_structural   CuNi3C
_chemical_formula_sum   'Cu8 Ni24 C8'
_cell_volume   896.83560873
_cell_formula_units_Z   8
loop_
 _symmetry_equiv_pos_site_id
 _symmetry_equiv_pos_as_xyz
  1  'x, y, z'
loop_
 _atom_site_type_symbol
 _atom_site_label
 _atom_site_symmetry_multiplicity
 _atom_site_fract_x
 _atom_site_fract_y
 _atom_site_fract_z
 _atom_site_occupancy
  C  C0  1  0.46023300  0.71572700  0.92374000  1
  C  C1  1  0.46023300  0.28427300  0.57626000  1
  C  C2  1  0.53976700  0.28427300  0.07626000  1
  C  C3  1  0.53976700  0.71572700  0.42374000  1
  C  C4  1  0.07567100  0.78139000  0.63291000  1
  C  C5  1  0.07567100  0.21861000  0.86709000  1
  C  C6  1  0.92432900  0.21861000  0.36709000  1
  C  C7  1  0.92432900  0.78139000  0.13291000  1
  Ni  Ni8  1  0.40528300  0.79263000  0.53831300  1
  Ni  Ni9  1  0.40528300  0.20737000  0.96168700  1
  Ni  Ni10  1  0.59471700  0.20737000  0.46168700  1
  Ni  Ni11  1  0.59471700  0.79263000  0.03831300  1
  Ni  Ni12  1  0.30746000  0.57411900  0.61910800  1
  Ni  Ni13  1  0.30746000  0.42588100  0.88089200  1
  Ni  Ni14  1  0.69254000  0.42588100  0.38089200  1
  Ni  Ni15  1  0.69254000  0.57411900  0.11910800  1
  Ni  Ni16  1  0.39177800  0.64128900  0.18352200  1
  Ni  Ni17  1  0.39177800  0.35871100  0.31647800  1
  Ni  Ni18  1  0.60822200  0.35871100  0.81647800  1
  Ni  Ni19  1  0.60822200  0.64128900  0.68352200  1
  Ni  Ni20  1  0.84313500  0.92460500  0.69047600  1
  Ni  Ni21  1  0.84313500  0.07539500  0.80952400  1
  Ni  Ni22  1  0.15686500  0.07539500  0.30952400  1
  Ni  Ni23  1  0.15686500  0.92460500  0.19047600  1
  Ni  Ni24  1  0.94063600  0.70561900  0.81796900  1
  Ni  Ni25  1  0.94063600  0.29438100  0.68203100  1
  Ni  Ni26  1  0.05936400  0.29438100  0.18203100  1
  Ni  Ni27  1  0.05936400  0.70561900  0.31796900  1
  Ni  Ni28  1  0.14362500  0.85891800  0.81985000  1
  Ni  Ni29  1  0.14362500  0.14108200  0.68015000  1
  Ni  Ni30  1  0.85637500  0.14108200  0.18015000  1
  Ni  Ni31  1  0.85637500  0.85891800  0.31985000  1
  Cu  Cu32  1  0.47591800  0.73223100  0.02262200  1
  Cu  Cu33  1  0.47591800  0.26776900  0.47737800  1
  Cu  Cu34  1  0.52408200  0.26776900  0.97737800  1
  Cu  Cu35  1  0.52408200  0.73223100  0.52262200  1
  Cu  Cu36  1  0.06006600  0.76361500  0.74787600  1
  Cu  Cu37  1  0.06006600  0.23638500  0.75212400  1
  Cu  Cu38  1  0.93993400  0.23638500  0.25212400  1
  Cu  Cu39  1  0.93993400  0.76361500  0.24787600  1
