# generated using pymatgen
data_Cu(NiC4)3
_symmetry_space_group_name_H-M   'P 1'
_cell_length_a   6.33504922
_cell_length_b   6.33504922
_cell_length_c   6.60529833
_cell_angle_alpha   73.45161492
_cell_angle_beta   73.45161492
_cell_angle_gamma   87.74702512
_symmetry_Int_Tables_number   1
_chemical_formula_structural   Cu(NiC4)3
_chemical_formula_sum   'Cu1 Ni3 C12'
_cell_volume   243.33166301
_cell_formula_units_Z   1
loop_
 _symmetry_equiv_pos_site_id
 _symmetry_equiv_pos_as_xyz
  1  'x, y, z'
loop_
 _atom_site_type_symbol
 _atom_site_label
 _atom_site_symmetry_multiplicity
 _atom_site_fract_x
 _atom_site_fract_y
 _atom_site_fract_z
 _atom_site_occupancy
  C  C0  1  0.00110500  0.99889500  0.50000000  1
  C  C1  1  0.33591700  0.66408300  0.00000000  1
  Ni  Ni2  1  0.43524600  0.56475400  0.50000000  1
  Ni  Ni3  1  0.44248500  0.20373500  0.89299600  1
  Ni  Ni4  1  0.79626500  0.55751500  0.10700400  1
  Cu  Cu5  1  0.75140300  0.24859700  0.00000000  1
  C  C6  1  0.41188300  0.71721200  0.64183900  1
  C  C7  1  0.28278800  0.58811700  0.35816100  1
  C  C8  1  0.69182500  0.19723300  0.86141300  1
  C  C9  1  0.80276700  0.30817500  0.13858700  1
  C  C10  1  0.01953700  0.68031700  0.02332400  1
  C  C11  1  0.31968300  0.98046300  0.97667600  1
  C  C12  1  0.65362400  0.67431800  0.95833600  1
  C  C13  1  0.41005800  0.30957100  0.64863500  1
  C  C14  1  0.69042900  0.58994200  0.35136500  1
  C  C15  1  0.32568200  0.34637600  0.04166400  1
