# generated using pymatgen
data_Cu2Ni2C9
_symmetry_space_group_name_H-M   'P 1'
_cell_length_a   3.40103800
_cell_length_b   3.40096141
_cell_length_c   45.14235008
_cell_angle_alpha   90.00222846
_cell_angle_beta   90.00440282
_cell_angle_gamma   119.99888721
_symmetry_Int_Tables_number   1
_chemical_formula_structural   Cu2Ni2C9
_chemical_formula_sum   'Cu2 Ni2 C9'
_cell_volume   452.20238782
_cell_formula_units_Z   1
loop_
 _symmetry_equiv_pos_site_id
 _symmetry_equiv_pos_as_xyz
  1  'x, y, z'
loop_
 _atom_site_type_symbol
 _atom_site_label
 _atom_site_symmetry_multiplicity
 _atom_site_fract_x
 _atom_site_fract_y
 _atom_site_fract_z
 _atom_site_occupancy
  C  C0  1  0.99999400  0.99997600  0.55392200  1
  C  C1  1  0.33343200  0.66672000  0.32360500  1
  C  C2  1  0.33341300  0.66673600  0.70483300  1
  C  C3  1  0.33327100  0.66659800  0.24024300  1
  C  C4  1  0.33326800  0.66660400  0.62171900  1
  C  C5  1  0.33331100  0.66667500  0.09394400  1
  C  C6  1  0.33329100  0.66665400  0.46290600  1
  C  C7  1  0.66669900  0.33335000  0.66346300  1
  C  C8  1  0.66670500  0.33333600  0.28191200  1
  Ni  Ni9  1  0.66662300  0.33331700  0.05750700  1
  Ni  Ni10  1  0.66670900  0.33337900  0.13042300  1
  Cu  Cu11  1  0.66659800  0.33328900  0.42994000  1
  Cu  Cu12  1  0.66668800  0.33336500  0.49641600  1
