# generated using pymatgen
data_Cu5Ni9
_symmetry_space_group_name_H-M   'P 1'
_cell_length_a   8.88839894
_cell_length_b   8.88839894
_cell_length_c   8.88839933
_cell_angle_alpha   96.87517038
_cell_angle_beta   96.87517037
_cell_angle_gamma   96.87516981
_symmetry_Int_Tables_number   1
_chemical_formula_structural   Cu5Ni9
_chemical_formula_sum   'Cu10 Ni18'
_cell_volume   685.72386640
_cell_formula_units_Z   2
loop_
 _symmetry_equiv_pos_site_id
 _symmetry_equiv_pos_as_xyz
  1  'x, y, z'
loop_
 _atom_site_type_symbol
 _atom_site_label
 _atom_site_symmetry_multiplicity
 _atom_site_fract_x
 _atom_site_fract_y
 _atom_site_fract_z
 _atom_site_occupancy
  Ni  Ni0  1  0.75179727  0.34888797  0.65984475  1
  Ni  Ni1  1  0.34888797  0.65984475  0.75179727  1
  Ni  Ni2  1  0.65984475  0.75179727  0.34888797  1
  Ni  Ni3  1  0.25683155  0.66150174  0.34947647  1
  Ni  Ni4  1  0.66150174  0.34947647  0.25683155  1
  Ni  Ni5  1  0.34947647  0.25683155  0.66150174  1
  Ni  Ni6  1  0.60633555  0.97913468  0.67614095  1
  Ni  Ni7  1  0.97913468  0.67614095  0.60633555  1
  Ni  Ni8  1  0.67614095  0.60633555  0.97913468  1
  Ni  Ni9  1  0.40378993  0.03113602  0.33436098  1
  Ni  Ni10  1  0.08228840  0.68033305  0.99863041  1
  Ni  Ni11  1  0.99863041  0.08228840  0.68033305  1
  Ni  Ni12  1  0.68033305  0.99863041  0.08228840  1
  Ni  Ni13  1  0.92765665  0.32763295  0.01029331  1
  Ni  Ni14  1  0.01029331  0.92765665  0.32763295  1
  Ni  Ni15  1  0.32763295  0.01029331  0.92765665  1
  Ni  Ni16  1  0.33436098  0.40378993  0.03113602  1
  Ni  Ni17  1  0.03113602  0.33436098  0.40378993  1
  Cu  Cu18  1  0.13871270  0.13871270  0.13871270  1
  Cu  Cu19  1  0.87453053  0.87453053  0.87453053  1
  Cu  Cu20  1  0.37485469  0.37485469  0.37485469  1
  Cu  Cu21  1  0.63833921  0.63833921  0.63833921  1
  Cu  Cu22  1  0.59302939  0.25451959  0.91715281  1
  Cu  Cu23  1  0.25451959  0.91715281  0.59302939  1
  Cu  Cu24  1  0.91715281  0.59302939  0.25451959  1
  Cu  Cu25  1  0.41655319  0.75461112  0.09262616  1
  Cu  Cu26  1  0.75461112  0.09262616  0.41655319  1
  Cu  Cu27  1  0.09262616  0.41655319  0.75461112  1
