# generated using pymatgen
data_CuNiC9
_symmetry_space_group_name_H-M   'P 1'
_cell_length_a   6.93867196
_cell_length_b   5.42095001
_cell_length_c   5.42094682
_cell_angle_alpha   90.00000000
_cell_angle_beta   90.00000000
_cell_angle_gamma   90.00018864
_symmetry_Int_Tables_number   1
_chemical_formula_structural   CuNiC9
_chemical_formula_sum   'Cu1 Ni1 C9'
_cell_volume   203.90454443
_cell_formula_units_Z   1
loop_
 _symmetry_equiv_pos_site_id
 _symmetry_equiv_pos_as_xyz
  1  'x, y, z'
loop_
 _atom_site_type_symbol
 _atom_site_label
 _atom_site_symmetry_multiplicity
 _atom_site_fract_x
 _atom_site_fract_y
 _atom_site_fract_z
 _atom_site_occupancy
  Ni  Ni0  1  0.11689646  0.50000000  0.50000000  1
  C  C1  1  0.62005625  0.50000100  0.50000000  1
  Cu  Cu2  1  0.48936966  1.00000000  -0.00000000  1
  C  C3  1  0.87549517  1.00000000  0.50000000  1
  C  C4  1  0.87549517  0.49999900  -0.00000000  1
  C  C5  1  0.69344971  0.75209210  0.75209210  1
  C  C6  1  0.69344971  0.75209210  0.24790790  1
  C  C7  1  0.21855012  1.00000000  -0.00000000  1
  C  C8  1  0.37733733  0.50000100  0.50000000  1
  C  C9  1  0.69345071  0.24790690  0.24790790  1
  C  C10  1  0.69345071  0.24790690  0.75209210  1
