# generated using pymatgen
data_Cu6Ni3C13
_symmetry_space_group_name_H-M   'P 1'
_cell_length_a   6.68909500
_cell_length_b   8.04609800
_cell_length_c   12.33176146
_cell_angle_alpha   52.44155207
_cell_angle_beta   90.00000000
_cell_angle_gamma   90.00000000
_symmetry_Int_Tables_number   1
_chemical_formula_structural   Cu6Ni3C13
_chemical_formula_sum   'Cu12 Ni6 C26'
_cell_volume   526.14342268
_cell_formula_units_Z   2
loop_
 _symmetry_equiv_pos_site_id
 _symmetry_equiv_pos_as_xyz
  1  'x, y, z'
loop_
 _atom_site_type_symbol
 _atom_site_label
 _atom_site_symmetry_multiplicity
 _atom_site_fract_x
 _atom_site_fract_y
 _atom_site_fract_z
 _atom_site_occupancy
  C  C0  1  0.15046800  0.00000000  0.25000000  1
  C  C1  1  0.84953200  0.00000000  0.75000000  1
  C  C2  1  0.25538300  0.47756100  0.03250900  1
  C  C3  1  0.25538300  0.52243900  0.46749100  1
  C  C4  1  0.74461700  0.52243900  0.96749100  1
  C  C5  1  0.74461700  0.47756100  0.53250900  1
  C  C6  1  0.33271200  0.37781000  0.96373300  1
  C  C7  1  0.33271200  0.62219000  0.53626700  1
  C  C8  1  0.66728800  0.62219000  0.03626700  1
  C  C9  1  0.66728800  0.37781000  0.46373300  1
  C  C10  1  0.55506100  0.97373000  0.38622400  1
  C  C11  1  0.55506100  0.02627000  0.11377600  1
  C  C12  1  0.44493900  0.02627000  0.61377600  1
  C  C13  1  0.44493900  0.97373000  0.88622400  1
  C  C14  1  0.47916200  0.20356400  0.31803800  1
  C  C15  1  0.47916200  0.79643600  0.18196200  1
  C  C16  1  0.52083800  0.79643600  0.68196200  1
  C  C17  1  0.52083800  0.20356400  0.81803800  1
  C  C18  1  0.09027300  0.75062600  0.13174800  1
  C  C19  1  0.09027300  0.24937400  0.36825200  1
  C  C20  1  0.90972700  0.24937400  0.86825200  1
  C  C21  1  0.90972700  0.75062600  0.63174800  1
  C  C22  1  0.08726800  0.66769700  0.73666100  1
  C  C23  1  0.08726800  0.33230300  0.76333900  1
  C  C24  1  0.91273200  0.33230300  0.26333900  1
  C  C25  1  0.91273200  0.66769700  0.23666100  1
  Ni  Ni26  1  0.82360000  0.79505000  0.44675300  1
  Ni  Ni27  1  0.82360000  0.20495000  0.05324700  1
  Ni  Ni28  1  0.17640000  0.20495000  0.55324700  1
  Ni  Ni29  1  0.17640000  0.79505000  0.94675300  1
  Ni  Ni30  1  0.36762000  0.50000000  0.75000000  1
  Ni  Ni31  1  0.63238000  0.50000000  0.25000000  1
  Cu  Cu32  1  0.29473900  0.34205900  0.05319500  1
  Cu  Cu33  1  0.29473900  0.65794100  0.44680500  1
  Cu  Cu34  1  0.70526100  0.65794100  0.94680500  1
  Cu  Cu35  1  0.70526100  0.34205900  0.55319500  1
  Cu  Cu36  1  0.43260500  0.06193600  0.35377800  1
  Cu  Cu37  1  0.43260500  0.93806400  0.14622200  1
  Cu  Cu38  1  0.56739500  0.93806400  0.64622200  1
  Cu  Cu39  1  0.56739500  0.06193600  0.85377800  1
  Cu  Cu40  1  0.04461500  0.73635700  0.21374100  1
  Cu  Cu41  1  0.04461500  0.26364300  0.28625900  1
  Cu  Cu42  1  0.95538500  0.26364300  0.78625900  1
  Cu  Cu43  1  0.95538500  0.73635700  0.71374100  1
