# generated using pymatgen
data_CuNi3C32
_symmetry_space_group_name_H-M   'P 1'
_cell_length_a   8.67079129
_cell_length_b   8.67079101
_cell_length_c   22.77795759
_cell_angle_alpha   90.00000000
_cell_angle_beta   90.00000000
_cell_angle_gamma   120.00000102
_symmetry_Int_Tables_number   1
_chemical_formula_structural   CuNi3C32
_chemical_formula_sum   'Cu3 Ni9 C96'
_cell_volume   1483.07412765
_cell_formula_units_Z   3
loop_
 _symmetry_equiv_pos_site_id
 _symmetry_equiv_pos_as_xyz
  1  'x, y, z'
loop_
 _atom_site_type_symbol
 _atom_site_label
 _atom_site_symmetry_multiplicity
 _atom_site_fract_x
 _atom_site_fract_y
 _atom_site_fract_z
 _atom_site_occupancy
  C  C0  1  -0.00000000  -0.00000000  0.50756067  1
  C  C1  1  -0.00000000  -0.00000000  0.00653876  1
  C  C2  1  0.66666700  0.33333300  0.82557936  1
  C  C3  1  0.66666700  0.33333300  0.33809366  1
  C  C4  1  0.33333300  0.66666700  0.17640996  1
  C  C5  1  0.33333300  0.66666700  0.65671389  1
  Ni  Ni6  1  -0.00000000  -0.00000000  0.64338425  1
  Ni  Ni7  1  -0.00000000  -0.00000000  0.15052521  1
  Ni  Ni8  1  0.66666700  0.33333300  0.67676977  1
  Ni  Ni9  1  0.66666700  0.33333300  0.18665263  1
  Ni  Ni10  1  0.66666700  0.33333300  0.98385714  1
  Ni  Ni11  1  0.66666700  0.33333300  0.48553443  1
  Ni  Ni12  1  0.33333300  0.66666700  0.51915511  1
  Ni  Ni13  1  0.33333300  0.66666700  0.31846091  1
  Ni  Ni14  1  0.33333300  0.66666700  0.81066983  1
  Cu  Cu15  1  -0.00000000  -0.00000000  0.35193346  1
  Cu  Cu16  1  -0.00000000  -0.00000000  0.84518351  1
  Cu  Cu17  1  0.33333300  0.66666700  0.01838341  1
  C  C18  1  0.29524619  0.99912504  0.24842034  1
  C  C19  1  0.70387885  0.70475381  0.24842034  1
  C  C20  1  0.00087496  0.29612115  0.24842034  1
  C  C21  1  0.29916513  0.29646100  0.74862050  1
  C  C22  1  0.99729588  0.70083487  0.74862050  1
  C  C23  1  0.70353900  0.00270412  0.74862050  1
  C  C24  1  0.96255414  0.33503315  0.58333631  1
  C  C25  1  0.37248001  0.03744586  0.58333631  1
  C  C26  1  0.66496685  0.62751999  0.58333631  1
  C  C27  1  0.95781556  0.62709750  0.08253097  1
  C  C28  1  0.66928294  0.04218444  0.08253097  1
  C  C29  1  0.37290250  0.33071706  0.08253097  1
  C  C30  1  0.62878490  0.66695685  0.91494668  1
  C  C31  1  0.03817095  0.37121510  0.91494668  1
  C  C32  1  0.33304315  0.96182905  0.91494668  1
  C  C33  1  0.62485253  0.96108273  0.41589416  1
  C  C34  1  0.33622920  0.37514747  0.41589416  1
  C  C35  1  0.03891727  0.66377080  0.41589416  1
  C  C36  1  0.21833065  0.03353208  0.30365832  1
  C  C37  1  0.81520143  0.78166935  0.30365832  1
  C  C38  1  0.96646792  0.18479857  0.30365832  1
  C  C39  1  0.23050802  0.19023964  0.80819739  1
  C  C40  1  0.95973162  0.76949198  0.80819739  1
  C  C41  1  0.80976036  0.04026838  0.80819739  1
  C  C42  1  0.79989065  0.97805686  0.70112777  1
  C  C43  1  0.17816620  0.20010935  0.70112777  1
  C  C44  1  0.02194314  0.82183380  0.70112777  1
  C  C45  1  0.79133632  0.81710162  0.19717063  1
  C  C46  1  0.02576530  0.20866368  0.19717063  1
  C  C47  1  0.18289838  0.97423470  0.19717063  1
  C  C48  1  0.88228250  0.35934672  0.63738487  1
  C  C49  1  0.47706522  0.11771750  0.63738487  1
  C  C50  1  0.64065328  0.52293478  0.63738487  1
  C  C51  1  0.87812471  0.51952097  0.13478415  1
  C  C52  1  0.64139726  0.12187529  0.13478415  1
  C  C53  1  0.48047903  0.35860274  0.13478415  1
  C  C54  1  0.45415973  0.31501444  0.02792837  1
  C  C55  1  0.86085571  0.54584027  0.02792837  1
  C  C56  1  0.68498556  0.13914429  0.02792837  1
  C  C57  1  0.45631998  0.14595446  0.53062094  1
  C  C58  1  0.68963548  0.54368002  0.53062094  1
  C  C59  1  0.85404554  0.31036452  0.53062094  1
  C  C60  1  0.55650142  0.70367978  0.97100606  1
  C  C61  1  0.14717737  0.44349858  0.97100606  1
  C  C62  1  0.29632022  0.85282263  0.97100606  1
  C  C63  1  0.54480975  0.85255599  0.46805375  1
  C  C64  1  0.30774524  0.45519025  0.46805375  1
  C  C65  1  0.14744401  0.69225476  0.46805375  1
  C  C66  1  0.12019360  0.64799699  0.36132416  1
  C  C67  1  0.52780240  0.87980640  0.36132416  1
  C  C68  1  0.35200301  0.47219760  0.36132416  1
  C  C69  1  0.12912679  0.48074799  0.86444692  1
  C  C70  1  0.35162020  0.87087321  0.86444692  1
  C  C71  1  0.51925201  0.64837980  0.86444692  1
  C  C72  1  0.02272200  0.83355123  0.41221993  1
  C  C73  1  0.81082923  0.97727800  0.41221993  1
  C  C74  1  0.16644877  0.18917077  0.41221993  1
  C  C75  1  0.02035797  0.18869032  0.91121071  1
  C  C76  1  0.16833235  0.97964203  0.91121071  1
  C  C77  1  0.81130968  0.83166765  0.91121071  1
  C  C78  1  0.98023382  0.17366791  0.58866982  1
  C  C79  1  0.19343410  0.01976618  0.58866982  1
  C  C80  1  0.82633209  0.80656590  0.58866982  1
  C  C81  1  0.98430497  0.80813322  0.08755877  1
  C  C82  1  0.82382825  0.01569503  0.08755877  1
  C  C83  1  0.19186678  0.17617175  0.08755877  1
  C  C84  1  0.68379167  0.16015357  0.74377640  1
  C  C85  1  0.47636290  0.31620833  0.74377640  1
  C  C86  1  0.83984643  0.52363710  0.74377640  1
  C  C87  1  0.68644239  0.52733480  0.24328844  1
  C  C88  1  0.84089341  0.31355761  0.24328844  1
  C  C89  1  0.47266520  0.15910659  0.24328844  1
  C  C90  1  0.64778924  0.50966246  0.92274513  1
  C  C91  1  0.86187422  0.35221076  0.92274513  1
  C  C92  1  0.49033754  0.13812578  0.92274513  1
  C  C93  1  0.65142501  0.14201156  0.42099402  1
  C  C94  1  0.49058754  0.34857499  0.42099402  1
  C  C95  1  0.85798844  0.50941246  0.42099402  1
  C  C96  1  0.35620110  0.50019659  0.07874412  1
  C  C97  1  0.14399449  0.64379890  0.07874412  1
  C  C98  1  0.49980341  0.85600551  0.07874412  1
  C  C99  1  0.35338905  0.85822533  0.57798060  1
  C  C100  1  0.50483528  0.64661095  0.57798060  1
  C  C101  1  0.14177467  0.49516472  0.57798060  1
  C  C102  1  0.30943325  0.83804403  0.25591502  1
  C  C103  1  0.52860978  0.69056675  0.25591502  1
  C  C104  1  0.16195597  0.47139022  0.25591502  1
  C  C105  1  0.30903611  0.46927334  0.75697607  1
  C  C106  1  0.16023623  0.69096389  0.75697607  1
  C  C107  1  0.53072666  0.83976377  0.75697607  1
