# generated using pymatgen
data_Cu6NiC29
_symmetry_space_group_name_H-M   'P 1'
_cell_length_a   8.64596456
_cell_length_b   8.64596428
_cell_length_c   22.48659541
_cell_angle_alpha   90.00000000
_cell_angle_beta   90.00000000
_cell_angle_gamma   120.00000106
_symmetry_Int_Tables_number   1
_chemical_formula_structural   Cu6NiC29
_chemical_formula_sum   'Cu18 Ni3 C87'
_cell_volume   1455.73130394
_cell_formula_units_Z   3
loop_
 _symmetry_equiv_pos_site_id
 _symmetry_equiv_pos_as_xyz
  1  'x, y, z'
loop_
 _atom_site_type_symbol
 _atom_site_label
 _atom_site_symmetry_multiplicity
 _atom_site_fract_x
 _atom_site_fract_y
 _atom_site_fract_z
 _atom_site_occupancy
  C  C0  1  0.00000000  0.00000000  0.50368439  1
  C  C1  1  0.00000000  0.00000000  0.00269783  1
  C  C2  1  0.66666700  0.33333300  0.83027970  1
  C  C3  1  0.66666700  0.33333300  0.33618108  1
  C  C4  1  0.33333300  0.66666700  0.17321993  1
  C  C5  1  0.33333300  0.66666700  0.66043136  1
  C  C6  1  0.00000000  0.00000000  0.64367751  1
  C  C7  1  0.00000000  0.00000000  0.15042129  1
  C  C8  1  0.66666700  0.33333300  0.67627939  1
  C  C9  1  0.66666700  0.33333300  0.18709777  1
  C  C10  1  0.66666700  0.33333300  0.98512327  1
  C  C11  1  0.66666700  0.33333300  0.48543367  1
  C  C12  1  0.33333300  0.66666700  0.51598538  1
  C  C13  1  0.33333300  0.66666700  0.32023321  1
  C  C14  1  0.33333300  0.66666700  0.81363529  1
  Ni  Ni15  1  0.00000000  0.00000000  0.35138207  1
  Ni  Ni16  1  0.00000000  0.00000000  0.84509749  1
  Ni  Ni17  1  0.33333300  0.66666700  0.01726192  1
  Cu  Cu18  1  0.28974902  0.00006979  0.25089049  1
  Cu  Cu19  1  0.71032077  0.71025098  0.25089049  1
  Cu  Cu20  1  -0.00006979  0.28967923  0.25089049  1
  Cu  Cu21  1  0.29085016  0.28911212  0.75115060  1
  Cu  Cu22  1  0.99826196  0.70914984  0.75115060  1
  Cu  Cu23  1  0.71088788  0.00173804  0.75115060  1
  Cu  Cu24  1  0.96521759  0.33593412  0.58313134  1
  Cu  Cu25  1  0.37071753  0.03478241  0.58313134  1
  Cu  Cu26  1  0.66406588  0.62928247  0.58313134  1
  Cu  Cu27  1  0.96853198  0.62975164  0.08046691  1
  Cu  Cu28  1  0.66122066  0.03146802  0.08046691  1
  Cu  Cu29  1  0.37024836  0.33877934  0.08046691  1
  Cu  Cu30  1  0.62952757  0.67228777  0.91596108  1
  Cu  Cu31  1  0.04275920  0.37047243  0.91596108  1
  Cu  Cu32  1  0.32771223  0.95724080  0.91596108  1
  Cu  Cu33  1  0.63732688  0.96507961  0.41362220  1
  Cu  Cu34  1  0.32775173  0.36267312  0.41362220  1
  Cu  Cu35  1  0.03492039  0.67224827  0.41362220  1
  C  C36  1  0.20335360  0.03033212  0.30588201  1
  C  C37  1  0.82697853  0.79664640  0.30588201  1
  C  C38  1  0.96966788  0.17302147  0.30588201  1
  C  C39  1  0.21019887  0.17462460  0.81001366  1
  C  C40  1  0.96442573  0.78980113  0.81001366  1
  C  C41  1  0.82537540  0.03557427  0.81001366  1
  C  C42  1  0.79813750  0.97707181  0.69988588  1
  C  C43  1  0.17893431  0.20186250  0.69988588  1
  C  C44  1  0.02292819  0.82106569  0.69988588  1
  C  C45  1  0.79014112  0.81529972  0.19667090  1
  C  C46  1  0.02515859  0.20985888  0.19667090  1
  C  C47  1  0.18470028  0.97484141  0.19667090  1
  C  C48  1  0.88682209  0.35978318  0.63915803  1
  C  C49  1  0.47296209  0.11317791  0.63915803  1
  C  C50  1  0.64021682  0.52703791  0.63915803  1
  C  C51  1  0.89410519  0.52129252  0.13445685  1
  C  C52  1  0.62718833  0.10589481  0.13445685  1
  C  C53  1  0.47870748  0.37281167  0.13445685  1
  C  C54  1  0.45007257  0.31484768  0.02590162  1
  C  C55  1  0.86477611  0.54992743  0.02590162  1
  C  C56  1  0.68515232  0.13522389  0.02590162  1
  C  C57  1  0.45479120  0.14277159  0.52947562  1
  C  C58  1  0.68798139  0.54520880  0.52947562  1
  C  C59  1  0.85722841  0.31201861  0.52947562  1
  C  C60  1  0.54963616  0.70738954  0.97204008  1
  C  C61  1  0.15775238  0.45036384  0.97204008  1
  C  C62  1  0.29261046  0.84224762  0.97204008  1
  C  C63  1  0.56245171  0.85526471  0.46725917  1
  C  C64  1  0.29281200  0.43754829  0.46725917  1
  C  C65  1  0.14473529  0.70718800  0.46725917  1
  C  C66  1  0.11456372  0.64715113  0.35907393  1
  C  C67  1  0.53258641  0.88543628  0.35907393  1
  C  C68  1  0.35284887  0.46741359  0.35907393  1
  C  C69  1  0.12510190  0.47878585  0.86363643  1
  C  C70  1  0.35368294  0.87489810  0.86363643  1
  C  C71  1  0.52121415  0.64631706  0.86363643  1
  C  C72  1  0.02193046  0.84399524  0.40705115  1
  C  C73  1  0.82206478  0.97806954  0.40705115  1
  C  C74  1  0.15600476  0.17793522  0.40705115  1
  C  C75  1  0.02858173  0.18744319  0.91146678  1
  C  C76  1  0.15886147  0.97141827  0.91146678  1
  C  C77  1  0.81255681  0.84113853  0.91146678  1
  C  C78  1  0.98233682  0.17321676  0.58713656  1
  C  C79  1  0.19087994  0.01766318  0.58713656  1
  C  C80  1  0.82678324  0.80912006  0.58713656  1
  C  C81  1  0.99820789  0.81294467  0.08605239  1
  C  C82  1  0.81473678  0.00179211  0.08605239  1
  C  C83  1  0.18705533  0.18526322  0.08605239  1
  C  C84  1  0.69430352  0.16359872  0.74966272  1
  C  C85  1  0.46929620  0.30569648  0.74966272  1
  C  C86  1  0.83640128  0.53070380  0.74966272  1
  C  C87  1  0.69763858  0.53284991  0.24805350  1
  C  C88  1  0.83521233  0.30236142  0.24805350  1
  C  C89  1  0.46715009  0.16478767  0.24805350  1
  C  C90  1  0.65218556  0.51622760  0.92396151  1
  C  C91  1  0.86404304  0.34781444  0.92396151  1
  C  C92  1  0.48377240  0.13595696  0.92396151  1
  C  C93  1  0.66689868  0.14784579  0.41937649  1
  C  C94  1  0.48094810  0.33310132  0.41937649  1
  C  C95  1  0.85215421  0.51905190  0.41937649  1
  C  C96  1  0.35695464  0.51130064  0.07372832  1
  C  C97  1  0.15434500  0.64304536  0.07372832  1
  C  C98  1  0.48869936  0.84565500  0.07372832  1
  C  C99  1  0.35268744  0.85507498  0.57836449  1
  C  C100  1  0.50238654  0.64731256  0.57836449  1
  C  C101  1  0.14492502  0.49761346  0.57836449  1
  C  C102  1  0.30584139  0.83946465  0.25798149  1
  C  C103  1  0.53362226  0.69415861  0.25798149  1
  C  C104  1  0.16053535  0.46637774  0.25798149  1
  C  C105  1  0.30269220  0.46492137  0.75911361  1
  C  C106  1  0.16222817  0.69730780  0.75911361  1
  C  C107  1  0.53507863  0.83777183  0.75911361  1
