# generated using pymatgen
data_Cu8Ni2C39
_symmetry_space_group_name_H-M   'P 1'
_cell_length_a   10.42540131
_cell_length_b   10.71556419
_cell_length_c   8.50139059
_cell_angle_alpha   92.14570667
_cell_angle_beta   88.00412047
_cell_angle_gamma   120.66772323
_symmetry_Int_Tables_number   1
_chemical_formula_structural   Cu8Ni2C39
_chemical_formula_sum   'Cu8 Ni2 C39'
_cell_volume   816.18658212
_cell_formula_units_Z   1
loop_
 _symmetry_equiv_pos_site_id
 _symmetry_equiv_pos_as_xyz
  1  'x, y, z'
loop_
 _atom_site_type_symbol
 _atom_site_label
 _atom_site_symmetry_multiplicity
 _atom_site_fract_x
 _atom_site_fract_y
 _atom_site_fract_z
 _atom_site_occupancy
  C  C0  1  0.09620100  0.68751800  0.14846700  1
  C  C1  1  0.58444500  0.88770300  0.14175700  1
  C  C2  1  0.39564800  0.08583300  0.85528500  1
  C  C3  1  0.00655300  0.00813700  0.00620700  1
  C  C4  1  0.91669000  0.30330500  0.85528200  1
  C  C5  1  0.68941400  0.54873100  0.89528500  1
  C  C6  1  0.31455600  0.41002700  0.13311300  1
  C  C7  1  0.99707600  0.00454000  0.50416800  1
  C  C8  1  0.64302700  0.77886200  0.73930800  1
  Ni  Ni9  1  0.33453100  0.67546100  0.48143400  1
  Ni  Ni10  1  0.66270400  0.33973100  0.53002100  1
  Cu  Cu11  1  0.98967400  0.33355800  0.36612000  1
  Cu  Cu12  1  0.00304900  0.67592300  0.64326800  1
  Cu  Cu13  1  0.33512900  0.00948400  0.37317100  1
  Cu  Cu14  1  0.66610500  0.31159600  0.15848300  1
  Cu  Cu15  1  0.66631700  0.01940700  0.59566200  1
  Cu  Cu16  1  0.33419200  0.67162600  0.84336600  1
  Cu  Cu17  1  0.67472900  0.65254700  0.36709400  1
  Cu  Cu18  1  0.32339600  0.34665900  0.63304900  1
  C  C19  1  0.49590800  0.81874900  0.63741900  1
  C  C20  1  0.65910400  0.47467400  0.34507200  1
  C  C21  1  0.73549800  0.00211600  0.40736500  1
  C  C22  1  0.49654600  0.63682500  0.33993600  1
  C  C23  1  0.18853000  0.51691800  0.94473900  1
  C  C24  1  0.15242000  0.51541500  0.35712500  1
  C  C25  1  0.26311400  0.01252400  0.56261400  1
  C  C26  1  0.35695000  0.85117100  0.35522000  1
  C  C27  1  0.51685100  0.31717100  0.06803300  1
  C  C28  1  0.84461400  0.49246600  0.66129400  1
  C  C29  1  0.33522100  0.52570100  0.64346100  1
  C  C30  1  0.81355100  0.33729000  0.35111300  1
  C  C31  1  0.98250800  0.26131400  0.55135000  1
  C  C32  1  0.73051200  0.71798800  0.56712700  1
  C  C33  1  0.35591700  0.83230400  0.94341000  1
  C  C34  1  0.82598100  0.45891200  0.06733800  1
  C  C35  1  0.21159300  0.99433900  0.22482000  1
  C  C36  1  0.00442700  0.73712900  0.45310200  1
  C  C37  1  0.66117400  0.15979700  0.06423300  1
  C  C38  1  0.77822500  0.99015000  0.75137000  1
  C  C39  1  0.00914700  0.22976200  0.20910600  1
  C  C40  1  0.51939600  0.18035200  0.35209800  1
  C  C41  1  0.50725100  0.36935000  0.65835600  1
  C  C42  1  0.17665500  0.67356600  0.66771500  1
  C  C43  1  0.26028600  0.27034900  0.44447300  1
  C  C44  1  0.63892000  0.17137000  0.65801000  1
  C  C45  1  0.79690500  0.77077600  0.22069400  1
  C  C46  1  0.98117500  0.78392700  0.79654200  1
  C  C47  1  0.51335600  0.67418900  0.91558800  1
  C  C48  1  0.20482600  0.22900800  0.78417300  1
