# generated using pymatgen
data_Cu15Ni3C14
_symmetry_space_group_name_H-M   'P 1'
_cell_length_a   6.48815400
_cell_length_b   8.35242944
_cell_length_c   10.72019948
_cell_angle_alpha   106.12000404
_cell_angle_beta   99.09185369
_cell_angle_gamma   109.51239906
_symmetry_Int_Tables_number   1
_chemical_formula_structural   Cu15Ni3C14
_chemical_formula_sum   'Cu30 Ni6 C28'
_cell_volume   505.48070747
_cell_formula_units_Z   2
loop_
 _symmetry_equiv_pos_site_id
 _symmetry_equiv_pos_as_xyz
  1  'x, y, z'
loop_
 _atom_site_type_symbol
 _atom_site_label
 _atom_site_symmetry_multiplicity
 _atom_site_fract_x
 _atom_site_fract_y
 _atom_site_fract_z
 _atom_site_occupancy
  C  C0  1  0.19893600  0.34708900  0.76895900  1
  C  C1  1  0.80106400  0.65291100  0.23104100  1
  Ni  Ni2  1  0.69552700  0.01759700  0.89471800  1
  Ni  Ni3  1  0.30447300  0.98240300  0.10528200  1
  Ni  Ni4  1  0.49727300  0.88463500  0.64679100  1
  Ni  Ni5  1  0.50272700  0.11536500  0.35320900  1
  Ni  Ni6  1  0.64833200  0.23273900  0.77454300  1
  Ni  Ni7  1  0.35166800  0.76726100  0.22545700  1
  Cu  Cu8  1  0.05017900  0.72789500  0.69481900  1
  Cu  Cu9  1  0.94982100  0.27210500  0.30518100  1
  Cu  Cu10  1  0.83545500  0.75379300  0.73783500  1
  Cu  Cu11  1  0.16454500  0.24620700  0.26216500  1
  Cu  Cu12  1  0.85560100  0.09652100  0.09336000  1
  Cu  Cu13  1  0.14439900  0.90347900  0.90664000  1
  Cu  Cu14  1  0.18316700  0.72432700  0.50370500  1
  Cu  Cu15  1  0.81683300  0.27567300  0.49629500  1
  Cu  Cu16  1  0.59360800  0.88125800  0.47484000  1
  Cu  Cu17  1  0.40639200  0.11874200  0.52516000  1
  Cu  Cu18  1  0.86544100  0.45263900  0.74290900  1
  Cu  Cu19  1  0.13455900  0.54736100  0.25709100  1
  Cu  Cu20  1  0.62773800  0.46716100  0.88667900  1
  Cu  Cu21  1  0.37226200  0.53283900  0.11332100  1
  Cu  Cu22  1  0.02760000  0.29438800  0.96012400  1
  Cu  Cu23  1  0.97240000  0.70561200  0.03987600  1
  Cu  Cu24  1  0.22595300  0.22587200  0.97713300  1
  Cu  Cu25  1  0.77404700  0.77412800  0.02286700  1
  Cu  Cu26  1  0.31722000  0.68942600  0.95295600  1
  Cu  Cu27  1  0.68278000  0.31057400  0.04704400  1
  Cu  Cu28  1  0.42546100  0.70746700  0.82988300  1
  Cu  Cu29  1  0.57453900  0.29253300  0.17011700  1
  Cu  Cu30  1  0.24813300  0.52168400  0.58337100  1
  Cu  Cu31  1  0.75186700  0.47831600  0.41662900  1
  Cu  Cu32  1  0.28921100  0.33415100  0.53039400  1
  Cu  Cu33  1  0.71078900  0.66584900  0.46960600  1
  Cu  Cu34  1  0.20020900  0.03055100  0.66487400  1
  Cu  Cu35  1  0.79979100  0.96944900  0.33512600  1
  Cu  Cu36  1  0.92243500  0.98388200  0.62562500  1
  Cu  Cu37  1  0.07756500  0.01611800  0.37437500  1
  C  C38  1  0.96035900  0.71671300  0.76151400  1
  C  C39  1  0.03964100  0.28328700  0.23848600  1
  C  C40  1  0.76060200  0.98572900  0.01157900  1
  C  C41  1  0.23939800  0.01427100  0.98842100  1
  C  C42  1  0.59560700  0.86925100  0.77664600  1
  C  C43  1  0.40439300  0.13074900  0.22335400  1
  C  C44  1  0.26117700  0.73944100  0.59481600  1
  C  C45  1  0.73882300  0.26055900  0.40518400  1
  C  C46  1  0.63927300  0.84898600  0.55480200  1
  C  C47  1  0.36072700  0.15101400  0.44519800  1
  C  C48  1  0.48865900  0.06374100  0.66750900  1
  C  C49  1  0.51134100  0.93625900  0.33249100  1
  C  C50  1  0.73392500  0.19186800  0.89910900  1
  C  C51  1  0.26607500  0.80813200  0.10089100  1
  C  C52  1  0.85730900  0.33107200  0.73791200  1
  C  C53  1  0.14269100  0.66892800  0.26208800  1
  C  C54  1  0.52919400  0.35258200  0.81075500  1
  C  C55  1  0.47080600  0.64741800  0.18924500  1
  C  C56  1  0.19244200  0.32990500  0.96659100  1
  C  C57  1  0.80755800  0.67009500  0.03340900  1
  C  C58  1  0.33450500  0.62036100  0.86680900  1
  C  C59  1  0.66549500  0.37963900  0.13319100  1
  C  C60  1  0.21538000  0.39846300  0.58854400  1
  C  C61  1  0.78462000  0.60153700  0.41145600  1
  C  C62  1  0.07853700  0.07347000  0.68182100  1
  C  C63  1  0.92146300  0.92653000  0.31817900  1
