# generated using pymatgen
data_Cu4NiC12
_symmetry_space_group_name_H-M   'P 1'
_cell_length_a   3.00371913
_cell_length_b   5.84027732
_cell_length_c   12.96060369
_cell_angle_alpha   98.37030837
_cell_angle_beta   89.99953325
_cell_angle_gamma   90.00021571
_symmetry_Int_Tables_number   1
_chemical_formula_structural   Cu4NiC12
_chemical_formula_sum   'Cu4 Ni1 C12'
_cell_volume   224.94019061
_cell_formula_units_Z   1
loop_
 _symmetry_equiv_pos_site_id
 _symmetry_equiv_pos_as_xyz
  1  'x, y, z'
loop_
 _atom_site_type_symbol
 _atom_site_label
 _atom_site_symmetry_multiplicity
 _atom_site_fract_x
 _atom_site_fract_y
 _atom_site_fract_z
 _atom_site_occupancy
  C  C0  1  0.25000110  0.55908442  0.13805113  1
  C  C1  1  0.25001206  0.04475199  0.63599632  1
  C  C2  1  0.75000763  0.43083050  0.90990358  1
  C  C3  1  0.75005788  0.99434978  0.42727440  1
  Ni  Ni4  1  0.74999222  0.15827034  0.22201191  1
  Cu  Cu5  1  0.24999892  -0.00752576  0.05061227  1
  Cu  Cu6  1  0.75000876  0.92211915  0.83866994  1
  Cu  Cu7  1  0.75002862  0.49048016  0.41337277  1
  Cu  Cu8  1  0.25002308  0.55034076  0.61604523  1
  C  C9  1  0.75002372  0.84786011  0.14286023  1
  C  C10  1  0.25000742  0.13167949  0.81742755  1
  C  C11  1  0.24999253  0.26286170  0.31937491  1
  C  C12  1  0.75001697  0.73768921  0.68445441  1
  C  C13  1  0.74996549  0.26293106  0.07774754  1
  C  C14  1  0.25000848  0.76282478  0.90369688  1
  C  C15  1  0.75003214  0.33081892  0.56376688  1
  C  C16  1  0.25003598  0.72300838  0.47206707  1
