# generated using pymatgen
data_Cu3Ni18C19
_symmetry_space_group_name_H-M   'P 1'
_cell_length_a   14.20581000
_cell_length_b   9.67885100
_cell_length_c   10.90071437
_cell_angle_alpha   90.00000000
_cell_angle_beta   96.08062534
_cell_angle_gamma   90.00000000
_symmetry_Int_Tables_number   1
_chemical_formula_structural   Cu3Ni18C19
_chemical_formula_sum   'Cu12 Ni72 C76'
_cell_volume   1490.37119465
_cell_formula_units_Z   4
loop_
 _symmetry_equiv_pos_site_id
 _symmetry_equiv_pos_as_xyz
  1  'x, y, z'
loop_
 _atom_site_type_symbol
 _atom_site_label
 _atom_site_symmetry_multiplicity
 _atom_site_fract_x
 _atom_site_fract_y
 _atom_site_fract_z
 _atom_site_occupancy
  C  C0  1  0.50000000  0.50000000  0.00000000  1
  C  C1  1  0.50000000  0.00000000  0.50000000  1
  C  C2  1  0.00000000  0.50000000  0.50000000  1
  C  C3  1  0.00000000  0.00000000  0.00000000  1
  Ni  Ni4  1  0.17590200  0.97451900  0.60908100  1
  Ni  Ni5  1  0.82409800  0.47451900  0.89091900  1
  Ni  Ni6  1  0.82409800  0.02548100  0.39091900  1
  Ni  Ni7  1  0.17590200  0.52548100  0.10908100  1
  Ni  Ni8  1  0.18178100  0.08571900  0.50590700  1
  Ni  Ni9  1  0.81821900  0.58571900  0.99409300  1
  Ni  Ni10  1  0.81821900  0.91428100  0.49409300  1
  Ni  Ni11  1  0.18178100  0.41428100  0.00590700  1
  Ni  Ni12  1  0.51030600  0.42918000  0.62198900  1
  Ni  Ni13  1  0.48969400  0.92918000  0.87801100  1
  Ni  Ni14  1  0.48969400  0.57082000  0.37801100  1
  Ni  Ni15  1  0.51030600  0.07082000  0.12198900  1
  Ni  Ni16  1  0.39913700  0.43165400  0.57850200  1
  Ni  Ni17  1  0.60086300  0.93165400  0.92149800  1
  Ni  Ni18  1  0.60086300  0.56834600  0.42149800  1
  Ni  Ni19  1  0.39913700  0.06834600  0.07850200  1
  Ni  Ni20  1  0.02910700  0.11019200  0.61029700  1
  Ni  Ni21  1  0.97089300  0.61019200  0.88970300  1
  Ni  Ni22  1  0.97089300  0.88980800  0.38970300  1
  Ni  Ni23  1  0.02910700  0.38980800  0.11029700  1
  Ni  Ni24  1  0.92213400  0.07361900  0.56744200  1
  Ni  Ni25  1  0.07786600  0.57361900  0.93255800  1
  Ni  Ni26  1  0.07786600  0.92638100  0.43255800  1
  Ni  Ni27  1  0.92213400  0.42638100  0.06744200  1
  Ni  Ni28  1  0.40766500  0.42484800  0.18717000  1
  Ni  Ni29  1  0.59233500  0.92484800  0.31283000  1
  Ni  Ni30  1  0.59233500  0.57515200  0.81283000  1
  Ni  Ni31  1  0.40766500  0.07515200  0.68717000  1
  Ni  Ni32  1  0.44150100  0.29170900  0.11336800  1
  Ni  Ni33  1  0.55849900  0.79170900  0.38663200  1
  Ni  Ni34  1  0.55849900  0.70829100  0.88663200  1
  Ni  Ni35  1  0.44150100  0.20829100  0.61336800  1
  Ni  Ni36  1  0.64421800  0.35144600  0.07653900  1
  Ni  Ni37  1  0.35578200  0.85144600  0.42346100  1
  Ni  Ni38  1  0.35578200  0.64855400  0.92346100  1
  Ni  Ni39  1  0.64421800  0.14855400  0.57653900  1
  Ni  Ni40  1  0.61266600  0.31590100  0.92863600  1
  Ni  Ni41  1  0.38733400  0.81590100  0.57136400  1
  Ni  Ni42  1  0.38733400  0.68409900  0.07136400  1
  Ni  Ni43  1  0.61266600  0.18409900  0.42863600  1
  Ni  Ni44  1  0.36250900  0.37953700  0.87682400  1
  Ni  Ni45  1  0.63749100  0.87953700  0.62317600  1
  Ni  Ni46  1  0.63749100  0.62046300  0.12317600  1
  Ni  Ni47  1  0.36250900  0.12046300  0.37682400  1
  Ni  Ni48  1  0.43836600  0.40760100  0.77431700  1
  Ni  Ni49  1  0.56163400  0.90760100  0.72568300  1
  Ni  Ni50  1  0.56163400  0.59239900  0.22568300  1
  Ni  Ni51  1  0.43836600  0.09239900  0.27431700  1
  Ni  Ni52  1  0.86449000  0.42618400  0.62775600  1
  Ni  Ni53  1  0.13551000  0.92618400  0.87224400  1
  Ni  Ni54  1  0.13551000  0.57381600  0.37224400  1
  Ni  Ni55  1  0.86449000  0.07381600  0.12775600  1
  Ni  Ni56  1  0.94070100  0.29727900  0.62008000  1
  Ni  Ni57  1  0.05929900  0.79727900  0.87992000  1
  Ni  Ni58  1  0.05929900  0.70272100  0.37992000  1
  Ni  Ni59  1  0.94070100  0.20272100  0.12008000  1
  Ni  Ni60  1  0.14286700  0.34784900  0.57296400  1
  Ni  Ni61  1  0.85713300  0.84784900  0.92703600  1
  Ni  Ni62  1  0.85713300  0.65215100  0.42703600  1
  Ni  Ni63  1  0.14286700  0.15215100  0.07296400  1
  Ni  Ni64  1  0.10422900  0.30536000  0.42739200  1
  Ni  Ni65  1  0.89577100  0.80536000  0.07260800  1
  Ni  Ni66  1  0.89577100  0.69464000  0.57260800  1
  Ni  Ni67  1  0.10422900  0.19464000  0.92739200  1
  Ni  Ni68  1  0.87055700  0.35711200  0.36676100  1
  Ni  Ni69  1  0.12944300  0.85711200  0.13323900  1
  Ni  Ni70  1  0.12944300  0.64288800  0.63323900  1
  Ni  Ni71  1  0.87055700  0.14288800  0.86676100  1
  Ni  Ni72  1  0.94915600  0.41027800  0.27586900  1
  Ni  Ni73  1  0.05084400  0.91027800  0.22413100  1
  Ni  Ni74  1  0.05084400  0.58972200  0.72413100  1
  Ni  Ni75  1  0.94915600  0.08972200  0.77586900  1
  Cu  Cu76  1  0.68947200  0.50719400  0.62245100  1
  Cu  Cu77  1  0.31052800  0.00719400  0.87754900  1
  Cu  Cu78  1  0.31052800  0.49280600  0.37754900  1
  Cu  Cu79  1  0.68947200  0.99280600  0.12245100  1
  Cu  Cu80  1  0.71488600  0.21537900  0.78347800  1
  Cu  Cu81  1  0.28511400  0.71537900  0.71652200  1
  Cu  Cu82  1  0.28511400  0.78462100  0.21652200  1
  Cu  Cu83  1  0.71488600  0.28462100  0.28347800  1
  Cu  Cu84  1  0.19950100  0.31285800  0.79241700  1
  Cu  Cu85  1  0.80049900  0.81285800  0.70758300  1
  Cu  Cu86  1  0.80049900  0.68714200  0.20758300  1
  Cu  Cu87  1  0.19950100  0.18714200  0.29241700  1
  C  C88  1  0.13682700  0.02729700  0.54609200  1
  C  C89  1  0.86317300  0.52729700  0.95390800  1
  C  C90  1  0.86317300  0.97270300  0.45390800  1
  C  C91  1  0.13682700  0.47270300  0.04609200  1
  C  C92  1  0.44970300  0.38294800  0.63332700  1
  C  C93  1  0.55029700  0.88294800  0.86667300  1
  C  C94  1  0.55029700  0.61705200  0.36667300  1
  C  C95  1  0.44970300  0.11705200  0.13332700  1
  C  C96  1  0.96371300  0.12791200  0.63000200  1
  C  C97  1  0.03628700  0.62791200  0.86999800  1
  C  C98  1  0.03628700  0.87208800  0.36999800  1
  C  C99  1  0.96371300  0.37208800  0.13000200  1
  C  C100  1  0.69268000  0.49344300  0.50822600  1
  C  C101  1  0.30732000  0.99344300  0.99177400  1
  C  C102  1  0.30732000  0.50655700  0.49177400  1
  C  C103  1  0.69268000  0.00655700  0.00822600  1
  C  C104  1  0.61080400  0.53760300  0.66342100  1
  C  C105  1  0.38919600  0.03760300  0.83657900  1
  C  C106  1  0.38919600  0.46239700  0.33657900  1
  C  C107  1  0.61080400  0.96239700  0.16342100  1
  C  C108  1  0.76342700  0.49159000  0.69648600  1
  C  C109  1  0.23657300  0.99159000  0.80351400  1
  C  C110  1  0.23657300  0.50841000  0.30351400  1
  C  C111  1  0.76342700  0.00841000  0.19648600  1
  C  C112  1  0.73595500  0.15772100  0.68571000  1
  C  C113  1  0.26404500  0.65772100  0.81429000  1
  C  C114  1  0.26404500  0.84227900  0.31429000  1
  C  C115  1  0.73595500  0.34227900  0.18571000  1
  C  C116  1  0.77914400  0.24128300  0.87081700  1
  C  C117  1  0.22085600  0.74128300  0.62918300  1
  C  C118  1  0.22085600  0.75871700  0.12918300  1
  C  C119  1  0.77914400  0.25871700  0.37081700  1
  C  C120  1  0.62992100  0.24840700  0.79426000  1
  C  C121  1  0.37007900  0.74840700  0.70574000  1
  C  C122  1  0.37007900  0.75159300  0.20574000  1
  C  C123  1  0.62992100  0.25159300  0.29426000  1
  C  C124  1  0.23115300  0.33881700  0.69153000  1
  C  C125  1  0.76884700  0.83881700  0.80847000  1
  C  C126  1  0.76884700  0.66118300  0.30847000  1
  C  C127  1  0.23115300  0.16118300  0.19153000  1
  C  C128  1  0.25294200  0.32779200  0.89421300  1
  C  C129  1  0.74705800  0.82779200  0.60578700  1
  C  C130  1  0.74705800  0.67220800  0.10578700  1
  C  C131  1  0.25294200  0.17220800  0.39421300  1
  C  C132  1  0.11527800  0.27212600  0.79616100  1
  C  C133  1  0.88472200  0.77212600  0.70383900  1
  C  C134  1  0.88472200  0.72787400  0.20383900  1
  C  C135  1  0.11527800  0.22787400  0.29616100  1
  C  C136  1  0.42240700  0.39166500  0.10464800  1
  C  C137  1  0.57759300  0.89166500  0.39535200  1
  C  C138  1  0.57759300  0.60833500  0.89535200  1
  C  C139  1  0.42240700  0.10833500  0.60464800  1
  C  C140  1  0.59068400  0.35122500  0.00799500  1
  C  C141  1  0.40931600  0.85122500  0.49200500  1
  C  C142  1  0.40931600  0.64877500  0.99200500  1
  C  C143  1  0.59068400  0.14877500  0.50799500  1
  C  C144  1  0.42907700  0.40823500  0.86574500  1
  C  C145  1  0.57092300  0.90823500  0.63425500  1
  C  C146  1  0.57092300  0.59176500  0.13425500  1
  C  C147  1  0.42907700  0.09176500  0.36574500  1
  C  C148  1  0.93137100  0.40097200  0.61898600  1
  C  C149  1  0.06862900  0.90097200  0.88101400  1
  C  C150  1  0.06862900  0.59902800  0.38101400  1
  C  C151  1  0.93137100  0.09902800  0.11898600  1
  C  C152  1  0.08822200  0.34899800  0.50653200  1
  C  C153  1  0.91177800  0.84899800  0.99346800  1
  C  C154  1  0.91177800  0.65100200  0.49346800  1
  C  C155  1  0.08822200  0.15100200  0.00653200  1
  C  C156  1  0.92783300  0.41791900  0.36112100  1
  C  C157  1  0.07216700  0.91791900  0.13887900  1
  C  C158  1  0.07216700  0.58208100  0.63887900  1
  C  C159  1  0.92783300  0.08208100  0.86112100  1
