# generated using pymatgen
data_Cu5NiC28
_symmetry_space_group_name_H-M   'P 1'
_cell_length_a   8.49522696
_cell_length_b   8.47191527
_cell_length_c   21.92844341
_cell_angle_alpha   90.25782228
_cell_angle_beta   90.16696999
_cell_angle_gamma   120.05280514
_symmetry_Int_Tables_number   1
_chemical_formula_structural   Cu5NiC28
_chemical_formula_sum   'Cu15 Ni3 C84'
_cell_volume   1366.00268857
_cell_formula_units_Z   3
loop_
 _symmetry_equiv_pos_site_id
 _symmetry_equiv_pos_as_xyz
  1  'x, y, z'
loop_
 _atom_site_type_symbol
 _atom_site_label
 _atom_site_symmetry_multiplicity
 _atom_site_fract_x
 _atom_site_fract_y
 _atom_site_fract_z
 _atom_site_occupancy
  C  C0  1  -0.00003625  0.99950251  0.35540955  1
  C  C1  1  0.66514922  0.33662237  0.68894988  1
  C  C2  1  0.66596497  0.33296488  0.18638611  1
  Ni  Ni3  1  0.66738777  0.62504837  0.58526698  1
  Ni  Ni4  1  0.04556166  0.37864945  0.91624597  1
  Ni  Ni5  1  0.33185087  0.95351476  0.91634269  1
  C  C6  1  0.01097103  0.00958427  0.85889202  1
  C  C7  1  0.99017658  0.98918361  0.64738123  1
  C  C8  1  0.00084005  0.00041710  0.14589890  1
  C  C9  1  0.66840959  0.32560583  0.97296324  1
  C  C10  1  0.66945564  0.34144486  0.48521226  1
  C  C11  1  0.32231122  0.66350351  0.01482470  1
  C  C12  1  0.33767448  0.66572788  0.52398457  1
  C  C13  1  0.33362833  0.66693382  0.31199222  1
  C  C14  1  0.32378912  0.66980686  0.81634900  1
  Cu  Cu15  1  0.29098473  0.00099552  0.25135326  1
  Cu  Cu16  1  0.70989391  0.70940049  0.25119416  1
  Cu  Cu17  1  0.99889459  0.28969084  0.25134183  1
  Cu  Cu18  1  0.28797795  0.29037884  0.75032219  1
  Cu  Cu19  1  0.00173490  0.71287957  0.75150846  1
  Cu  Cu20  1  0.70864482  0.99635885  0.75190317  1
  Cu  Cu21  1  0.95826003  0.33333487  0.58390399  1
  Cu  Cu22  1  0.37507872  0.04302700  0.58379926  1
  Cu  Cu23  1  0.95810705  0.62309490  0.08375703  1
  Cu  Cu24  1  0.66372626  0.03785237  0.08371417  1
  Cu  Cu25  1  0.37703958  0.33755401  0.08319661  1
  Cu  Cu26  1  0.62229132  0.66706632  0.91649550  1
  Cu  Cu27  1  0.62234208  0.95941335  0.41809895  1
  Cu  Cu28  1  0.33486717  0.37736397  0.41734944  1
  Cu  Cu29  1  0.04403727  0.66359105  0.41804747  1
  C  C30  1  0.20745296  0.02880809  0.30471201  1
  C  C31  1  0.82137858  0.79322946  0.30485366  1
  C  C32  1  0.97183453  0.17885681  0.30462785  1
  C  C33  1  0.20261712  0.17163930  0.80442706  1
  C  C34  1  0.96651561  0.79792086  0.80555160  1
  C  C35  1  0.82783358  0.02941676  0.80609166  1
  C  C36  1  0.78932147  0.96058949  0.69508269  1
  C  C37  1  0.16703613  0.20834420  0.69340440  1
  C  C38  1  0.04286847  0.83215635  0.69537129  1
  C  C39  1  0.78633656  0.82794119  0.19442588  1
  C  C40  1  0.04128236  0.21307361  0.19422638  1
  C  C41  1  0.17160850  0.95803949  0.19416285  1
  C  C42  1  0.88082000  0.36803578  0.63700726  1
  C  C43  1  0.48988071  0.11642770  0.63685520  1
  C  C44  1  0.62594073  0.49978243  0.64192514  1
  C  C45  1  0.87901174  0.51374774  0.13774838  1
  C  C46  1  0.63251752  0.11729423  0.13783040  1
  C  C47  1  0.48574957  0.36671745  0.13778622  1
  C  C48  1  0.45431774  0.29866671  0.02804201  1
  C  C49  1  0.84173698  0.54711922  0.02825599  1
  C  C50  1  0.70429056  0.15482350  0.02896690  1
  C  C51  1  0.45301343  0.15472925  0.52588733  1
  C  C52  1  0.70864254  0.54100488  0.52128499  1
  C  C53  1  0.84220877  0.29142416  0.52596603  1
  C  C54  1  0.54694191  0.70533031  0.97265112  1
  C  C55  1  0.17217487  0.45936047  0.97743355  1
  C  C56  1  0.29745533  0.83268094  0.97780179  1
  C  C57  1  0.53711249  0.84088039  0.47177326  1
  C  C58  1  0.29846052  0.46155671  0.47133470  1
  C  C59  1  0.16366678  0.69874896  0.47294452  1
  C  C60  1  0.12494485  0.62600174  0.36145005  1
  C  C61  1  0.50324809  0.87939775  0.36132414  1
  C  C62  1  0.37472085  0.49748779  0.36123525  1
  C  C63  1  0.13237239  0.50267576  0.85569976  1
  C  C64  1  0.38062545  0.87289154  0.85609891  1
  C  C65  1  0.50735746  0.62692766  0.86088510  1
  C  C66  1  0.02677624  0.82323827  0.41048807  1
  C  C67  1  0.79835409  0.97613507  0.40992229  1
  C  C68  1  0.17491841  0.20063867  0.40950611  1
  C  C69  1  0.01641305  0.17768526  0.90658465  1
  C  C70  1  0.15222927  0.96821386  0.90627032  1
  C  C71  1  0.80207012  0.82877765  0.90835134  1
  C  C72  1  0.98221636  0.17284290  0.58984975  1
  C  C73  1  0.19426767  0.02664149  0.59004127  1
  C  C74  1  0.84939984  0.83014648  0.59173400  1
  C  C75  1  0.97694880  0.81173195  0.09091391  1
  C  C76  1  0.83415980  0.02158118  0.09114268  1
  C  C77  1  0.18892228  0.16754671  0.09057446  1
  C  C78  1  0.69249822  0.15659997  0.74307551  1
  C  C79  1  0.46225252  0.30278934  0.74379351  1
  C  C80  1  0.84424796  0.53499026  0.74395831  1
  C  C81  1  0.68765811  0.53099125  0.24165530  1
  C  C82  1  0.84348843  0.31220567  0.24162403  1
  C  C83  1  0.46881887  0.15679936  0.24181388  1
  C  C84  1  0.63947052  0.50367834  0.92557450  1
  C  C85  1  0.85156354  0.36542507  0.92756920  1
  C  C86  1  0.50492347  0.15464825  0.92725540  1
  C  C87  1  0.63683276  0.14267174  0.42567351  1
  C  C88  1  0.50057728  0.36063036  0.42379389  1
  C  C89  1  0.86405696  0.49400862  0.42356718  1
  C  C90  1  0.35906805  0.50253955  0.07568181  1
  C  C91  1  0.14184982  0.64453791  0.07702112  1
  C  C92  1  0.50316090  0.85278083  0.07500482  1
  C  C93  1  0.35227944  0.85808711  0.57299190  1
  C  C94  1  0.48853167  0.64685990  0.57160296  1
  C  C95  1  0.13810843  0.50025997  0.57299008  1
  C  C96  1  0.30555323  0.82875319  0.25735408  1
  C  C97  1  0.52320680  0.69433361  0.25743119  1
  C  C98  1  0.17104898  0.47679205  0.25744470  1
  C  C99  1  0.30485245  0.47330880  0.75715569  1
  C  C100  1  0.17084100  0.70024252  0.75597804  1
  C  C101  1  0.52812283  0.82664617  0.75740037  1
