# generated using pymatgen
data_CuNiC16
_symmetry_space_group_name_H-M   'P 1'
_cell_length_a   8.59000352
_cell_length_b   8.59166982
_cell_length_c   22.31069804
_cell_angle_alpha   89.55234863
_cell_angle_beta   89.61517992
_cell_angle_gamma   119.96297909
_symmetry_Int_Tables_number   1
_chemical_formula_structural   CuNiC16
_chemical_formula_sum   'Cu6 Ni6 C96'
_cell_volume   1426.36515921
_cell_formula_units_Z   6
loop_
 _symmetry_equiv_pos_site_id
 _symmetry_equiv_pos_as_xyz
  1  'x, y, z'
loop_
 _atom_site_type_symbol
 _atom_site_label
 _atom_site_symmetry_multiplicity
 _atom_site_fract_x
 _atom_site_fract_y
 _atom_site_fract_z
 _atom_site_occupancy
  C  C0  1  0.00108191  0.00082567  0.49801938  1
  C  C1  1  0.99826767  0.99344592  0.99814914  1
  C  C2  1  0.66774008  0.32036146  0.82581163  1
  C  C3  1  0.65551130  0.32516774  0.33599516  1
  C  C4  1  0.32105601  0.66854502  0.16512160  1
  C  C5  1  0.33906194  0.67106183  0.66447090  1
  Ni  Ni6  1  0.01600269  0.00502397  0.34937649  1
  Ni  Ni7  1  0.99314281  0.00076749  0.84826477  1
  Ni  Ni8  1  0.66632545  0.32276392  0.68400779  1
  Ni  Ni9  1  0.66469936  0.33238773  0.48519045  1
  Ni  Ni10  1  0.31802585  0.66626944  0.02242189  1
  Ni  Ni11  1  0.33579326  0.66907546  0.51991657  1
  C  C12  1  0.30011143  0.00248116  0.25080459  1
  C  C13  1  0.70979849  0.00387422  0.75265700  1
  C  C14  1  0.94958662  0.61962965  0.08542370  1
  Cu  Cu15  1  0.98538400  0.99408553  0.64998556  1
  Cu  Cu16  1  0.00854555  0.97834257  0.14971780  1
  Cu  Cu17  1  0.66968036  0.32832763  0.18609397  1
  Cu  Cu18  1  0.67687582  0.34868887  0.98131215  1
  Cu  Cu19  1  0.33360446  0.68194422  0.31817363  1
  Cu  Cu20  1  0.34086172  0.67283287  0.81028814  1
  C  C21  1  0.70511931  0.70520262  0.25007759  1
  C  C22  1  0.00103340  0.28902216  0.24843280  1
  C  C23  1  0.28925755  0.29331492  0.75113697  1
  C  C24  1  0.00282342  0.71029212  0.75165345  1
  C  C25  1  0.96416963  0.32933836  0.58454895  1
  C  C26  1  0.36138410  0.03683148  0.58582713  1
  C  C27  1  0.67287911  0.63108398  0.58547985  1
  C  C28  1  0.67540459  0.04980912  0.08418804  1
  C  C29  1  0.37791579  0.32830293  0.08432071  1
  C  C30  1  0.61868756  0.66027109  0.91916372  1
  C  C31  1  0.04232625  0.37812718  0.91755622  1
  C  C32  1  0.33861095  0.96473901  0.91781746  1
  C  C33  1  0.62760496  0.95946813  0.41605413  1
  C  C34  1  0.33334958  0.38302976  0.41521396  1
  C  C35  1  0.03935217  0.66354442  0.41727431  1
  C  C36  1  0.22920166  0.05075175  0.30872768  1
  C  C37  1  0.81236352  0.78246617  0.30290379  1
  C  C38  1  0.96194375  0.18067595  0.30260993  1
  C  C39  1  0.21788702  0.18765034  0.80607888  1
  C  C40  1  0.98366700  0.78955192  0.80653088  1
  C  C41  1  0.81731113  0.03167416  0.81272917  1
  C  C42  1  0.79483251  0.95545566  0.69207852  1
  C  C43  1  0.17518652  0.21283840  0.69644006  1
  C  C44  1  0.04754027  0.82939554  0.69617523  1
  C  C45  1  0.78330987  0.82370123  0.19398829  1
  C  C46  1  0.03012681  0.20594538  0.19286818  1
  C  C47  1  0.17232405  0.95659012  0.19059086  1
  C  C48  1  0.88345118  0.35472695  0.63827136  1
  C  C49  1  0.46846272  0.11736615  0.63860773  1
  C  C50  1  0.64938462  0.52443586  0.63936012  1
  C  C51  1  0.85024463  0.49302470  0.14400428  1
  C  C52  1  0.63609182  0.12665608  0.13837193  1
  C  C53  1  0.48615713  0.35006003  0.13842306  1
  C  C54  1  0.45217990  0.28678011  0.02865610  1
  C  C55  1  0.82515239  0.53709910  0.02457739  1
  C  C56  1  0.70560883  0.16299654  0.02821768  1
  C  C57  1  0.43423698  0.14402271  0.52987041  1
  C  C58  1  0.70264516  0.55659429  0.52986839  1
  C  C59  1  0.85672966  0.29624610  0.52977737  1
  C  C60  1  0.53271858  0.68050989  0.97272831  1
  C  C61  1  0.14552196  0.46189988  0.97096155  1
  C  C62  1  0.31298774  0.85908411  0.97218579  1
  C  C63  1  0.54333800  0.84991513  0.46939085  1
  C  C64  1  0.31350339  0.46822742  0.46848093  1
  C  C65  1  0.14985865  0.68818584  0.46928463  1
  C  C66  1  0.12326810  0.63415206  0.35925339  1
  C  C67  1  0.51284058  0.87720670  0.35899737  1
  C  C68  1  0.36393448  0.49936423  0.35670063  1
  C  C69  1  0.12135777  0.49205973  0.86104147  1
  C  C70  1  0.37256814  0.88441293  0.86244066  1
  C  C71  1  0.50940999  0.62916296  0.86311029  1
  C  C72  1  0.02042328  0.82355926  0.41051211  1
  C  C73  1  0.80384404  0.97380175  0.40714967  1
  C  C74  1  0.16858909  0.20772394  0.41018011  1
  C  C75  1  0.02053063  0.19918273  0.91307457  1
  C  C76  1  0.18290156  0.98971449  0.91042590  1
  C  C77  1  0.80234555  0.81049934  0.91383973  1
  C  C78  1  0.98194838  0.15961394  0.59034013  1
  C  C79  1  0.17551269  0.02250602  0.59306346  1
  C  C80  1  0.84694151  0.81573777  0.58954217  1
  C  C81  1  0.95804486  0.81825947  0.09090537  1
  C  C82  1  0.84663719  0.04700107  0.09125915  1
  C  C83  1  0.19229089  0.16597628  0.09035426  1
  C  C84  1  0.67604972  0.16881999  0.74411513  1
  C  C85  1  0.47233723  0.33049873  0.74200720  1
  C  C86  1  0.84479222  0.53555354  0.74327255  1
  C  C87  1  0.68775633  0.52458661  0.24140018  1
  C  C88  1  0.83965910  0.31364952  0.24121568  1
  C  C89  1  0.50245706  0.17967857  0.23737568  1
  C  C90  1  0.62647013  0.48321674  0.92196799  1
  C  C91  1  0.85487564  0.36250863  0.92126057  1
  C  C92  1  0.51100419  0.14893635  0.92268330  1
  C  C93  1  0.63998440  0.13691479  0.41889236  1
  C  C94  1  0.49669255  0.36701025  0.41652776  1
  C  C95  1  0.86196598  0.49808641  0.41981490  1
  C  C96  1  0.36725472  0.49122959  0.07810975  1
  C  C97  1  0.14545522  0.64238685  0.08288829  1
  C  C98  1  0.52115211  0.86971238  0.07858007  1
  C  C99  1  0.33410725  0.85369013  0.57979077  1
  C  C100  1  0.51881179  0.66176872  0.58055761  1
  C  C101  1  0.14760051  0.48495685  0.57857800  1
  C  C102  1  0.31980386  0.81851702  0.25818398  1
  C  C103  1  0.52059405  0.68108472  0.25471574  1
  C  C104  1  0.16488746  0.47022639  0.25310714  1
  C  C105  1  0.29161553  0.47319634  0.75663733  1
  C  C106  1  0.16963164  0.68876788  0.75611602  1
  C  C107  1  0.50660994  0.81226115  0.75730464  1
