# generated using pymatgen
data_Cu4(Ni4C3)3
_symmetry_space_group_name_H-M   'P 1'
_cell_length_a   5.51983700
_cell_length_b   11.04133900
_cell_length_c   13.81351200
_cell_angle_alpha   90.00000000
_cell_angle_beta   90.00000000
_cell_angle_gamma   90.00000000
_symmetry_Int_Tables_number   1
_chemical_formula_structural   Cu4(Ni4C3)3
_chemical_formula_sum   'Cu16 Ni48 C36'
_cell_volume   841.88371092
_cell_formula_units_Z   4
loop_
 _symmetry_equiv_pos_site_id
 _symmetry_equiv_pos_as_xyz
  1  'x, y, z'
loop_
 _atom_site_type_symbol
 _atom_site_label
 _atom_site_symmetry_multiplicity
 _atom_site_fract_x
 _atom_site_fract_y
 _atom_site_fract_z
 _atom_site_occupancy
  C  C0  1  0.75000000  0.62474600  0.75000000  1
  C  C1  1  0.25000000  0.87525400  0.25000000  1
  C  C2  1  0.25000000  0.37525400  0.25000000  1
  C  C3  1  0.75000000  0.12474600  0.75000000  1
  Ni  Ni4  1  0.50693600  0.89218500  0.55917600  1
  Ni  Ni5  1  0.00693600  0.60781500  0.44082400  1
  Ni  Ni6  1  0.99306400  0.89218500  0.94082400  1
  Ni  Ni7  1  0.49306400  0.60781500  0.05917600  1
  Ni  Ni8  1  0.49306400  0.10781500  0.44082400  1
  Ni  Ni9  1  0.99306400  0.39218500  0.55917600  1
  Ni  Ni10  1  0.00693600  0.10781500  0.05917600  1
  Ni  Ni11  1  0.50693600  0.39218500  0.94082400  1
  Ni  Ni12  1  0.28145400  0.99915300  0.56009500  1
  Ni  Ni13  1  0.78145400  0.50084700  0.43990500  1
  Ni  Ni14  1  0.21854600  0.99915300  0.93990500  1
  Ni  Ni15  1  0.71854600  0.50084700  0.06009500  1
  Ni  Ni16  1  0.71854600  0.00084700  0.43990500  1
  Ni  Ni17  1  0.21854600  0.49915300  0.56009500  1
  Ni  Ni18  1  0.78145400  0.00084700  0.06009500  1
  Ni  Ni19  1  0.28145400  0.49915300  0.93990500  1
  Ni  Ni20  1  0.39542400  0.94344600  0.66662100  1
  Ni  Ni21  1  0.89542400  0.55655400  0.33337900  1
  Ni  Ni22  1  0.10457600  0.94344600  0.83337900  1
  Ni  Ni23  1  0.60457600  0.55655400  0.16662100  1
  Ni  Ni24  1  0.60457600  0.05655400  0.33337900  1
  Ni  Ni25  1  0.10457600  0.44344600  0.66662100  1
  Ni  Ni26  1  0.89542400  0.05655400  0.16662100  1
  Ni  Ni27  1  0.39542400  0.44344600  0.83337900  1
  Ni  Ni28  1  0.22898000  0.74654700  0.55916100  1
  Ni  Ni29  1  0.72898000  0.75345300  0.44083900  1
  Ni  Ni30  1  0.27102000  0.74654700  0.94083900  1
  Ni  Ni31  1  0.77102000  0.75345300  0.05916100  1
  Ni  Ni32  1  0.77102000  0.25345300  0.44083900  1
  Ni  Ni33  1  0.27102000  0.24654700  0.55916100  1
  Ni  Ni34  1  0.72898000  0.25345300  0.05916100  1
  Ni  Ni35  1  0.22898000  0.24654700  0.94083900  1
  Ni  Ni36  1  0.00644000  0.85556900  0.55748900  1
  Ni  Ni37  1  0.50644000  0.64443100  0.44251100  1
  Ni  Ni38  1  0.49356000  0.85556900  0.94251100  1
  Ni  Ni39  1  0.99356000  0.64443100  0.05748900  1
  Ni  Ni40  1  0.99356000  0.14443100  0.44251100  1
  Ni  Ni41  1  0.49356000  0.35556900  0.55748900  1
  Ni  Ni42  1  0.50644000  0.14443100  0.05748900  1
  Ni  Ni43  1  0.00644000  0.35556900  0.94251100  1
  Ni  Ni44  1  0.11658500  0.80211600  0.66551900  1
  Ni  Ni45  1  0.61658500  0.69788400  0.33448100  1
  Ni  Ni46  1  0.38341500  0.80211600  0.83448100  1
  Ni  Ni47  1  0.88341500  0.69788400  0.16551900  1
  Ni  Ni48  1  0.88341500  0.19788400  0.33448100  1
  Ni  Ni49  1  0.38341500  0.30211600  0.66551900  1
  Ni  Ni50  1  0.61658500  0.19788400  0.16551900  1
  Ni  Ni51  1  0.11658500  0.30211600  0.83448100  1
  Cu  Cu52  1  0.34755200  0.92022400  0.59539100  1
  Cu  Cu53  1  0.84755200  0.57977600  0.40460900  1
  Cu  Cu54  1  0.15244800  0.92022400  0.90460900  1
  Cu  Cu55  1  0.65244800  0.57977600  0.09539100  1
  Cu  Cu56  1  0.65244800  0.07977600  0.40460900  1
  Cu  Cu57  1  0.15244800  0.42022400  0.59539100  1
  Cu  Cu58  1  0.84755200  0.07977600  0.09539100  1
  Cu  Cu59  1  0.34755200  0.42022400  0.90460900  1
  Cu  Cu60  1  0.16566300  0.82577800  0.59468700  1
  Cu  Cu61  1  0.66566300  0.67422200  0.40531300  1
  Cu  Cu62  1  0.33433700  0.82577800  0.90531300  1
  Cu  Cu63  1  0.83433700  0.67422200  0.09468700  1
  Cu  Cu64  1  0.83433700  0.17422200  0.40531300  1
  Cu  Cu65  1  0.33433700  0.32577800  0.59468700  1
  Cu  Cu66  1  0.66566300  0.17422200  0.09468700  1
  Cu  Cu67  1  0.16566300  0.32577800  0.90531300  1
  C  C68  1  0.76833600  0.87794600  0.50021500  1
  C  C69  1  0.26833600  0.62205400  0.49978500  1
  C  C70  1  0.73166400  0.87794600  0.99978500  1
  C  C71  1  0.23166400  0.62205400  0.00021500  1
  C  C72  1  0.23166400  0.12205400  0.49978500  1
  C  C73  1  0.73166400  0.37794600  0.50021500  1
  C  C74  1  0.26833600  0.12205400  0.00021500  1
  C  C75  1  0.76833600  0.37794600  0.99978500  1
  C  C76  1  0.51040100  0.74630800  0.73088600  1
  C  C77  1  0.01040100  0.75369200  0.26911400  1
  C  C78  1  0.98959900  0.74630800  0.76911400  1
  C  C79  1  0.48959900  0.75369200  0.23088600  1
  C  C80  1  0.48959900  0.25369200  0.26911400  1
  C  C81  1  0.98959900  0.24630800  0.73088600  1
  C  C82  1  0.01040100  0.25369200  0.23088600  1
  C  C83  1  0.51040100  0.24630800  0.76911400  1
  C  C84  1  0.51141500  0.50255900  0.73061400  1
  C  C85  1  0.01141500  0.99744100  0.26938600  1
  C  C86  1  0.98858500  0.50255900  0.76938600  1
  C  C87  1  0.48858500  0.99744100  0.23061400  1
  C  C88  1  0.48858500  0.49744100  0.26938600  1
  C  C89  1  0.98858500  0.00255900  0.73061400  1
  C  C90  1  0.01141500  0.49744100  0.23061400  1
  C  C91  1  0.51141500  0.00255900  0.76938600  1
  C  C92  1  0.82265700  0.62560600  0.61698600  1
  C  C93  1  0.32265700  0.87439400  0.38301400  1
  C  C94  1  0.67734300  0.62560600  0.88301400  1
  C  C95  1  0.17734300  0.87439400  0.11698600  1
  C  C96  1  0.17734300  0.37439400  0.38301400  1
  C  C97  1  0.67734300  0.12560600  0.61698600  1
  C  C98  1  0.32265700  0.37439400  0.11698600  1
  C  C99  1  0.82265700  0.12560600  0.88301400  1
