# generated using pymatgen
data_CuNi2C7
_symmetry_space_group_name_H-M   'P 1'
_cell_length_a   6.00731800
_cell_length_b   5.90670800
_cell_length_c   10.28366666
_cell_angle_alpha   54.84870749
_cell_angle_beta   90.00000000
_cell_angle_gamma   90.00000000
_symmetry_Int_Tables_number   1
_chemical_formula_structural   CuNi2C7
_chemical_formula_sum   'Cu2 Ni4 C14'
_cell_volume   298.35504975
_cell_formula_units_Z   2
loop_
 _symmetry_equiv_pos_site_id
 _symmetry_equiv_pos_as_xyz
  1  'x, y, z'
loop_
 _atom_site_type_symbol
 _atom_site_label
 _atom_site_symmetry_multiplicity
 _atom_site_fract_x
 _atom_site_fract_y
 _atom_site_fract_z
 _atom_site_occupancy
  Ni  Ni0  1  0.45910700  0.25940300  0.75024300  1
  Ni  Ni1  1  0.95910700  0.74059700  0.74975700  1
  Ni  Ni2  1  0.04089300  0.25940300  0.25024300  1
  Ni  Ni3  1  0.54089300  0.74059700  0.24975700  1
  Cu  Cu4  1  0.50000000  0.50000000  0.00000000  1
  Cu  Cu5  1  0.00000000  0.50000000  0.50000000  1
  C  C6  1  0.00000000  0.00000000  0.00000000  1
  C  C7  1  0.50000000  0.00000000  0.50000000  1
  C  C8  1  0.70554000  0.66491300  0.54571900  1
  C  C9  1  0.20554000  0.33508700  0.95428100  1
  C  C10  1  0.29446000  0.33508700  0.45428100  1
  C  C11  1  0.79446000  0.66491300  0.04571900  1
  C  C12  1  0.21112900  0.75073300  0.54637700  1
  C  C13  1  0.71112900  0.24926700  0.95362300  1
  C  C14  1  0.78887100  0.24926700  0.45362300  1
  C  C15  1  0.28887100  0.75073300  0.04637700  1
  C  C16  1  0.02869100  0.15974600  0.75345200  1
  C  C17  1  0.52869100  0.84025400  0.74654800  1
  C  C18  1  0.97130900  0.84025400  0.24654800  1
  C  C19  1  0.47130900  0.15974600  0.25345200  1
