# generated using pymatgen
data_CuNiC4
_symmetry_space_group_name_H-M   'P 1'
_cell_length_a   7.79710000
_cell_length_b   10.67410100
_cell_length_c   10.73809500
_cell_angle_alpha   90.00000000
_cell_angle_beta   90.00000000
_cell_angle_gamma   90.00000000
_symmetry_Int_Tables_number   1
_chemical_formula_structural   CuNiC4
_chemical_formula_sum   'Cu4 Ni4 C16'
_cell_volume   893.69978592
_cell_formula_units_Z   4
loop_
 _symmetry_equiv_pos_site_id
 _symmetry_equiv_pos_as_xyz
  1  'x, y, z'
loop_
 _atom_site_type_symbol
 _atom_site_label
 _atom_site_symmetry_multiplicity
 _atom_site_fract_x
 _atom_site_fract_y
 _atom_site_fract_z
 _atom_site_occupancy
  Ni  Ni0  1  0.83626000  0.25000000  0.25000000  1
  Ni  Ni1  1  0.66374000  0.25000000  0.75000000  1
  Ni  Ni2  1  0.16374000  0.75000000  0.75000000  1
  Ni  Ni3  1  0.33626000  0.75000000  0.25000000  1
  Cu  Cu4  1  0.75000000  0.81843700  0.00000000  1
  Cu  Cu5  1  0.25000000  0.31843700  0.50000000  1
  Cu  Cu6  1  0.25000000  0.18156300  0.00000000  1
  Cu  Cu7  1  0.75000000  0.68156300  0.50000000  1
  C  C8  1  0.49151100  0.18997800  0.46000400  1
  C  C9  1  0.00848900  0.31002200  0.96000400  1
  C  C10  1  0.00848900  0.18997800  0.53999600  1
  C  C11  1  0.49151100  0.31002200  0.03999600  1
  C  C12  1  0.67461700  0.94181000  0.17386600  1
  C  C13  1  0.67461700  0.55819000  0.32613400  1
  C  C14  1  0.82538300  0.94181000  0.82613400  1
  C  C15  1  0.82538300  0.55819000  0.67386600  1
  C  C16  1  0.32538300  0.05819000  0.82613400  1
  C  C17  1  0.32538300  0.44181000  0.67386600  1
  C  C18  1  0.17461700  0.05819000  0.17386600  1
  C  C19  1  0.17461700  0.44181000  0.32613400  1
  C  C20  1  0.99151100  0.68997800  0.03999600  1
  C  C21  1  0.99151100  0.81002200  0.46000400  1
  C  C22  1  0.50848900  0.68997800  0.96000400  1
  C  C23  1  0.50848900  0.81002200  0.53999600  1
