# generated using pymatgen
data_Cu2NiC16
_symmetry_space_group_name_H-M   'P 1'
_cell_length_a   9.85878387
_cell_length_b   8.46288217
_cell_length_c   9.36756015
_cell_angle_alpha   117.67647008
_cell_angle_beta   122.49174023
_cell_angle_gamma   88.60985528
_symmetry_Int_Tables_number   1
_chemical_formula_structural   Cu2NiC16
_chemical_formula_sum   'Cu2 Ni1 C16'
_cell_volume   556.62811665
_cell_formula_units_Z   1
loop_
 _symmetry_equiv_pos_site_id
 _symmetry_equiv_pos_as_xyz
  1  'x, y, z'
loop_
 _atom_site_type_symbol
 _atom_site_label
 _atom_site_symmetry_multiplicity
 _atom_site_fract_x
 _atom_site_fract_y
 _atom_site_fract_z
 _atom_site_occupancy
  C  C0  1  0.67012613  0.18577651  -0.00000000  1
  C  C1  1  0.90684231  0.66357362  0.00000000  1
  C  C2  1  0.16124060  0.33142659  0.00000000  1
  C  C3  1  0.26955965  0.86871688  1.00000000  1
  C  C4  1  0.68881187  0.75057423  0.50154867  1
  C  C5  1  0.18726320  0.24902556  0.49845133  1
  Ni  Ni6  1  0.58749403  0.72681647  0.00000000  1
  Cu  Cu7  1  0.75119558  0.23595295  0.48360129  1
  Cu  Cu8  1  0.26759429  0.75235166  0.51639871  1
  C  C9  1  0.02880887  0.50367029  0.29681159  1
  C  C10  1  0.73199729  0.20685871  0.70318941  1
  C  C11  1  0.98642409  0.48633416  0.68210366  1
  C  C12  1  0.24413565  0.01291577  0.72321803  1
  C  C13  1  0.52173982  0.69266631  0.70042323  1
  C  C14  1  0.82131759  0.99224407  0.29957777  1
  C  C15  1  0.52091862  0.28969873  0.27678297  1
  C  C16  1  0.30432142  0.80423149  0.31789734  1
  C  C17  1  0.99034567  0.01085709  1.00000000  1
  C  C18  1  0.45361332  0.50974689  1.00000000  1
