# generated using pymatgen
data_CuNiC3
_symmetry_space_group_name_H-M   'P 1'
_cell_length_a   4.67552685
_cell_length_b   4.67552685
_cell_length_c   6.23459223
_cell_angle_alpha   72.66906217
_cell_angle_beta   72.66906217
_cell_angle_gamma   95.24817893
_symmetry_Int_Tables_number   1
_chemical_formula_structural   CuNiC3
_chemical_formula_sum   'Cu2 Ni2 C6'
_cell_volume   121.74451366
_cell_formula_units_Z   2
loop_
 _symmetry_equiv_pos_site_id
 _symmetry_equiv_pos_as_xyz
  1  'x, y, z'
loop_
 _atom_site_type_symbol
 _atom_site_label
 _atom_site_symmetry_multiplicity
 _atom_site_fract_x
 _atom_site_fract_y
 _atom_site_fract_z
 _atom_site_occupancy
  C  C0  1  0.86252800  0.13747200  0.75000000  1
  C  C1  1  0.13747200  0.86252800  0.25000000  1
  Ni  Ni2  1  0.43770400  0.56229600  0.75000000  1
  Ni  Ni3  1  0.56229600  0.43770400  0.25000000  1
  Cu  Cu4  1  0.27657800  0.72342200  0.75000000  1
  Cu  Cu5  1  0.72342200  0.27657800  0.25000000  1
  C  C6  1  0.05449600  0.67037500  0.68031000  1
  C  C7  1  0.32962500  0.94550400  0.81969000  1
  C  C8  1  0.67037500  0.05449600  0.18031000  1
  C  C9  1  0.94550400  0.32962500  0.31969000  1
