# generated using pymatgen
data_Cu(NiC4)2
_symmetry_space_group_name_H-M   'P 1'
_cell_length_a   5.94691308
_cell_length_b   5.93636325
_cell_length_c   6.43899703
_cell_angle_alpha   62.55031140
_cell_angle_beta   63.37847732
_cell_angle_gamma   60.05866345
_symmetry_Int_Tables_number   1
_chemical_formula_structural   Cu(NiC4)2
_chemical_formula_sum   'Cu1 Ni2 C8'
_cell_volume   167.62864671
_cell_formula_units_Z   1
loop_
 _symmetry_equiv_pos_site_id
 _symmetry_equiv_pos_as_xyz
  1  'x, y, z'
loop_
 _atom_site_type_symbol
 _atom_site_label
 _atom_site_symmetry_multiplicity
 _atom_site_fract_x
 _atom_site_fract_y
 _atom_site_fract_z
 _atom_site_occupancy
  Ni  Ni0  1  0.75153696  0.75869442  0.73107420  1
  Ni  Ni1  1  0.30624481  0.30507076  0.08361367  1
  Cu  Cu2  1  0.96644910  0.96931881  0.09491327  1
  C  C3  1  0.12653953  0.13979281  0.59387485  1
  C  C4  1  0.49842570  0.49767368  0.50622695  1
  C  C5  1  0.24509750  0.75577997  0.75046474  1
  C  C6  1  0.25343703  0.73129096  0.28398104  1
  C  C7  1  0.75099690  0.24391170  0.76117969  1
  C  C8  1  0.24509750  0.24865779  0.75046474  1
  C  C9  1  0.73537898  0.24667122  0.28981192  1
  C  C10  1  0.73537898  0.72813787  0.28981192  1
