# generated using pymatgen
data_Cu5NiC13
_symmetry_space_group_name_H-M   'P 1'
_cell_length_a   5.00087025
_cell_length_b   4.96262386
_cell_length_c   10.02381974
_cell_angle_alpha   93.90990838
_cell_angle_beta   98.17392946
_cell_angle_gamma   59.67370079
_symmetry_Int_Tables_number   1
_chemical_formula_structural   Cu5NiC13
_chemical_formula_sum   'Cu5 Ni1 C13'
_cell_volume   212.54213695
_cell_formula_units_Z   1
loop_
 _symmetry_equiv_pos_site_id
 _symmetry_equiv_pos_as_xyz
  1  'x, y, z'
loop_
 _atom_site_type_symbol
 _atom_site_label
 _atom_site_symmetry_multiplicity
 _atom_site_fract_x
 _atom_site_fract_y
 _atom_site_fract_z
 _atom_site_occupancy
  Ni  Ni0  1  0.42221400  0.34139400  0.25226500  1
  C  C1  1  0.01077100  0.00751900  0.00342100  1
  Cu  Cu2  1  0.14903000  0.67398100  0.50041600  1
  Cu  Cu3  1  0.67748500  0.67425100  0.00402900  1
  Cu  Cu4  1  0.33851900  0.34112900  0.98585800  1
  Cu  Cu5  1  0.81557200  0.34374300  0.50633600  1
  Cu  Cu6  1  0.47898500  0.01265500  0.50104000  1
  C  C7  1  0.05613000  0.64659300  0.10330800  1
  C  C8  1  0.32975400  0.67126400  0.90367900  1
  C  C9  1  0.15069000  0.34347100  0.39143500  1
  C  C10  1  0.45109800  0.66641200  0.40014600  1
  C  C11  1  0.47710400  0.34320800  0.59925600  1
  C  C12  1  0.18281800  0.00482600  0.59207600  1
  C  C13  1  0.84560100  0.68001300  0.59184000  1
  C  C14  1  0.67923300  0.34977700  0.10336100  1
  C  C15  1  0.38254000  0.02253100  0.10324400  1
  C  C16  1  0.97086600  0.35670100  0.90351200  1
  C  C17  1  0.64545400  0.99755600  0.90388500  1
  C  C18  1  0.77363800  0.02297500  0.40089300  1
