# generated using pymatgen
data_Cu2Ni3C31
_symmetry_space_group_name_H-M   'P 1'
_cell_length_a   8.56083489
_cell_length_b   8.52651844
_cell_length_c   22.14773721
_cell_angle_alpha   90.25861014
_cell_angle_beta   89.24997035
_cell_angle_gamma   120.05454490
_symmetry_Int_Tables_number   1
_chemical_formula_structural   Cu2Ni3C31
_chemical_formula_sum   'Cu6 Ni9 C93'
_cell_volume   1399.16993718
_cell_formula_units_Z   3
loop_
 _symmetry_equiv_pos_site_id
 _symmetry_equiv_pos_as_xyz
  1  'x, y, z'
loop_
 _atom_site_type_symbol
 _atom_site_label
 _atom_site_symmetry_multiplicity
 _atom_site_fract_x
 _atom_site_fract_y
 _atom_site_fract_z
 _atom_site_occupancy
  C  C0  1  0.00203237  0.99152897  0.49736862  1
  C  C1  1  0.00113252  0.97589121  0.99868499  1
  C  C2  1  0.63754458  0.32425494  0.83057328  1
  C  C3  1  0.68956965  0.34071615  0.33239549  1
  C  C4  1  0.31558051  0.65450150  0.15820784  1
  C  C5  1  0.32695463  0.64990553  0.66512416  1
  C  C6  1  0.66903501  0.34998066  0.97816843  1
  C  C7  1  0.31181888  0.65235239  0.30952370  1
  C  C8  1  0.34481707  0.66772883  0.81066231  1
  Ni  Ni9  1  0.99245235  0.99118873  0.35315353  1
  Ni  Ni10  1  0.01973668  0.00228665  0.85796407  1
  Ni  Ni11  1  0.00623288  0.00883570  0.64669073  1
  Ni  Ni12  1  0.00060288  -0.00023113  0.14341804  1
  Ni  Ni13  1  0.65545055  0.33416845  0.68751131  1
  Ni  Ni14  1  0.69283153  0.33817741  0.18744708  1
  Ni  Ni15  1  0.67434255  0.33919671  0.48071015  1
  Ni  Ni16  1  0.33644269  0.68586663  0.02088283  1
  Ni  Ni17  1  0.32357989  0.67461336  0.51737972  1
  Cu  Cu18  1  0.97700831  0.25435227  0.24972513  1
  Cu  Cu19  1  0.28236642  0.27229943  0.74623850  1
  Cu  Cu20  1  0.97236758  0.63406407  0.08807753  1
  Cu  Cu21  1  0.62898159  0.69136900  0.92052599  1
  Cu  Cu22  1  0.32748798  0.95228071  0.91946092  1
  Cu  Cu23  1  0.03263002  0.67188991  0.42218856  1
  C  C24  1  0.28964375  0.01271370  0.24836348  1
  C  C25  1  0.71928560  0.71069045  0.24934193  1
  C  C26  1  0.98969450  0.71146358  0.74472743  1
  C  C27  1  0.72456372  0.01258678  0.74477367  1
  C  C28  1  0.95068587  0.33107934  0.58345066  1
  C  C29  1  0.38341252  0.04671836  0.58251874  1
  C  C30  1  0.66525586  0.62417721  0.58312652  1
  C  C31  1  0.66779841  0.04332812  0.08717130  1
  C  C32  1  0.37803292  0.33416413  0.08899190  1
  C  C33  1  0.05249754  0.37607836  0.91854158  1
  C  C34  1  0.62098016  0.95611797  0.42125325  1
  C  C35  1  0.33458188  0.37727645  0.42174509  1
  C  C36  1  0.20710711  0.02921800  0.30527294  1
  C  C37  1  0.82624760  0.78584501  0.30513100  1
  C  C38  1  0.96734559  0.15415477  0.31241767  1
  C  C39  1  0.18563466  0.15954081  0.80651214  1
  C  C40  1  0.95716810  0.78427114  0.80066179  1
  C  C41  1  0.81936963  0.03023966  0.80038224  1
  C  C42  1  0.80117197  0.97460221  0.68990114  1
  C  C43  1  0.16909426  0.19585820  0.68472761  1
  C  C44  1  0.01215456  0.82044758  0.68973784  1
  C  C45  1  0.79999790  0.81977638  0.19521405  1
  C  C46  1  0.02414888  0.17992578  0.19042803  1
  C  C47  1  0.17649679  0.96779145  0.19522109  1
  C  C48  1  0.86706139  0.36114577  0.63780229  1
  C  C49  1  0.49328187  0.13213918  0.63660004  1
  C  C50  1  0.63533898  0.51083111  0.63743942  1
  C  C51  1  0.87184406  0.50468224  0.14536834  1
  C  C52  1  0.63529282  0.12757665  0.14110804  1
  C  C53  1  0.49039583  0.35092958  0.14106235  1
  C  C54  1  0.45761476  0.30310818  0.03141218  1
  C  C55  1  0.84063511  0.53668443  0.02738235  1
  C  C56  1  0.69070498  0.15107155  0.03204000  1
  C  C57  1  0.46859407  0.16082519  0.52819753  1
  C  C58  1  0.69600351  0.54033211  0.52862247  1
  C  C59  1  0.84091684  0.30642396  0.52915007  1
  C  C60  1  0.52633407  0.69622403  0.98012510  1
  C  C61  1  0.15833985  0.45845950  0.97221434  1
  C  C62  1  0.29639933  0.82994648  0.97679798  1
  C  C63  1  0.53612258  0.83682708  0.47480473  1
  C  C64  1  0.31162842  0.47152691  0.47465542  1
  C  C65  1  0.16593927  0.70863682  0.47780013  1
  C  C66  1  0.13025001  0.63503220  0.36001115  1
  C  C67  1  0.51365465  0.87566856  0.36598850  1
  C  C68  1  0.37289216  0.49088515  0.36542096  1
  C  C69  1  0.12961798  0.48747931  0.86204919  1
  C  C70  1  0.35700051  0.86412224  0.85572808  1
  C  C71  1  0.50255092  0.63402060  0.85762107  1
  C  C72  1  0.01892409  0.84961167  0.40702959  1
  C  C73  1  0.80325599  0.97978084  0.41474491  1
  C  C74  1  0.16924055  0.20177235  0.41420963  1
  C  C75  1  0.02903425  0.19697759  0.90939204  1
  C  C76  1  0.15864266  0.98082747  0.91145988  1
  C  C77  1  0.81658890  0.86615914  0.90436510  1
  C  C78  1  0.96353067  0.16289258  0.58775722  1
  C  C79  1  0.19714532  0.01874185  0.58727238  1
  C  C80  1  0.82961624  0.80746057  0.58937411  1
  C  C81  1  0.98724496  0.83152081  0.09175228  1
  C  C82  1  0.83283089  0.02993824  0.09199402  1
  C  C83  1  0.19644410  0.17189280  0.09137564  1
  C  C84  1  0.71002321  0.17732906  0.73613533  1
  C  C85  1  0.48691650  0.30333894  0.74060059  1
  C  C86  1  0.83317682  0.52545691  0.73674616  1
  C  C87  1  0.68329118  0.52311378  0.24331921  1
  C  C88  1  0.80867143  0.28937434  0.24553105  1
  C  C89  1  0.46617283  0.17687040  0.24123627  1
  C  C90  1  0.65238558  0.50867706  0.92293456  1
  C  C91  1  0.86999497  0.35883205  0.92248261  1
  C  C92  1  0.51769045  0.14710071  0.92419788  1
  C  C93  1  0.63178630  0.13390122  0.42996969  1
  C  C94  1  0.49209411  0.35215155  0.42901360  1
  C  C95  1  0.83888897  0.48899236  0.42763804  1
  C  C96  1  0.36788533  0.49918805  0.08179895  1
  C  C97  1  0.16194741  0.63951067  0.07715745  1
  C  C98  1  0.50847514  0.85995452  0.08252194  1
  C  C99  1  0.37180496  0.86547360  0.57701014  1
  C  C100  1  0.50201799  0.64254795  0.57605758  1
  C  C101  1  0.13686344  0.49305248  0.57697225  1
  C  C102  1  0.32145370  0.85012026  0.25508938  1
  C  C103  1  0.53945182  0.70138341  0.25787414  1
  C  C104  1  0.16934224  0.46923420  0.25683550  1
  C  C105  1  0.30428201  0.48066973  0.75164882  1
  C  C106  1  0.15631781  0.69754575  0.74813427  1
  C  C107  1  0.53478439  0.84874276  0.74727010  1
