# generated using pymatgen
data_Cu(NiC17)2
_symmetry_space_group_name_H-M   'P 1'
_cell_length_a   8.94880087
_cell_length_b   8.91894120
_cell_length_c   23.04533716
_cell_angle_alpha   90.05223896
_cell_angle_beta   89.94560865
_cell_angle_gamma   119.94524850
_symmetry_Int_Tables_number   1
_chemical_formula_structural   Cu(NiC17)2
_chemical_formula_sum   'Cu3 Ni6 C102'
_cell_volume   1593.78939769
_cell_formula_units_Z   3
loop_
 _symmetry_equiv_pos_site_id
 _symmetry_equiv_pos_as_xyz
  1  'x, y, z'
loop_
 _atom_site_type_symbol
 _atom_site_label
 _atom_site_symmetry_multiplicity
 _atom_site_fract_x
 _atom_site_fract_y
 _atom_site_fract_z
 _atom_site_occupancy
  C  C0  1  0.36049940  0.99280031  0.75119627  1
  C  C1  1  0.67268411  0.97233016  0.58552977  1
  C  C2  1  0.67589386  0.70013246  0.08298515  1
  C  C3  1  0.01217192  0.00077349  0.50322717  1
  C  C4  1  0.00812191  0.00344118  0.00292849  1
  C  C5  1  0.67350056  0.34186164  0.83734976  1
  C  C6  1  0.66489727  0.33204052  0.33653734  1
  C  C7  1  0.32697860  0.66655064  0.17104022  1
  C  C8  1  0.32986147  0.65510200  0.67043637  1
  C  C9  1  0.00114714  0.00094783  0.35413519  1
  C  C10  1  0.99363029  0.99895870  0.85450290  1
  C  C11  1  0.66855267  0.33170774  0.68681495  1
  C  C12  1  0.67211130  0.33549895  0.18800328  1
  C  C13  1  0.32544273  0.66614345  0.02015111  1
  C  C14  1  0.32947171  0.66662774  0.51993242  1
  Ni  Ni15  1  0.00291331  0.99857769  0.64883456  1
  Ni  Ni16  1  0.00667011  0.00418190  0.14932445  1
  Ni  Ni17  1  0.66745220  0.33337354  0.98138415  1
  Ni  Ni18  1  0.66402206  0.33359479  0.48050496  1
  Ni  Ni19  1  0.33348077  0.66694258  0.31476511  1
  Ni  Ni20  1  0.33640379  0.66386404  0.81580976  1
  Cu  Cu21  1  0.70800457  0.99728199  0.74791713  1
  Cu  Cu22  1  0.36959481  0.04391630  0.58197183  1
  Cu  Cu23  1  0.95751590  0.62571152  0.08261251  1
  C  C24  1  0.29225025  0.00003930  0.24998197  1
  C  C25  1  0.70825629  0.70956838  0.24918307  1
  C  C26  1  0.00066138  0.29104201  0.24979452  1
  C  C27  1  0.28982647  0.29198506  0.75004419  1
  C  C28  1  0.99764845  0.70716846  0.75081276  1
  C  C29  1  0.95814209  0.33575432  0.58225563  1
  C  C30  1  0.66561652  0.62228874  0.58213378  1
  C  C31  1  0.66617420  0.04362764  0.08288799  1
  C  C32  1  0.37589273  0.33146071  0.08263210  1
  C  C33  1  0.62414784  0.66483879  0.91699788  1
  C  C34  1  0.04179177  0.37547968  0.91558458  1
  C  C35  1  0.33341676  0.96020879  0.91529351  1
  C  C36  1  0.62482483  0.95787379  0.41575224  1
  C  C37  1  0.33409633  0.37678500  0.41531020  1
  C  C38  1  0.04140649  0.66552765  0.41543946  1
  C  C39  1  0.19801568  0.02749149  0.30471192  1
  C  C40  1  0.83003536  0.80226103  0.30330959  1
  C  C41  1  0.97236887  0.17085880  0.30453976  1
  C  C42  1  0.20384798  0.16866390  0.80442663  1
  C  C43  1  0.97156047  0.80043438  0.80539094  1
  C  C44  1  0.83703431  0.02826137  0.80582209  1
  C  C45  1  0.78365112  0.96965257  0.68890928  1
  C  C46  1  0.18699114  0.21386062  0.69536480  1
  C  C47  1  0.03778028  0.81926535  0.69704194  1
  C  C48  1  0.78318296  0.81057263  0.19332787  1
  C  C49  1  0.02668501  0.21333324  0.19520287  1
  C  C50  1  0.18618489  0.97094130  0.19587446  1
  C  C51  1  0.87004443  0.36662927  0.63771140  1
  C  C52  1  0.50118110  0.13321869  0.64124817  1
  C  C53  1  0.63853741  0.50617684  0.63732359  1
  C  C54  1  0.86061034  0.49591350  0.14088596  1
  C  C55  1  0.63507777  0.13072505  0.13801152  1
  C  C56  1  0.49788610  0.36604238  0.13727935  1
  C  C57  1  0.45159726  0.30277866  0.02815708  1
  C  C58  1  0.83858011  0.54629638  0.02728892  1
  C  C59  1  0.69413033  0.14709680  0.02848143  1
  C  C60  1  0.45964490  0.15209299  0.52589240  1
  C  C61  1  0.69782893  0.54819279  0.52813640  1
  C  C62  1  0.84812001  0.30298974  0.52893841  1
  C  C63  1  0.54001037  0.69631400  0.97273741  1
  C  C64  1  0.16237321  0.46791342  0.97067761  1
  C  C65  1  0.30648865  0.83658392  0.96974709  1
  C  C66  1  0.53780174  0.84087421  0.47200951  1
  C  C67  1  0.30356989  0.46553608  0.47049235  1
  C  C68  1  0.16209315  0.69532103  0.47080470  1
  C  C69  1  0.12069674  0.63867778  0.36187421  1
  C  C70  1  0.51738175  0.87702352  0.36254781  1
  C  C71  1  0.35855979  0.48127667  0.36139119  1
  C  C72  1  0.12099691  0.48216011  0.86183595  1
  C  C73  1  0.35910837  0.88340311  0.85984615  1
  C  C74  1  0.52021397  0.64121089  0.86283055  1
  C  C75  1  0.03027501  0.83730958  0.40931186  1
  C  C76  1  0.80747743  0.96849543  0.40874941  1
  C  C77  1  0.16251499  0.19260894  0.40871255  1
  C  C78  1  0.03391620  0.19408713  0.91026242  1
  C  C79  1  0.16329454  0.97023465  0.91068539  1
  C  C80  1  0.80850044  0.83649512  0.90990595  1
  C  C81  1  0.97524548  0.17508236  0.58963586  1
  C  C82  1  0.17881520  0.01120021  0.58813094  1
  C  C83  1  0.81397253  0.80882236  0.58857977  1
  C  C84  1  0.97630204  0.81361631  0.08977969  1
  C  C85  1  0.81717932  0.01043076  0.09054441  1
  C  C86  1  0.19354254  0.18177632  0.08978382  1
  C  C87  1  0.69408434  0.17995585  0.74276958  1
  C  C88  1  0.47178999  0.30115010  0.74394614  1
  C  C89  1  0.82936711  0.52841703  0.74412540  1
  C  C90  1  0.69549833  0.52549998  0.24351242  1
  C  C91  1  0.82781340  0.29989247  0.24405873  1
  C  C92  1  0.47304053  0.17046491  0.24388275  1
  C  C93  1  0.65035699  0.50960195  0.92170164  1
  C  C94  1  0.86085230  0.34658749  0.92248651  1
  C  C95  1  0.48980034  0.13867221  0.92317376  1
  C  C96  1  0.65525054  0.14062641  0.42215576  1
  C  C97  1  0.48826163  0.35016341  0.42135584  1
  C  C98  1  0.86140106  0.51203697  0.42345579  1
  C  C99  1  0.37151358  0.50805323  0.07620882  1
  C  C100  1  0.15038679  0.63890224  0.07498982  1
  C  C101  1  0.49902435  0.85663811  0.07610467  1
  C  C102  1  0.36666978  0.85133447  0.57490177  1
  C  C103  1  0.49574609  0.63717882  0.57574368  1
  C  C104  1  0.14035220  0.50259224  0.57603630  1
  C  C105  1  0.31717453  0.84437806  0.25702211  1
  C  C106  1  0.52794960  0.68331415  0.25638955  1
  C  C107  1  0.15368434  0.47231450  0.25659837  1
  C  C108  1  0.31525668  0.47229329  0.75649845  1
  C  C109  1  0.15625309  0.68671064  0.75841593  1
  C  C110  1  0.51102455  0.84367432  0.75498003  1
