# generated using pymatgen
data_Cu2NiC15
_symmetry_space_group_name_H-M   'P 1'
_cell_length_a   9.33764692
_cell_length_b   9.18618196
_cell_length_c   23.60744618
_cell_angle_alpha   95.59483196
_cell_angle_beta   90.00000000
_cell_angle_gamma   120.54694565
_symmetry_Int_Tables_number   1
_chemical_formula_structural   Cu2NiC15
_chemical_formula_sum   'Cu12 Ni6 C90'
_cell_volume   1732.73163977
_cell_formula_units_Z   6
loop_
 _symmetry_equiv_pos_site_id
 _symmetry_equiv_pos_as_xyz
  1  'x, y, z'
loop_
 _atom_site_type_symbol
 _atom_site_label
 _atom_site_symmetry_multiplicity
 _atom_site_fract_x
 _atom_site_fract_y
 _atom_site_fract_z
 _atom_site_occupancy
  C  C0  1  0.03001702  0.03332443  0.49996688  1
  C  C1  1  0.00330741  0.03332443  -0.00003312  1
  C  C2  1  0.74236192  0.38499220  0.83002052  1
  C  C3  1  0.64263128  0.38499220  0.33002052  1
  C  C4  1  0.34674734  0.71283073  0.15694531  1
  C  C5  1  0.36608239  0.71283073  0.65694531  1
  C  C6  1  0.00412614  0.99628185  0.64085416  1
  C  C7  1  0.99215571  0.99628185  0.14085416  1
  C  C8  1  0.66447199  0.32247053  0.97508093  1
  C  C9  1  0.65799955  0.32247053  0.47508093  1
  C  C10  1  0.33510302  0.65576684  0.30276285  1
  C  C11  1  0.32066283  0.65576684  0.80276285  1
  Ni  Ni12  1  0.29529810  0.00709845  0.24814035  1
  Ni  Ni13  1  0.71180035  0.00709845  0.74814035  1
  Ni  Ni14  1  0.38775150  0.02666983  0.57839423  1
  Ni  Ni15  1  0.63891933  0.02666983  0.07839423  1
  Ni  Ni16  1  0.06969273  0.38366962  0.91399687  1
  Ni  Ni17  1  0.31397588  0.38366962  0.41399687  1
  C  C18  1  0.08015304  0.01061717  0.36158965  1
  C  C19  1  0.93046413  0.01061717  0.86158965  1
  C  C20  1  0.65704721  0.27240220  0.69343865  1
  C  C21  1  0.61535599  0.27240220  0.19343865  1
  C  C22  1  0.30100350  0.68408596  0.01780443  1
  C  C23  1  0.38308146  0.68408596  0.51780443  1
  Cu  Cu24  1  0.72967443  0.68148088  0.24736991  1
  Cu  Cu25  1  0.94216223  0.27978387  0.25051538  1
  Cu  Cu26  1  0.33762164  0.27978387  0.75051538  1
  Cu  Cu27  1  0.95180645  0.68148088  0.74736991  1
  Cu  Cu28  1  0.96961271  0.35872833  0.59024527  1
  Cu  Cu29  1  0.63278704  0.62843913  0.58047310  1
  Cu  Cu30  1  0.99565309  0.62843913  0.08047310  1
  Cu  Cu31  1  0.38911662  0.35872833  0.09024527  1
  Cu  Cu32  1  0.64175050  0.69489395  0.91377455  1
  Cu  Cu33  1  0.26932001  0.92155814  0.92579456  1
  Cu  Cu34  1  0.65223713  0.92155814  0.42579456  1
  Cu  Cu35  1  0.05314245  0.69489395  0.41377455  1
  C  C36  1  0.22497060  0.03716474  0.31299580  1
  C  C37  1  0.82521539  0.76454410  0.30338763  1
  C  C38  1  0.94531535  0.19999826  0.30030252  1
  C  C39  1  0.25468291  0.19999826  0.80030252  1
  C  C40  1  0.93932870  0.76454410  0.80338763  1
  C  C41  1  0.81219414  0.03716474  0.81299580  1
  C  C42  1  0.81883538  -0.00553234  0.69836468  1
  C  C43  1  0.24132065  0.19332827  0.69635091  1
  C  C44  1  -0.02689766  0.77908302  0.69971442  1
  C  C45  1  0.80598068  0.77908302  0.19971442  1
  C  C46  1  0.95200762  0.19332827  0.19635091  1
  C  C47  1  0.17563228  -0.00553234  0.19836468  1
  C  C48  1  0.87324150  0.35461172  0.64349000  1
  C  C49  1  0.50467958  0.11285784  0.64205613  1
  C  C50  1  0.63454750  0.55426897  0.63121984  1
  C  C51  1  0.91972246  0.55426897  0.13121984  1
  C  C52  1  0.60817926  0.11285784  0.14205613  1
  C  C53  1  0.48137121  0.35461172  0.14349000  1
  C  C54  1  0.47319871  0.35003306  0.03817650  1
  C  C55  1  0.89701964  0.54135535  0.02693942  1
  C  C56  1  0.65676720  0.14127290  0.02910298  1
  C  C57  1  0.48450670  0.14127290  0.52910298  1
  C  C58  1  0.64433671  0.54135535  0.52693942  1
  C  C59  1  0.87683535  0.35003306  0.53817650  1
  C  C60  1  0.57377178  0.71994737  0.96672597  1
  C  C61  1  0.20278806  0.49154155  0.97243893  1
  C  C62  1  0.28826072  0.83926412  0.97737097  1
  C  C63  1  0.55100240  0.83926412  0.47737097  1
  C  C64  1  0.28875250  0.49154155  0.47243893  1
  C  C65  1  0.14617459  0.71994737  0.46672597  1
  C  C66  1  0.13032441  0.68175983  0.36138341  1
  C  C67  1  0.54995346  0.83594355  0.37312761  1
  C  C68  1  0.31373809  0.46518340  0.35763867  1
  C  C69  1  0.15144430  0.46518340  0.85763867  1
  C  C70  1  0.28598909  0.83594355  0.87312761  1
  C  C71  1  0.55143442  0.68175983  0.86138341  1
  C  C72  1  0.06137392  0.87466604  0.41492767  1
  C  C73  1  0.80179699  0.90977428  0.42929360  1
  C  C74  1  0.13019784  0.18698494  0.41103829  1
  C  C75  1  0.05678710  0.18698494  0.91103829  1
  C  C76  1  0.10797729  0.90977428  0.92929360  1
  C  C77  1  0.81329213  0.87466604  0.91492767  1
  C  C78  1  -0.00462364  0.20916160  0.58438525  1
  C  C79  1  0.19993408  0.98860916  0.58230553  1
  C  C80  1  0.75586916  0.81085688  0.57960815  1
  C  C81  1  0.05498771  0.81085688  0.07960815  1
  C  C82  1  0.78867508  0.98860916  0.08230553  1
  C  C83  1  0.21378524  0.20916160  0.08438525  1
  C  C84  1  0.72147669  0.19456632  0.74820788  1
  C  C85  1  0.49829851  0.27066339  0.74826185  1
  C  C86  1  0.78492178  0.51017421  0.73877088  1
  C  C87  1  0.72525343  0.51017421  0.23877088  1
  C  C88  1  0.77236588  0.27066339  0.24826185  1
  C  C89  1  0.47309063  0.19456632  0.24820788  1
  C  C90  1  0.68778263  0.56409897  0.91244654  1
  C  C91  1  0.88194602  0.34781680  0.91892248  1
  C  C92  1  0.40705548  0.09879046  0.93149666  1
  C  C93  1  0.69173598  0.09879046  0.43149666  1
  C  C94  1  0.46587178  0.34781680  0.41892248  1
  C  C95  1  0.87631734  0.56409897  0.41244654  1
  C  C96  1  0.38569469  0.51710011  0.09722026  1
  C  C97  1  0.15471788  0.61235165  0.07656592  1
  C  C98  1  0.45978318  0.83300653  0.06798514  1
  C  C99  1  0.37322236  0.83300653  0.56798514  1
  C  C100  1  0.45763277  0.61235165  0.57656592  1
  C  C101  1  0.13140443  0.51710011  0.59722026  1
  C  C102  1  0.33271635  0.85411817  0.24747887  1
  C  C103  1  0.55621066  0.64449864  0.25064338  1
  C  C104  1  0.07410480  0.46104201  0.25248767  1
  C  C105  1  0.38693621  0.46104201  0.75248767  1
  C  C106  1  0.08828698  0.64449864  0.75064338  1
  C  C107  1  0.52140082  0.85411817  0.74747887  1
