# generated using pymatgen
data_Cu2NiC34
_symmetry_space_group_name_H-M   'P 1'
_cell_length_a   8.68852959
_cell_length_b   8.75273761
_cell_length_c   8.67521902
_cell_angle_alpha   60.29836544
_cell_angle_beta   60.13450234
_cell_angle_gamma   62.75521760
_symmetry_Int_Tables_number   1
_chemical_formula_structural   Cu2NiC34
_chemical_formula_sum   'Cu2 Ni1 C34'
_cell_volume   477.04844922
_cell_formula_units_Z   1
loop_
 _symmetry_equiv_pos_site_id
 _symmetry_equiv_pos_as_xyz
  1  'x, y, z'
loop_
 _atom_site_type_symbol
 _atom_site_label
 _atom_site_symmetry_multiplicity
 _atom_site_fract_x
 _atom_site_fract_y
 _atom_site_fract_z
 _atom_site_occupancy
  C  C0  1  0.37292500  0.88023700  0.87044300  1
  Ni  Ni1  1  0.53520000  0.15603300  0.15373500  1
  Cu  Cu2  1  0.97261500  0.01444200  0.00761200  1
  Cu  Cu3  1  0.49923100  0.49470500  0.50573400  1
  C  C4  1  0.10514700  0.62818400  0.63081900  1
  C  C5  1  0.74943100  0.75099600  0.75321500  1
  C  C6  1  0.93105100  0.35416700  0.35606500  1
  C  C7  1  0.23199300  0.25403800  0.54539500  1
  C  C8  1  0.22183700  0.97366800  0.25029200  1
  C  C9  1  0.24586700  0.53705300  0.96062100  1
  C  C10  1  0.72140800  0.45991900  0.06467900  1
  C  C11  1  0.74394300  0.05169500  0.75869500  1
  C  C12  1  0.73080000  0.75842900  0.45436200  1
  C  C13  1  0.05608000  0.11331200  0.33447400  1
  C  C14  1  0.06944800  0.47826100  0.10208100  1
  C  C15  1  0.06248600  0.34583000  0.48711000  1
  C  C16  1  0.19203200  0.09902600  0.74115100  1
  C  C17  1  0.40514400  0.16850900  0.39806000  1
  C  C18  1  0.28586400  0.39844000  0.54959000  1
  C  C19  1  0.18932200  0.96910100  0.09219700  1
  C  C20  1  0.26046300  0.78121300  0.39728700  1
  C  C21  1  0.56551200  0.62982000  0.00307500  1
  C  C22  1  0.29011000  0.54409700  0.75940800  1
  C  C23  1  0.72006700  0.27467100  0.08584400  1
  C  C24  1  0.57687000  0.98928100  0.81087700  1
  C  C25  1  0.40595100  0.02765300  0.16492800  1
  C  C26  1  0.21981500  0.72309000  0.95679400  1
  C  C27  1  0.71392500  0.44191300  0.25418000  1
  C  C28  1  0.41845500  0.38791700  0.01494100  1
  C  C29  1  0.73978600  0.23551700  0.59633000  1
  C  C30  1  0.74736500  0.07156400  0.92595800  1
  C  C31  1  0.71576500  0.59662000  0.44225900  1
  C  C32  1  0.56979100  0.80952300  0.62872600  1
  C  C33  1  0.74121100  0.92466100  0.26572000  1
  C  C34  1  0.90347200  0.70799900  0.50303100  1
  C  C35  1  0.89803000  0.50633000  0.88987000  1
  C  C36  1  0.91033800  0.88396200  0.71412700  1
