# generated using pymatgen
data_Cu12Ni3C67
_symmetry_space_group_name_H-M   'P 1'
_cell_length_a   18.01692246
_cell_length_b   9.00976643
_cell_length_c   22.10100232
_cell_angle_alpha   90.03787364
_cell_angle_beta   89.86476973
_cell_angle_gamma   120.07947070
_symmetry_Int_Tables_number   1
_chemical_formula_structural   Cu12Ni3C67
_chemical_formula_sum   'Cu36 Ni9 C201'
_cell_volume   3104.46748215
_cell_formula_units_Z   3
loop_
 _symmetry_equiv_pos_site_id
 _symmetry_equiv_pos_as_xyz
  1  'x, y, z'
loop_
 _atom_site_type_symbol
 _atom_site_label
 _atom_site_symmetry_multiplicity
 _atom_site_fract_x
 _atom_site_fract_y
 _atom_site_fract_z
 _atom_site_occupancy
  C  C0  1  0.31977727  0.01033693  0.24643664  1
  C  C1  1  0.81475858  0.00884005  0.24488980  1
  C  C2  1  0.19017999  0.37097481  0.24449524  1
  C  C3  1  0.68556041  0.36085343  0.24697044  1
  C  C4  1  0.99532363  0.62328806  0.24552173  1
  C  C5  1  0.49433859  0.62554632  0.24631534  1
  C  C6  1  0.31730401  0.62546488  0.74599132  1
  C  C7  1  0.81707034  0.62505165  0.74630050  1
  C  C8  1  0.99488426  0.36582801  0.74655385  1
  C  C9  1  0.49477557  0.36541164  0.74630723  1
  C  C10  1  0.18842657  0.00967953  0.74613976  1
  C  C11  1  0.68798307  0.00938678  0.74598704  1
  C  C12  1  0.15183188  0.34558389  0.57911978  1
  C  C13  1  0.65118936  0.34349457  0.57895935  1
  C  C14  1  0.02091901  0.69690772  0.57872817  1
  C  C15  1  0.52022503  0.69691880  0.57901182  1
  C  C16  1  0.32808306  0.95803038  0.57890610  1
  C  C17  1  0.82764880  0.95821435  0.57971793  1
  C  C18  1  0.15277036  0.95996970  0.07922097  1
  C  C19  1  0.65134611  0.95907318  0.07993472  1
  C  C20  1  0.32866271  0.69895442  0.08049707  1
  C  C21  1  0.82755451  0.69636865  0.07969779  1
  C  C22  1  0.02034482  0.34446443  0.07867871  1
  C  C23  1  0.51995524  0.34302943  0.07965313  1
  C  C24  1  0.34907945  0.03176048  0.92045541  1
  C  C25  1  0.84894728  0.03179628  0.92034741  1
  C  C26  1  0.48355432  0.29153758  0.41421774  1
  C  C27  1  0.66074623  0.03425153  0.41392149  1
  C  C28  1  0.35542248  0.67855892  0.41456015  1
  C  C29  1  0.84718370  0.66402965  0.41819145  1
  C  C30  1  0.00473758  0.00919914  0.49704075  1
  C  C31  1  0.49946216  0.00000661  0.49269449  1
  C  C32  1  0.00462236  0.99961546  0.99765401  1
  C  C33  1  0.50445481  0.99972913  0.99891367  1
  C  C34  1  0.33308967  0.34065841  0.83247268  1
  C  C35  1  0.83303796  0.34062148  0.83240026  1
  C  C36  1  0.33052518  0.32781358  0.32892318  1
  C  C37  1  0.83581988  0.33084450  0.32905316  1
  C  C38  1  0.16775631  0.66731857  0.16039024  1
  C  C39  1  0.66596524  0.66648653  0.16018751  1
  C  C40  1  0.16716113  0.66701951  0.66077296  1
  C  C41  1  0.66655524  0.66688152  0.66073146  1
  C  C42  1  0.00306418  0.00481186  0.35610027  1
  C  C43  1  0.00221946  0.00007545  0.85684392  1
  C  C44  1  0.50217135  -0.00002541  0.85689073  1
  C  C45  1  0.99960823  0.99916864  0.64446061  1
  C  C46  1  0.49986290  0.99976700  0.64358734  1
  C  C47  1  0.99962539  0.00012694  0.14386814  1
  C  C48  1  0.49980839  0.00012982  0.14608934  1
  C  C49  1  0.33342132  0.33809206  0.97818537  1
  C  C50  1  0.83318233  0.33832054  0.97806500  1
  C  C51  1  0.33035466  0.32835222  0.47804875  1
  C  C52  1  0.83625870  0.33317502  0.47848608  1
  C  C53  1  0.16806496  0.66952013  0.31385444  1
  C  C54  1  0.66500321  0.66477012  0.31292898  1
  C  C55  1  0.16627181  0.66540347  0.81426094  1
  C  C56  1  0.66602760  0.66510924  0.81423989  1
  Ni  Ni57  1  0.49942407  0.00004116  0.35287709  1
  Ni  Ni58  1  0.33355707  0.33332377  0.68546314  1
  Ni  Ni59  1  0.83311772  0.33279327  0.68542866  1
  Ni  Ni60  1  0.33453928  0.33482312  0.18557301  1
  Ni  Ni61  1  0.83182516  0.33184107  0.18540571  1
  Ni  Ni62  1  0.16658479  0.66694708  0.02153040  1
  Ni  Ni63  1  0.66619887  0.66628360  0.02151208  1
  Ni  Ni64  1  0.16741695  0.66798447  0.52073557  1
  Ni  Ni65  1  0.66537857  0.66503857  0.52007206  1
  Cu  Cu66  1  0.14947360  0.00621892  0.24784355  1
  Cu  Cu67  1  0.64564463  0.00681221  0.25296506  1
  Cu  Cu68  1  0.35747766  0.70769539  0.25314685  1
  Cu  Cu69  1  0.85412575  0.70172527  0.24981574  1
  Cu  Cu70  1  0.99704249  0.29156869  0.24899089  1
  Cu  Cu71  1  0.49620458  0.28486412  0.25300345  1
  Cu  Cu72  1  0.14902791  0.29216348  0.74835172  1
  Cu  Cu73  1  0.64889440  0.29181004  0.74823928  1
  Cu  Cu74  1  0.99684596  0.70204236  0.74892657  1
  Cu  Cu75  1  0.49688738  0.70255078  0.74875076  1
  Cu  Cu76  1  0.35426614  0.00638932  0.74967821  1
  Cu  Cu77  1  0.85397923  0.00630656  0.74985739  1
  Cu  Cu78  1  0.47871087  0.34117100  0.58531689  1
  Cu  Cu79  1  0.97983731  0.34110935  0.58696901  1
  Cu  Cu80  1  0.19102443  0.04096827  0.58689028  1
  Cu  Cu81  1  0.69174069  0.04247417  0.58533856  1
  Cu  Cu82  1  0.32966421  0.61636943  0.58554018  1
  Cu  Cu83  1  0.82933135  0.61676518  0.58576257  1
  Cu  Cu84  1  0.47935156  0.61823023  0.08643490  1
  Cu  Cu85  1  0.97895066  0.61658332  0.08669429  1
  Cu  Cu86  1  0.33008780  0.04312648  0.08557998  1
  Cu  Cu87  1  0.82965964  0.04332738  0.08516133  1
  Cu  Cu88  1  0.19195194  0.34091838  0.08625971  1
  Cu  Cu89  1  0.69110039  0.34019997  0.08630828  1
  Cu  Cu90  1  0.30828425  0.66423420  0.92061817  1
  Cu  Cu91  1  0.80822380  0.66447893  0.92057535  1
  Cu  Cu92  1  0.02467987  0.38259731  0.92160304  1
  Cu  Cu93  1  0.52463924  0.38231701  0.92159730  1
  Cu  Cu94  1  0.16542945  0.94989919  0.92170260  1
  Cu  Cu95  1  0.66535885  0.94969506  0.92171948  1
  Cu  Cu96  1  0.31278336  0.95282658  0.42016063  1
  Cu  Cu97  1  0.80899397  0.95039971  0.42029990  1
  Cu  Cu98  1  0.16512915  0.38245475  0.42149545  1
  Cu  Cu99  1  0.66301826  0.37364860  0.41980108  1
  Cu  Cu100  1  0.02607921  0.66856185  0.42089433  1
  Cu  Cu101  1  0.52336858  0.67380257  0.42033002  1
  C  C102  1  0.09837944  0.03254592  0.30548579  1
  C  C103  1  0.59893109  0.03453519  0.31093181  1
  C  C104  1  0.41774089  0.80166939  0.31104726  1
  C  C105  1  0.91547380  0.79667849  0.30887027  1
  C  C106  1  0.48285516  0.16425069  0.31090263  1
  C  C107  1  0.98317170  0.16162149  0.30606545  1
  C  C108  1  0.09799829  0.16272005  0.80532582  1
  C  C109  1  0.59811317  0.16281457  0.80536341  1
  C  C110  1  0.48266159  0.80358690  0.80573393  1
  C  C111  1  0.98258239  0.80367525  0.80568265  1
  C  C112  1  0.41549839  0.03451697  0.80850664  1
  C  C113  1  0.91554448  0.03459330  0.80845363  1
  C  C114  1  0.39985981  0.96700280  0.69112076  1
  C  C115  1  0.89961622  0.96697479  0.69119990  1
  C  C116  1  0.08451725  0.20260874  0.68967720  1
  C  C117  1  0.58468015  0.20288809  0.68954946  1
  C  C118  1  0.01687901  0.83118897  0.69002249  1
  C  C119  1  0.51705347  0.83160978  0.68993362  1
  C  C120  1  0.39974301  0.83320293  0.19227132  1
  C  C121  1  0.89990473  0.83212656  0.19143861  1
  C  C122  1  0.01674779  0.20202162  0.19024650  1
  C  C123  1  0.51676473  0.20045680  0.19219797  1
  C  C124  1  0.08453812  0.96650977  0.18979503  1
  C  C125  1  0.58331990  0.96663095  0.19213906  1
  C  C126  1  0.43310758  0.36851748  0.64415854  1
  C  C127  1  0.93345612  0.36824290  0.64525330  1
  C  C128  1  0.25039624  0.13223903  0.64541193  1
  C  C129  1  0.75130128  0.13409402  0.64393725  1
  C  C130  1  0.31601389  0.49709871  0.64414341  1
  C  C131  1  0.81616542  0.49795980  0.64430057  1
  C  C132  1  0.43375085  0.49960400  0.14530670  1
  C  C133  1  0.93314619  0.49816432  0.14558937  1
  C  C134  1  0.31609730  0.13498972  0.14429504  1
  C  C135  1  0.81655243  0.13515701  0.14418487  1
  C  C136  1  0.25073680  0.36818894  0.14528994  1
  C  C137  1  0.75056523  0.36925812  0.14517434  1
  C  C138  1  0.23507805  0.29737609  0.02735606  1
  C  C139  1  0.73559145  0.29823844  0.02760250  1
  C  C140  1  0.41444364  0.52844263  0.02761190  1
  C  C141  1  0.91430538  0.52867649  0.02775766  1
  C  C142  1  0.35053649  0.16559490  0.02476301  1
  C  C143  1  0.85127078  0.16595238  0.02448792  1
  C  C144  1  0.23502746  0.17136775  0.52787680  1
  C  C145  1  0.73330036  0.16794878  0.52504724  1
  C  C146  1  0.35087595  0.53419470  0.52512208  1
  C  C147  1  0.85026100  0.53443114  0.52502963  1
  C  C148  1  0.41630950  0.29956566  0.52515931  1
  C  C149  1  0.91457923  0.29979862  0.52791515  1
  C  C150  1  0.26485582  0.70027210  0.97818276  1
  C  C151  1  0.76498842  0.70046525  0.97825888  1
  C  C152  1  0.08253122  0.47264276  0.97977750  1
  C  C153  1  0.58260459  0.47248770  0.97964958  1
  C  C154  1  0.15385841  0.83570638  0.98017727  1
  C  C155  1  0.65416459  0.83577438  0.98015486  1
  C  C156  1  0.26613516  0.83111134  0.47793436  1
  C  C157  1  0.76478362  0.82944539  0.47840193  1
  C  C158  1  0.15384672  0.47193693  0.48057605  1
  C  C159  1  0.64964393  0.46826592  0.47772355  1
  C  C160  1  0.08224296  0.69185825  0.47991334  1
  C  C161  1  0.58472933  0.70216792  0.47773614  1
  C  C162  1  0.06796740  0.64092372  0.35789067  1
  C  C163  1  0.56723898  0.63545418  0.35934284  1
  C  C164  1  0.25248636  0.86453146  0.35835754  1
  C  C165  1  0.75078509  0.86608307  0.35820136  1
  C  C166  1  0.18094128  0.49786771  0.35890984  1
  C  C167  1  0.68285286  0.50007046  0.35902641  1
  C  C168  1  0.06818537  0.49444663  0.85823365  1
  C  C169  1  0.56818659  0.49449620  0.85825033  1
  C  C170  1  0.18036738  0.86323103  0.85881367  1
  C  C171  1  0.68059214  0.86346912  0.85878378  1
  C  C172  1  0.25252206  0.64084327  0.85741598  1
  C  C173  1  0.75256552  0.64094983  0.85737240  1
  C  C174  1  0.01021767  0.83375503  0.41267649  1
  C  C175  1  0.51251142  0.84132961  0.41161527  1
  C  C176  1  0.40774778  0.97408001  0.41150409  1
  C  C177  1  0.90341646  0.96568787  0.41232324  1
  C  C178  1  0.08159101  0.18929177  0.41263081  1
  C  C179  1  0.57891453  0.18430864  0.41138560  1
  C  C180  1  0.01060797  0.18681774  0.91253672  1
  C  C181  1  0.51061025  0.18674392  0.91247445  1
  C  C182  1  0.08098405  0.97243972  0.91231358  1
  C  C183  1  0.58101993  0.97237618  0.91234926  1
  C  C184  1  0.40269376  0.84048931  0.91151755  1
  C  C185  1  0.90275233  0.84065616  0.91155873  1
  C  C186  1  0.48663978  0.16373098  0.58815911  1
  C  C187  1  0.98657795  0.16273767  0.58808458  1
  C  C188  1  0.09478845  0.02623771  0.58827555  1
  C  C189  1  0.59526395  0.02692580  0.58818231  1
  C  C190  1  0.41848065  0.81003313  0.58831641  1
  C  C191  1  0.91823400  0.81025407  0.58826267  1
  C  C192  1  0.48701053  0.81081090  0.08813316  1
  C  C193  1  0.98650145  0.80969523  0.08825402  1
  C  C194  1  0.41852469  0.02625469  0.08868243  1
  C  C195  1  0.91830152  0.02603084  0.08842480  1
  C  C196  1  0.09503252  0.16340405  0.08832611  1
  C  C197  1  0.59480563  0.16307922  0.08839703  1
  C  C198  1  0.34528644  0.17557803  0.74357350  1
  C  C199  1  0.84506843  0.17537610  0.74352154  1
  C  C200  1  0.24239439  0.30959548  0.74365286  1
  C  C201  1  0.74235265  0.30923885  0.74353704  1
  C  C202  1  0.41215251  0.51550633  0.74365037  1
  C  C203  1  0.91197382  0.51546556  0.74372676  1
  C  C204  1  0.34572639  0.51759604  0.24480290  1
  C  C205  1  0.84532165  0.51476943  0.24422760  1
  C  C206  1  0.41306951  0.30857630  0.24482128  1
  C  C207  1  0.91193639  0.30754672  0.24432615  1
  C  C208  1  0.24272680  0.17604221  0.24395002  1
  C  C209  1  0.74093277  0.17354742  0.24447467  1
  C  C210  1  0.31956215  0.49518514  0.92105610  1
  C  C211  1  0.81968107  0.49555182  0.92102525  1
  C  C212  1  0.42655822  0.35240872  0.92139689  1
  C  C213  1  0.92658013  0.35262909  0.92145908  1
  C  C214  1  0.25390314  0.13837370  0.92155720  1
  C  C215  1  0.75387505  0.13842012  0.92172008  1
  C  C216  1  0.32389894  0.14712295  0.42157890  1
  C  C217  1  0.81549225  0.13932649  0.42164854  1
  C  C218  1  0.25391631  0.37019116  0.42208231  1
  C  C219  1  0.75145754  0.35938818  0.42175325  1
  C  C220  1  0.42820048  0.49679931  0.42173794  1
  C  C221  1  0.92706880  0.50018303  0.42171805  1
  C  C222  1  0.17950001  0.50688927  0.07837498  1
  C  C223  1  0.67937279  0.50704553  0.07822711  1
  C  C224  1  0.07465666  0.64256123  0.07938012  1
  C  C225  1  0.57479406  0.64255586  0.07908062  1
  C  C226  1  0.24688393  0.85053950  0.07917858  1
  C  C227  1  0.74686657  0.85059690  0.07922557  1
  C  C228  1  0.17916186  0.85105667  0.57849574  1
  C  C229  1  0.67902144  0.85109920  0.57795300  1
  C  C230  1  0.24721754  0.64371314  0.57906527  1
  C  C231  1  0.74625842  0.64157469  0.57839400  1
  C  C232  1  0.07507643  0.50687225  0.57939762  1
  C  C233  1  0.57449684  0.50752555  0.57778811  1
  C  C234  1  0.15497626  0.82992219  0.25310334  1
  C  C235  1  0.65354608  0.83010535  0.25527902  1
  C  C236  1  0.26112074  0.69160817  0.25503753  1
  C  C237  1  0.76012188  0.69084965  0.25361786  1
  C  C238  1  0.08526165  0.47921860  0.25397689  1
  C  C239  1  0.58486399  0.47716826  0.25522922  1
  C  C240  1  0.15476139  0.47990681  0.75304822  1
  C  C241  1  0.65497816  0.48001476  0.75308569  1
  C  C242  1  0.08491453  0.69039976  0.75372238  1
  C  C243  1  0.58485795  0.69022339  0.75377079  1
  C  C244  1  0.25956132  0.82989630  0.75319890  1
  C  C245  1  0.75950468  0.82965411  0.75307198  1
