# generated using pymatgen
data_Cu2NiC12
_symmetry_space_group_name_H-M   'P 1'
_cell_length_a   5.80508372
_cell_length_b   6.17393846
_cell_length_c   6.10686711
_cell_angle_alpha   68.86252263
_cell_angle_beta   95.42279547
_cell_angle_gamma   88.56671935
_symmetry_Int_Tables_number   1
_chemical_formula_structural   Cu2NiC12
_chemical_formula_sum   'Cu2 Ni1 C12'
_cell_volume   202.81975415
_cell_formula_units_Z   1
loop_
 _symmetry_equiv_pos_site_id
 _symmetry_equiv_pos_as_xyz
  1  'x, y, z'
loop_
 _atom_site_type_symbol
 _atom_site_label
 _atom_site_symmetry_multiplicity
 _atom_site_fract_x
 _atom_site_fract_y
 _atom_site_fract_z
 _atom_site_occupancy
  C  C0  1  0.03804171  0.77611111  0.44394636  1
  C  C1  1  0.21975838  0.87742320  0.98854224  1
  C  C2  1  0.39384226  0.35037439  0.69498916  1
  C  C3  1  0.60615774  0.64962561  0.30501084  1
  C  C4  1  0.78024162  0.12257680  0.01145776  1
  C  C5  1  0.96195829  0.22388889  0.55605364  1
  Ni  Ni6  1  0.00000000  0.50000000  0.00000000  1
  Cu  Cu7  1  0.37899774  0.18963059  0.30439163  1
  Cu  Cu8  1  0.62100226  0.81036941  0.69560837  1
  C  C9  1  0.18318425  0.22221750  0.01243561  1
  C  C10  1  0.22970000  0.49997198  0.29233161  1
  C  C11  1  0.30397996  0.95940430  0.61879276  1
  C  C12  1  0.69602004  0.04059570  0.38120624  1
  C  C13  1  0.77030000  0.50002802  0.70766839  1
  C  C14  1  0.81681575  0.77778250  0.98756439  1
