# generated using pymatgen
data_Cu5(NiC)7
_symmetry_space_group_name_H-M   'P 1'
_cell_length_a   5.18122938
_cell_length_b   7.65448282
_cell_length_c   5.73692125
_cell_angle_alpha   99.93803895
_cell_angle_beta   99.91203384
_cell_angle_gamma   83.67026471
_symmetry_Int_Tables_number   1
_chemical_formula_structural   Cu5(NiC)7
_chemical_formula_sum   'Cu5 Ni7 C7'
_cell_volume   220.00303113
_cell_formula_units_Z   1
loop_
 _symmetry_equiv_pos_site_id
 _symmetry_equiv_pos_as_xyz
  1  'x, y, z'
loop_
 _atom_site_type_symbol
 _atom_site_label
 _atom_site_symmetry_multiplicity
 _atom_site_fract_x
 _atom_site_fract_y
 _atom_site_fract_z
 _atom_site_occupancy
  C  C0  1  0.02659442  0.48584539  0.01921962  1
  C  C1  1  0.56880626  0.02415623  0.45916113  1
  C  C2  1  0.49293538  0.32097890  0.83725944  1
  C  C3  1  0.56629798  0.68208837  0.11084194  1
  C  C4  1  -0.02217286  0.68455424  0.65446225  1
  C  C5  1  0.98097062  0.30072767  0.36860055  1
  C  C6  1  0.95508489  0.98612150  0.99391843  1
  Ni  Ni7  1  0.83221589  0.73638258  0.95664500  1
  Ni  Ni8  1  0.79463693  0.08901690  0.28623889  1
  Ni  Ni9  1  0.68725118  0.77854409  0.44363121  1
  Ni  Ni10  1  0.68103406  0.09700815  0.78383857  1
  Ni  Ni11  1  0.69845118  0.42772648  0.12300819  1
  Ni  Ni12  1  0.30767926  0.55544436  0.87136791  1
  Ni  Ni13  1  0.32390322  0.22131538  0.53653098  1
  Cu  Cu14  1  0.83832116  0.43337053  0.66472001  1
  Cu  Cu15  1  0.30671808  0.90302089  0.18563422  1
  Cu  Cu16  1  0.16627353  0.23708955  0.03612032  1
  Cu  Cu17  1  0.15616738  0.89479526  0.71047684  1
  Cu  Cu18  1  0.13882845  0.55014354  0.37499351  1
