# generated using pymatgen
data_CuNi3C16
_symmetry_space_group_name_H-M   'P 1'
_cell_length_a   9.60881704
_cell_length_b   9.60583270
_cell_length_c   24.06418159
_cell_angle_alpha   90.58599528
_cell_angle_beta   90.00000000
_cell_angle_gamma   120.01027773
_symmetry_Int_Tables_number   1
_chemical_formula_structural   CuNi3C16
_chemical_formula_sum   'Cu6 Ni18 C96'
_cell_volume   1923.23073391
_cell_formula_units_Z   6
loop_
 _symmetry_equiv_pos_site_id
 _symmetry_equiv_pos_as_xyz
  1  'x, y, z'
loop_
 _atom_site_type_symbol
 _atom_site_label
 _atom_site_symmetry_multiplicity
 _atom_site_fract_x
 _atom_site_fract_y
 _atom_site_fract_z
 _atom_site_occupancy
  Ni  Ni0  1  0.62389013  0.00825551  0.25452139  1
  Ni  Ni1  1  0.01269742  0.64926891  0.23652479  1
  Ni  Ni2  1  0.63657149  0.64926891  0.73652479  1
  Ni  Ni3  1  0.38436538  0.00825551  0.75452139  1
  Ni  Ni4  1  0.32910026  0.36079881  0.58662309  1
  Ni  Ni5  1  0.64527171  0.93479495  0.57703746  1
  Ni  Ni6  1  0.28952425  0.93479495  0.07703746  1
  Ni  Ni7  1  0.03169955  0.36079881  0.08662309  1
  Ni  Ni8  1  0.99632527  0.69296228  0.92747784  1
  Ni  Ni9  1  0.68386786  0.02775058  0.90175003  1
  Ni  Ni10  1  0.34388172  0.02775058  0.40175003  1
  Ni  Ni11  1  0.69663601  0.69296228  0.42747784  1
  Ni  Ni12  1  0.95923950  0.97930051  0.49393728  1
  Ni  Ni13  1  0.02006101  0.97930051  0.99393728  1
  Ni  Ni14  1  0.65372627  0.29210164  0.82784007  1
  Ni  Ni15  1  0.63837638  0.29210164  0.32784007  1
  Ni  Ni16  1  0.31946523  0.67113953  0.16116125  1
  Ni  Ni17  1  0.35167330  0.67113953  0.66116125  1
  Cu  Cu18  1  0.00800469  0.01389763  0.34791071  1
  Cu  Cu19  1  0.00589294  0.01389763  0.84791071  1
  Cu  Cu20  1  0.67906618  0.33707260  0.68155130  1
  Cu  Cu21  1  0.65800742  0.33707260  0.18155130  1
  Cu  Cu22  1  0.33324375  0.67121924  0.01369850  1
  Cu  Cu23  1  0.33797448  0.67121924  0.51369850  1
  C  C24  1  0.97593857  0.98114174  0.65171919  1
  C  C25  1  0.00520317  0.98114174  0.15171919  1
  C  C26  1  0.65719066  0.33857230  0.98602766  1
  C  C27  1  0.68138264  0.33857230  0.48602766  1
  C  C28  1  0.33663346  0.67270385  0.31978649  1
  C  C29  1  0.33606939  0.67270385  0.81978649  1
  C  C30  1  0.31205822  0.00012285  0.25337712  1
  C  C31  1  0.68806464  0.00012285  0.75337712  1
  C  C32  1  0.65513714  0.63389881  0.58401198  1
  C  C33  1  0.97876267  0.63389881  0.08401198  1
  C  C34  1  0.32965117  0.97342267  0.91807480  1
  C  C35  1  0.64377050  0.97342267  0.41807480  1
  C  C36  1  0.70235869  0.69650860  0.25376181  1
  C  C37  1  0.98983471  0.29910325  0.24759998  1
  C  C38  1  0.30926854  0.29910325  0.74759998  1
  C  C39  1  0.99414990  0.69650860  0.75376181  1
  C  C40  1  0.97935464  0.33692596  0.58548664  1
  C  C41  1  0.36757667  0.03379322  0.58439265  1
  C  C42  1  0.66621755  0.03379322  0.08439265  1
  C  C43  1  0.35757231  0.33692596  0.08548664  1
  C  C44  1  0.64406273  0.67536462  0.91621852  1
  C  C45  1  0.02874633  0.35907945  0.91995807  1
  C  C46  1  0.33033212  0.35907945  0.41995807  1
  C  C47  1  0.03130089  0.67536462  0.41621852  1
  C  C48  1  0.22142279  0.00611967  0.30991178  1
  C  C49  1  0.79714278  0.77960766  0.30398017  1
  C  C50  1  0.97819373  0.19801485  0.29477020  1
  C  C51  1  0.21982112  0.19801485  0.79477020  1
  C  C52  1  0.98246488  0.77960766  0.80398017  1
  C  C53  1  0.78469688  0.00611967  0.80991178  1
  C  C54  1  0.77723204  0.97948146  0.69701819  1
  C  C55  1  0.22152863  0.22717381  0.69431822  1
  C  C56  1  0.02214234  0.79964763  0.70409287  1
  C  C57  1  0.77750528  0.79964763  0.20409287  1
  C  C58  1  0.00564518  0.22717381  0.19431822  1
  C  C59  1  0.20224942  0.97948146  0.19701819  1
  C  C60  1  0.89604989  0.34981353  0.63432129  1
  C  C61  1  0.46967154  0.11570240  0.63380510  1
  C  C62  1  0.64930373  0.53359150  0.63946145  1
  C  C63  1  0.88428877  0.53359150  0.13946145  1
  C  C64  1  0.64603186  0.11570240  0.13380510  1
  C  C65  1  0.45376465  0.34981353  0.13432129  1
  C  C66  1  0.42821743  0.30888032  0.03451640  1
  C  C67  1  0.87935234  0.54284782  0.02631053  1
  C  C68  1  0.68228673  0.12877090  0.03349343  1
  C  C69  1  0.44648517  0.12877090  0.53349343  1
  C  C70  1  0.66349648  0.54284782  0.52631053  1
  C  C71  1  0.88066390  0.30888032  0.53451640  1
  C  C72  1  0.54976873  0.67831617  0.96391210  1
  C  C73  1  0.12203648  0.43725103  0.97114268  1
  C  C74  1  0.31514662  0.86524332  0.97270752  1
  C  C75  1  0.55009570  0.86524332  0.47270752  1
  C  C76  1  0.31521356  0.43725103  0.47114268  1
  C  C77  1  0.12854644  0.67831617  0.46391210  1
  C  C78  1  0.10032635  0.65365171  0.36345228  1
  C  C79  1  0.53537594  0.88672193  0.36025745  1
  C  C80  1  0.34285834  0.45696735  0.37071157  1
  C  C81  1  0.11410801  0.45696735  0.87071157  1
  C  C82  1  0.35134499  0.88672193  0.86025745  1
  C  C83  1  0.55332436  0.65365171  0.86345228  1
  C  C84  1  0.02757961  0.82916933  0.41552309  1
  C  C85  1  0.81608596  0.97632551  0.41453493  1
  C  C86  1  0.19268678  0.19311857  0.41549353  1
  C  C87  1  0.00043179  0.19311857  0.91549353  1
  C  C88  1  0.16023956  0.97632551  0.91453493  1
  C  C89  1  0.80158971  0.82916933  0.91552309  1
  C  C90  1  0.00297745  0.19279382  0.58879210  1
  C  C91  1  0.20925794  0.02649376  0.58866502  1
  C  C92  1  0.80986785  0.82306350  0.58184069  1
  C  C93  1  0.01319566  0.82306350  0.08184069  1
  C  C94  1  0.81723582  0.02649376  0.08866502  1
  C  C95  1  0.18981638  0.19279382  0.08879210  1
  C  C96  1  0.65518698  0.15182221  0.74962376  1
  C  C97  1  0.47140341  0.31221890  0.74672087  1
  C  C98  1  0.84225123  0.54082449  0.74739210  1
  C  C99  1  0.69857427  0.54082449  0.24739210  1
  C  C100  1  0.84081648  0.31221890  0.24672087  1
  C  C101  1  0.49663623  0.15182221  0.24962376  1
  C  C102  1  0.67829582  0.53962883  0.91892833  1
  C  C103  1  0.86722162  0.35016113  0.92078872  1
  C  C104  1  0.50390059  0.14736108  0.91931613  1
  C  C105  1  0.64346150  0.14736108  0.41931613  1
  C  C106  1  0.48294051  0.35016113  0.42078872  1
  C  C107  1  0.86133402  0.53962883  0.41892833  1
  C  C108  1  0.34038165  0.48192566  0.08049313  1
  C  C109  1  0.15829644  0.64642549  0.08406627  1
  C  C110  1  0.52178337  0.87057811  0.08002605  1
  C  C111  1  0.34879374  0.87057811  0.58002605  1
  C  C112  1  0.48812805  0.64642549  0.58406627  1
  C  C113  1  0.14154301  0.48192566  0.58049313  1
  C  C114  1  0.32051149  0.82708556  0.25036887  1
  C  C115  1  0.53651978  0.67255775  0.25627095  1
  C  C116  1  0.13160128  0.46614370  0.25252362  1
  C  C117  1  0.33454142  0.46614370  0.75252362  1
  C  C118  1  0.13603697  0.67255775  0.75627095  1
  C  C119  1  0.50657306  0.82708556  0.75036887  1
