# generated using pymatgen
data_Cu2NiC8
_symmetry_space_group_name_H-M   'P 1'
_cell_length_a   5.45472535
_cell_length_b   5.78209434
_cell_length_c   6.00338419
_cell_angle_alpha   117.98741128
_cell_angle_beta   85.21747369
_cell_angle_gamma   107.56803437
_symmetry_Int_Tables_number   1
_chemical_formula_structural   Cu2NiC8
_chemical_formula_sum   'Cu2 Ni1 C8'
_cell_volume   159.02065766
_cell_formula_units_Z   1
loop_
 _symmetry_equiv_pos_site_id
 _symmetry_equiv_pos_as_xyz
  1  'x, y, z'
loop_
 _atom_site_type_symbol
 _atom_site_label
 _atom_site_symmetry_multiplicity
 _atom_site_fract_x
 _atom_site_fract_y
 _atom_site_fract_z
 _atom_site_occupancy
  C  C0  1  0.38659283  0.22412496  0.60444514  1
  C  C1  1  0.75460900  0.69645669  0.35716936  1
  Ni  Ni2  1  0.98616980  0.53957943  0.77423074  1
  Cu  Cu3  1  0.50900224  0.98668218  0.96090816  1
  Cu  Cu4  1  0.01923375  0.09294773  0.07306485  1
  C  C5  1  0.30115875  0.75383663  0.64791541  1
  C  C6  1  0.18621271  0.85706249  0.12452911  1
  C  C7  1  0.37197401  0.29055979  0.07831739  1
  C  C8  1  0.83374101  0.24497893  0.41409665  1
  C  C9  1  0.85228936  0.22680565  0.89658375  1
  C  C10  1  0.71952055  0.74321553  0.90207245  1
