# generated using pymatgen
data_Cu(NiC3)3
_symmetry_space_group_name_H-M   'P 1'
_cell_length_a   5.88965600
_cell_length_b   6.04536548
_cell_length_c   5.82500363
_cell_angle_alpha   118.75532446
_cell_angle_beta   120.32915763
_cell_angle_gamma   60.85002189
_symmetry_Int_Tables_number   1
_chemical_formula_structural   Cu(NiC3)3
_chemical_formula_sum   'Cu1 Ni3 C9'
_cell_volume   148.54411062
_cell_formula_units_Z   1
loop_
 _symmetry_equiv_pos_site_id
 _symmetry_equiv_pos_as_xyz
  1  'x, y, z'
loop_
 _atom_site_type_symbol
 _atom_site_label
 _atom_site_symmetry_multiplicity
 _atom_site_fract_x
 _atom_site_fract_y
 _atom_site_fract_z
 _atom_site_occupancy
  C  C0  1  0.50000000  0.50000000  0.50000000  1
  Ni  Ni1  1  0.00000000  0.00000000  0.50000000  1
  Ni  Ni2  1  0.50000000  0.00000000  0.00000000  1
  Ni  Ni3  1  0.50000000  0.00000000  0.50000000  1
  Cu  Cu4  1  0.00000000  0.00000000  0.00000000  1
  C  C5  1  0.29170800  0.21087700  0.24956400  1
  C  C6  1  0.26645100  0.19704800  0.73010900  1
  C  C7  1  0.74747500  0.21035300  0.24888400  1
  C  C8  1  0.75763400  0.20229700  0.71771000  1
  C  C9  1  0.24236600  0.79770300  0.28229000  1
  C  C10  1  0.25252500  0.78964700  0.75111600  1
  C  C11  1  0.73354900  0.80295200  0.26989100  1
  C  C12  1  0.70829200  0.78912300  0.75043600  1
