# generated using pymatgen
data_Cu2NiC2
_symmetry_space_group_name_H-M   'P 1'
_cell_length_a   3.23284500
_cell_length_b   3.23280117
_cell_length_c   36.61266600
_cell_angle_alpha   89.99965493
_cell_angle_beta   90.00000000
_cell_angle_gamma   120.00045870
_symmetry_Int_Tables_number   1
_chemical_formula_structural   Cu2NiC2
_chemical_formula_sum   'Cu4 Ni2 C4'
_cell_volume   331.37813980
_cell_formula_units_Z   2
loop_
 _symmetry_equiv_pos_site_id
 _symmetry_equiv_pos_as_xyz
  1  'x, y, z'
loop_
 _atom_site_type_symbol
 _atom_site_label
 _atom_site_symmetry_multiplicity
 _atom_site_fract_x
 _atom_site_fract_y
 _atom_site_fract_z
 _atom_site_occupancy
  C  C0  1  0.33333900  0.66667900  0.22601100  1
  C  C1  1  0.33331400  0.66662900  0.10515400  1
  C  C2  1  0.33327800  0.66655800  0.57835000  1
  C  C3  1  0.66671400  0.33342700  0.35268000  1
  Ni  Ni4  1  0.33335800  0.66671900  0.39936000  1
  Ni  Ni5  1  0.33340500  0.66681300  0.30583400  1
  Cu  Cu6  1  0.66664900  0.33329600  0.06291900  1
  Cu  Cu7  1  0.66661300  0.33322400  0.53603400  1
  Cu  Cu8  1  0.66664100  0.33328200  0.14788600  1
  Cu  Cu9  1  0.66662100  0.33324000  0.62066700  1
