# generated using pymatgen
data_Cu4NiC11
_symmetry_space_group_name_H-M   'P 1'
_cell_length_a   3.75463509
_cell_length_b   6.32916424
_cell_length_c   8.97465031
_cell_angle_alpha   78.93821885
_cell_angle_beta   89.35706776
_cell_angle_gamma   72.88972465
_symmetry_Int_Tables_number   1
_chemical_formula_structural   Cu4NiC11
_chemical_formula_sum   'Cu4 Ni1 C11'
_cell_volume   199.81189456
_cell_formula_units_Z   1
loop_
 _symmetry_equiv_pos_site_id
 _symmetry_equiv_pos_as_xyz
  1  'x, y, z'
loop_
 _atom_site_type_symbol
 _atom_site_label
 _atom_site_symmetry_multiplicity
 _atom_site_fract_x
 _atom_site_fract_y
 _atom_site_fract_z
 _atom_site_occupancy
  C  C0  1  0.50000000  0.00000000  0.50000000  1
  Ni  Ni1  1  0.00000000  0.50000000  0.50000000  1
  Cu  Cu2  1  0.08224000  0.82257200  0.15520500  1
  Cu  Cu3  1  0.21312300  0.57679500  0.84718700  1
  Cu  Cu4  1  0.78687700  0.42320500  0.15281300  1
  Cu  Cu5  1  0.91776000  0.17742800  0.84479500  1
  C  C6  1  0.06464900  0.87417500  0.90266500  1
  C  C7  1  0.08593600  0.76318700  0.35353000  1
  C  C8  1  0.14023900  0.66426600  0.65226500  1
  C  C9  1  0.61689700  0.75138500  0.13738800  1
  C  C10  1  0.75026700  0.50155400  0.89415600  1
  C  C11  1  0.24973300  0.49844600  0.10584400  1
  C  C12  1  0.38310300  0.24861500  0.86261200  1
  C  C13  1  0.85976100  0.33573400  0.34773500  1
  C  C14  1  0.91406400  0.23681300  0.64647000  1
  C  C15  1  0.93535100  0.12582500  0.09733500  1
