# generated using pymatgen
data_Cu2Ni2C17
_symmetry_space_group_name_H-M   'P 1'
_cell_length_a   5.60868929
_cell_length_b   5.70008299
_cell_length_c   8.71819535
_cell_angle_alpha   90.94508249
_cell_angle_beta   96.45890017
_cell_angle_gamma   85.54031561
_symmetry_Int_Tables_number   1
_chemical_formula_structural   Cu2Ni2C17
_chemical_formula_sum   'Cu2 Ni2 C17'
_cell_volume   276.10459072
_cell_formula_units_Z   1
loop_
 _symmetry_equiv_pos_site_id
 _symmetry_equiv_pos_as_xyz
  1  'x, y, z'
loop_
 _atom_site_type_symbol
 _atom_site_label
 _atom_site_symmetry_multiplicity
 _atom_site_fract_x
 _atom_site_fract_y
 _atom_site_fract_z
 _atom_site_occupancy
  C  C0  1  0.03417000  0.93701600  0.73030200  1
  C  C1  1  0.42321700  0.41494300  0.80620500  1
  C  C2  1  0.94676300  0.05978600  0.26694900  1
  C  C3  1  0.51915100  0.55959000  0.20761300  1
  C  C4  1  0.72672600  0.49148200  0.57503700  1
  Ni  Ni5  1  0.50174200  0.00873500  0.49892000  1
  Ni  Ni6  1  0.96819100  0.51242200  0.99960000  1
  Cu  Cu7  1  0.14608000  0.53202900  0.44318500  1
  Cu  Cu8  1  0.44388300  0.01032000  0.04575200  1
  C  C9  1  0.83909800  0.59350100  0.79000400  1
  C  C10  1  0.67466400  0.15093000  0.67764800  1
  C  C11  1  0.12229800  0.42432000  0.21598300  1
  C  C12  1  0.35072700  0.92652500  0.28801800  1
  C  C13  1  0.83579200  0.77714300  0.46452200  1
  C  C14  1  0.67531500  0.29896500  0.03583200  1
  C  C15  1  0.18573000  0.20525300  0.55897100  1
  C  C16  1  0.26749900  0.70302200  0.96409700  1
  C  C17  1  0.16089000  0.20275200  0.91772400  1
  C  C18  1  0.38345700  0.69761800  0.60047200  1
  C  C19  1  0.77325900  0.79643500  0.09982500  1
  C  C20  1  0.65884400  0.29096300  0.38834100  1
