# generated using pymatgen
data_Cu9Ni3C58
_symmetry_space_group_name_H-M   'P 1'
_cell_length_a   17.32710857
_cell_length_b   8.66668698
_cell_length_c   22.51637733
_cell_angle_alpha   89.82904191
_cell_angle_beta   90.70140194
_cell_angle_gamma   120.00640285
_symmetry_Int_Tables_number   1
_chemical_formula_structural   Cu9Ni3C58
_chemical_formula_sum   'Cu27 Ni9 C174'
_cell_volume   2927.82381374
_cell_formula_units_Z   3
loop_
 _symmetry_equiv_pos_site_id
 _symmetry_equiv_pos_as_xyz
  1  'x, y, z'
loop_
 _atom_site_type_symbol
 _atom_site_label
 _atom_site_symmetry_multiplicity
 _atom_site_fract_x
 _atom_site_fract_y
 _atom_site_fract_z
 _atom_site_occupancy
  C  C0  1  0.99529402  0.00655092  0.50008287  1
  C  C1  1  0.49589818  0.98682975  0.00431064  1
  C  C2  1  0.32964057  0.32520054  0.84212521  1
  C  C3  1  0.82604707  0.32979824  0.83441705  1
  C  C4  1  0.32908519  0.32398557  0.33284232  1
  C  C5  1  0.82038080  0.31948077  0.33774015  1
  C  C6  1  0.51042319  0.01299762  0.35746996  1
  C  C7  1  0.00340686  0.99828764  0.85990847  1
  C  C8  1  0.50568424  0.02074001  0.64393344  1
  C  C9  1  0.00508431  0.98922546  0.14461579  1
  C  C10  1  0.33859405  0.33565085  0.68822553  1
  C  C11  1  0.83246373  0.33542506  0.68795522  1
  C  C12  1  0.33389195  0.33148506  0.18935029  1
  C  C13  1  0.83531817  0.33529788  0.19152595  1
  C  C14  1  0.16421452  0.67609588  0.02397136  1
  C  C15  1  0.65978067  0.66238422  0.02432551  1
  C  C16  1  0.16017366  0.65916107  0.52274231  1
  C  C17  1  0.66465298  0.65607592  0.52166497  1
  C  C18  1  0.00312194  0.00110621  0.34983967  1
  C  C19  1  0.50385037  0.00595749  0.85086171  1
  C  C20  1  0.99602993  0.00867949  0.64548364  1
  C  C21  1  0.50028220  0.96858420  0.14972652  1
  C  C22  1  0.33215137  0.33180200  0.98258278  1
  C  C23  1  0.83115312  0.33754441  0.98369619  1
  C  C24  1  0.33497411  0.32898541  0.47843139  1
  C  C25  1  0.83370195  0.32469674  0.47710494  1
  C  C26  1  0.16785073  0.67449983  0.31007569  1
  C  C27  1  0.66916606  0.66032892  0.31097234  1
  C  C28  1  0.17151930  0.68584600  0.81746424  1
  C  C29  1  0.66506427  0.65689420  0.81132554  1
  Ni  Ni30  1  0.14457469  0.99346516  0.25759540  1
  Ni  Ni31  1  0.64301469  0.97904609  0.25051074  1
  Ni  Ni32  1  0.64482884  0.29626899  0.75733160  1
  Ni  Ni33  1  0.47392379  0.33321892  0.57823999  1
  Ni  Ni34  1  0.96939815  0.31558713  0.58141174  1
  Ni  Ni35  1  0.46788345  0.62387149  0.08040854  1
  Ni  Ni36  1  0.97187378  0.61300581  0.07970695  1
  Ni  Ni37  1  0.18037695  0.97169376  0.91573261  1
  Ni  Ni38  1  0.67903328  0.39144497  0.41440575  1
  Cu  Cu39  1  0.35192551  0.71622748  0.25117380  1
  Cu  Cu40  1  0.85463425  0.71989959  0.25411068  1
  Cu  Cu41  1  0.00547511  0.29192299  0.25591757  1
  Cu  Cu42  1  0.50515582  0.28844707  0.24838612  1
  Cu  Cu43  1  0.14118134  0.29729564  0.75033716  1
  Cu  Cu44  1  0.00722617  0.72148516  0.74876494  1
  Cu  Cu45  1  0.50325988  0.71639555  0.75616832  1
  Cu  Cu46  1  0.35172889  0.98498868  0.75440586  1
  Cu  Cu47  1  0.85304258  0.98830264  0.75046115  1
  Cu  Cu48  1  0.18583939  0.05109766  0.58209645  1
  Cu  Cu49  1  0.69175648  0.05189990  0.57925460  1
  Cu  Cu50  1  0.33435955  0.61474096  0.57978840  1
  Cu  Cu51  1  0.84114707  0.63264171  0.58292350  1
  Cu  Cu52  1  0.34153277  0.05225385  0.08297483  1
  Cu  Cu53  1  0.83470042  0.05475301  0.07987899  1
  Cu  Cu54  1  0.19154893  0.33068802  0.07954714  1
  Cu  Cu55  1  0.68662052  0.32154089  0.08098038  1
  Cu  Cu56  1  0.31585310  0.67257357  0.91189547  1
  Cu  Cu57  1  0.80550739  0.65326452  0.91581145  1
  Cu  Cu58  1  0.01891859  0.38581518  0.91405359  1
  Cu  Cu59  1  0.52149524  0.37258668  0.91309958  1
  Cu  Cu60  1  0.66722598  0.95982374  0.91360731  1
  Cu  Cu61  1  0.30662996  0.95835203  0.41570856  1
  Cu  Cu62  1  0.81785053  0.96236920  0.41345604  1
  Cu  Cu63  1  0.16782664  0.37458067  0.41429811  1
  Cu  Cu64  1  0.02056701  0.66862401  0.41298829  1
  Cu  Cu65  1  0.51533797  0.65064326  0.41564925  1
  C  C66  1  0.09546496  0.03149623  0.31125695  1
  C  C67  1  0.60143724  0.02673053  0.30817607  1
  C  C68  1  0.40790545  0.79421691  0.30433865  1
  C  C69  1  0.91207209  0.80469787  0.30669615  1
  C  C70  1  0.48448280  0.17481195  0.30208056  1
  C  C71  1  0.98526425  0.17090192  0.30726776  1
  C  C72  1  0.10178866  0.18155189  0.80320859  1
  C  C73  1  0.59508015  0.15897094  0.81084569  1
  C  C74  1  0.48396011  0.79762654  0.80714896  1
  C  C75  1  0.98989789  0.80108048  0.80198771  1
  C  C76  1  0.41009513  0.01939809  0.80659601  1
  C  C77  1  0.91080492  0.02411336  0.80338938  1
  C  C78  1  0.39132103  0.96200752  0.69954858  1
  C  C79  1  0.89534523  0.96079079  0.69738648  1
  C  C80  1  0.08589043  0.20739252  0.69651340  1
  C  C81  1  0.58752117  0.20527546  0.69534157  1
  C  C82  1  0.01725272  0.83093782  0.69578975  1
  C  C83  1  0.51344553  0.81254368  0.70030119  1
  C  C84  1  0.39182433  0.82605414  0.19723948  1
  C  C85  1  0.89428369  0.82500234  0.19938375  1
  C  C86  1  0.01575375  0.21542201  0.20032921  1
  C  C87  1  0.51205946  0.19908728  0.19500704  1
  C  C88  1  0.08764475  0.96939425  0.19537574  1
  C  C89  1  0.58252989  0.96161116  0.19233763  1
  C  C90  1  0.43084310  0.35881826  0.64014409  1
  C  C91  1  0.93107514  0.35602208  0.64142386  1
  C  C92  1  0.24147077  0.13003606  0.63669302  1
  C  C93  1  0.74275591  0.13041994  0.63542876  1
  C  C94  1  0.31571472  0.50421360  0.63480100  1
  C  C95  1  0.82057310  0.51951274  0.63706882  1
  C  C96  1  0.42926894  0.50594082  0.13983589  1
  C  C97  1  0.92909688  0.49954248  0.13953654  1
  C  C98  1  0.31991808  0.12392474  0.13599932  1
  C  C99  1  0.81562696  0.12576999  0.13360601  1
  C  C100  1  0.24278265  0.35528231  0.13494092  1
  C  C101  1  0.74172737  0.35382387  0.13481269  1
  C  C102  1  0.23097327  0.29527506  0.02771061  1
  C  C103  1  0.72704919  0.29008307  0.02732942  1
  C  C104  1  0.40945316  0.52325839  0.02162356  1
  C  C105  1  0.91153674  0.51866948  0.02164502  1
  C  C106  1  0.35145903  0.15980420  0.02947759  1
  C  C107  1  0.84295461  0.15960309  0.02569188  1
  C  C108  1  0.22480908  0.16327057  0.52926442  1
  C  C109  1  0.73166176  0.16644296  0.52790626  1
  C  C110  1  0.34284968  0.52609879  0.52697973  1
  C  C111  1  0.85369804  0.54912640  0.53049748  1
  C  C112  1  0.40915866  0.30429980  0.52329921  1
  C  C113  1  0.90882549  0.29597735  0.52376504  1
  C  C114  1  0.27855753  0.70316510  0.96590469  1
  C  C115  1  0.76891663  0.68537152  0.96952289  1
  C  C116  1  0.07467539  0.45791164  0.96793401  1
  C  C117  1  0.57818739  0.44983309  0.96765377  1
  C  C118  1  0.15824367  0.84563668  0.97324590  1
  C  C119  1  0.65462993  0.85022785  0.96752588  1
  C  C120  1  0.26776756  0.85329509  0.47033020  1
  C  C121  1  0.78103779  0.85948217  0.46865317  1
  C  C122  1  0.15509976  0.45888316  0.46852196  1
  C  C123  1  0.66153542  0.47599247  0.47389348  1
  C  C124  1  0.07722224  0.70499519  0.46831661  1
  C  C125  1  0.57173138  0.68862422  0.47001135  1
  C  C126  1  0.06519702  0.63888519  0.36285177  1
  C  C127  1  0.55669500  0.62203783  0.36401598  1
  C  C128  1  0.24935514  0.86626742  0.36364685  1
  C  C129  1  0.75970383  0.87711814  0.36149015  1
  C  C130  1  0.18282142  0.48926246  0.36226376  1
  C  C131  1  0.68763782  0.51346328  0.35745028  1
  C  C132  1  0.06335196  0.49752549  0.86138813  1
  C  C133  1  0.56603493  0.49213376  0.86231906  1
  C  C134  1  0.19070643  0.87524676  0.85734305  1
  C  C135  1  0.68205034  0.87511411  0.86134300  1
  C  C136  1  0.25561850  0.64002299  0.85917260  1
  C  C137  1  0.75045686  0.63505326  0.86305573  1
  C  C138  1  0.00965986  0.82790868  0.40689025  1
  C  C139  1  0.50147001  0.80526055  0.40975524  1
  C  C140  1  0.39578755  0.98181615  0.40863244  1
  C  C141  1  0.90915073  0.98284185  0.40576654  1
  C  C142  1  0.08583803  0.19686488  0.40940892  1
  C  C143  1  0.58843453  0.19756572  0.41008083  1
  C  C144  1  0.00721595  0.20463774  0.90604242  1
  C  C145  1  0.51068341  0.19145886  0.90648148  1
  C  C146  1  0.09175578  0.99219194  0.90679237  1
  C  C147  1  0.58468434  0.97225218  0.90836691  1
  C  C148  1  0.40612407  0.83524537  0.90290174  1
  C  C149  1  0.89645656  0.80984761  0.90779606  1
  C  C150  1  0.48004979  0.15402569  0.58788785  1
  C  C151  1  0.98295095  0.14365201  0.59186437  1
  C  C152  1  0.09610831  0.02469204  0.59208070  1
  C  C153  1  0.60060607  0.02228506  0.58764639  1
  C  C154  1  0.41516934  0.78571881  0.58965978  1
  C  C155  1  0.92378293  0.80581115  0.59415592  1
  C  C156  1  0.47862621  0.82004066  0.08878091  1
  C  C157  1  0.98045482  0.80730277  0.08748377  1
  C  C158  1  0.42330658  0.04459498  0.09252866  1
  C  C159  1  0.91571281  0.04543329  0.08815111  1
  C  C160  1  0.10054423  0.17881418  0.08707053  1
  C  C161  1  0.59679121  0.17000638  0.08771599  1
  C  C162  1  0.34041926  0.14668307  0.74816263  1
  C  C163  1  0.84498627  0.15090503  0.74386396  1
  C  C164  1  0.23137780  0.31612047  0.74402789  1
  C  C165  1  0.74376812  0.31442623  0.74950988  1
  C  C166  1  0.42155846  0.53142596  0.75074354  1
  C  C167  1  0.92596780  0.54194467  0.74426697  1
  C  C168  1  0.34320865  0.53657075  0.24418303  1
  C  C169  1  0.84727744  0.54036344  0.24831977  1
  C  C170  1  0.42498575  0.31264945  0.24425214  1
  C  C171  1  0.92574491  0.31598965  0.25042565  1
  C  C172  1  0.24293572  0.17282973  0.24915465  1
  C  C173  1  0.74272081  0.15929928  0.24395635  1
  C  C174  1  0.32517980  0.51245355  0.91744808  1
  C  C175  1  0.81259673  0.48918797  0.92124685  1
  C  C176  1  0.43428314  0.35891528  0.92075490  1
  C  C177  1  0.92876108  0.36329717  0.92040760  1
  C  C178  1  0.26482824  0.16869471  0.92743578  1
  C  C179  1  0.74749076  0.14060116  0.92245975  1
  C  C180  1  0.31219196  0.13629086  0.42151862  1
  C  C181  1  0.82751878  0.14290018  0.42014968  1
  C  C182  1  0.24808808  0.35484398  0.42363739  1
  C  C183  1  0.76478764  0.36392355  0.42604170  1
  C  C184  1  0.42439600  0.49040571  0.42343375  1
  C  C185  1  0.93349238  0.50748406  0.42177056  1
  C  C186  1  0.18724206  0.49383696  0.07157027  1
  C  C187  1  0.68257678  0.48798646  0.07213180  1
  C  C188  1  0.07029963  0.63422298  0.07560506  1
  C  C189  1  0.56772959  0.64828178  0.07044828  1
  C  C190  1  0.26475813  0.86872262  0.07572131  1
  C  C191  1  0.75731325  0.87218711  0.07151446  1
  C  C192  1  0.18048450  0.87567928  0.57467121  1
  C  C193  1  0.68703636  0.88019226  0.57307532  1
  C  C194  1  0.25677183  0.64168446  0.57291307  1
  C  C195  1  0.76575601  0.66538711  0.57645904  1
  C  C196  1  0.06886994  0.49036341  0.57116489  1
  C  C197  1  0.57134880  0.50768502  0.57571068  1
  C  C198  1  0.15365932  0.81999137  0.26560811  1
  C  C199  1  0.65233567  0.80869797  0.26637722  1
  C  C200  1  0.26248838  0.69063220  0.26055031  1
  C  C201  1  0.76631636  0.69781071  0.25982824  1
  C  C202  1  0.08553246  0.46538856  0.26673511  1
  C  C203  1  0.58463205  0.46304288  0.25738570  1
  C  C204  1  0.14972144  0.47223243  0.76033119  1
  C  C205  1  0.65424629  0.48811251  0.76551082  1
  C  C206  1  0.08583925  0.70122509  0.75838889  1
  C  C207  1  0.58246386  0.69965530  0.76657714  1
  C  C208  1  0.26364641  0.82522493  0.76089572  1
  C  C209  1  0.76453781  0.83432025  0.76031161  1
