# generated using pymatgen
data_CuNiC9
_symmetry_space_group_name_H-M   'P 1'
_cell_length_a   6.34203491
_cell_length_b   6.34201508
_cell_length_c   5.88358804
_cell_angle_alpha   62.36518866
_cell_angle_beta   62.36511552
_cell_angle_gamma   56.00805272
_symmetry_Int_Tables_number   1
_chemical_formula_structural   CuNiC9
_chemical_formula_sum   'Cu1 Ni1 C9'
_cell_volume   166.95004542
_cell_formula_units_Z   1
loop_
 _symmetry_equiv_pos_site_id
 _symmetry_equiv_pos_as_xyz
  1  'x, y, z'
loop_
 _atom_site_type_symbol
 _atom_site_label
 _atom_site_symmetry_multiplicity
 _atom_site_fract_x
 _atom_site_fract_y
 _atom_site_fract_z
 _atom_site_occupancy
  C  C0  1  0.31068900  0.31068400  0.18931400  1
  C  C1  1  0.68931100  0.68931600  0.81068600  1
  Ni  Ni2  1  0.00000000  0.00000000  0.50000000  1
  Cu  Cu3  1  0.50000000  0.50000000  0.50000000  1
  C  C4  1  0.00000000  0.00000000  0.00000000  1
  C  C5  1  0.76135000  0.23867000  0.25961400  1
  C  C6  1  0.76132700  0.23864900  0.74038900  1
  C  C7  1  0.71725200  0.71724800  0.28277900  1
  C  C8  1  0.23865000  0.76133000  0.74038600  1
  C  C9  1  0.23867300  0.76135100  0.25961100  1
  C  C10  1  0.28274800  0.28275200  0.71722100  1
