# generated using pymatgen
data_Cu3NiC9
_symmetry_space_group_name_H-M   'P 1'
_cell_length_a   5.84896435
_cell_length_b   5.97295652
_cell_length_c   5.85362125
_cell_angle_alpha   60.00310480
_cell_angle_beta   60.66887149
_cell_angle_gamma   60.03159285
_symmetry_Int_Tables_number   1
_chemical_formula_structural   Cu3NiC9
_chemical_formula_sum   'Cu3 Ni1 C9'
_cell_volume   145.35844236
_cell_formula_units_Z   1
loop_
 _symmetry_equiv_pos_site_id
 _symmetry_equiv_pos_as_xyz
  1  'x, y, z'
loop_
 _atom_site_type_symbol
 _atom_site_label
 _atom_site_symmetry_multiplicity
 _atom_site_fract_x
 _atom_site_fract_y
 _atom_site_fract_z
 _atom_site_occupancy
  Ni  Ni0  1  0.00000000  0.00000000  0.00000000  1
  Cu  Cu1  1  0.50000000  0.00000000  0.50000000  1
  Cu  Cu2  1  0.50000000  0.50000000  0.00000000  1
  Cu  Cu3  1  0.00000000  0.50000000  0.50000000  1
  C  C4  1  0.50000000  0.50000000  0.50000000  1
  C  C5  1  0.26238300  0.27054700  0.26275300  1
  C  C6  1  0.71667000  0.24314600  0.24960100  1
  C  C7  1  0.25620800  0.70466100  0.25592900  1
  C  C8  1  0.25010100  0.24336300  0.71622200  1
  C  C9  1  0.74989900  0.75663700  0.28377800  1
  C  C10  1  0.74379200  0.29533900  0.74407100  1
  C  C11  1  0.28333000  0.75685400  0.75039900  1
  C  C12  1  0.73761700  0.72945300  0.73724700  1
