# generated using pymatgen
data_Cu2NiC12
_symmetry_space_group_name_H-M   'P 1'
_cell_length_a   6.56960215
_cell_length_b   6.44340793
_cell_length_c   6.71281192
_cell_angle_alpha   55.13171739
_cell_angle_beta   56.66123251
_cell_angle_gamma   59.02751880
_symmetry_Int_Tables_number   1
_chemical_formula_structural   Cu2NiC12
_chemical_formula_sum   'Cu2 Ni1 C12'
_cell_volume   186.26242573
_cell_formula_units_Z   1
loop_
 _symmetry_equiv_pos_site_id
 _symmetry_equiv_pos_as_xyz
  1  'x, y, z'
loop_
 _atom_site_type_symbol
 _atom_site_label
 _atom_site_symmetry_multiplicity
 _atom_site_fract_x
 _atom_site_fract_y
 _atom_site_fract_z
 _atom_site_occupancy
  Ni  Ni0  1  0.81530707  0.12999710  0.03335085  1
  Cu  Cu1  1  0.16665248  0.14176750  0.14565245  1
  Cu  Cu2  1  0.92482243  0.82356481  0.79288459  1
  C  C3  1  0.47408714  0.00724897  0.53887811  1
  C  C4  1  0.00410988  0.49070659  0.51007073  1
  C  C5  1  0.42420181  0.58072982  0.00984752  1
  C  C6  1  0.55983184  0.51760822  0.45752466  1
  C  C7  1  0.73131803  0.70433143  0.72408194  1
  C  C8  1  0.15820621  0.20537627  0.78844847  1
  C  C9  1  0.27100569  0.69578374  0.31247050  1
  C  C10  1  0.71803934  0.26231849  0.29433612  1
  C  C11  1  0.75481720  0.26323754  0.70779077  1
  C  C12  1  0.32487001  0.69316025  0.70881771  1
  C  C13  1  0.27219038  0.28274748  0.28430047  1
  C  C14  1  0.78595748  0.75350478  0.24362813  1
