# generated using pymatgen
data_Cu(NiC4)4
_symmetry_space_group_name_H-M   'P 1'
_cell_length_a   9.25180020
_cell_length_b   9.25179987
_cell_length_c   22.64539121
_cell_angle_alpha   90.00000000
_cell_angle_beta   90.00000000
_cell_angle_gamma   120.00000119
_symmetry_Int_Tables_number   1
_chemical_formula_structural   Cu(NiC4)4
_chemical_formula_sum   'Cu6 Ni24 C96'
_cell_volume   1678.66072354
_cell_formula_units_Z   6
loop_
 _symmetry_equiv_pos_site_id
 _symmetry_equiv_pos_as_xyz
  1  'x, y, z'
loop_
 _atom_site_type_symbol
 _atom_site_label
 _atom_site_symmetry_multiplicity
 _atom_site_fract_x
 _atom_site_fract_y
 _atom_site_fract_z
 _atom_site_occupancy
  Ni  Ni0  1  0.63788422  0.00853567  0.24788266  1
  Ni  Ni1  1  0.37065146  0.36211578  0.24788266  1
  Ni  Ni2  1  0.99146433  0.62934854  0.24788266  1
  Ni  Ni3  1  0.63788422  0.62934854  0.74788266  1
  Ni  Ni4  1  0.99146433  0.36211578  0.74788266  1
  Ni  Ni5  1  0.37065146  0.00853567  0.74788266  1
  Ni  Ni6  1  0.30455122  0.34186867  0.58121566  1
  Ni  Ni7  1  0.03731846  0.69544878  0.58121566  1
  Ni  Ni8  1  0.65813133  0.96268154  0.58121566  1
  Ni  Ni9  1  0.30455122  0.96268154  0.08121566  1
  Ni  Ni10  1  0.65813133  0.69544878  0.08121566  1
  Ni  Ni11  1  0.03731846  0.34186867  0.08121566  1
  Ni  Ni12  1  0.97121722  0.67520267  0.91454966  1
  Ni  Ni13  1  0.70398446  0.02878278  0.91454966  1
  Ni  Ni14  1  0.32479733  0.29601554  0.91454966  1
  Ni  Ni15  1  0.97121722  0.29601554  0.41454966  1
  Ni  Ni16  1  0.32479733  0.02878278  0.41454966  1
  Ni  Ni17  1  0.70398446  0.67520267  0.41454966  1
  Ni  Ni18  1  -0.00000000  0.00000000  0.49474358  1
  Ni  Ni19  1  -0.00000000  0.00000000  0.99474358  1
  Ni  Ni20  1  0.66666700  0.33333300  0.82807658  1
  Ni  Ni21  1  0.66666700  0.33333300  0.32807658  1
  Ni  Ni22  1  0.33333300  0.66666700  0.16141058  1
  Ni  Ni23  1  0.33333300  0.66666700  0.66141058  1
  Cu  Cu24  1  -0.00000000  0.00000000  0.65187669  1
  Cu  Cu25  1  -0.00000000  0.00000000  0.15187669  1
  Cu  Cu26  1  0.66666700  0.33333300  0.98520969  1
  Cu  Cu27  1  0.66666700  0.33333300  0.48520969  1
  Cu  Cu28  1  0.33333300  0.66666700  0.31854369  1
  Cu  Cu29  1  0.33333300  0.66666700  0.81854369  1
  C  C30  1  -0.00000000  0.00000000  0.34818036  1
  C  C31  1  -0.00000000  0.00000000  0.84818036  1
  C  C32  1  0.66666700  0.33333300  0.68151336  1
  C  C33  1  0.66666700  0.33333300  0.18151336  1
  C  C34  1  0.33333300  0.66666700  0.01484736  1
  C  C35  1  0.33333300  0.66666700  0.51484736  1
  C  C36  1  0.30339478  0.00657940  0.25170547  1
  C  C37  1  0.70318462  0.69660522  0.25170547  1
  C  C38  1  0.99342060  0.29681538  0.25170547  1
  C  C39  1  0.30339478  0.29681538  0.75170547  1
  C  C40  1  0.99342060  0.69660522  0.75170547  1
  C  C41  1  0.70318462  0.00657940  0.75170547  1
  C  C42  1  0.97006178  0.33991240  0.58503847  1
  C  C43  1  0.36985162  0.02993822  0.58503847  1
  C  C44  1  0.66008760  0.63014838  0.58503847  1
  C  C45  1  0.97006178  0.63014838  0.08503847  1
  C  C46  1  0.66008760  0.02993822  0.08503847  1
  C  C47  1  0.36985162  0.33991240  0.08503847  1
  C  C48  1  0.63672778  0.67324640  0.91837247  1
  C  C49  1  0.03651762  0.36327222  0.91837247  1
  C  C50  1  0.32675360  0.96348238  0.91837247  1
  C  C51  1  0.63672778  0.96348238  0.41837247  1
  C  C52  1  0.32675360  0.36327222  0.41837247  1
  C  C53  1  0.03651762  0.67324640  0.41837247  1
  C  C54  1  0.21347161  0.02660484  0.30578715  1
  C  C55  1  0.81313323  0.78652839  0.30578715  1
  C  C56  1  0.97339516  0.18686677  0.30578715  1
  C  C57  1  0.21347161  0.18686677  0.80578715  1
  C  C58  1  0.97339516  0.78652839  0.80578715  1
  C  C59  1  0.81313323  0.02660484  0.80578715  1
  C  C60  1  0.77937787  0.97712824  0.69512731  1
  C  C61  1  0.19775037  0.22062213  0.69512731  1
  C  C62  1  0.02287176  0.80224963  0.69512731  1
  C  C63  1  0.77937787  0.80224963  0.19512731  1
  C  C64  1  0.02287176  0.22062213  0.19512731  1
  C  C65  1  0.19775037  0.97712824  0.19512731  1
  C  C66  1  0.88013861  0.35993784  0.63912015  1
  C  C67  1  0.47980023  0.11986139  0.63912015  1
  C  C68  1  0.64006216  0.52019977  0.63912015  1
  C  C69  1  0.88013861  0.52019977  0.13912015  1
  C  C70  1  0.64006216  0.11986139  0.13912015  1
  C  C71  1  0.47980023  0.35993784  0.13912015  1
  C  C72  1  0.44604487  0.31046124  0.02846031  1
  C  C73  1  0.86441737  0.55395513  0.02846031  1
  C  C74  1  0.68953876  0.13558263  0.02846031  1
  C  C75  1  0.44604487  0.13558263  0.52846031  1
  C  C76  1  0.68953876  0.55395513  0.52846031  1
  C  C77  1  0.86441737  0.31046124  0.52846031  1
  C  C78  1  0.54680461  0.69327184  0.97245415  1
  C  C79  1  0.14646623  0.45319539  0.97245415  1
  C  C80  1  0.30672816  0.85353377  0.97245415  1
  C  C81  1  0.54680461  0.85353377  0.47245415  1
  C  C82  1  0.30672816  0.45319539  0.47245415  1
  C  C83  1  0.14646623  0.69327184  0.47245415  1
  C  C84  1  0.11271087  0.64379524  0.36179431  1
  C  C85  1  0.53108337  0.88728913  0.36179431  1
  C  C86  1  0.35620476  0.46891663  0.36179431  1
  C  C87  1  0.11271087  0.46891663  0.86179431  1
  C  C88  1  0.35620476  0.88728913  0.86179431  1
  C  C89  1  0.53108337  0.64379524  0.86179431  1
  C  C90  1  0.02039582  0.83229993  0.41289690  1
  C  C91  1  0.81190411  0.97960418  0.41289690  1
  C  C92  1  0.16770007  0.18809589  0.41289690  1
  C  C93  1  0.02039582  0.18809589  0.91289690  1
  C  C94  1  0.16770007  0.97960418  0.91289690  1
  C  C95  1  0.81190411  0.83229993  0.91289690  1
  C  C96  1  0.99071399  0.18282293  0.58833363  1
  C  C97  1  0.19210893  0.00928601  0.58833363  1
  C  C98  1  0.81717707  0.80789107  0.58833363  1
  C  C99  1  0.99071399  0.80789107  0.08833363  1
  C  C100  1  0.81717707  0.00928601  0.08833363  1
  C  C101  1  0.19210893  0.18282293  0.08833363  1
  C  C102  1  0.68706282  0.16563293  0.74622990  1
  C  C103  1  0.47857111  0.31293718  0.74622990  1
  C  C104  1  0.83436707  0.52142889  0.74622990  1
  C  C105  1  0.68706282  0.52142889  0.24622990  1
  C  C106  1  0.83436707  0.31293718  0.24622990  1
  C  C107  1  0.47857111  0.16563293  0.24622990  1
  C  C108  1  0.65738099  0.51615593  0.92166663  1
  C  C109  1  0.85877593  0.34261901  0.92166663  1
  C  C110  1  0.48384407  0.14122407  0.92166663  1
  C  C111  1  0.65738099  0.14122407  0.42166663  1
  C  C112  1  0.48384407  0.34261901  0.42166663  1
  C  C113  1  0.85877593  0.51615593  0.42166663  1
  C  C114  1  0.35372882  0.49896693  0.07956390  1
  C  C115  1  0.14523711  0.64627118  0.07956390  1
  C  C116  1  0.50103307  0.85476289  0.07956390  1
  C  C117  1  0.35372882  0.85476289  0.57956390  1
  C  C118  1  0.50103307  0.64627118  0.57956390  1
  C  C119  1  0.14523711  0.49896693  0.57956390  1
  C  C120  1  0.32404699  0.84948993  0.25500063  1
  C  C121  1  0.52544193  0.67595301  0.25500063  1
  C  C122  1  0.15051007  0.47455807  0.25500063  1
  C  C123  1  0.32404699  0.47455807  0.75500063  1
  C  C124  1  0.15051007  0.67595301  0.75500063  1
  C  C125  1  0.52544193  0.84948993  0.75500063  1
