# generated using pymatgen
data_CuNiC16
_symmetry_space_group_name_H-M   'P 1'
_cell_length_a   8.85500657
_cell_length_b   8.80856673
_cell_length_c   22.80518280
_cell_angle_alpha   90.77464524
_cell_angle_beta   90.00000000
_cell_angle_gamma   120.17455416
_symmetry_Int_Tables_number   1
_chemical_formula_structural   CuNiC16
_chemical_formula_sum   'Cu6 Ni6 C96'
_cell_volume   1537.58321738
_cell_formula_units_Z   6
loop_
 _symmetry_equiv_pos_site_id
 _symmetry_equiv_pos_as_xyz
  1  'x, y, z'
loop_
 _atom_site_type_symbol
 _atom_site_label
 _atom_site_symmetry_multiplicity
 _atom_site_fract_x
 _atom_site_fract_y
 _atom_site_fract_z
 _atom_site_occupancy
  C  C0  1  0.00722124  0.00585224  0.49768803  1
  C  C1  1  0.99863100  0.00585224  0.99768803  1
  C  C2  1  0.67388824  0.33918524  0.83102103  1
  C  C3  1  0.66529800  0.33918524  0.33102103  1
  C  C4  1  0.34055424  0.67251924  0.16435503  1
  C  C5  1  0.33196400  0.67251924  0.66435503  1
  Ni  Ni6  1  0.01725426  0.98776324  0.35432122  1
  Ni  Ni7  1  0.97050898  0.98776324  0.85432122  1
  Ni  Ni8  1  0.68392126  0.32109624  0.68765422  1
  Ni  Ni9  1  0.63717598  0.32109624  0.18765422  1
  Ni  Ni10  1  0.35058726  0.65443024  0.02098822  1
  Ni  Ni11  1  0.30384198  0.65443024  0.52098822  1
  Cu  Cu12  1  -0.00003892  0.99363324  0.64502136  1
  Cu  Cu13  1  0.99367215  0.99363324  0.14502136  1
  Cu  Cu14  1  0.66662808  0.32696624  0.97835436  1
  Cu  Cu15  1  0.66033915  0.32696624  0.47835436  1
  Cu  Cu16  1  0.33329408  0.66030024  0.31168836  1
  Cu  Cu17  1  0.32700515  0.66030024  0.81168836  1
  C  C18  1  0.28868118  0.99840386  0.24976607  1
  C  C19  1  0.71560328  0.70837984  0.25127686  1
  C  C20  1  0.99277655  0.70837984  0.75127686  1
  C  C21  1  0.70972269  0.99840386  0.74976607  1
  C  C22  1  0.95534818  0.33173686  0.58309907  1
  C  C23  1  0.38227028  0.04171284  0.58460986  1
  C  C24  1  0.65944355  0.04171284  0.08460986  1
  C  C25  1  0.37638969  0.33173686  0.08309907  1
  C  C26  1  0.62201418  0.66507086  0.91643307  1
  C  C27  1  0.04893628  0.37504684  0.91794386  1
  C  C28  1  0.32610955  0.37504684  0.41794386  1
  C  C29  1  0.04305569  0.66507086  0.41643307  1
  C  C30  1  0.99433414  0.28465359  0.25085212  1
  C  C31  1  0.29031945  0.28465359  0.75085212  1
  C  C32  1  0.66100114  0.61798659  0.58418512  1
  C  C33  1  0.95698645  0.61798659  0.08418512  1
  C  C34  1  0.32766714  0.95132059  0.91751912  1
  C  C35  1  0.62365245  0.95132059  0.41751912  1
  C  C36  1  0.20025484  0.03344237  0.30750547  1
  C  C37  1  0.83708542  0.81267405  0.30800605  1
  C  C38  1  0.97171040  0.18122532  0.30330862  1
  C  C39  1  0.20951492  0.18122532  0.80330862  1
  C  C40  1  0.97558863  0.81267405  0.80800605  1
  C  C41  1  0.83318754  0.03344237  0.80750547  1
  C  C42  1  0.80650329  0.97119111  0.69271127  1
  C  C43  1  0.17912319  0.20896645  0.69671956  1
  C  C44  1  0.03082242  0.83408860  0.69318152  1
  C  C45  1  0.80326619  0.83408860  0.19318152  1
  C  C46  1  0.02984326  0.20896645  0.19671956  1
  C  C47  1  0.16468781  0.97119111  0.19271127  1
  C  C48  1  0.86692184  0.36677537  0.64083847  1
  C  C49  1  0.50375242  0.14600705  0.64133905  1
  C  C50  1  0.63837740  0.51455832  0.63664162  1
  C  C51  1  0.87618192  0.51455832  0.13664162  1
  C  C52  1  0.64225563  0.14600705  0.14133905  1
  C  C53  1  0.49985454  0.36677537  0.14083847  1
  C  C54  1  0.47317029  0.30452411  0.02604427  1
  C  C55  1  0.84579019  0.54229945  0.03005256  1
  C  C56  1  0.69748942  0.16742160  0.02651452  1
  C  C57  1  0.46993319  0.16742160  0.52651452  1
  C  C58  1  0.69651026  0.54229945  0.53005256  1
  C  C59  1  0.83135481  0.30452411  0.52604427  1
  C  C60  1  0.53358784  0.70010937  0.97417247  1
  C  C61  1  0.17041842  0.47934105  0.97467305  1
  C  C62  1  0.30504340  0.84789232  0.96997562  1
  C  C63  1  0.54284792  0.84789232  0.46997562  1
  C  C64  1  0.30892163  0.47934105  0.47467305  1
  C  C65  1  0.16652054  0.70010937  0.47417247  1
  C  C66  1  0.13983629  0.63785811  0.35937827  1
  C  C67  1  0.51245619  0.87563345  0.36338656  1
  C  C68  1  0.36415542  0.50075560  0.35984852  1
  C  C69  1  0.13659919  0.50075560  0.85984852  1
  C  C70  1  0.36317626  0.87563345  0.86338656  1
  C  C71  1  0.49802081  0.63785811  0.85937827  1
  C  C72  1  0.02195705  0.83799491  0.41019439  1
  C  C73  1  0.79852962  0.97736705  0.40954203  1
  C  C74  1  0.15206865  0.18491132  0.40781487  1
  C  C75  1  0.03284267  0.18491132  0.90781487  1
  C  C76  1  0.17883743  0.97736705  0.90954203  1
  C  C77  1  0.81603786  0.83799491  0.91019439  1
  C  C78  1  0.97561714  0.15915742  0.59175203  1
  C  C79  1  0.18789304  0.02329578  0.59166843  1
  C  C80  1  0.82572759  0.79699960  0.58867007  1
  C  C81  1  0.97127201  0.79699960  0.08867007  1
  C  C82  1  0.83540274  0.02329578  0.09166843  1
  C  C83  1  0.18354028  0.15915742  0.09175203  1
  C  C84  1  0.68862405  0.17132791  0.74352739  1
  C  C85  1  0.46519662  0.31070005  0.74287503  1
  C  C86  1  0.81873565  0.51824432  0.74114787  1
  C  C87  1  0.69950967  0.51824432  0.24114787  1
  C  C88  1  0.84550443  0.31070005  0.24287503  1
  C  C89  1  0.48270486  0.17132791  0.24352739  1
  C  C90  1  0.64228414  0.49249042  0.92508503  1
  C  C91  1  0.85456004  0.35662878  0.92500143  1
  C  C92  1  0.49239459  0.13033260  0.92200307  1
  C  C93  1  0.63793901  0.13033260  0.42200307  1
  C  C94  1  0.50206974  0.35662878  0.42500143  1
  C  C95  1  0.85020728  0.49249042  0.42508503  1
  C  C96  1  0.35529005  0.50466191  0.07686139  1
  C  C97  1  0.13186262  0.64403405  0.07620903  1
  C  C98  1  0.48540165  0.85157832  0.07448187  1
  C  C99  1  0.36617567  0.85157832  0.57448187  1
  C  C100  1  0.51217043  0.64403405  0.57620903  1
  C  C101  1  0.14937086  0.50466191  0.57686139  1
  C  C102  1  0.30895014  0.82582442  0.25841903  1
  C  C103  1  0.52122604  0.68996278  0.25833543  1
  C  C104  1  0.15906059  0.46366660  0.25533707  1
  C  C105  1  0.30460501  0.46366660  0.75533707  1
  C  C106  1  0.16873574  0.68996278  0.75833543  1
  C  C107  1  0.51687328  0.82582442  0.75841903  1
