# generated using pymatgen
data_Cu6NiC12
_symmetry_space_group_name_H-M   'P 1'
_cell_length_a   8.02027402
_cell_length_b   5.76923434
_cell_length_c   5.91548508
_cell_angle_alpha   67.04456823
_cell_angle_beta   63.48815251
_cell_angle_gamma   65.95690216
_symmetry_Int_Tables_number   1
_chemical_formula_structural   Cu6NiC12
_chemical_formula_sum   'Cu6 Ni1 C12'
_cell_volume   216.30341053
_cell_formula_units_Z   1
loop_
 _symmetry_equiv_pos_site_id
 _symmetry_equiv_pos_as_xyz
  1  'x, y, z'
loop_
 _atom_site_type_symbol
 _atom_site_label
 _atom_site_symmetry_multiplicity
 _atom_site_fract_x
 _atom_site_fract_y
 _atom_site_fract_z
 _atom_site_occupancy
  Ni  Ni0  1  0.00489199  0.99495072  0.49471865  1
  Cu  Cu1  1  0.78978475  0.62536365  0.64056671  1
  Cu  Cu2  1  0.66269893  0.33821938  0.32159209  1
  Cu  Cu3  1  0.34683650  0.65090338  0.66834339  1
  Cu  Cu4  1  0.21913306  0.36542314  0.34901923  1
  Cu  Cu5  1  0.50573296  0.99486147  0.99587622  1
  Cu  Cu6  1  0.00584793  0.99565644  0.99420633  1
  C  C7  1  0.69898876  0.01794214  0.63079500  1
  C  C8  1  0.36305242  0.36530300  0.98056857  1
  C  C9  1  0.93662369  0.24265120  0.18245073  1
  C  C10  1  0.62337070  0.57850886  0.52251060  1
  C  C11  1  0.07311150  0.74793772  0.80731129  1
  C  C12  1  0.38601518  0.41069308  0.46752784  1
  C  C13  1  0.31084751  0.97188230  0.35973107  1
  C  C14  1  0.64642294  0.62430659  0.00947736  1
  C  C15  1  0.98667278  0.27361091  0.65936006  1
  C  C16  1  0.02262967  0.71704615  0.33012291  1
  C  C17  1  0.30610327  0.92588265  0.87757151  1
  C  C18  1  0.70382846  0.06361926  0.11301245  1
