# generated using pymatgen
data_Cu8Ni2C5
_symmetry_space_group_name_H-M   'P 1'
_cell_length_a   6.59854200
_cell_length_b   9.40557100
_cell_length_c   12.44246300
_cell_angle_alpha   90.00000000
_cell_angle_beta   90.00000000
_cell_angle_gamma   90.00000000
_symmetry_Int_Tables_number   1
_chemical_formula_structural   Cu8Ni2C5
_chemical_formula_sum   'Cu32 Ni8 C20'
_cell_volume   772.21726896
_cell_formula_units_Z   4
loop_
 _symmetry_equiv_pos_site_id
 _symmetry_equiv_pos_as_xyz
  1  'x, y, z'
loop_
 _atom_site_type_symbol
 _atom_site_label
 _atom_site_symmetry_multiplicity
 _atom_site_fract_x
 _atom_site_fract_y
 _atom_site_fract_z
 _atom_site_occupancy
  C  C0  1  0.47224800  0.45178300  0.78862600  1
  C  C1  1  0.97224800  0.04821700  0.21137400  1
  C  C2  1  0.52775200  0.95178300  0.71137400  1
  C  C3  1  0.02775200  0.54821700  0.28862600  1
  C  C4  1  0.37331600  0.06660900  0.13596200  1
  C  C5  1  0.87331600  0.43339100  0.86403800  1
  C  C6  1  0.62668400  0.56660900  0.36403800  1
  C  C7  1  0.12668400  0.93339100  0.63596200  1
  C  C8  1  0.28460700  0.93654700  0.07102500  1
  C  C9  1  0.78460700  0.56345300  0.92897500  1
  C  C10  1  0.71539300  0.43654700  0.42897500  1
  C  C11  1  0.21539300  0.06345300  0.57102500  1
  C  C12  1  0.68656300  0.00684400  0.92525500  1
  C  C13  1  0.81343700  0.99315600  0.42525500  1
  C  C14  1  0.31343700  0.50684400  0.57474500  1
  C  C15  1  0.18656300  0.49315600  0.07474500  1
  C  C16  1  0.30586500  0.61317400  0.13010800  1
  C  C17  1  0.69413500  0.11317400  0.36989200  1
  C  C18  1  0.80586500  0.88682600  0.86989200  1
  C  C19  1  0.19413500  0.38682600  0.63010800  1
  Ni  Ni20  1  0.17447000  0.17214300  0.88466800  1
  Ni  Ni21  1  0.67447000  0.32785700  0.11533200  1
  Ni  Ni22  1  0.82553000  0.67214300  0.61533200  1
  Ni  Ni23  1  0.32553000  0.82785700  0.38466800  1
  Ni  Ni24  1  0.24397900  0.72750500  0.89579100  1
  Ni  Ni25  1  0.74397900  0.77249500  0.10420900  1
  Ni  Ni26  1  0.75602100  0.22750500  0.60420900  1
  Ni  Ni27  1  0.25602100  0.27249500  0.39579100  1
  Cu  Cu28  1  0.93787500  0.76988800  0.19467100  1
  Cu  Cu29  1  0.65404800  0.27157800  0.48385600  1
  Cu  Cu30  1  0.84595200  0.72842200  0.98385600  1
  Cu  Cu31  1  0.34595200  0.77157800  0.01614400  1
  Cu  Cu32  1  0.56212500  0.23011200  0.69467100  1
  Cu  Cu33  1  0.06212500  0.26988800  0.30532900  1
  Cu  Cu34  1  0.43787500  0.73011200  0.80532900  1
  Cu  Cu35  1  0.15404800  0.22842200  0.51614400  1
  Cu  Cu36  1  0.43493100  0.73468900  0.28536400  1
  Cu  Cu37  1  0.93493100  0.76531100  0.71463600  1
  Cu  Cu38  1  0.56506900  0.23468900  0.21463600  1
  Cu  Cu39  1  0.06506900  0.26531100  0.78536400  1
  Cu  Cu40  1  0.74152200  0.51578000  0.66828400  1
  Cu  Cu41  1  0.24152200  0.98422000  0.33171600  1
  Cu  Cu42  1  0.21351900  0.54875700  0.90454600  1
  Cu  Cu43  1  0.75847800  0.48422000  0.16828400  1
  Cu  Cu44  1  0.11102000  0.73433300  0.41130600  1
  Cu  Cu45  1  0.61102000  0.76566700  0.58869400  1
  Cu  Cu46  1  0.88898000  0.23433300  0.08869400  1
  Cu  Cu47  1  0.38898000  0.26566700  0.91130600  1
  Cu  Cu48  1  0.24873400  0.51830300  0.14382900  1
  Cu  Cu49  1  0.74873400  0.98169700  0.85617100  1
  Cu  Cu50  1  0.75126600  0.01830300  0.35617100  1
  Cu  Cu51  1  0.25126600  0.48169700  0.64382900  1
  Cu  Cu52  1  0.74778400  0.53419800  0.40290400  1
  Cu  Cu53  1  0.24778400  0.96580200  0.59709600  1
  Cu  Cu54  1  0.25221600  0.03419800  0.09709600  1
  Cu  Cu55  1  0.75221600  0.46580200  0.90290400  1
  Cu  Cu56  1  0.71351900  0.95124300  0.09545400  1
  Cu  Cu57  1  0.25847800  0.01578000  0.83171600  1
  Cu  Cu58  1  0.28648100  0.45124300  0.40454600  1
  Cu  Cu59  1  0.78648100  0.04875700  0.59545400  1
