# generated using pymatgen
data_Cu2NiC5
_symmetry_space_group_name_H-M   'P 1'
_cell_length_a   5.06282622
_cell_length_b   6.37585517
_cell_length_c   6.92825768
_cell_angle_alpha   60.25767740
_cell_angle_beta   68.61287804
_cell_angle_gamma   66.55594143
_symmetry_Int_Tables_number   1
_chemical_formula_structural   Cu2NiC5
_chemical_formula_sum   'Cu2 Ni1 C5'
_cell_volume   174.17870258
_cell_formula_units_Z   1
loop_
 _symmetry_equiv_pos_site_id
 _symmetry_equiv_pos_as_xyz
  1  'x, y, z'
loop_
 _atom_site_type_symbol
 _atom_site_label
 _atom_site_symmetry_multiplicity
 _atom_site_fract_x
 _atom_site_fract_y
 _atom_site_fract_z
 _atom_site_occupancy
  C  C0  1  0.85917634  0.18808043  0.09373213  1
  Ni  Ni1  1  0.28167256  0.75499998  0.67974117  1
  Cu  Cu2  1  0.77389488  0.48848509  0.46185440  1
  Cu  Cu3  1  0.27507187  0.48844982  0.46175119  1
  C  C4  1  0.47080005  0.29791187  0.76028896  1
  C  C5  1  0.18400703  0.20865097  0.42312543  1
  C  C6  1  0.85165796  0.72582506  0.56967634  1
  C  C7  1  0.56621930  0.69134778  0.17483039  1
