# generated using pymatgen
data_Cu4Ni
_symmetry_space_group_name_H-M   'P 1'
_cell_length_a   10.84385397
_cell_length_b   10.84385397
_cell_length_c   8.73791500
_cell_angle_alpha   90.00000000
_cell_angle_beta   90.00000000
_cell_angle_gamma   119.99999979
_symmetry_Int_Tables_number   1
_chemical_formula_structural   Cu4Ni
_chemical_formula_sum   'Cu24 Ni6'
_cell_volume   889.82738835
_cell_formula_units_Z   6
loop_
 _symmetry_equiv_pos_site_id
 _symmetry_equiv_pos_as_xyz
  1  'x, y, z'
loop_
 _atom_site_type_symbol
 _atom_site_label
 _atom_site_symmetry_multiplicity
 _atom_site_fract_x
 _atom_site_fract_y
 _atom_site_fract_z
 _atom_site_occupancy
  Ni  Ni0  1  0.47165800  0.52834200  0.25000000  1
  Ni  Ni1  1  0.47165800  0.94331500  0.25000000  1
  Ni  Ni2  1  0.05668500  0.52834200  0.25000000  1
  Ni  Ni3  1  0.52834200  0.47165800  0.75000000  1
  Ni  Ni4  1  0.52834200  0.05668500  0.75000000  1
  Ni  Ni5  1  0.94331500  0.47165800  0.75000000  1
  Cu  Cu6  1  0.00000000  0.00000000  0.50000000  1
  Cu  Cu7  1  0.00000000  0.00000000  0.00000000  1
  Cu  Cu8  1  0.33333300  0.66666700  0.91518300  1
  Cu  Cu9  1  0.66666700  0.33333300  0.08481700  1
  Cu  Cu10  1  0.66666700  0.33333300  0.41518300  1
  Cu  Cu11  1  0.33333300  0.66666700  0.58481700  1
  Cu  Cu12  1  0.09942000  0.90058000  0.25000000  1
  Cu  Cu13  1  0.09942000  0.19884100  0.25000000  1
  Cu  Cu14  1  0.80115900  0.90058000  0.25000000  1
  Cu  Cu15  1  0.90058000  0.09942000  0.75000000  1
  Cu  Cu16  1  0.90058000  0.80115900  0.75000000  1
  Cu  Cu17  1  0.19884100  0.09942000  0.75000000  1
  Cu  Cu18  1  0.16333000  0.83667000  0.93335200  1
  Cu  Cu19  1  0.16333000  0.32666100  0.93335200  1
  Cu  Cu20  1  0.67333900  0.83667000  0.93335200  1
  Cu  Cu21  1  0.83667000  0.16333000  0.06664800  1
  Cu  Cu22  1  0.83667000  0.67333900  0.06664800  1
  Cu  Cu23  1  0.32666100  0.16333000  0.06664800  1
  Cu  Cu24  1  0.83667000  0.16333000  0.43335200  1
  Cu  Cu25  1  0.83667000  0.67333900  0.43335200  1
  Cu  Cu26  1  0.32666100  0.16333000  0.43335200  1
  Cu  Cu27  1  0.16333000  0.83667000  0.56664800  1
  Cu  Cu28  1  0.16333000  0.32666100  0.56664800  1
  Cu  Cu29  1  0.67333900  0.83667000  0.56664800  1
