# generated using pymatgen
data_CuNiC17
_symmetry_space_group_name_H-M   'P 1'
_cell_length_a   8.71054129
_cell_length_b   8.68095547
_cell_length_c   21.87264879
_cell_angle_alpha   90.10643532
_cell_angle_beta   89.73529560
_cell_angle_gamma   120.15918484
_symmetry_Int_Tables_number   1
_chemical_formula_structural   CuNiC17
_chemical_formula_sum   'Cu6 Ni6 C102'
_cell_volume   1430.01673017
_cell_formula_units_Z   6
loop_
 _symmetry_equiv_pos_site_id
 _symmetry_equiv_pos_as_xyz
  1  'x, y, z'
loop_
 _atom_site_type_symbol
 _atom_site_label
 _atom_site_symmetry_multiplicity
 _atom_site_fract_x
 _atom_site_fract_y
 _atom_site_fract_z
 _atom_site_occupancy
  C  C0  1  0.99614834  0.62940583  0.24269807  1
  C  C1  1  0.99739402  0.36099936  0.75740407  1
  C  C2  1  0.37337537  0.99424244  0.74961727  1
  C  C3  1  0.65929074  0.97620628  0.59045476  1
  C  C4  1  0.67850421  0.68262678  0.07909880  1
  C  C5  1  0.33718654  0.03928248  0.42133593  1
  C  C6  1  0.01571734  0.00288489  0.50318338  1
  C  C7  1  0.01427329  0.99572613  0.00301397  1
  C  C8  1  0.66565485  0.33449755  0.84105321  1
  C  C9  1  0.66649245  0.33368588  0.33135266  1
  C  C10  1  0.31818221  0.66266775  0.16166868  1
  C  C11  1  0.34523631  0.67101784  0.66655583  1
  Ni  Ni12  1  0.98748398  0.00100280  0.85380140  1
  Ni  Ni13  1  0.99917495  0.99494475  0.64803238  1
  Ni  Ni14  1  0.00438480  0.00103042  0.14850301  1
  Ni  Ni15  1  0.65942418  0.31579868  0.68233368  1
  Ni  Ni16  1  0.32186748  0.66748730  0.01624661  1
  Ni  Ni17  1  0.32720178  0.67073163  0.51965997  1
  Cu  Cu18  1  0.99639394  0.00188004  0.35223730  1
  Cu  Cu19  1  0.67705484  0.33580931  0.17244653  1
  Cu  Cu20  1  0.68086445  0.34677578  0.99108010  1
  Cu  Cu21  1  0.65006961  0.32542850  0.48983976  1
  Cu  Cu22  1  0.33683693  0.66409549  0.31265974  1
  Cu  Cu23  1  0.35996849  0.68428413  0.81581270  1
  C  C24  1  0.71748903  0.00375686  0.74707933  1
  C  C25  1  0.35637180  0.02931183  0.58281635  1
  C  C26  1  0.97859677  0.64378041  0.08526360  1
  C  C27  1  0.29703239  0.00878139  0.25052634  1
  C  C28  1  0.70540317  0.70995890  0.24904396  1
  C  C29  1  0.99685738  0.28461250  0.24917117  1
  C  C30  1  0.28909979  0.28144481  0.74907734  1
  C  C31  1  0.98342326  0.70884714  0.75003912  1
  C  C32  1  0.96771811  0.33870339  0.58418248  1
  C  C33  1  0.66729190  0.62227134  0.58514447  1
  C  C34  1  0.66494328  0.02853998  0.08224587  1
  C  C35  1  0.35873830  0.33106433  0.08210293  1
  C  C36  1  0.63104459  0.67054148  0.91697705  1
  C  C37  1  0.04807352  0.37171933  0.91351327  1
  C  C38  1  0.32595052  0.96370878  0.91452391  1
  C  C39  1  0.62670621  0.95428627  0.41885516  1
  C  C40  1  0.33442132  0.38427091  0.41909027  1
  C  C41  1  0.03796848  0.65938218  0.41700114  1
  C  C42  1  0.22570547  0.02600568  0.31075822  1
  C  C43  1  0.81296200  0.78960603  0.30473217  1
  C  C44  1  0.98774276  0.19536017  0.30721533  1
  C  C45  1  0.21392971  0.16785023  0.80476413  1
  C  C46  1  0.96784720  0.79365198  0.80677171  1
  C  C47  1  0.84750442  0.04242167  0.80607681  1
  C  C48  1  0.81319364  0.98671849  0.68557507  1
  C  C49  1  0.17783753  0.19323396  0.69505718  1
  C  C50  1  0.02125470  0.82611244  0.69641817  1
  C  C51  1  0.80177280  0.81697864  0.19349625  1
  C  C52  1  0.00730368  0.18537694  0.19532166  1
  C  C53  1  0.17342289  0.98864114  0.20009245  1
  C  C54  1  0.88759005  0.37205421  0.64010983  1
  C  C55  1  0.50119341  0.12834429  0.63926581  1
  C  C56  1  0.64662681  0.50754256  0.63846099  1
  C  C57  1  0.90352132  0.52719211  0.14776042  1
  C  C58  1  0.61695937  0.09407208  0.13701154  1
  C  C59  1  0.47432906  0.37269875  0.13643226  1
  C  C60  1  0.42699220  0.28214098  0.02855918  1
  C  C61  1  0.83196494  0.56212706  0.03123713  1
  C  C62  1  0.69665075  0.13740295  0.02762333  1
  C  C63  1  0.42739045  0.13719468  0.51917829  1
  C  C64  1  0.70527227  0.55756150  0.52841407  1
  C  C65  1  0.85363513  0.30247870  0.53056788  1
  C  C66  1  0.53945565  0.69118151  0.97198367  1
  C  C67  1  0.16343531  0.46936820  0.96616450  1
  C  C68  1  0.30500963  0.84272214  0.96597139  1
  C  C69  1  0.53404810  0.84985306  0.47579580  1
  C  C70  1  0.32440635  0.48151793  0.47415676  1
  C  C71  1  0.15918423  0.68104533  0.46906129  1
  C  C72  1  0.11264870  0.64334543  0.35790921  1
  C  C73  1  0.51719366  0.87249228  0.36425748  1
  C  C74  1  0.34417036  0.47541424  0.36183672  1
  C  C75  1  0.12466024  0.47071809  0.85559383  1
  C  C76  1  0.34947189  0.89333709  0.85527731  1
  C  C77  1  0.53081240  0.64754508  0.86083085  1
  C  C78  1  0.03172595  0.82884890  0.41756156  1
  C  C79  1  0.80054490  0.96367367  0.41704402  1
  C  C80  1  0.17335879  0.20189511  0.42054953  1
  C  C81  1  0.04107426  0.19422110  0.91104917  1
  C  C82  1  0.15700489  0.97186177  0.91095804  1
  C  C83  1  0.81027428  0.83953616  0.91289341  1
  C  C84  1  0.98598742  0.17811849  0.59188810  1
  C  C85  1  0.16130641  0.00405678  0.59591697  1
  C  C86  1  0.81810578  0.80843457  0.59279291  1
  C  C87  1  0.99759097  0.84247174  0.09570041  1
  C  C88  1  0.82622387  0.01227345  0.09273931  1
  C  C89  1  0.17494321  0.18610322  0.09457730  1
  C  C90  1  0.69785089  0.18807059  0.74175619  1
  C  C91  1  0.47039119  0.30577078  0.74126624  1
  C  C92  1  0.81897637  0.53297487  0.74250413  1
  C  C93  1  0.68181843  0.52897450  0.24459398  1
  C  C94  1  0.83701737  0.30297264  0.24618851  1
  C  C95  1  0.47398775  0.16395487  0.24188893  1
  C  C96  1  0.65353586  0.51479363  0.92227281  1
  C  C97  1  0.86726350  0.34207376  0.92071717  1
  C  C98  1  0.48001287  0.14253921  0.92350575  1
  C  C99  1  0.64959883  0.13575663  0.42262479  1
  C  C100  1  0.49472986  0.36512129  0.42088944  1
  C  C101  1  0.86103102  0.50259675  0.42498829  1
  C  C102  1  0.35220949  0.49847559  0.07021334  1
  C  C103  1  0.16997371  0.66176407  0.07035897  1
  C  C104  1  0.51660318  0.84021189  0.07181866  1
  C  C105  1  0.35174668  0.83467937  0.57586480  1
  C  C106  1  0.50298014  0.63609928  0.58064582  1
  C  C107  1  0.14717593  0.49579243  0.57651756  1
  C  C108  1  0.30146162  0.83819235  0.24978376  1
  C  C109  1  0.53261447  0.70266444  0.25033619  1
  C  C110  1  0.15846399  0.46694228  0.24724059  1
  C  C111  1  0.29953039  0.45550984  0.75423528  1
  C  C112  1  0.13695720  0.67805829  0.75315024  1
  C  C113  1  0.51548548  0.83434718  0.74981854  1
