# generated using pymatgen
data_CuNi5C33
_symmetry_space_group_name_H-M   'P 1'
_cell_length_a   18.15393829
_cell_length_b   9.11084505
_cell_length_c   22.97137623
_cell_angle_alpha   90.09324786
_cell_angle_beta   89.63640306
_cell_angle_gamma   120.05106102
_symmetry_Int_Tables_number   1
_chemical_formula_structural   CuNi5C33
_chemical_formula_sum   'Cu6 Ni30 C198'
_cell_volume   3288.62258650
_cell_formula_units_Z   6
loop_
 _symmetry_equiv_pos_site_id
 _symmetry_equiv_pos_as_xyz
  1  'x, y, z'
loop_
 _atom_site_type_symbol
 _atom_site_label
 _atom_site_symmetry_multiplicity
 _atom_site_fract_x
 _atom_site_fract_y
 _atom_site_fract_z
 _atom_site_occupancy
  Ni  Ni0  1  0.81731532  0.01106422  0.25056338  1
  Ni  Ni1  1  0.18854194  0.37954711  0.24854609  1
  Ni  Ni2  1  0.69071249  0.36230997  0.25709629  1
  Ni  Ni3  1  0.99125062  0.61183459  0.25663961  1
  Ni  Ni4  1  0.49546453  0.63645638  0.24526917  1
  Ni  Ni5  1  0.31807523  0.62377151  0.75085774  1
  Ni  Ni6  1  0.99565205  0.35375757  0.74715659  1
  Ni  Ni7  1  0.49123689  0.37321525  0.75631102  1
  Ni  Ni8  1  0.19273855  0.02181224  0.74974139  1
  Ni  Ni9  1  0.68880174  0.99668551  0.74945881  1
  Ni  Ni10  1  0.14857506  0.32857669  0.57956220  1
  Ni  Ni11  1  0.01655056  0.69074079  0.58288362  1
  Ni  Ni12  1  0.48846937  0.66551098  0.91757931  1
  Ni  Ni13  1  0.99287024  0.67588599  0.92106154  1
  Ni  Ni14  1  0.84807728  0.02760852  0.91319453  1
  Ni  Ni15  1  0.49381870  0.31209450  0.42088704  1
  Ni  Ni16  1  0.16429229  0.02444662  0.42015534  1
  Ni  Ni17  1  0.34771068  0.66629696  0.41305435  1
  Ni  Ni18  1  0.99515470  0.00366029  0.49937338  1
  Ni  Ni19  1  0.51268521  0.00720789  0.49464935  1
  Ni  Ni20  1  0.01126307  0.01737792  0.99462163  1
  Ni  Ni21  1  0.50395971  0.01305678  0.00024306  1
  Ni  Ni22  1  0.32844836  0.31661453  0.83099066  1
  Ni  Ni23  1  0.83088659  0.33098564  0.83530396  1
  Ni  Ni24  1  0.33608025  0.34162547  0.33379746  1
  Ni  Ni25  1  0.83264491  0.33906988  0.33233509  1
  Ni  Ni26  1  0.17642218  0.67212042  0.16628264  1
  Ni  Ni27  1  0.66044745  0.67115886  0.16207531  1
  Ni  Ni28  1  0.17077101  0.67949842  0.66367743  1
  Ni  Ni29  1  0.67465089  0.67967983  0.66648784  1
  Cu  Cu30  1  0.33095064  0.32732589  0.68537579  1
  Cu  Cu31  1  0.83773014  0.33058835  0.68242125  1
  Cu  Cu32  1  0.33991605  0.34606413  0.18131091  1
  Cu  Cu33  1  0.83182359  0.33025710  0.18543812  1
  Cu  Cu34  1  0.16532162  0.66961632  0.01723609  1
  Cu  Cu35  1  0.66441549  0.66140427  0.51668947  1
  C  C36  1  0.64243766  0.98993141  0.25197829  1
  C  C37  1  0.35075407  0.71290053  0.25324874  1
  C  C38  1  0.85358566  0.71645428  0.25238353  1
  C  C39  1  0.00515301  0.29422686  0.25224331  1
  C  C40  1  0.14350535  0.29822114  0.75200977  1
  C  C41  1  0.50540476  0.71695271  0.75334598  1
  C  C42  1  0.35397424  0.99176932  0.75275782  1
  C  C43  1  0.85218897  0.98782599  0.75218847  1
  C  C44  1  0.98130873  0.33573591  0.58078118  1
  C  C45  1  0.18281566  0.02843963  0.58546226  1
  C  C46  1  0.48618231  0.63266173  0.08105336  1
  C  C47  1  0.80957548  0.66579782  0.91752306  1
  C  C48  1  0.01972760  0.37291478  0.91806755  1
  C  C49  1  0.52043169  0.36903741  0.91427312  1
  C  C50  1  0.16768887  0.96914346  0.91575001  1
  C  C51  1  0.66496641  0.96400387  0.91658470  1
  C  C52  1  0.31145045  0.95484432  0.41591989  1
  C  C53  1  0.16460487  0.36898332  0.41788669  1
  C  C54  1  0.66739121  0.36550720  0.41535953  1
  C  C55  1  0.01714237  0.66567559  0.41315534  1
  C  C56  1  0.51855564  0.66544025  0.41834738  1
  C  C57  1  0.99699787  0.99870456  0.35476157  1
  C  C58  1  0.50158457  0.99124451  0.35476107  1
  C  C59  1  0.00085417  0.01090934  0.85511109  1
  C  C60  1  0.50088309  0.00540439  0.85445626  1
  C  C61  1  0.99956974  0.02029754  0.64684837  1
  C  C62  1  0.49735680  0.98994616  0.65065075  1
  C  C63  1  0.99615586  0.00655394  0.14969422  1
  C  C64  1  0.49458349  0.96507795  0.14671133  1
  C  C65  1  0.33679662  0.32241779  0.98124943  1
  C  C66  1  0.83090146  0.33724052  0.97918126  1
  C  C67  1  0.33011123  0.32381693  0.48087198  1
  C  C68  1  0.83536415  0.34145745  0.47818241  1
  C  C69  1  0.66000992  0.66038029  0.01167019  1
  C  C70  1  0.16271838  0.66879105  0.51211179  1
  C  C71  1  0.16809725  0.66182446  0.31836734  1
  C  C72  1  0.66653501  0.66425529  0.31936530  1
  C  C73  1  0.16689587  0.67061490  0.81947454  1
  C  C74  1  0.67010219  0.67723573  0.81833702  1
  C  C75  1  0.14357895  0.99473106  0.25005056  1
  C  C76  1  0.50155990  0.28571176  0.25058115  1
  C  C77  1  0.64366107  0.29321586  0.74985845  1
  C  C78  1  0.00085286  0.71324646  0.75105093  1
  C  C79  1  0.48252250  0.32113397  0.58571275  1
  C  C80  1  0.67981652  0.03934207  0.58508474  1
  C  C81  1  0.33662603  0.63784796  0.58155068  1
  C  C82  1  0.83524327  0.63294439  0.58513818  1
  C  C83  1  0.98105961  0.64202151  0.08558609  1
  C  C84  1  0.33900482  0.03734605  0.08582092  1
  C  C85  1  0.83429456  0.03242835  0.08119637  1
  C  C86  1  0.18003158  0.31988065  0.08540872  1
  C  C87  1  0.68243869  0.33367015  0.08327741  1
  C  C88  1  0.31616694  0.66336921  0.91627331  1
  C  C89  1  0.81586177  0.96883684  0.41650007  1
  C  C90  1  0.10659322  0.02283737  0.30442658  1
  C  C91  1  0.60031533  0.03660181  0.30584186  1
  C  C92  1  0.40950401  0.79874204  0.31031556  1
  C  C93  1  0.91778658  0.80255191  0.30700199  1
  C  C94  1  0.49188933  0.19234690  0.30549553  1
  C  C95  1  0.99003276  0.17153366  0.30763856  1
  C  C96  1  0.09713703  0.16141283  0.80357637  1
  C  C97  1  0.60571438  0.18624386  0.80256570  1
  C  C98  1  0.49207583  0.80585605  0.81131879  1
  C  C99  1  0.99161710  0.79203348  0.80465360  1
  C  C100  1  0.41773968  0.02792648  0.80686292  1
  C  C101  1  0.90965174  0.02010561  0.80999080  1
  C  C102  1  0.39370674  0.94959923  0.69331956  1
  C  C103  1  0.89618244  0.96214239  0.69273881  1
  C  C104  1  0.08858801  0.22628733  0.69027922  1
  C  C105  1  0.58962898  0.21468091  0.69663958  1
  C  C106  1  0.01141755  0.81362229  0.69697000  1
  C  C107  1  0.52977735  0.84468087  0.69547525  1
  C  C108  1  0.39171540  0.82480284  0.19350340  1
  C  C109  1  0.89380426  0.83931565  0.19341929  1
  C  C110  1  0.02998027  0.21885297  0.19354464  1
  C  C111  1  0.51337769  0.20302542  0.19821516  1
  C  C112  1  0.08802914  0.96604929  0.19785410  1
  C  C113  1  0.58380300  0.95203581  0.19285406  1
  C  C114  1  0.44103610  0.33566819  0.63811535  1
  C  C115  1  0.95537621  0.38479226  0.64160703  1
  C  C116  1  0.22966484  0.09849556  0.64554518  1
  C  C117  1  0.72357638  0.11774204  0.63972980  1
  C  C118  1  0.32632993  0.54117683  0.63479830  1
  C  C119  1  0.82414408  0.53236063  0.63712405  1
  C  C120  1  0.45416194  0.54718272  0.14376345  1
  C  C121  1  0.93865162  0.54541430  0.13791824  1
  C  C122  1  0.32727238  0.11743722  0.13711492  1
  C  C123  1  0.82543927  0.10709840  0.13525324  1
  C  C124  1  0.22355019  0.32889610  0.14013558  1
  C  C125  1  0.72903089  0.35402811  0.13713931  1
  C  C126  1  0.22418816  0.30045973  0.03321585  1
  C  C127  1  0.72538549  0.30283915  0.03146255  1
  C  C128  1  0.42182535  0.53351938  0.02407307  1
  C  C129  1  0.92926815  0.55936583  0.03114466  1
  C  C130  1  0.34915900  0.13796730  0.03090390  1
  C  C131  1  0.84510042  0.14067290  0.02857501  1
  C  C132  1  0.22591270  0.16159725  0.52815297  1
  C  C133  1  0.72283775  0.14600620  0.53280463  1
  C  C134  1  0.34831383  0.55539795  0.52830775  1
  C  C135  1  0.84819561  0.55198587  0.53125304  1
  C  C136  1  0.43120366  0.30011673  0.53119168  1
  C  C137  1  0.91581562  0.30717452  0.52660511  1
  C  C138  1  0.27717159  0.68742758  0.96732663  1
  C  C139  1  0.76991650  0.71341570  0.97383339  1
  C  C140  1  0.07490846  0.44898754  0.97383714  1
  C  C141  1  0.57900296  0.45000302  0.97112184  1
  C  C142  1  0.14456413  0.84705536  0.97006852  1
  C  C143  1  0.64275260  0.83389500  0.97019756  1
  C  C144  1  0.27238423  0.82705705  0.47168688  1
  C  C145  1  0.77682960  0.86750018  0.46766788  1
  C  C146  1  0.15270118  0.45420130  0.47664655  1
  C  C147  1  0.64484107  0.44269720  0.46968656  1
  C  C148  1  0.07776232  0.71093723  0.47062709  1
  C  C149  1  0.57392018  0.70134136  0.47407969  1
  C  C150  1  0.06033412  0.64068186  0.35383570  1
  C  C151  1  0.55560480  0.61953987  0.35749763  1
  C  C152  1  0.24662140  0.87951299  0.36051318  1
  C  C153  1  0.76788749  0.89218683  0.36082450  1
  C  C154  1  0.18745698  0.48809608  0.35970664  1
  C  C155  1  0.68545907  0.48071919  0.35385142  1
  C  C156  1  0.05629283  0.49216061  0.85740956  1
  C  C157  1  0.55996690  0.48916969  0.85538522  1
  C  C158  1  0.18601564  0.89119885  0.85409223  1
  C  C159  1  0.68940408  0.89612844  0.85718566  1
  C  C160  1  0.26771032  0.64237804  0.86081050  1
  C  C161  1  0.75090970  0.62484768  0.85972694  1
  C  C162  1  0.01299076  0.84293838  0.40984062  1
  C  C163  1  0.49549937  0.81643394  0.41127762  1
  C  C164  1  0.40737001  0.98585391  0.40857896  1
  C  C165  1  0.90297505  0.98971700  0.41211537  1
  C  C166  1  0.08437578  0.17509140  0.41142182  1
  C  C167  1  0.57821659  0.18198728  0.40732984  1
  C  C168  1  0.99666058  0.17583123  0.91142385  1
  C  C169  1  0.50750129  0.17881961  0.91066519  1
  C  C170  1  0.07873887  0.97547626  0.90704749  1
  C  C171  1  0.57842160  0.97573644  0.91126698  1
  C  C172  1  0.40431025  0.81390905  0.91131691  1
  C  C173  1  0.90584418  0.83034783  0.91028451  1
  C  C174  1  0.48805589  0.15890815  0.58739873  1
  C  C175  1  0.99184659  0.16509227  0.58159124  1
  C  C176  1  0.08454117  0.00621542  0.58840809  1
  C  C177  1  0.59190022  0.02779215  0.58576244  1
  C  C178  1  0.41485567  0.81109941  0.58366831  1
  C  C179  1  0.91924850  0.79945954  0.58784818  1
  C  C180  1  0.49243395  0.82343531  0.07858284  1
  C  C181  1  0.98725508  0.81552564  0.08708610  1
  C  C182  1  0.42234195  0.03601058  0.08815959  1
  C  C183  1  0.91540605  0.02271983  0.08234444  1
  C  C184  1  0.09245941  0.15518484  0.08535537  1
  C  C185  1  0.59533133  0.18111464  0.08610146  1
  C  C186  1  0.34425281  0.15704050  0.75061302  1
  C  C187  1  0.84102518  0.15550515  0.75036993  1
  C  C188  1  0.23871748  0.33021032  0.74992262  1
  C  C189  1  0.72799741  0.31001463  0.74391291  1
  C  C190  1  0.42157146  0.53434434  0.74817951  1
  C  C191  1  0.92790952  0.53917159  0.74867748  1
  C  C192  1  0.33983702  0.52337154  0.25179329  1
  C  C193  1  0.84137622  0.52961218  0.24774496  1
  C  C194  1  0.42856649  0.31440286  0.24754053  1
  C  C195  1  0.92116786  0.30970758  0.24759126  1
  C  C196  1  0.22769950  0.14695579  0.24366686  1
  C  C197  1  0.73718433  0.14956820  0.24791002  1
  C  C198  1  0.32625981  0.51046689  0.91939758  1
  C  C199  1  0.82562863  0.50453089  0.92594151  1
  C  C200  1  0.42847492  0.36533459  0.92074866  1
  C  C201  1  0.92312196  0.35899200  0.92310385  1
  C  C202  1  0.25234369  0.16287348  0.92323567  1
  C  C203  1  0.75230778  0.14665822  0.92599347  1
  C  C204  1  0.32025718  0.14248155  0.42468104  1
  C  C205  1  0.82396470  0.13946877  0.41908561  1
  C  C206  1  0.25184198  0.35380961  0.42301684  1
  C  C207  1  0.75098595  0.33829776  0.42211107  1
  C  C208  1  0.42251209  0.48498594  0.42393888  1
  C  C209  1  0.92422842  0.49680770  0.42028574  1
  C  C210  1  0.16937524  0.46780019  0.08107736  1
  C  C211  1  0.67749177  0.49009044  0.07452524  1
  C  C212  1  0.06597543  0.66291934  0.08199723  1
  C  C213  1  0.58233913  0.65305424  0.07468502  1
  C  C214  1  0.26744509  0.86374405  0.08082822  1
  C  C215  1  0.75954127  0.86077100  0.07517319  1
  C  C216  1  0.16938923  0.83816188  0.57401641  1
  C  C217  1  0.66952091  0.87022067  0.58113475  1
  C  C218  1  0.25814562  0.64983916  0.57602754  1
  C  C219  1  0.76444716  0.66491313  0.57980707  1
  C  C220  1  0.07966840  0.50038505  0.57187968  1
  C  C221  1  0.56790372  0.46860995  0.58189506  1
  C  C222  1  0.14765015  0.83599842  0.25330805  1
  C  C223  1  0.64662070  0.81165816  0.25871483  1
  C  C224  1  0.25524696  0.69237898  0.25575010  1
  C  C225  1  0.75945969  0.70541053  0.25754869  1
  C  C226  1  0.08985820  0.48628697  0.25602491  1
  C  C227  1  0.58241378  0.45848814  0.25249769  1
  C  C228  1  0.14672993  0.48376445  0.75919431  1
  C  C229  1  0.64699948  0.45883398  0.75450141  1
  C  C230  1  0.08202061  0.70405073  0.75286296  1
  C  C231  1  0.59052356  0.69407238  0.75591678  1
  C  C232  1  0.25958919  0.81508655  0.75732375  1
  C  C233  1  0.75641749  0.81760261  0.75404086  1
