# generated using pymatgen
data_Cu3NiC
_symmetry_space_group_name_H-M   'P 1'
_cell_length_a   6.82000200
_cell_length_b   6.82000200
_cell_length_c   6.82000200
_cell_angle_alpha   90.00000000
_cell_angle_beta   90.00000000
_cell_angle_gamma   90.00000000
_symmetry_Int_Tables_number   1
_chemical_formula_structural   Cu3NiC
_chemical_formula_sum   'Cu12 Ni4 C4'
_cell_volume   317.21484707
_cell_formula_units_Z   4
loop_
 _symmetry_equiv_pos_site_id
 _symmetry_equiv_pos_as_xyz
  1  'x, y, z'
loop_
 _atom_site_type_symbol
 _atom_site_label
 _atom_site_symmetry_multiplicity
 _atom_site_fract_x
 _atom_site_fract_y
 _atom_site_fract_z
 _atom_site_occupancy
  C  C0  1  0.07848600  0.07848600  0.07848600  1
  C  C1  1  0.42151400  0.92151400  0.57848600  1
  C  C2  1  0.57848600  0.42151400  0.92151400  1
  C  C3  1  0.92151400  0.57848600  0.42151400  1
  Ni  Ni4  1  0.40433300  0.40433300  0.40433300  1
  Ni  Ni5  1  0.09566700  0.59566700  0.90433300  1
  Ni  Ni6  1  0.90433300  0.09566700  0.59566700  1
  Ni  Ni7  1  0.59566700  0.90433300  0.09566700  1
  Cu  Cu8  1  0.21472100  0.40125500  0.00184700  1
  Cu  Cu9  1  0.71472100  0.09874500  0.99815300  1
  Cu  Cu10  1  0.78527900  0.90125500  0.49815300  1
  Cu  Cu11  1  0.09874500  0.99815300  0.71472100  1
  Cu  Cu12  1  0.49815300  0.78527900  0.90125500  1
  Cu  Cu13  1  0.99815300  0.71472100  0.09874500  1
  Cu  Cu14  1  0.40125500  0.00184700  0.21472100  1
  Cu  Cu15  1  0.00184700  0.21472100  0.40125500  1
  Cu  Cu16  1  0.28527900  0.59874500  0.50184700  1
  Cu  Cu17  1  0.50184700  0.28527900  0.59874500  1
  Cu  Cu18  1  0.59874500  0.50184700  0.28527900  1
  Cu  Cu19  1  0.90125500  0.49815300  0.78527900  1
