# generated using pymatgen
data_Cu2NiC14
_symmetry_space_group_name_H-M   'P 1'
_cell_length_a   9.09130799
_cell_length_b   9.09393252
_cell_length_c   23.29972175
_cell_angle_alpha   89.88126069
_cell_angle_beta   90.00000000
_cell_angle_gamma   119.99045352
_symmetry_Int_Tables_number   1
_chemical_formula_structural   Cu2NiC14
_chemical_formula_sum   'Cu12 Ni6 C84'
_cell_volume   1668.39926937
_cell_formula_units_Z   6
loop_
 _symmetry_equiv_pos_site_id
 _symmetry_equiv_pos_as_xyz
  1  'x, y, z'
loop_
 _atom_site_type_symbol
 _atom_site_label
 _atom_site_symmetry_multiplicity
 _atom_site_fract_x
 _atom_site_fract_y
 _atom_site_fract_z
 _atom_site_occupancy
  C  C0  1  0.00086148  0.00037301  0.35822228  1
  C  C1  1  0.99951153  0.00037301  0.85822228  1
  C  C2  1  0.67662965  0.33825204  0.69173041  1
  C  C3  1  0.66162339  0.33825204  0.19173041  1
  C  C4  1  0.32917793  0.65557248  0.02473574  1
  C  C5  1  0.32639355  0.65557248  0.52473574  1
  C  C6  1  0.00026192  0.99959662  0.64507248  1
  C  C7  1  0.99933470  0.99959662  0.14507248  1
  C  C8  1  0.66337708  0.33201382  0.97876336  1
  C  C9  1  0.66863774  0.33201382  0.47876336  1
  C  C10  1  0.34370073  0.66036709  0.31176909  1
  C  C11  1  0.31666536  0.66036709  0.81176909  1
  Ni  Ni12  1  0.71245628  0.72298848  0.25009806  1
  Ni  Ni13  1  0.01053220  0.72298848  0.75009806  1
  Ni  Ni14  1  0.94479758  0.31796564  0.58333020  1
  Ni  Ni15  1  0.37316906  0.31796564  0.08333020  1
  Ni  Ni16  1  0.03692832  0.38437552  0.91713638  1
  Ni  Ni17  1  0.34744620  0.38437552  0.41713638  1
  Cu  Cu18  1  0.28047696  0.98417638  0.25018457  1
  Cu  Cu19  1  0.01155122  0.29344871  0.24944884  1
  Cu  Cu20  1  0.28189749  0.29344871  0.74944884  1
  Cu  Cu21  1  0.70369942  0.98417638  0.75018457  1
  Cu  Cu22  1  0.37442675  0.05245951  0.58338188  1
  Cu  Cu23  1  0.67912110  0.62701220  0.58326395  1
  Cu  Cu24  1  0.94789210  0.62701220  0.08326395  1
  Cu  Cu25  1  0.67803376  0.05245951  0.08338188  1
  Cu  Cu26  1  0.61367943  0.65473065  0.91638507  1
  Cu  Cu27  1  0.34660649  0.95928240  0.91689612  1
  Cu  Cu28  1  0.61267491  0.95928240  0.41689612  1
  Cu  Cu29  1  0.04105021  0.65473065  0.41638507  1
  C  C30  1  0.20744320  0.01829486  0.30086370  1
  C  C31  1  0.81872304  0.80389660  0.30303316  1
  C  C32  1  0.98203557  0.19000559  0.30073216  1
  C  C33  1  0.20797002  0.19000559  0.80073216  1
  C  C34  1  0.98517356  0.80389660  0.80303316  1
  C  C35  1  0.81085167  0.01829486  0.80086370  1
  C  C36  1  0.78940571  0.96114668  0.69846635  1
  C  C37  1  0.17073004  0.21078301  0.69810215  1
  C  C38  1  0.03523563  0.83859183  0.69657531  1
  C  C39  1  0.80335621  0.83859183  0.19657531  1
  C  C40  1  0.04005297  0.21078301  0.19810215  1
  C  C41  1  0.17174098  0.96114668  0.19846635  1
  C  C42  1  0.86386286  0.34651044  0.63585165  1
  C  C43  1  0.47664027  0.12779518  0.63457857  1
  C  C44  1  0.64471456  0.52093243  0.63414361  1
  C  C45  1  0.87621888  0.52093243  0.13414361  1
  C  C46  1  0.65115591  0.12779518  0.13457857  1
  C  C47  1  0.48264857  0.34651044  0.13585165  1
  C  C48  1  0.46520579  0.29417747  0.02974416  1
  C  C49  1  0.83855491  0.54333343  0.03185067  1
  C  C50  1  0.70523455  0.16340675  0.03181919  1
  C  C51  1  0.45817320  0.16340675  0.53181919  1
  C  C52  1  0.70477952  0.54333343  0.53185067  1
  C  C53  1  0.82897268  0.29417747  0.52974416  1
  C  C54  1  0.54096765  0.68640557  0.96758966  1
  C  C55  1  0.14892130  0.46536312  0.96901487  1
  C  C56  1  0.31928259  0.85657342  0.96796472  1
  C  C57  1  0.53728983  0.85657342  0.46796472  1
  C  C58  1  0.31644081  0.46536312  0.46901487  1
  C  C59  1  0.14543692  0.68640557  0.46758966  1
  C  C60  1  0.12393665  0.62964284  0.36503551  1
  C  C61  1  0.50359821  0.87577293  0.36518978  1
  C  C62  1  0.37344301  0.50239272  0.36313774  1
  C  C63  1  0.12894871  0.50239272  0.86313774  1
  C  C64  1  0.37217372  0.87577293  0.86518978  1
  C  C65  1  0.50570519  0.62964284  0.86503551  1
  C  C66  1  0.01286851  0.79842166  0.40823195  1
  C  C67  1  0.78379059  0.98620359  0.40812785  1
  C  C68  1  0.19867019  0.20885286  0.40559429  1
  C  C69  1  0.01018266  0.20885286  0.90559429  1
  C  C70  1  0.20241300  0.98620359  0.90812785  1
  C  C71  1  0.78555315  0.79842166  0.90823195  1
  C  C72  1  0.95907775  0.15523541  0.59398721  1
  C  C73  1  0.20381695  0.03941914  0.59112786  1
  C  C74  1  0.83769359  0.79530969  0.59164591  1
  C  C75  1  0.95761611  0.79530969  0.09164591  1
  C  C76  1  0.83560220  0.03941914  0.09112786  1
  C  C77  1  0.19615766  0.15523541  0.09398721  1
  C  C78  1  0.67418661  0.12667405  0.74114202  1
  C  C79  1  0.45090024  0.31758132  0.73964891  1
  C  C80  1  0.86131102  0.54592300  0.74081221  1
  C  C81  1  0.68461298  0.54592300  0.24081221  1
  C  C82  1  0.86668208  0.31758132  0.23964891  1
  C  C83  1  0.45248844  0.12667405  0.24114202  1
  C  C84  1  0.62616455  0.49735542  0.92528120  1
  C  C85  1  0.86127177  0.37172144  0.92818861  1
  C  C86  1  0.50422490  0.12947234  0.92422528  1
  C  C87  1  0.62524844  0.12947234  0.42422528  1
  C  C88  1  0.51045067  0.37172144  0.42818861  1
  C  C89  1  0.87119187  0.49735542  0.42528120  1
  C  C90  1  0.34722365  0.46866205  0.07390376  1
  C  C91  1  0.12026773  0.65847982  0.07412191  1
  C  C92  1  0.53327977  0.88315549  0.07360791  1
  C  C93  1  0.34987472  0.88315549  0.57360791  1
  C  C94  1  0.53821109  0.65847982  0.57412191  1
  C  C95  1  0.12143740  0.46866205  0.57390376  1
  C  C96  1  0.28938955  0.82626865  0.25914074  1
  C  C97  1  0.53381807  0.70952087  0.25931266  1
  C  C98  1  0.16764179  0.46410377  0.25778833  1
  C  C99  1  0.29646099  0.46410377  0.75778833  1
  C  C100  1  0.17570181  0.70952087  0.75931266  1
  C  C101  1  0.53687810  0.82626865  0.75914074  1
