# generated using pymatgen
data_CuNiC15
_symmetry_space_group_name_H-M   'P 1'
_cell_length_a   9.22585077
_cell_length_b   9.22585043
_cell_length_c   23.87957572
_cell_angle_alpha   90.00000000
_cell_angle_beta   90.00000000
_cell_angle_gamma   120.00000118
_symmetry_Int_Tables_number   1
_chemical_formula_structural   CuNiC15
_chemical_formula_sum   'Cu6 Ni6 C90'
_cell_volume   1760.23263187
_cell_formula_units_Z   6
loop_
 _symmetry_equiv_pos_site_id
 _symmetry_equiv_pos_as_xyz
  1  'x, y, z'
loop_
 _atom_site_type_symbol
 _atom_site_label
 _atom_site_symmetry_multiplicity
 _atom_site_fract_x
 _atom_site_fract_y
 _atom_site_fract_z
 _atom_site_occupancy
  Ni  Ni0  1  0.00000000  -0.00000000  0.85037472  1
  Ni  Ni1  1  0.66666700  0.33333300  0.98295828  1
  Ni  Ni2  1  0.33333300  0.66666700  0.02805976  1
  Ni  Ni3  1  0.33333300  0.66666700  0.52289530  1
  Ni  Ni4  1  0.33333300  0.66666700  0.31043870  1
  Ni  Ni5  1  0.33333300  0.66666700  0.80527424  1
  Cu  Cu6  1  0.00000000  -0.00000000  0.35189108  1
  Cu  Cu7  1  0.00000000  -0.00000000  0.64350412  1
  Cu  Cu8  1  0.00000000  -0.00000000  0.14859446  1
  Cu  Cu9  1  0.66666700  0.33333300  0.68473854  1
  Cu  Cu10  1  0.66666700  0.33333300  0.18982888  1
  Cu  Cu11  1  0.66666700  0.33333300  0.48144192  1
  C  C12  1  0.28634083  0.01326667  0.24788761  1
  C  C13  1  0.72692584  0.71365917  0.24788761  1
  C  C14  1  0.98673333  0.27307416  0.24788761  1
  C  C15  1  0.29745046  0.28306711  0.74232203  1
  C  C16  1  0.98561665  0.70254954  0.74232203  1
  C  C17  1  0.71693289  0.01438335  0.74232203  1
  C  C18  1  0.93974116  0.32006633  0.58544539  1
  C  C19  1  0.38032617  0.06025884  0.58544539  1
  C  C20  1  0.67993367  0.61967383  0.58544539  1
  C  C21  1  0.94973411  0.63078346  0.09101097  1
  C  C22  1  0.68105035  0.05026589  0.09101097  1
  C  C23  1  0.36921654  0.31894965  0.09101097  1
  C  C24  1  0.62632825  0.66666700  0.91666700  1
  C  C25  1  0.04033775  0.37367175  0.91666700  1
  C  C26  1  0.33333300  0.95966225  0.91666700  1
  C  C27  1  0.64193876  0.97527276  0.41666700  1
  C  C28  1  0.33333300  0.35806124  0.41666700  1
  C  C29  1  0.02472724  0.66666700  0.41666700  1
  C  C30  1  0.20699196  0.03542117  0.29917743  1
  C  C31  1  0.82842922  0.79300804  0.29917743  1
  C  C32  1  0.96457883  0.17157078  0.29917743  1
  C  C33  1  0.23302857  0.19049975  0.79574611  1
  C  C34  1  0.95747119  0.76697143  0.79574611  1
  C  C35  1  0.80950025  0.04252881  0.79574611  1
  C  C36  1  0.80947742  0.98968247  0.69580250  1
  C  C37  1  0.18020505  0.19052258  0.69580250  1
  C  C38  1  0.01031753  0.81979495  0.69580250  1
  C  C39  1  0.80782471  0.82127759  0.19851575  1
  C  C40  1  0.01345288  0.19217529  0.19851575  1
  C  C41  1  0.17872241  0.98654712  0.19851575  1
  C  C42  1  0.85884229  0.34678588  0.63481725  1
  C  C43  1  0.48794459  0.14115771  0.63481725  1
  C  C44  1  0.65321412  0.51205541  0.63481725  1
  C  C45  1  0.85718958  0.51353805  0.13753050  1
  C  C46  1  0.65634947  0.14281042  0.13753050  1
  C  C47  1  0.48646195  0.34365053  0.13753050  1
  C  C48  1  0.43363843  0.29080419  0.03758689  1
  C  C49  1  0.85716675  0.56636157  0.03758689  1
  C  C50  1  0.70919581  0.14283325  0.03758689  1
  C  C51  1  0.45967504  0.16176222  0.53415557  1
  C  C52  1  0.70208817  0.54032496  0.53415557  1
  C  C53  1  0.83823778  0.29791183  0.53415557  1
  C  C54  1  0.54398437  0.68473578  0.96745228  1
  C  C55  1  0.14075041  0.45601563  0.96745228  1
  C  C56  1  0.31526422  0.85924959  0.96745228  1
  C  C57  1  0.56730934  0.86310519  0.46587089  1
  C  C58  1  0.29579485  0.43269066  0.46587089  1
  C  C59  1  0.13689481  0.70420515  0.46587089  1
  C  C60  1  0.09935666  0.62912885  0.36746311  1
  C  C61  1  0.52977119  0.90064334  0.36746311  1
  C  C62  1  0.37087115  0.47022881  0.36746311  1
  C  C63  1  0.12268163  0.47408441  0.86588172  1
  C  C64  1  0.35140178  0.87731837  0.86588172  1
  C  C65  1  0.52591559  0.64859822  0.86588172  1
  C  C66  1  0.00626872  0.81491036  0.40390433  1
  C  C67  1  0.80864164  0.99373128  0.40390433  1
  C  C68  1  0.18508964  0.19135836  0.40390433  1
  C  C69  1  0.02375580  0.20663793  0.91231405  1
  C  C70  1  0.18288213  0.97624420  0.91231405  1
  C  C71  1  0.79336207  0.81711787  0.91231405  1
  C  C72  1  0.95824924  0.17045854  0.59405620  1
  C  C73  1  0.21220931  0.04175076  0.59405620  1
  C  C74  1  0.82954146  0.78779069  0.59405620  1
  C  C75  1  0.97075648  0.79826724  0.10076101  1
  C  C76  1  0.82751076  0.02924352  0.10076101  1
  C  C77  1  0.20173276  0.17248924  0.10076101  1
  C  C78  1  0.69591052  0.16084376  0.73257199  1
  C  C79  1  0.46493424  0.30408948  0.73257199  1
  C  C80  1  0.83915624  0.53506576  0.73257199  1
  C  C81  1  0.70841776  0.54554231  0.23927680  1
  C  C82  1  0.83712554  0.29158224  0.23927680  1
  C  C83  1  0.45445769  0.16287446  0.23927680  1
  C  C84  1  0.64291120  0.51621513  0.92101895  1
  C  C85  1  0.87330493  0.35708880  0.92101895  1
  C  C86  1  0.48378487  0.12669507  0.92101895  1
  C  C87  1  0.66039828  0.14197464  0.42942867  1
  C  C88  1  0.48157736  0.33960172  0.42942867  1
  C  C89  1  0.85802536  0.51842264  0.42942867  1
  C  C90  1  0.35531840  0.47153007  0.08645344  1
  C  C91  1  0.11621067  0.64468160  0.08645344  1
  C  C92  1  0.52846993  0.88378933  0.08645344  1
  C  C93  1  0.36190476  0.89175776  0.57911447  1
  C  C94  1  0.52985200  0.63809524  0.57911447  1
  C  C95  1  0.10824224  0.47014800  0.57911447  1
  C  C96  1  0.30476124  0.86318600  0.25421953  1
  C  C97  1  0.55842376  0.69523876  0.25421953  1
  C  C98  1  0.13681400  0.44157624  0.25421953  1
  C  C99  1  0.31134760  0.44954467  0.74688056  1
  C  C100  1  0.13819607  0.68865240  0.74688056  1
  C  C101  1  0.55045533  0.86180393  0.74688056  1
