# generated using pymatgen
data_Cu2NiC10
_symmetry_space_group_name_H-M   'P 1'
_cell_length_a   4.96933585
_cell_length_b   5.22051455
_cell_length_c   6.00575662
_cell_angle_alpha   93.21456495
_cell_angle_beta   86.01503014
_cell_angle_gamma   92.08417056
_symmetry_Int_Tables_number   1
_chemical_formula_structural   Cu2NiC10
_chemical_formula_sum   'Cu2 Ni1 C10'
_cell_volume   155.10055072
_cell_formula_units_Z   1
loop_
 _symmetry_equiv_pos_site_id
 _symmetry_equiv_pos_as_xyz
  1  'x, y, z'
loop_
 _atom_site_type_symbol
 _atom_site_label
 _atom_site_symmetry_multiplicity
 _atom_site_fract_x
 _atom_site_fract_y
 _atom_site_fract_z
 _atom_site_occupancy
  Ni  Ni0  1  0.01016800  0.23144200  0.61468400  1
  Cu  Cu1  1  0.51645800  0.74716500  0.39087200  1
  Cu  Cu2  1  0.50680200  0.23559800  0.64618600  1
  C  C3  1  0.99180500  0.74581400  0.85389800  1
  C  C4  1  0.99816500  0.25994900  0.14613300  1
  C  C5  1  0.75657100  0.11351800  0.36729200  1
  C  C6  1  0.23640300  0.39732400  0.35481200  1
  C  C7  1  0.23791900  0.91338100  0.61772100  1
  C  C8  1  0.75956600  0.57624400  0.65275100  1
  C  C9  1  0.79186300  0.08741600  0.88461900  1
  C  C10  1  0.20751900  0.42344200  0.87611700  1
  C  C11  1  0.78866200  0.57193800  0.13157000  1
  C  C12  1  0.19808900  0.94677000  0.08834500  1
