# generated using pymatgen
data_Cu5(Ni2C)3
_symmetry_space_group_name_H-M   'P 1'
_cell_length_a   8.11491670
_cell_length_b   8.11491670
_cell_length_c   8.11491670
_cell_angle_alpha   149.14801124
_cell_angle_beta   107.33055777
_cell_angle_gamma   81.00321947
_symmetry_Int_Tables_number   1
_chemical_formula_structural   Cu5(Ni2C)3
_chemical_formula_sum   'Cu5 Ni6 C3'
_cell_volume   256.15787636
_cell_formula_units_Z   1
loop_
 _symmetry_equiv_pos_site_id
 _symmetry_equiv_pos_as_xyz
  1  'x, y, z'
loop_
 _atom_site_type_symbol
 _atom_site_label
 _atom_site_symmetry_multiplicity
 _atom_site_fract_x
 _atom_site_fract_y
 _atom_site_fract_z
 _atom_site_occupancy
  C  C0  1  0.31781700  0.31781700  0.00000000  1
  C  C1  1  0.68218300  0.68218300  0.00000000  1
  C  C2  1  0.00000000  0.00000000  0.00000000  1
  Ni  Ni3  1  0.38024500  0.10737200  0.27287400  1
  Ni  Ni4  1  0.61975500  0.89262800  0.72712600  1
  Ni  Ni5  1  0.83449800  0.10737200  0.72712600  1
  Ni  Ni6  1  0.69546200  0.50000000  0.19546200  1
  Ni  Ni7  1  0.30453800  0.50000000  0.80453800  1
  Ni  Ni8  1  0.16550200  0.89262800  0.27287400  1
  Cu  Cu9  1  0.98209700  0.32313400  0.65896300  1
  Cu  Cu10  1  0.33582900  0.67686600  0.65896300  1
  Cu  Cu11  1  0.66417100  0.32313400  0.34103700  1
  Cu  Cu12  1  0.50000000  0.00000000  0.50000000  1
  Cu  Cu13  1  0.01790300  0.67686600  0.34103700  1
