# generated using pymatgen
data_Cu6NiC12
_symmetry_space_group_name_H-M   'P 1'
_cell_length_a   5.20257473
_cell_length_b   7.61390570
_cell_length_c   5.73722587
_cell_angle_alpha   97.31531617
_cell_angle_beta   95.34453581
_cell_angle_gamma   86.96438084
_symmetry_Int_Tables_number   1
_chemical_formula_structural   Cu6NiC12
_chemical_formula_sum   'Cu6 Ni1 C12'
_cell_volume   224.23829830
_cell_formula_units_Z   1
loop_
 _symmetry_equiv_pos_site_id
 _symmetry_equiv_pos_as_xyz
  1  'x, y, z'
loop_
 _atom_site_type_symbol
 _atom_site_label
 _atom_site_symmetry_multiplicity
 _atom_site_fract_x
 _atom_site_fract_y
 _atom_site_fract_z
 _atom_site_occupancy
  Ni  Ni0  1  0.99699800  0.16017200  0.66024200  1
  Cu  Cu1  1  0.49148900  0.96490100  0.55020300  1
  Cu  Cu2  1  0.49565100  0.67605300  0.16387700  1
  Cu  Cu3  1  0.52864600  0.36193800  0.81426200  1
  Cu  Cu4  1  0.00689300  0.66921200  0.67186100  1
  Cu  Cu5  1  0.96767200  0.35464400  0.29571900  1
  Cu  Cu6  1  0.00811800  0.98861100  0.05177700  1
  C  C7  1  0.86861300  0.42243500  0.61314700  1
  C  C8  1  0.86618400  0.12179100  0.31738300  1
  C  C9  1  0.68997300  0.10711700  0.81162300  1
  C  C10  1  0.69413400  0.75530300  0.47794000  1
  C  C11  1  0.66600000  0.44668200  0.11585200  1
  C  C12  1  0.32200600  0.58173900  0.85174800  1
  C  C13  1  0.31625800  0.90102400  0.24044300  1
  C  C14  1  0.14874500  0.91407900  0.74192600  1
  C  C15  1  0.80707500  0.76221300  0.98352400  1
  C  C16  1  0.32674400  0.22513300  0.53608000  1
  C  C17  1  0.17455000  0.56272600  0.33864000  1
  C  C18  1  0.15203000  0.24922800  0.00185000  1
