# generated using pymatgen
data_CuNiC8
_symmetry_space_group_name_H-M   'P 1'
_cell_length_a   3.84577567
_cell_length_b   4.11448590
_cell_length_c   10.31617016
_cell_angle_alpha   106.63349932
_cell_angle_beta   90.00401820
_cell_angle_gamma   89.99928405
_symmetry_Int_Tables_number   1
_chemical_formula_structural   CuNiC8
_chemical_formula_sum   'Cu1 Ni1 C8'
_cell_volume   156.40619938
_cell_formula_units_Z   1
loop_
 _symmetry_equiv_pos_site_id
 _symmetry_equiv_pos_as_xyz
  1  'x, y, z'
loop_
 _atom_site_type_symbol
 _atom_site_label
 _atom_site_symmetry_multiplicity
 _atom_site_fract_x
 _atom_site_fract_y
 _atom_site_fract_z
 _atom_site_occupancy
  Ni  Ni0  1  0.00000348  0.78782517  0.07837599  1
  Cu  Cu1  1  0.00002675  0.91611469  0.47523275  1
  C  C2  1  0.49998984  0.12698459  0.84975981  1
  C  C3  1  0.49999910  0.49034820  0.63558765  1
  C  C4  1  0.49998693  0.41328056  0.27218520  1
  C  C5  1  -0.00000723  0.49058319  0.59654697  1
  C  C6  1  0.49999430  -0.02363309  0.64263603  1
  C  C7  1  -0.00002774  0.52372484  0.27345064  1
  C  C8  1  0.49998049  0.16767026  0.42954490  1
  C  C9  1  0.50004808  0.60709758  0.82626506  1
