# generated using pymatgen
data_Cu4Ni2C
_symmetry_space_group_name_H-M   'P 1'
_cell_length_a   25.78961274
_cell_length_b   25.78961274
_cell_length_c   4.16478200
_cell_angle_alpha   90.00000000
_cell_angle_beta   90.00000000
_cell_angle_gamma   120.00000190
_symmetry_Int_Tables_number   1
_chemical_formula_structural   Cu4Ni2C
_chemical_formula_sum   'Cu48 Ni24 C12'
_cell_volume   2398.90217767
_cell_formula_units_Z   12
loop_
 _symmetry_equiv_pos_site_id
 _symmetry_equiv_pos_as_xyz
  1  'x, y, z'
loop_
 _atom_site_type_symbol
 _atom_site_label
 _atom_site_symmetry_multiplicity
 _atom_site_fract_x
 _atom_site_fract_y
 _atom_site_fract_z
 _atom_site_occupancy
  C  C0  1  0.77213500  0.65143600  0.75000000  1
  C  C1  1  0.12069900  0.77213500  0.25000000  1
  C  C2  1  0.65143600  0.87930100  0.25000000  1
  C  C3  1  0.34856400  0.12069900  0.75000000  1
  C  C4  1  0.87930100  0.22786500  0.75000000  1
  C  C5  1  0.22786500  0.34856400  0.25000000  1
  C  C6  1  0.67851200  0.44559300  0.75000000  1
  C  C7  1  0.23291900  0.67851200  0.25000000  1
  C  C8  1  0.44559300  0.76708100  0.25000000  1
  C  C9  1  0.55440700  0.23291900  0.75000000  1
  C  C10  1  0.76708100  0.32148800  0.75000000  1
  C  C11  1  0.32148800  0.55440700  0.25000000  1
  Ni  Ni12  1  0.15297200  0.97735800  0.75000000  1
  Ni  Ni13  1  0.17561400  0.15297200  0.25000000  1
  Ni  Ni14  1  0.97735800  0.82438600  0.25000000  1
  Ni  Ni15  1  0.02264200  0.17561400  0.75000000  1
  Ni  Ni16  1  0.82438600  0.84702800  0.75000000  1
  Ni  Ni17  1  0.84702800  0.02264200  0.25000000  1
  Ni  Ni18  1  0.54120800  0.94996900  0.75000000  1
  Ni  Ni19  1  0.59123900  0.54120800  0.25000000  1
  Ni  Ni20  1  0.94996900  0.40876100  0.25000000  1
  Ni  Ni21  1  0.05003100  0.59123900  0.75000000  1
  Ni  Ni22  1  0.40876100  0.45879200  0.75000000  1
  Ni  Ni23  1  0.45879200  0.05003100  0.25000000  1
  Ni  Ni24  1  0.35267500  0.85597700  0.75000000  1
  Ni  Ni25  1  0.49669900  0.35267500  0.25000000  1
  Ni  Ni26  1  0.85597700  0.50330100  0.25000000  1
  Ni  Ni27  1  0.14402300  0.49669900  0.75000000  1
  Ni  Ni28  1  0.50330100  0.64732500  0.75000000  1
  Ni  Ni29  1  0.64732500  0.14402300  0.25000000  1
  Ni  Ni30  1  0.72676500  0.05789600  0.75000000  1
  Ni  Ni31  1  0.66886900  0.72676500  0.25000000  1
  Ni  Ni32  1  0.05789600  0.33113100  0.25000000  1
  Ni  Ni33  1  0.94210400  0.66886900  0.75000000  1
  Ni  Ni34  1  0.33113100  0.27323500  0.75000000  1
  Ni  Ni35  1  0.27323500  0.94210400  0.25000000  1
  Cu  Cu36  1  0.93650100  0.86148200  0.75000000  1
  Cu  Cu37  1  0.07502000  0.93650100  0.25000000  1
  Cu  Cu38  1  0.86148200  0.92498000  0.25000000  1
  Cu  Cu39  1  0.13851800  0.07502000  0.75000000  1
  Cu  Cu40  1  0.92498000  0.06349900  0.75000000  1
  Cu  Cu41  1  0.06349900  0.13851800  0.25000000  1
  Cu  Cu42  1  0.69375900  0.80773700  0.75000000  1
  Cu  Cu43  1  0.88602200  0.69375900  0.25000000  1
  Cu  Cu44  1  0.80773700  0.11397800  0.25000000  1
  Cu  Cu45  1  0.19226300  0.88602200  0.75000000  1
  Cu  Cu46  1  0.11397800  0.30624100  0.75000000  1
  Cu  Cu47  1  0.30624100  0.19226300  0.25000000  1
  Cu  Cu48  1  0.34368900  0.75213100  0.75000000  1
  Cu  Cu49  1  0.59155800  0.34368900  0.25000000  1
  Cu  Cu50  1  0.75213100  0.40844200  0.25000000  1
  Cu  Cu51  1  0.24786900  0.59155800  0.75000000  1
  Cu  Cu52  1  0.40844200  0.65631100  0.75000000  1
  Cu  Cu53  1  0.65631100  0.24786900  0.25000000  1
  Cu  Cu54  1  0.36734100  0.99774900  0.75000000  1
  Cu  Cu55  1  0.36959200  0.36734100  0.25000000  1
  Cu  Cu56  1  0.54724700  0.85285400  0.75000000  1
  Cu  Cu57  1  0.99774900  0.63040800  0.25000000  1
  Cu  Cu58  1  0.63040800  0.63265900  0.75000000  1
  Cu  Cu59  1  0.63265900  0.00225100  0.25000000  1
  Cu  Cu60  1  0.74979600  0.96851000  0.75000000  1
  Cu  Cu61  1  0.78128700  0.74979600  0.25000000  1
  Cu  Cu62  1  0.96851000  0.21871300  0.25000000  1
  Cu  Cu63  1  0.03149000  0.78128700  0.75000000  1
  Cu  Cu64  1  0.21871300  0.25020400  0.75000000  1
  Cu  Cu65  1  0.25020400  0.03149000  0.25000000  1
  Cu  Cu66  1  0.91003700  0.45506200  0.75000000  1
  Cu  Cu67  1  0.45497600  0.91003700  0.25000000  1
  Cu  Cu68  1  0.45506200  0.54502400  0.25000000  1
  Cu  Cu69  1  0.54493800  0.45497600  0.75000000  1
  Cu  Cu70  1  0.54502400  0.08996300  0.75000000  1
  Cu  Cu71  1  0.08996300  0.54493800  0.25000000  1
  Cu  Cu72  1  0.17467200  0.44874100  0.25000000  1
  Cu  Cu73  1  0.72593100  0.17467200  0.75000000  1
  Cu  Cu74  1  0.44874100  0.27406900  0.75000000  1
  Cu  Cu75  1  0.55125900  0.72593100  0.25000000  1
  Cu  Cu76  1  0.27406900  0.82532800  0.25000000  1
  Cu  Cu77  1  0.82532800  0.55125900  0.75000000  1
  Cu  Cu78  1  0.45275300  0.14714600  0.25000000  1
  Cu  Cu79  1  0.30560800  0.45275300  0.75000000  1
  Cu  Cu80  1  0.14714600  0.69439200  0.75000000  1
  Cu  Cu81  1  0.85285400  0.30560800  0.25000000  1
  Cu  Cu82  1  0.69439200  0.54724700  0.25000000  1
  Cu  Cu83  1  0.00225100  0.36959200  0.75000000  1
