# generated using pymatgen
data_CuNiC19
_symmetry_space_group_name_H-M   'P 1'
_cell_length_a   9.53099203
_cell_length_b   9.51961428
_cell_length_c   23.02096561
_cell_angle_alpha   90.16720105
_cell_angle_beta   89.90190215
_cell_angle_gamma   119.98215781
_symmetry_Int_Tables_number   1
_chemical_formula_structural   CuNiC19
_chemical_formula_sum   'Cu6 Ni6 C114'
_cell_volume   1809.20513357
_cell_formula_units_Z   6
loop_
 _symmetry_equiv_pos_site_id
 _symmetry_equiv_pos_as_xyz
  1  'x, y, z'
loop_
 _atom_site_type_symbol
 _atom_site_label
 _atom_site_symmetry_multiplicity
 _atom_site_fract_x
 _atom_site_fract_y
 _atom_site_fract_z
 _atom_site_occupancy
  C  C0  1  0.64962883  0.99880591  0.25910330  1
  C  C1  1  0.36204931  0.38060810  0.24420233  1
  C  C2  1  0.98966561  0.61825267  0.25813396  1
  C  C3  1  0.62264732  0.62656521  0.73110852  1
  C  C4  1  0.99159153  0.34551459  0.75132160  1
  C  C5  1  0.38941146  0.02250569  0.74834452  1
  C  C6  1  0.32098169  0.33162957  0.59203296  1
  C  C7  1  0.03644297  0.72033097  0.57507176  1
  C  C8  1  0.66212153  0.95119501  0.58887747  1
  C  C9  1  0.28258339  0.96965025  0.07575826  1
  C  C10  1  0.66982225  0.68157081  0.09638853  1
  C  C11  1  0.05024424  0.34070634  0.09344901  1
  C  C12  1  0.98684215  0.66769692  0.92510829  1
  C  C13  1  0.69751442  0.04748729  0.90338489  1
  C  C14  1  0.31934712  0.28349959  0.92222726  1
  C  C15  1  0.95003275  0.30074723  0.40575750  1
  C  C16  1  0.33091719  0.01561259  0.41986631  1
  C  C17  1  0.71371227  0.67726741  0.41967311  1
  C  C18  1  0.98995453  0.97144685  0.50018267  1
  C  C19  1  0.02733183  0.01373555  0.00025294  1
  C  C20  1  0.65516509  0.30490079  0.83210284  1
  C  C21  1  0.68715195  0.34180639  0.33471266  1
  C  C22  1  0.32057112  0.64027402  0.17116200  1
  C  C23  1  0.35875407  0.67834062  0.66442974  1
  Ni  Ni24  1  0.01041862  0.01639248  0.84106630  1
  Ni  Ni25  1  0.99889362  0.00158324  0.16296955  1
  Ni  Ni26  1  0.66621022  0.33350583  0.98934043  1
  Ni  Ni27  1  0.31984096  0.65695530  0.01826056  1
  Ni  Ni28  1  0.34268574  0.68204199  0.51281257  1
  Ni  Ni29  1  0.33281218  0.66625574  0.81393511  1
  Cu  Cu30  1  0.97552224  0.98790909  0.34823086  1
  Cu  Cu31  1  0.99925706  0.00249820  0.64703768  1
  Cu  Cu32  1  0.64922905  0.32364433  0.68033614  1
  Cu  Cu33  1  0.67762976  0.35620839  0.18665876  1
  Cu  Cu34  1  0.66238203  0.33509548  0.48314384  1
  Cu  Cu35  1  0.32886237  0.66885793  0.32096876  1
  C  C36  1  0.68255837  0.69065422  0.25182656  1
  C  C37  1  0.00170279  0.31127185  0.25217285  1
  C  C38  1  0.30843163  0.30272173  0.74320749  1
  C  C39  1  0.70074940  0.00892357  0.74383658  1
  C  C40  1  0.36671039  0.04366821  0.58218690  1
  C  C41  1  0.67470888  0.62896378  0.58369453  1
  C  C42  1  0.96997305  0.64053631  0.08651670  1
  C  C43  1  0.36637664  0.33212293  0.08833588  1
  C  C44  1  0.01762530  0.35169562  0.91434438  1
  C  C45  1  0.33189228  0.97735487  0.91659083  1
  C  C46  1  0.63990304  0.97649339  0.41546021  1
  C  C47  1  0.02541376  0.66983576  0.41643618  1
  C  C48  1  0.31047503  0.99777515  0.25458736  1
  C  C49  1  0.99072702  0.69295511  0.74325069  1
  C  C50  1  0.95133446  0.32458836  0.58355905  1
  C  C51  1  0.66643089  0.03316090  0.08987638  1
  C  C52  1  0.64660260  0.66976532  0.91633505  1
  C  C53  1  0.33149989  0.35858669  0.41434329  1
  C  C54  1  0.21948787  0.02028533  0.30232466  1
  C  C55  1  0.81845801  0.79630166  0.30240235  1
  C  C56  1  0.98032757  0.17763455  0.30246166  1
  C  C57  1  0.24619055  0.21296117  0.80634219  1
  C  C58  1  0.96928524  0.75520457  0.79988514  1
  C  C59  1  0.78702778  0.02570345  0.80732415  1
  C  C60  1  0.81083622  0.98889990  0.69212803  1
  C  C61  1  0.18010632  0.18738438  0.69216219  1
  C  C62  1  0.00276400  0.80335777  0.69541468  1
  C  C63  1  0.74415751  0.79411251  0.19120548  1
  C  C64  1  0.04450708  0.25402460  0.19042803  1
  C  C65  1  0.22130858  0.96979399  0.19853075  1
  C  C66  1  0.87263891  0.34335416  0.63615708  1
  C  C67  1  0.47880897  0.13500360  0.63920406  1
  C  C68  1  0.66381613  0.52085723  0.64058908  1
  C  C69  1  0.85558547  0.51994475  0.13955821  1
  C  C70  1  0.66208707  0.13212423  0.13855400  1
  C  C71  1  0.48330210  0.33077686  0.14149734  1
  C  C72  1  0.43558704  0.31701453  0.02449342  1
  C  C73  1  0.88420646  0.56736892  0.02339788  1
  C  C74  1  0.67526896  0.11140741  0.03282926  1
  C  C75  1  0.46325730  0.15418553  0.52433102  1
  C  C76  1  0.68951775  0.53539801  0.52495448  1
  C  C77  1  0.85574915  0.31277181  0.53046699  1
  C  C78  1  0.56500148  0.68194377  0.96973996  1
  C  C79  1  0.12673455  0.44226809  0.97241157  1
  C  C80  1  0.32853825  0.87893833  0.97614706  1
  C  C81  1  0.58003045  0.86912854  0.47552288  1
  C  C82  1  0.29794518  0.41954157  0.46933662  1
  C  C83  1  0.12894212  0.70557494  0.47732278  1
  C  C84  1  0.12923765  0.64315188  0.36422785  1
  C  C85  1  0.50998367  0.87179079  0.36345194  1
  C  C86  1  0.35173570  0.47038832  0.36574230  1
  C  C87  1  0.11213078  0.45389570  0.85554122  1
  C  C88  1  0.34771632  0.88500985  0.85831056  1
  C  C89  1  0.55093139  0.66214633  0.86400009  1
  C  C90  1  0.01010215  0.83493087  0.40653676  1
  C  C91  1  0.82432156  0.00260707  0.40546970  1
  C  C92  1  0.19406158  0.19179851  0.40403484  1
  C  C93  1  0.99374358  0.16858220  0.91661522  1
  C  C94  1  0.16015759  0.97890288  0.91728362  1
  C  C95  1  0.81085733  0.81330172  0.91441545  1
  C  C96  1  0.96241071  0.17293405  0.58592544  1
  C  C97  1  0.18467984  0.02768181  0.58530764  1
  C  C98  1  0.83711762  0.81417331  0.58641649  1
  C  C99  1  0.98868120  0.82162399  0.09051661  1
  C  C100  1  0.81339421  0.01617312  0.09141987  1
  C  C101  1  0.18184019  0.17403520  0.09067567  1
  C  C102  1  0.69234530  0.17794842  0.73863715  1
  C  C103  1  0.49291174  0.32841102  0.73867258  1
  C  C104  1  0.85075084  0.52650089  0.73641088  1
  C  C105  1  0.67009215  0.51033751  0.24862026  1
  C  C106  1  0.83046902  0.31729996  0.24912303  1
  C  C107  1  0.47562379  0.14424453  0.25082679  1
  C  C108  1  0.65752645  0.51975720  0.91561758  1
  C  C109  1  0.84078895  0.34193594  0.91401872  1
  C  C110  1  0.48971140  0.16111588  0.91445856  1
  C  C111  1  0.65275557  0.15629414  0.42077650  1
  C  C112  1  0.48584977  0.35342773  0.41851352  1
  C  C113  1  0.84412364  0.50330479  0.41976020  1
  C  C114  1  0.36655060  0.50533827  0.09324542  1
  C  C115  1  0.14832201  0.65321818  0.09243566  1
  C  C116  1  0.51827198  0.87022646  0.09192924  1
  C  C117  1  0.34484825  0.85960845  0.58274980  1
  C  C118  1  0.50591931  0.63987003  0.58397366  1
  C  C119  1  0.11895391  0.46712653  0.58026214  1
  C  C120  1  0.32698720  0.85114219  0.26247949  1
  C  C121  1  0.50148641  0.66642740  0.26457379  1
  C  C122  1  0.15883608  0.49456174  0.26352864  1
  C  C123  1  0.31957556  0.48100603  0.73961324  1
  C  C124  1  0.14302316  0.68480443  0.74227501  1
  C  C125  1  0.51835590  0.84752635  0.74050996  1
