# generated using pymatgen
data_Cu5Ni7C62
_symmetry_space_group_name_H-M   'P 1'
_cell_length_a   18.43873823
_cell_length_b   9.19096801
_cell_length_c   23.66699152
_cell_angle_alpha   90.24588414
_cell_angle_beta   89.57661287
_cell_angle_gamma   119.97018448
_symmetry_Int_Tables_number   1
_chemical_formula_structural   Cu5Ni7C62
_chemical_formula_sum   'Cu15 Ni21 C186'
_cell_volume   3474.43811324
_cell_formula_units_Z   3
loop_
 _symmetry_equiv_pos_site_id
 _symmetry_equiv_pos_as_xyz
  1  'x, y, z'
loop_
 _atom_site_type_symbol
 _atom_site_label
 _atom_site_symmetry_multiplicity
 _atom_site_fract_x
 _atom_site_fract_y
 _atom_site_fract_z
 _atom_site_occupancy
  C  C0  1  0.00334945  0.61353591  0.25780938  1
  C  C1  1  0.49866106  0.63205738  0.26401954  1
  C  C2  1  0.99742504  0.36994974  0.75346539  1
  C  C3  1  0.50391308  0.39384798  0.75350936  1
  C  C4  1  0.33082950  0.98763329  0.57183346  1
  C  C5  1  0.82943580  0.67083875  0.07546636  1
  C  C6  1  0.00165449  0.97312483  0.50297717  1
  C  C7  1  0.50021758  0.01741784  0.49269792  1
  C  C8  1  0.99319572  0.97903401  0.99465389  1
  C  C9  1  0.50351420  0.03216629  0.00672106  1
  C  C10  1  0.32456866  0.36173782  0.82836754  1
  C  C11  1  0.83175222  0.33386778  0.83794470  1
  C  C12  1  0.33401553  0.33334143  0.34129876  1
  C  C13  1  0.82153092  0.28700781  0.33044411  1
  C  C14  1  0.17278671  0.65308623  0.17854154  1
  C  C15  1  0.66444982  0.66587353  0.17001282  1
  C  C16  1  0.16366319  0.66706248  0.66042959  1
  C  C17  1  0.67252409  0.69447195  0.66831844  1
  C  C18  1  0.50745599  0.99345372  0.64050698  1
  C  C19  1  0.00636528  0.01836272  0.14253124  1
  C  C20  1  0.33698088  0.34923654  0.68717594  1
  C  C21  1  0.81996818  0.32881370  0.68443885  1
  C  C22  1  0.32062077  0.31467951  0.18799488  1
  C  C23  1  0.83642449  0.32570634  0.18892174  1
  C  C24  1  0.66468085  0.64166011  0.00401349  1
  C  C25  1  0.16105843  0.68323654  0.50378114  1
  C  C26  1  0.17768047  0.66789388  0.32047924  1
  C  C27  1  0.66773020  0.68410042  0.32617180  1
  C  C28  1  0.16622177  0.63958467  0.82191949  1
  C  C29  1  0.67686605  0.68591155  0.81902258  1
  C  C30  1  0.99001788  0.00753187  0.35744339  1
  C  C31  1  0.50227452  0.98241265  0.35898199  1
  C  C32  1  0.99353311  0.01585021  0.85314021  1
  C  C33  1  0.49106977  0.97410284  0.85743807  1
  C  C34  1  0.99972382  0.00010665  0.64276992  1
  C  C35  1  0.50018713  0.00413225  0.14560678  1
  C  C36  1  0.34315014  0.33249430  0.98161558  1
  C  C37  1  0.83461304  0.34526588  0.98574114  1
  C  C38  1  0.33488969  0.32246648  0.48641333  1
  C  C39  1  0.83462487  0.35340359  0.47695731  1
  C  C40  1  0.16876665  0.67159808  0.01354284  1
  C  C41  1  0.66654013  0.65106159  0.51037198  1
  Ni  Ni42  1  0.63894545  0.99848609  0.24909451  1
  Ni  Ni43  1  0.36266949  0.72412933  0.24966137  1
  Ni  Ni44  1  0.00283566  0.29982799  0.25442094  1
  Ni  Ni45  1  0.13905467  0.27313380  0.74884031  1
  Ni  Ni46  1  0.50299204  0.70653915  0.75373034  1
  Ni  Ni47  1  0.85845253  0.00255726  0.74643312  1
  Ni  Ni48  1  0.48763029  0.34453595  0.58331498  1
  Ni  Ni49  1  0.18470012  0.03983599  0.58550150  1
  Ni  Ni50  1  0.83047376  0.63199469  0.58187458  1
  Ni  Ni51  1  0.98702588  0.63184877  0.08217404  1
  Ni  Ni52  1  0.33183328  0.03082634  0.08241043  1
  Ni  Ni53  1  0.68447608  0.32735135  0.08505792  1
  Ni  Ni54  1  0.31548800  0.65179079  0.91951262  1
  Ni  Ni55  1  0.82989699  0.66973804  0.91851369  1
  Ni  Ni56  1  0.01172060  0.36612272  0.91841705  1
  Ni  Ni57  1  0.50952800  0.34812052  0.90937975  1
  Ni  Ni58  1  0.32690770  0.98492459  0.41858370  1
  Ni  Ni59  1  0.81510459  0.97843774  0.42082757  1
  Ni  Ni60  1  0.66603953  0.36278021  0.41406423  1
  Ni  Ni61  1  0.00864051  0.67045448  0.40897973  1
  Ni  Ni62  1  0.51084468  0.65341707  0.41914231  1
  Cu  Cu63  1  0.14086588  0.00160292  0.25838316  1
  Cu  Cu64  1  0.85764824  0.71928468  0.25455598  1
  Cu  Cu65  1  0.50261436  0.27836618  0.24788516  1
  Cu  Cu66  1  0.64071383  0.27762447  0.75893985  1
  Cu  Cu67  1  0.00202881  0.73008672  0.74868860  1
  Cu  Cu68  1  0.35869053  0.99808127  0.75537559  1
  Cu  Cu69  1  0.98109011  0.32374094  0.58531552  1
  Cu  Cu70  1  0.69095976  0.02844543  0.57270327  1
  Cu  Cu71  1  0.32814963  0.62882200  0.57606099  1
  Cu  Cu72  1  0.47788182  0.63379116  0.08251761  1
  Cu  Cu73  1  0.82983164  0.03038688  0.07572276  1
  Cu  Cu74  1  0.19010982  0.35077178  0.07266907  1
  Cu  Cu75  1  0.17075284  0.97594786  0.92182756  1
  Cu  Cu76  1  0.66550931  0.99674378  0.91748292  1
  Cu  Cu77  1  0.16590334  0.33356323  0.41766608  1
  C  C78  1  0.08503144  0.99350569  0.30462317  1
  C  C79  1  0.58532556  0.99201715  0.30696870  1
  C  C80  1  0.41584367  0.82427826  0.30728377  1
  C  C81  1  0.90639778  0.83588772  0.30261941  1
  C  C82  1  0.50150389  0.18197196  0.29728908  1
  C  C83  1  0.00543674  0.18650098  0.30994321  1
  C  C84  1  0.08467730  0.17047692  0.80709119  1
  C  C85  1  0.58528809  0.17432025  0.80583128  1
  C  C86  1  0.50510790  0.82394313  0.81021321  1
  C  C87  1  0.00067352  0.82502462  0.79909439  1
  C  C88  1  0.40726458  0.97911538  0.80357206  1
  C  C89  1  0.90978780  0.00623378  0.80742958  1
  C  C90  1  0.39746126  0.99376197  0.70103491  1
  C  C91  1  0.91578027  0.00042104  0.69247728  1
  C  C92  1  0.08431051  0.16274482  0.69261675  1
  C  C93  1  0.60456632  0.20114584  0.70351115  1
  C  C94  1  0.00045027  0.81395452  0.69473077  1
  C  C95  1  0.49962997  0.80193616  0.69696164  1
  C  C96  1  0.41537901  0.83271598  0.19167214  1
  C  C97  1  0.89852445  0.79886857  0.20010448  1
  C  C98  1  -0.00004508  0.19900773  0.19681990  1
  C  C99  1  0.49983831  0.18837435  0.19260887  1
  C  C100  1  0.10633351  0.00872642  0.20247079  1
  C  C101  1  0.58422778  0.00596710  0.19248560  1
  C  C102  1  0.45929936  0.36715772  0.64595164  1
  C  C103  1  0.94421902  0.34053556  0.63933667  1
  C  C104  1  0.24404132  0.12248461  0.63928444  1
  C  C105  1  0.72504142  0.08448103  0.63056807  1
  C  C106  1  0.32884921  0.55455719  0.63095557  1
  C  C107  1  0.80880361  0.52468522  0.63984452  1
  C  C108  1  0.43982858  0.53902537  0.13482946  1
  C  C109  1  0.96190944  0.55178236  0.14432051  1
  C  C110  1  0.30771488  0.09585433  0.13890423  1
  C  C111  1  0.83091659  0.10783446  0.13036841  1
  C  C112  1  0.22590974  0.36892698  0.12954938  1
  C  C113  1  0.74603414  0.36827741  0.13778450  1
  C  C114  1  0.24583773  0.34344500  0.02954684  1
  C  C115  1  0.73684994  0.31197775  0.02827474  1
  C  C116  1  0.42476794  0.53422114  0.03241571  1
  C  C117  1  0.91344988  0.49803065  0.03619426  1
  C  C118  1  0.34523460  0.17036436  0.03138576  1
  C  C119  1  0.82614373  0.13106612  0.02798496  1
  C  C120  1  0.23632545  0.15967325  0.52931513  1
  C  C121  1  0.74869807  0.15242150  0.53133205  1
  C  C122  1  0.32493206  0.51992918  0.52865981  1
  C  C123  1  0.84627055  0.52173661  0.53172535  1
  C  C124  1  0.41312645  0.32899099  0.53763655  1
  C  C125  1  0.92920542  0.30984985  0.53629835  1
  C  C126  1  0.26286918  0.69163028  0.96745642  1
  C  C127  1  0.80041041  0.71942020  0.97670329  1
  C  C128  1  0.08704169  0.48710806  0.96381171  1
  C  C129  1  0.56385178  0.40858679  0.96628426  1
  C  C130  1  0.15908604  0.85745589  0.96896999  1
  C  C131  1  0.64480111  0.88640172  0.96693229  1
  C  C132  1  0.29516217  0.87732943  0.47681924  1
  C  C133  1  0.76218453  0.83116247  0.46748173  1
  C  C134  1  0.14560432  0.40345950  0.46735854  1
  C  C135  1  0.65266645  0.46470514  0.46771406  1
  C  C136  1  0.06429281  0.72429169  0.46552728  1
  C  C137  1  0.58493136  0.68309038  0.46449215  1
  C  C138  1  0.04640363  0.62427236  0.35521899  1
  C  C139  1  0.53006035  0.60171211  0.35764568  1
  C  C140  1  0.26197484  0.90870975  0.36740820  1
  C  C141  1  0.76694175  0.93280215  0.36166349  1
  C  C142  1  0.18289393  0.43591687  0.36680121  1
  C  C143  1  0.69197667  0.47833777  0.35938436  1
  C  C144  1  0.03334455  0.45969286  0.85754980  1
  C  C145  1  0.54561059  0.46806858  0.85552810  1
  C  C146  1  0.19139837  0.92008801  0.86942727  1
  C  C147  1  0.68218641  0.92804657  0.86638002  1
  C  C148  1  0.26526694  0.60303118  0.86105275  1
  C  C149  1  0.76630138  0.62528922  0.86703761  1
  C  C150  1  0.98897738  0.82387906  0.39660771  1
  C  C151  1  0.50592095  0.83034894  0.41282508  1
  C  C152  1  0.41966016  0.01142714  0.40245239  1
  C  C153  1  0.91101389  0.00144840  0.41052740  1
  C  C154  1  0.09037276  0.15995598  0.40819291  1
  C  C155  1  0.58453509  0.17621196  0.40615803  1
  C  C156  1  0.00645521  0.17780030  0.91026165  1
  C  C157  1  0.48860102  0.15436650  0.89788466  1
  C  C158  1  0.09505509  0.99127539  0.91805666  1
  C  C159  1  0.59048243  0.02097768  0.90835220  1
  C  C160  1  0.41079454  0.81891634  0.91016528  1
  C  C161  1  0.92593115  0.82584027  0.90235078  1
  C  C162  1  0.48367528  0.16372950  0.57491528  1
  C  C163  1  0.98443717  0.16030697  0.58783427  1
  C  C164  1  0.09029748  0.02298008  0.59139923  1
  C  C165  1  0.60829736  0.01770556  0.56724871  1
  C  C166  1  0.40563459  0.79626347  0.56990854  1
  C  C167  1  0.91806568  0.81612736  0.59164736  1
  C  C168  1  0.47825625  0.79789357  0.08331626  1
  C  C169  1  0.98379238  0.80472271  0.07366073  1
  C  C170  1  0.41792913  0.01994505  0.09043605  1
  C  C171  1  0.90720898  0.01781160  0.06927776  1
  C  C172  1  0.10687816  0.19905803  0.06757450  1
  C  C173  1  0.59055724  0.15445383  0.09051953  1
  C  C174  1  0.36306443  0.16169978  0.76327666  1
  C  C175  1  0.85963592  0.18122074  0.74975182  1
  C  C176  1  0.23024753  0.29471733  0.75360316  1
  C  C177  1  0.72388165  0.29080240  0.76549086  1
  C  C178  1  0.41972416  0.52371116  0.76214891  1
  C  C179  1  0.92662984  0.55840619  0.75035744  1
  C  C180  1  0.36177917  0.54383975  0.24907158  1
  C  C181  1  0.86145736  0.56386687  0.26262852  1
  C  C182  1  0.42649886  0.29705368  0.24835941  1
  C  C183  1  0.91957416  0.31610370  0.26274498  1
  C  C184  1  0.22426361  0.15501535  0.26560086  1
  C  C185  1  0.72976300  0.16305678  0.25205633  1
  C  C186  1  0.33309887  0.50066514  0.93830045  1
  C  C187  1  0.84077017  0.50218646  0.93088864  1
  C  C188  1  0.41535646  0.32669879  0.92789944  1
  C  C189  1  0.91786109  0.31836426  0.93999854  1
  C  C190  1  0.24293690  0.14699695  0.93741187  1
  C  C191  1  0.73874897  0.16657650  0.92638925  1
  C  C192  1  0.34079390  0.17700162  0.43190150  1
  C  C193  1  0.83695003  0.16647403  0.44101367  1
  C  C194  1  0.23863383  0.30915879  0.42663721  1
  C  C195  1  0.74268754  0.32992316  0.43650808  1
  C  C196  1  0.41644196  0.51276164  0.44081927  1
  C  C197  1  0.91478870  0.50613468  0.42625847  1
  C  C198  1  0.18057919  0.50265351  0.06474026  1
  C  C199  1  0.67507532  0.49376528  0.07644777  1
  C  C200  1  0.07849584  0.65465790  0.06037966  1
  C  C201  1  0.56306724  0.66358546  0.07490723  1
  C  C202  1  0.25229146  0.84882225  0.06145675  1
  C  C203  1  0.75563908  0.85951480  0.07525408  1
  C  C204  1  0.17452901  0.85371808  0.57783436  1
  C  C205  1  0.68162244  0.86053566  0.56490808  1
  C  C206  1  0.25420737  0.65162439  0.57554825  1
  C  C207  1  0.75187887  0.65746387  0.56350652  1
  C  C208  1  0.06773278  0.46323176  0.58009897  1
  C  C209  1  0.57848089  0.50770201  0.56501452  1
  C  C210  1  0.14733401  0.84762845  0.25731507  1
  C  C211  1  0.63593258  0.81768440  0.24446447  1
  C  C212  1  0.27116633  0.70385472  0.24682934  1
  C  C213  1  0.77263920  0.69291147  0.25498338  1
  C  C214  1  0.08562798  0.48550592  0.25137345  1
  C  C215  1  0.57773197  0.44603677  0.24469721  1
  C  C216  1  0.13583071  0.44937733  0.74696260  1
  C  C217  1  0.64695801  0.44397330  0.75900898  1
  C  C218  1  0.07816502  0.71426905  0.74813052  1
  C  C219  1  0.58574534  0.68654815  0.75115681  1
  C  C220  1  0.27248103  0.85652552  0.75810175  1
  C  C221  1  0.76863055  0.83714326  0.74506767  1
