# generated using pymatgen
data_Cu2NiC17
_symmetry_space_group_name_H-M   'P 1'
_cell_length_a   15.14223041
_cell_length_b   8.76857757
_cell_length_c   8.77126613
_cell_angle_alpha   89.79557035
_cell_angle_beta   124.50240775
_cell_angle_gamma   90.11360762
_symmetry_Int_Tables_number   1
_chemical_formula_structural   Cu2NiC17
_chemical_formula_sum   'Cu8 Ni4 C68'
_cell_volume   959.75347422
_cell_formula_units_Z   4
loop_
 _symmetry_equiv_pos_site_id
 _symmetry_equiv_pos_as_xyz
  1  'x, y, z'
loop_
 _atom_site_type_symbol
 _atom_site_label
 _atom_site_symmetry_multiplicity
 _atom_site_fract_x
 _atom_site_fract_y
 _atom_site_fract_z
 _atom_site_occupancy
  C  C0  1  0.25079143  0.74888438  0.99963465  1
  C  C1  1  0.74546867  0.75124922  0.48700964  1
  C  C2  1  0.75079143  0.24888438  0.99963465  1
  C  C3  1  0.24546867  0.25124922  0.48700964  1
  C  C4  1  0.49549803  0.10148988  0.73738615  1
  C  C5  1  0.50480418  0.88664041  0.25658900  1
  C  C6  1  0.99549803  0.60148988  0.73738615  1
  C  C7  1  0.00480418  0.38664041  0.25658900  1
  C  C8  1  0.19180739  0.92877504  0.28900122  1
  C  C9  1  0.80710624  0.07116945  0.70777588  1
  C  C10  1  0.69180739  0.42877504  0.28900122  1
  C  C11  1  0.30710624  0.57116945  0.70777588  1
  C  C12  1  0.89493611  0.74869961  0.93480435  1
  C  C13  1  0.39493611  0.24869961  0.93480435  1
  C  C14  1  0.10610653  0.75214176  0.56384524  1
  C  C15  1  0.89488463  0.24777222  0.43671703  1
  C  C16  1  0.10272552  0.25293837  0.06036353  1
  C  C17  1  0.60610653  0.25214176  0.56384524  1
  C  C18  1  0.39488463  0.74777222  0.43671703  1
  C  C19  1  0.60272552  0.75293837  0.06036353  1
  Ni  Ni20  1  0.35399592  0.88511186  0.75101956  1
  Ni  Ni21  1  0.65369859  0.09780298  0.25700935  1
  Ni  Ni22  1  0.85399592  0.38511186  0.75101956  1
  Ni  Ni23  1  0.15369859  0.59780298  0.25700935  1
  Cu  Cu24  1  0.00835355  0.96928031  0.75224650  1
  Cu  Cu25  1  -0.00009432  0.04295437  0.25703057  1
  Cu  Cu26  1  0.50835355  0.46928031  0.75224650  1
  Cu  Cu27  1  0.49990568  0.54295437  0.25703057  1
  Cu  Cu28  1  0.63772480  0.89282795  0.74123099  1
  Cu  Cu29  1  0.35568255  0.10805162  0.26504316  1
  Cu  Cu30  1  0.13772480  0.39282795  0.74123099  1
  Cu  Cu31  1  0.85568255  0.60805162  0.26504316  1
  C  C32  1  0.14572061  0.57021045  0.73759283  1
  C  C33  1  0.84659289  0.57728461  0.76069621  1
  C  C34  1  0.85250975  0.43133377  0.26021382  1
  C  C35  1  0.15040383  0.41453428  0.23167658  1
  C  C36  1  0.64572061  0.07021045  0.73759283  1
  C  C37  1  0.34659289  0.07728461  0.76069621  1
  C  C38  1  0.35250975  0.93133377  0.26021382  1
  C  C39  1  0.65040383  0.91453428  0.23167658  1
  C  C40  1  0.43742783  0.57175639  0.58385820  1
  C  C41  1  0.57560906  0.55824432  0.93428671  1
  C  C42  1  0.56436973  0.43060263  0.41764921  1
  C  C43  1  0.42732160  0.44915432  0.07302994  1
  C  C44  1  0.93742783  0.07175639  0.58385820  1
  C  C45  1  0.07560906  0.05824432  0.93428671  1
  C  C46  1  0.06436973  0.93060263  0.41764921  1
  C  C47  1  0.92732160  0.94915432  0.07302994  1
  C  C48  1  0.25002003  0.80976790  0.73183819  1
  C  C49  1  0.73931494  0.83145523  0.75277198  1
  C  C50  1  0.75064462  0.18665073  0.26632419  1
  C  C51  1  0.25361987  0.17018753  0.23964436  1
  C  C52  1  0.75002003  0.30976790  0.73183819  1
  C  C53  1  0.23931494  0.33145523  0.75277198  1
  C  C54  1  0.25064462  0.68665073  0.26632419  1
  C  C55  1  0.75361987  0.67018753  0.23964436  1
  C  C56  1  0.35846611  0.86414997  0.57068342  1
  C  C57  1  0.63973707  0.84988175  0.91213638  1
  C  C58  1  0.64076950  0.13461710  0.42599276  1
  C  C59  1  0.35881265  0.15249399  0.09265632  1
  C  C60  1  0.85846611  0.36414997  0.57068342  1
  C  C61  1  0.13973707  0.34988175  0.91213638  1
  C  C62  1  0.14076950  0.63461710  0.42599276  1
  C  C63  1  0.85881265  0.65249399  0.09265632  1
  C  C64  1  0.46214389  0.82147694  0.93856469  1
  C  C65  1  0.53868889  0.83179895  0.56051868  1
  C  C66  1  0.53997595  0.17619731  0.06910464  1
  C  C67  1  0.45717416  0.17295881  0.43830302  1
  C  C68  1  0.96214389  0.32147694  0.93856469  1
  C  C69  1  0.03868889  0.33179895  0.56051868  1
  C  C70  1  0.03997595  0.67619731  0.06910464  1
  C  C71  1  0.95717416  0.67295881  0.43830302  1
  C  C72  1  0.07775483  0.85088359  0.73593633  1
  C  C73  1  0.92138467  0.86775305  0.75871704  1
  C  C74  1  0.92568124  0.15436810  0.26897819  1
  C  C75  1  0.08236646  0.13644884  0.24211952  1
  C  C76  1  0.57775483  0.35088359  0.73593633  1
  C  C77  1  0.42138467  0.36775305  0.75871704  1
  C  C78  1  0.42568124  0.65436810  0.26897819  1
  C  C79  1  0.58236646  0.63644884  0.24211952  1
