# generated using pymatgen
data_Cu2NiC14
_symmetry_space_group_name_H-M   'P 1'
_cell_length_a   9.08292103
_cell_length_b   9.07710401
_cell_length_c   22.65672288
_cell_angle_alpha   90.13013716
_cell_angle_beta   90.00000000
_cell_angle_gamma   120.02120130
_symmetry_Int_Tables_number   1
_chemical_formula_structural   Cu2NiC14
_chemical_formula_sum   'Cu12 Ni6 C84'
_cell_volume   1617.35836387
_cell_formula_units_Z   6
loop_
 _symmetry_equiv_pos_site_id
 _symmetry_equiv_pos_as_xyz
  1  'x, y, z'
loop_
 _atom_site_type_symbol
 _atom_site_label
 _atom_site_symmetry_multiplicity
 _atom_site_fract_x
 _atom_site_fract_y
 _atom_site_fract_z
 _atom_site_occupancy
  C  C0  1  0.99710477  0.00391525  0.36400171  1
  C  C1  1  0.00681048  0.00391525  0.86400171  1
  C  C2  1  0.66547720  0.33364542  0.69720799  1
  C  C3  1  0.66816921  0.33364542  0.19720799  1
  C  C4  1  0.33004292  0.66581215  0.03064607  1
  C  C5  1  0.33576823  0.66581215  0.53064607  1
  C  C6  1  0.00246559  0.01194150  0.64511391  1
  C  C7  1  0.00947591  0.01194150  0.14511391  1
  C  C8  1  0.65780260  0.32859629  0.97854133  1
  C  C9  1  0.67079469  0.32859629  0.47854133  1
  C  C10  1  0.33698721  0.66836410  0.31215909  1
  C  C11  1  0.33137590  0.66836410  0.81215909  1
  Ni  Ni12  1  0.02683652  0.29894507  0.25146365  1
  Ni  Ni13  1  0.27210855  0.29894507  0.75146365  1
  Ni  Ni14  1  0.93890727  0.31186820  0.58456050  1
  Ni  Ni15  1  0.37296193  0.31186820  0.08456050  1
  Ni  Ni16  1  0.35763380  0.96055061  0.91837438  1
  Ni  Ni17  1  0.60291580  0.96055061  0.41837438  1
  Cu  Cu18  1  0.26937134  0.96983023  0.25057988  1
  Cu  Cu19  1  0.70317617  0.72904129  0.25021271  1
  Cu  Cu20  1  0.02586511  0.72904129  0.75021271  1
  Cu  Cu21  1  0.70045889  0.96983023  0.75057988  1
  Cu  Cu22  1  0.36678236  0.06274295  0.58305632  1
  Cu  Cu23  1  0.69810374  0.63321996  0.58411938  1
  Cu  Cu24  1  0.93511722  0.63321996  0.08411938  1
  Cu  Cu25  1  0.69596159  0.06274295  0.08305632  1
  Cu  Cu26  1  0.60384877  0.64002044  0.91658444  1
  Cu  Cu27  1  0.03214676  0.39783024  0.91659580  1
  Cu  Cu28  1  0.36568248  0.39783024  0.41659580  1
  Cu  Cu29  1  0.03617067  0.64002044  0.41658444  1
  C  C30  1  0.19985488  0.00090600  0.30285452  1
  C  C31  1  0.80440282  0.79664538  0.30269452  1
  C  C32  1  0.99737597  0.18912068  0.30366462  1
  C  C33  1  0.19174471  0.18912068  0.80366462  1
  C  C34  1  0.99224256  0.79664538  0.80269452  1
  C  C35  1  0.80105112  0.00090600  0.80285452  1
  C  C36  1  0.78739621  0.94004764  0.69749224  1
  C  C37  1  0.14466838  0.19940806  0.69532744  1
  C  C38  1  0.05506074  0.84280622  0.69744996  1
  C  C39  1  0.78774548  0.84280622  0.19744996  1
  C  C40  1  0.05473968  0.19940806  0.19532744  1
  C  C41  1  0.15265143  0.94004764  0.19749224  1
  C  C42  1  0.86071622  0.33840140  0.63799999  1
  C  C43  1  0.46804782  0.13198355  0.63546519  1
  C  C44  1  0.66345412  0.52961091  0.63585981  1
  C  C45  1  0.86615780  0.52961091  0.13585981  1
  C  C46  1  0.66393673  0.13198355  0.13546519  1
  C  C47  1  0.47768618  0.33840140  0.13799999  1
  C  C48  1  0.47049029  0.28322258  0.02900156  1
  C  C49  1  0.82150067  0.54567094  0.03070422  1
  C  C50  1  0.72712526  0.18059305  0.03039644  1
  C  C51  1  0.45346879  0.18059305  0.53039644  1
  C  C52  1  0.72417127  0.54567094  0.53070422  1
  C  C53  1  0.81273329  0.28322258  0.52900156  1
  C  C54  1  0.53419328  0.67041045  0.96914538  1
  C  C55  1  0.13800415  0.46395189  0.96806176  1
  C  C56  1  0.33386083  0.85858985  0.97222272  1
  C  C57  1  0.52472802  0.85858985  0.47222272  1
  C  C58  1  0.32594674  0.46395189  0.46806176  1
  C  C59  1  0.13621617  0.67041045  0.46914538  1
  C  C60  1  0.12205212  0.60825263  0.36375836  1
  C  C61  1  0.47850648  0.86502981  0.36303260  1
  C  C62  1  0.39198905  0.51476069  0.36361847  1
  C  C63  1  0.12277064  0.51476069  0.86361847  1
  C  C64  1  0.38652234  0.86502981  0.86303260  1
  C  C65  1  0.48619951  0.60825263  0.86375836  1
  C  C66  1  0.99632833  0.77150731  0.40360534  1
  C  C67  1  0.78159504  0.00829530  0.40430671  1
  C  C68  1  0.23934224  0.22416854  0.40271431  1
  C  C69  1  0.98482631  0.22416854  0.90271431  1
  C  C70  1  0.22670026  0.00829530  0.90430671  1
  C  C71  1  0.77517898  0.77150731  0.90360534  1
  C  C72  1  0.93541685  0.13245028  0.59359599  1
  C  C73  1  0.19780618  0.06164862  0.59104665  1
  C  C74  1  0.86599860  0.79964007  0.59330502  1
  C  C75  1  0.93364147  0.79964007  0.09330502  1
  C  C76  1  0.86384243  0.06164862  0.09104665  1
  C  C77  1  0.19703343  0.13245028  0.09359599  1
  C  C78  1  0.65791391  0.09996891  0.73775327  1
  C  C79  1  0.44846283  0.34433566  0.73525812  1
  C  C80  1  0.89831908  0.55433005  0.73866235  1
  C  C81  1  0.65601197  0.55433005  0.23866235  1
  C  C82  1  0.89587383  0.34433566  0.23525812  1
  C  C83  1  0.44205600  0.09996891  0.23775327  1
  C  C84  1  0.60710830  0.47289094  0.92429896  1
  C  C85  1  0.86946451  0.40473792  0.92551680  1
  C  C86  1  0.53561638  0.13957805  0.92776489  1
  C  C87  1  0.60396267  0.13957805  0.42776489  1
  C  C88  1  0.53527441  0.40473792  0.42551680  1
  C  C89  1  0.86578364  0.47289094  0.42429896  1
  C  C90  1  0.32361468  0.43976579  0.06863140  1
  C  C91  1  0.10878152  0.67659713  0.07200360  1
  C  C92  1  0.56638012  0.89021973  0.07047977  1
  C  C93  1  0.32383861  0.89021973  0.57047977  1
  C  C94  1  0.56781460  0.67659713  0.57200360  1
  C  C95  1  0.11615011  0.43976579  0.56863140  1
  C  C96  1  0.26924978  0.80119105  0.25824379  1
  C  C97  1  0.53439738  0.73004753  0.25913428  1
  C  C98  1  0.20238697  0.47289170  0.26171184  1
  C  C99  1  0.27050374  0.47289170  0.76171184  1
  C  C100  1  0.19564915  0.73004753  0.75913428  1
  C  C101  1  0.53194027  0.80119105  0.75824379  1
