# generated using pymatgen
data_Cu9Ni3C58
_symmetry_space_group_name_H-M   'P 1'
_cell_length_a   18.69759056
_cell_length_b   9.36961487
_cell_length_c   24.63816146
_cell_angle_alpha   89.94288163
_cell_angle_beta   90.20319406
_cell_angle_gamma   120.20536573
_symmetry_Int_Tables_number   1
_chemical_formula_structural   Cu9Ni3C58
_chemical_formula_sum   'Cu27 Ni9 C174'
_cell_volume   3730.27585014
_cell_formula_units_Z   3
loop_
 _symmetry_equiv_pos_site_id
 _symmetry_equiv_pos_as_xyz
  1  'x, y, z'
loop_
 _atom_site_type_symbol
 _atom_site_label
 _atom_site_symmetry_multiplicity
 _atom_site_fract_x
 _atom_site_fract_y
 _atom_site_fract_z
 _atom_site_occupancy
  C  C0  1  0.99968109  0.98845888  0.49968920  1
  C  C1  1  0.50259108  0.01359798  0.99708254  1
  C  C2  1  0.34060253  0.33614025  0.83454271  1
  C  C3  1  0.83956477  0.35916472  0.83019370  1
  C  C4  1  0.34007336  0.32221137  0.33659186  1
  C  C5  1  0.84085831  0.34317298  0.34315145  1
  C  C6  1  0.00676655  0.98690298  0.36050777  1
  C  C7  1  0.50540631  0.02321495  0.85734977  1
  C  C8  1  0.00157940  0.99409253  0.64913263  1
  C  C9  1  0.50253325  0.00910616  0.14999609  1
  C  C10  1  0.32416941  0.34010267  0.67992546  1
  C  C11  1  0.84152640  0.33742277  0.68397167  1
  C  C12  1  0.34799971  0.34373112  0.18901903  1
  C  C13  1  0.82239445  0.30537807  0.18053826  1
  C  C14  1  0.33406077  0.33297885  0.98153764  1
  C  C15  1  0.84124054  0.33570032  0.98373874  1
  C  C16  1  0.34234314  0.34891748  0.48511216  1
  C  C17  1  0.82713496  0.32356686  0.48549164  1
  C  C18  1  0.15999386  0.65847538  0.01838414  1
  C  C19  1  0.66161081  0.67634849  0.52321815  1
  C  C20  1  0.16042431  0.67401154  0.31325481  1
  C  C21  1  0.66844127  0.66213321  0.30774687  1
  C  C22  1  0.16817140  0.67599200  0.80559341  1
  C  C23  1  0.65957482  0.64535031  0.81093250  1
  C  C24  1  0.49113301  0.00335100  0.35596121  1
  C  C25  1  0.99094079  0.97885208  0.85348416  1
  C  C26  1  0.49776350  0.98925634  0.64374626  1
  C  C27  1  0.99461926  0.00072456  0.14677742  1
  C  C28  1  0.67751593  0.67013142  0.01300441  1
  C  C29  1  0.17567773  0.68322225  0.51420458  1
  Ni  Ni30  1  0.49500887  0.27900054  0.25521500  1
  Ni  Ni31  1  0.99236004  0.70417524  0.75416075  1
  Ni  Ni32  1  0.68208655  0.04071969  0.58754365  1
  Ni  Ni33  1  0.33006963  0.63939527  0.58228800  1
  Ni  Ni34  1  0.83026888  0.02172106  0.08224097  1
  Ni  Ni35  1  0.81370355  0.66708078  0.91409500  1
  Ni  Ni36  1  0.52339727  0.37937740  0.92150248  1
  Ni  Ni37  1  0.31271271  0.96117102  0.41521472  1
  Ni  Ni38  1  0.02068344  0.66038651  0.42163536  1
  Cu  Cu39  1  0.14119464  0.00512224  0.24356326  1
  Cu  Cu40  1  0.64336397  0.00941504  0.25700698  1
  Cu  Cu41  1  0.35970181  0.71408334  0.25637957  1
  Cu  Cu42  1  0.86197836  0.71778514  0.24510886  1
  Cu  Cu43  1  0.99907901  0.27596533  0.24599595  1
  Cu  Cu44  1  0.14299419  0.27605688  0.75727335  1
  Cu  Cu45  1  0.64118478  0.27794360  0.74387741  1
  Cu  Cu46  1  0.49844369  0.72176648  0.74616684  1
  Cu  Cu47  1  0.36147297  0.00827219  0.74565455  1
  Cu  Cu48  1  0.86019457  0.00588099  0.75656350  1
  Cu  Cu49  1  0.48130381  0.31471293  0.58877382  1
  Cu  Cu50  1  0.99473182  0.34960401  0.57821812  1
  Cu  Cu51  1  0.18327553  0.01936921  0.57770847  1
  Cu  Cu52  1  0.83435980  0.63592699  0.58196764  1
  Cu  Cu53  1  0.49282399  0.63773800  0.07880027  1
  Cu  Cu54  1  0.98223222  0.64879638  0.08884445  1
  Cu  Cu55  1  0.33258457  0.03170968  0.08238237  1
  Cu  Cu56  1  0.17657278  0.31670826  0.08852139  1
  Cu  Cu57  1  0.68355773  0.34769542  0.07764538  1
  Cu  Cu58  1  0.31436670  0.66809042  0.91690725  1
  Cu  Cu59  1  0.01937572  0.35592955  0.91104216  1
  Cu  Cu60  1  0.15825246  0.96460302  0.91245727  1
  Cu  Cu61  1  0.66623107  0.94760515  0.92099349  1
  Cu  Cu62  1  0.81565873  0.96342068  0.41571107  1
  Cu  Cu63  1  0.16698709  0.38457066  0.42115681  1
  Cu  Cu64  1  0.65887849  0.35185073  0.41198544  1
  Cu  Cu65  1  0.51788843  0.68221479  0.41003104  1
  C  C66  1  0.10651450  0.02555369  0.29495615  1
  C  C67  1  0.59436114  0.01705727  0.30278425  1
  C  C68  1  0.41495085  0.81027563  0.30392516  1
  C  C69  1  0.90876413  0.79158749  0.29541658  1
  C  C70  1  0.48898095  0.15413545  0.30746393  1
  C  C71  1  0.98918555  0.18092900  0.29535396  1
  C  C72  1  0.09328970  0.17010553  0.80372509  1
  C  C73  1  0.60547800  0.18857826  0.79604124  1
  C  C74  1  0.48892302  0.79703638  0.79643908  1
  C  C75  1  0.98915365  0.82220165  0.80768005  1
  C  C76  1  0.40694748  0.02664096  0.79743823  1
  C  C77  1  0.91601935  0.01746673  0.80468788  1
  C  C78  1  0.40882963  0.99848914  0.69878733  1
  C  C79  1  0.89806851  0.99414022  0.70586367  1
  C  C80  1  0.10127716  0.20957832  0.70478009  1
  C  C81  1  0.58618181  0.17850660  0.69802419  1
  C  C82  1  0.00324259  0.81017321  0.70005512  1
  C  C83  1  0.50034251  0.82404872  0.69762761  1
  C  C84  1  0.39722573  0.80165601  0.20500523  1
  C  C85  1  0.91182358  0.82628558  0.19701967  1
  C  C86  1  0.00157947  0.17507305  0.19658296  1
  C  C87  1  0.50276087  0.19706406  0.19947135  1
  C  C88  1  0.08640144  0.99611907  0.19686591  1
  C  C89  1  0.60186953  0.99294623  0.20394256  1
  C  C90  1  0.43977557  0.34423068  0.63476081  1
  C  C91  1  0.96031895  0.37732009  0.62867147  1
  C  C92  1  0.23020130  0.08637826  0.62891671  1
  C  C93  1  0.74195862  0.12969875  0.63926843  1
  C  C94  1  0.30922196  0.52133584  0.63550817  1
  C  C95  1  0.82901893  0.54325735  0.63166209  1
  C  C96  1  0.45590206  0.53977530  0.12925462  1
  C  C97  1  0.94194752  0.53746414  0.13496677  1
  C  C98  1  0.32508198  0.11323377  0.13154980  1
  C  C99  1  0.81072658  0.09652383  0.13607091  1
  C  C100  1  0.23213674  0.34817980  0.13484188  1
  C  C101  1  0.73030814  0.37431908  0.12888863  1
  C  C102  1  0.20597076  0.27533020  0.03901442  1
  C  C103  1  0.72548535  0.31999453  0.03208721  1
  C  C104  1  0.43389960  0.55383665  0.03313495  1
  C  C105  1  0.93261965  0.59034079  0.03906448  1
  C  C106  1  0.34209309  0.13245350  0.03368235  1
  C  C107  1  0.85797786  0.14829901  0.03215864  1
  C  C108  1  0.22531512  0.13047456  0.53187365  1
  C  C109  1  0.71520562  0.15000822  0.53297892  1
  C  C110  1  0.35590868  0.56604266  0.53169808  1
  C  C111  1  0.84588280  0.55777344  0.53329940  1
  C  C112  1  0.43131665  0.27590169  0.53882114  1
  C  C113  1  0.93721954  0.31608636  0.53226678  1
  C  C114  1  0.27189797  0.68023997  0.96671131  1
  C  C115  1  0.76438780  0.69058874  0.96930585  1
  C  C116  1  0.06596992  0.42568843  0.96301660  1
  C  C117  1  0.58727042  0.49822309  0.97227465  1
  C  C118  1  0.14413240  0.86640338  0.96270869  1
  C  C119  1  0.66302038  0.84433107  0.96955438  1
  C  C120  1  0.26335230  0.83899195  0.46948642  1
  C  C121  1  0.77489146  0.86712112  0.46512617  1
  C  C122  1  0.16327264  0.48024865  0.46907075  1
  C  C123  1  0.64334455  0.41643154  0.46178441  1
  C  C124  1  0.08661221  0.67339200  0.47171688  1
  C  C125  1  0.56304130  0.70837059  0.46155101  1
  C  C126  1  0.05990318  0.64846717  0.36402104  1
  C  C127  1  0.56108608  0.65677427  0.36460732  1
  C  C128  1  0.25996998  0.87276538  0.36186842  1
  C  C129  1  0.76861955  0.87767313  0.36639373  1
  C  C130  1  0.17382156  0.46986517  0.36972387  1
  C  C131  1  0.67132947  0.45918399  0.36498515  1
  C  C132  1  0.06245499  0.46941914  0.86609605  1
  C  C133  1  0.55925638  0.47192061  0.86434380  1
  C  C134  1  0.17378643  0.88595289  0.86627333  1
  C  C135  1  0.67337111  0.87587448  0.87017226  1
  C  C136  1  0.26762596  0.65760547  0.86791969  1
  C  C137  1  0.75827651  0.64652518  0.86223836  1
  C  C138  1  0.01868954  0.83562777  0.42453672  1
  C  C139  1  0.51040602  0.83272829  0.39845779  1
  C  C140  1  0.40622752  0.97071547  0.40267659  1
  C  C141  1  0.89994951  0.98297417  0.41370159  1
  C  C142  1  0.08959689  0.22031823  0.42203411  1
  C  C143  1  0.58228911  0.18153853  0.40034355  1
  C  C144  1  0.01235297  0.19183677  0.90099796  1
  C  C145  1  0.51812720  0.19858914  0.92460410  1
  C  C146  1  0.08275393  0.98025259  0.90190323  1
  C  C147  1  0.58871744  0.95587224  0.92249831  1
  C  C148  1  0.39851116  0.81652696  0.91626653  1
  C  C149  1  0.90660749  0.84361454  0.90190862  1
  C  C150  1  0.49010641  0.16645274  0.60230702  1
  C  C151  1  0.00495693  0.20265629  0.58440234  1
  C  C152  1  0.09904710  0.99492834  0.58226634  1
  C  C153  1  0.58640047  0.01376119  0.60441168  1
  C  C154  1  0.41108569  0.82326162  0.60318833  1
  C  C155  1  0.90788971  0.80680714  0.58406786  1
  C  C156  1  0.50195273  0.80422528  0.08442170  1
  C  C157  1  0.99363150  0.81786067  0.10285383  1
  C  C158  1  0.40628467  0.01133017  0.08493804  1
  C  C159  1  0.91263530  0.99968337  0.10371518  1
  C  C160  1  0.09074322  0.16716482  0.10233095  1
  C  C161  1  0.59900335  0.20264388  0.08229724  1
  C  C162  1  0.35008106  0.15380679  0.74096549  1
  C  C163  1  0.85694140  0.16013448  0.75843728  1
  C  C164  1  0.22551688  0.28628943  0.75733748  1
  C  C165  1  0.72437023  0.29796561  0.74007244  1
  C  C166  1  0.42451189  0.55282612  0.74084705  1
  C  C167  1  0.90930176  0.52541947  0.75690957  1
  C  C168  1  0.35487569  0.55051853  0.25599106  1
  C  C169  1  0.85192917  0.55257119  0.23775635  1
  C  C170  1  0.41059404  0.29175575  0.25624193  1
  C  C171  1  0.92563408  0.29547796  0.23856848  1
  C  C172  1  0.22422915  0.15352625  0.23733765  1
  C  C173  1  0.72627356  0.16453987  0.25609709  1
  C  C174  1  0.32143436  0.51723373  0.91977622  1
  C  C175  1  0.83234201  0.51982730  0.92591505  1
  C  C176  1  0.42950186  0.35226544  0.92684587  1
  C  C177  1  0.93537844  0.33390965  0.91604893  1
  C  C178  1  0.22999881  0.13402588  0.91873965  1
  C  C179  1  0.73842041  0.11580062  0.92698602  1
  C  C180  1  0.33221472  0.14731804  0.42476967  1
  C  C181  1  0.82346648  0.12863876  0.41685290  1
  C  C182  1  0.23914354  0.36064463  0.42641411  1
  C  C183  1  0.73029561  0.32603174  0.41534688  1
  C  C184  1  0.43315953  0.53661736  0.41367239  1
  C  C185  1  0.92745663  0.50240757  0.42506013  1
  C  C186  1  0.16319829  0.45748917  0.07912933  1
  C  C187  1  0.67718367  0.49921835  0.06696695  1
  C  C188  1  0.06579419  0.67339236  0.08006572  1
  C  C189  1  0.57376782  0.65145839  0.06802323  1
  C  C190  1  0.25738350  0.86682031  0.07628004  1
  C  C191  1  0.75171240  0.84001752  0.06421326  1
  C  C192  1  0.17673024  0.85465380  0.56724601  1
  C  C193  1  0.66405224  0.85391991  0.57741087  1
  C  C194  1  0.25128058  0.66280169  0.56373119  1
  C  C195  1  0.75907997  0.64776270  0.57668155  1
  C  C196  1  0.07700837  0.49863303  0.56686209  1
  C  C197  1  0.56429203  0.45565261  0.58081687  1
  C  C198  1  0.14555942  0.85384558  0.24384530  1
  C  C199  1  0.65509770  0.86633328  0.26188155  1
  C  C200  1  0.27826702  0.69543984  0.26206608  1
  C  C201  1  0.78273230  0.71297833  0.24478070  1
  C  C202  1  0.07568232  0.43455443  0.24434612  1
  C  C203  1  0.57573709  0.45687137  0.26321329  1
  C  C204  1  0.15472019  0.44234248  0.76282391  1
  C  C205  1  0.64546317  0.43865146  0.74472781  1
  C  C206  1  0.07542557  0.69607457  0.76357787  1
  C  C207  1  0.57434481  0.71444428  0.74627071  1
  C  C208  1  0.28063333  0.85515181  0.74732414  1
  C  C209  1  0.77941724  0.86036404  0.76308745  1
