# generated using pymatgen
data_Cu8NiC32
_symmetry_space_group_name_H-M   'P 1'
_cell_length_a   5.59926231
_cell_length_b   11.12940645
_cell_length_c   11.14131595
_cell_angle_alpha   55.07957328
_cell_angle_beta   54.30939131
_cell_angle_gamma   54.18624446
_symmetry_Int_Tables_number   1
_chemical_formula_structural   Cu8NiC32
_chemical_formula_sum   'Cu8 Ni1 C32'
_cell_volume   428.20545854
_cell_formula_units_Z   1
loop_
 _symmetry_equiv_pos_site_id
 _symmetry_equiv_pos_as_xyz
  1  'x, y, z'
loop_
 _atom_site_type_symbol
 _atom_site_label
 _atom_site_symmetry_multiplicity
 _atom_site_fract_x
 _atom_site_fract_y
 _atom_site_fract_z
 _atom_site_occupancy
  Ni  Ni0  1  0.27705000  0.67723000  0.14582600  1
  C  C1  1  0.36304400  0.16215200  0.17226900  1
  C  C2  1  0.13466800  0.07169700  0.57574100  1
  C  C3  1  0.00975600  0.51232400  0.01309000  1
  C  C4  1  0.13961800  0.56030400  0.58442500  1
  C  C5  1  0.85465200  0.42588800  0.42448000  1
  C  C6  1  0.80012800  0.41879300  0.93246100  1
  C  C7  1  0.87875700  0.92445000  0.41962000  1
  C  C8  1  0.84745300  0.92457200  0.91978900  1
  Cu  Cu9  1  0.14422200  0.06929000  0.06959000  1
  Cu  Cu10  1  0.51003000  0.72970700  0.24059100  1
  Cu  Cu11  1  0.35248300  0.17018800  0.67418600  1
  Cu  Cu12  1  0.64223900  0.31662000  0.33386300  1
  Cu  Cu13  1  0.35698600  0.67422200  0.66972000  1
  Cu  Cu14  1  0.64688400  0.31875500  0.81597600  1
  Cu  Cu15  1  0.65990200  0.82343400  0.33846300  1
  Cu  Cu16  1  0.63272900  0.83834200  0.81231200  1
  C  C17  1  0.06253700  0.36722000  0.21454400  1
  C  C18  1  0.43847200  0.03615900  0.36907100  1
  C  C19  1  0.72391100  0.21978300  0.03416400  1
  C  C20  1  0.22136600  0.28263200  0.46948800  1
  C  C21  1  0.60550400  0.46793000  0.11633700  1
  C  C22  1  0.04724900  0.37675700  0.72334100  1
  C  C23  1  0.06649200  0.86342300  0.22837400  1
  C  C24  1  0.95696000  0.11192900  0.28186500  1
  C  C25  1  0.45678400  0.02906500  0.86792200  1
  C  C26  1  0.42540300  0.51149100  0.40032600  1
  C  C27  1  0.77346600  0.21412700  0.52413200  1
  C  C28  1  0.74508300  0.71957200  0.01678000  1
  C  C29  1  0.21456000  0.29316900  0.97928200  1
  C  C30  1  0.23398200  0.78135700  0.47530200  1
  C  C31  1  0.55848100  0.47123400  0.61392600  1
  C  C32  1  0.57020100  0.97788100  0.11291000  1
  C  C33  1  0.05811100  0.88549100  0.70678100  1
  C  C34  1  0.94627100  0.11476000  0.77079200  1
  C  C35  1  0.90242600  0.61755900  0.29512800  1
  C  C36  1  0.42724300  0.52175800  0.87838400  1
  C  C37  1  0.77222100  0.71558000  0.53450900  1
  C  C38  1  0.22201500  0.80473400  0.94405100  1
  C  C39  1  0.56276900  0.97690500  0.60137200  1
  C  C40  1  0.94839500  0.60485400  0.79407000  1
