# generated using pymatgen
data_Cu7Ni4
_symmetry_space_group_name_H-M   'P 1'
_cell_length_a   18.73190700
_cell_length_b   7.50331200
_cell_length_c   11.65516898
_cell_angle_alpha   56.34819437
_cell_angle_beta   90.00000000
_cell_angle_gamma   90.00000000
_symmetry_Int_Tables_number   1
_chemical_formula_structural   Cu7Ni4
_chemical_formula_sum   'Cu28 Ni16'
_cell_volume   1363.62940677
_cell_formula_units_Z   4
loop_
 _symmetry_equiv_pos_site_id
 _symmetry_equiv_pos_as_xyz
  1  'x, y, z'
loop_
 _atom_site_type_symbol
 _atom_site_label
 _atom_site_symmetry_multiplicity
 _atom_site_fract_x
 _atom_site_fract_y
 _atom_site_fract_z
 _atom_site_occupancy
  Ni  Ni0  1  0.62377900  0.39779000  0.28521600  1
  Ni  Ni1  1  0.12377900  0.60221000  0.21478400  1
  Ni  Ni2  1  0.37622100  0.60221000  0.71478400  1
  Ni  Ni3  1  0.87622100  0.39779000  0.78521600  1
  Ni  Ni4  1  0.70436100  0.11158700  0.34879300  1
  Ni  Ni5  1  0.20436100  0.88841300  0.15120700  1
  Ni  Ni6  1  0.29563900  0.88841300  0.65120700  1
  Ni  Ni7  1  0.79563900  0.11158700  0.84879300  1
  Ni  Ni8  1  0.54616100  0.02212100  0.26146200  1
  Ni  Ni9  1  0.04616100  0.97787900  0.23853800  1
  Ni  Ni10  1  0.45383900  0.97787900  0.73853800  1
  Ni  Ni11  1  0.95383900  0.02212100  0.76146200  1
  Ni  Ni12  1  0.66994300  0.38833700  0.01461400  1
  Ni  Ni13  1  0.16994300  0.61166300  0.48538600  1
  Ni  Ni14  1  0.33005700  0.61166300  0.98538600  1
  Ni  Ni15  1  0.83005700  0.38833700  0.51461400  1
  Cu  Cu16  1  0.58224300  0.18226500  0.05314000  1
  Cu  Cu17  1  0.08224300  0.81773500  0.44686000  1
  Cu  Cu18  1  0.41775700  0.81773500  0.94686000  1
  Cu  Cu19  1  0.91775700  0.18226500  0.55314000  1
  Cu  Cu20  1  0.46749200  0.84024800  0.28396900  1
  Cu  Cu21  1  0.96749200  0.15975200  0.21603100  1
  Cu  Cu22  1  0.53250800  0.15975200  0.71603100  1
  Cu  Cu23  1  0.03250800  0.84024800  0.78396900  1
  Cu  Cu24  1  0.69669600  0.52672700  0.82318000  1
  Cu  Cu25  1  0.19669600  0.47327300  0.67682000  1
  Cu  Cu26  1  0.30330400  0.47327300  0.17682000  1
  Cu  Cu27  1  0.80330400  0.52672700  0.32318000  1
  Cu  Cu28  1  0.52307500  0.25388000  0.30540700  1
  Cu  Cu29  1  0.02307500  0.74612000  0.19459300  1
  Cu  Cu30  1  0.47692500  0.74612000  0.69459300  1
  Cu  Cu31  1  0.97692500  0.25388000  0.80540700  1
  Cu  Cu32  1  0.63339900  0.85988900  0.39446400  1
  Cu  Cu33  1  0.13339900  0.14011100  0.10553600  1
  Cu  Cu34  1  0.36660100  0.14011100  0.60553600  1
  Cu  Cu35  1  0.86660100  0.85988900  0.89446400  1
  Cu  Cu36  1  0.75226600  0.21090100  0.15698000  1
  Cu  Cu37  1  0.25226600  0.78909900  0.34302000  1
  Cu  Cu38  1  0.24773400  0.78909900  0.84302000  1
  Cu  Cu39  1  0.74773400  0.21090100  0.65698000  1
  Cu  Cu40  1  0.64206100  0.60398400  0.06985400  1
  Cu  Cu41  1  0.14206100  0.39601600  0.43014600  1
  Cu  Cu42  1  0.35793900  0.39601600  0.93014600  1
  Cu  Cu43  1  0.85793900  0.60398400  0.56985400  1
