# generated using pymatgen
data_Cu3NiC13
_symmetry_space_group_name_H-M   'P 1'
_cell_length_a   8.56408171
_cell_length_b   8.56408145
_cell_length_c   21.99713023
_cell_angle_alpha   90.00000000
_cell_angle_beta   90.00000000
_cell_angle_gamma   120.00000098
_symmetry_Int_Tables_number   1
_chemical_formula_structural   Cu3NiC13
_chemical_formula_sum   'Cu18 Ni6 C78'
_cell_volume   1397.19893057
_cell_formula_units_Z   6
loop_
 _symmetry_equiv_pos_site_id
 _symmetry_equiv_pos_as_xyz
  1  'x, y, z'
loop_
 _atom_site_type_symbol
 _atom_site_label
 _atom_site_symmetry_multiplicity
 _atom_site_fract_x
 _atom_site_fract_y
 _atom_site_fract_z
 _atom_site_occupancy
  C  C0  1  0.00000000  0.00000000  0.63962945  1
  C  C1  1  0.00000000  0.00000000  0.13962945  1
  C  C2  1  0.66666700  0.33333300  0.97296245  1
  C  C3  1  0.66666700  0.33333300  0.47296245  1
  C  C4  1  0.33333300  0.66666700  0.30629645  1
  C  C5  1  0.33333300  0.66666700  0.80629645  1
  Ni  Ni6  1  0.00000000  0.00000000  0.35468680  1
  Ni  Ni7  1  0.00000000  0.00000000  0.85468680  1
  Ni  Ni8  1  0.66666700  0.33333300  0.68801980  1
  Ni  Ni9  1  0.66666700  0.33333300  0.18801980  1
  Ni  Ni10  1  0.33333300  0.66666700  0.02135380  1
  Ni  Ni11  1  0.33333300  0.66666700  0.52135380  1
  Cu  Cu12  1  0.29105258  0.01540898  0.25041472  1
  Cu  Cu13  1  0.72435640  0.70894742  0.25041472  1
  Cu  Cu14  1  0.98459102  0.27564360  0.25041472  1
  Cu  Cu15  1  0.29105258  0.27564360  0.75041472  1
  Cu  Cu16  1  0.98459102  0.70894742  0.75041472  1
  Cu  Cu17  1  0.72435640  0.01540898  0.75041472  1
  Cu  Cu18  1  0.95771958  0.34874198  0.58374772  1
  Cu  Cu19  1  0.39102340  0.04228042  0.58374772  1
  Cu  Cu20  1  0.65125802  0.60897660  0.58374772  1
  Cu  Cu21  1  0.95771958  0.60897660  0.08374772  1
  Cu  Cu22  1  0.65125802  0.04228042  0.08374772  1
  Cu  Cu23  1  0.39102340  0.34874198  0.08374772  1
  Cu  Cu24  1  0.62438558  0.68207598  0.91708172  1
  Cu  Cu25  1  0.05768940  0.37561442  0.91708172  1
  Cu  Cu26  1  0.31792402  0.94231060  0.91708172  1
  Cu  Cu27  1  0.62438558  0.94231060  0.41708172  1
  Cu  Cu28  1  0.31792402  0.37561442  0.41708172  1
  Cu  Cu29  1  0.05768940  0.68207598  0.41708172  1
  C  C30  1  0.20653954  0.04575554  0.30758197  1
  C  C31  1  0.83921600  0.79346046  0.30758197  1
  C  C32  1  0.95424446  0.16078400  0.30758197  1
  C  C33  1  0.20653954  0.16078400  0.80758197  1
  C  C34  1  0.95424446  0.79346046  0.80758197  1
  C  C35  1  0.83921600  0.04575554  0.80758197  1
  C  C36  1  0.80399812  0.97414802  0.69416654  1
  C  C37  1  0.17014990  0.19600188  0.69416654  1
  C  C38  1  0.02585198  0.82985010  0.69416654  1
  C  C39  1  0.80399812  0.82985010  0.19416654  1
  C  C40  1  0.02585198  0.19600188  0.19416654  1
  C  C41  1  0.17014990  0.97414802  0.19416654  1
  C  C42  1  0.87320654  0.37908854  0.64091497  1
  C  C43  1  0.50588300  0.12679346  0.64091497  1
  C  C44  1  0.62091146  0.49411700  0.64091497  1
  C  C45  1  0.87320654  0.49411700  0.14091497  1
  C  C46  1  0.62091146  0.12679346  0.14091497  1
  C  C47  1  0.50588300  0.37908854  0.14091497  1
  C  C48  1  0.47066512  0.30748102  0.02749954  1
  C  C49  1  0.83681690  0.52933488  0.02749954  1
  C  C50  1  0.69251898  0.16318310  0.02749954  1
  C  C51  1  0.47066512  0.16318310  0.52749954  1
  C  C52  1  0.69251898  0.52933488  0.52749954  1
  C  C53  1  0.83681690  0.30748102  0.52749954  1
  C  C54  1  0.53987254  0.71242254  0.97424897  1
  C  C55  1  0.17254900  0.46012746  0.97424897  1
  C  C56  1  0.28757746  0.82745100  0.97424897  1
  C  C57  1  0.53987254  0.82745100  0.47424897  1
  C  C58  1  0.28757746  0.46012746  0.47424897  1
  C  C59  1  0.17254900  0.71242254  0.47424897  1
  C  C60  1  0.13733112  0.64081502  0.36083354  1
  C  C61  1  0.50348290  0.86266888  0.36083354  1
  C  C62  1  0.35918498  0.49651710  0.36083354  1
  C  C63  1  0.13733112  0.49651710  0.86083354  1
  C  C64  1  0.35918498  0.86266888  0.86083354  1
  C  C65  1  0.50348290  0.64081502  0.86083354  1
  C  C66  1  0.03365182  0.84518584  0.40757004  1
  C  C67  1  0.81153403  0.96634818  0.40757004  1
  C  C68  1  0.15481416  0.18846597  0.40757004  1
  C  C69  1  0.03365182  0.18846597  0.90757004  1
  C  C70  1  0.15481416  0.96634818  0.90757004  1
  C  C71  1  0.81153403  0.84518584  0.90757004  1
  C  C72  1  0.97597004  0.17826226  0.59216132  1
  C  C73  1  0.20229222  0.02402996  0.59216132  1
  C  C74  1  0.82173774  0.79770778  0.59216132  1
  C  C75  1  0.97597004  0.79770778  0.09216132  1
  C  C76  1  0.82173774  0.02402996  0.09216132  1
  C  C77  1  0.20229222  0.17826226  0.09216132  1
  C  C78  1  0.70031882  0.17851884  0.74090304  1
  C  C79  1  0.47820103  0.29968118  0.74090304  1
  C  C80  1  0.82148116  0.52179897  0.74090304  1
  C  C81  1  0.70031882  0.52179897  0.24090304  1
  C  C82  1  0.82148116  0.29968118  0.24090304  1
  C  C83  1  0.47820103  0.17851884  0.24090304  1
  C  C84  1  0.64263704  0.51159526  0.92549432  1
  C  C85  1  0.86895922  0.35736296  0.92549432  1
  C  C86  1  0.48840474  0.13104078  0.92549432  1
  C  C87  1  0.64263704  0.13104078  0.42549432  1
  C  C88  1  0.48840474  0.35736296  0.42549432  1
  C  C89  1  0.86895922  0.51159526  0.42549432  1
  C  C90  1  0.36698482  0.51185284  0.07423704  1
  C  C91  1  0.14486703  0.63301518  0.07423704  1
  C  C92  1  0.48814716  0.85513297  0.07423704  1
  C  C93  1  0.36698482  0.85513297  0.57423704  1
  C  C94  1  0.48814716  0.63301518  0.57423704  1
  C  C95  1  0.14486703  0.51185284  0.57423704  1
  C  C96  1  0.30930304  0.84492926  0.25882832  1
  C  C97  1  0.53562522  0.69069696  0.25882832  1
  C  C98  1  0.15507074  0.46437478  0.25882832  1
  C  C99  1  0.30930304  0.46437478  0.75882832  1
  C  C100  1  0.15507074  0.69069696  0.75882832  1
  C  C101  1  0.53562522  0.84492926  0.75882832  1
