# generated using pymatgen
data_Cu7Ni4C71
_symmetry_space_group_name_H-M   'P 1'
_cell_length_a   18.11404326
_cell_length_b   9.08407286
_cell_length_c   22.03458390
_cell_angle_alpha   90.18091964
_cell_angle_beta   89.21886348
_cell_angle_gamma   120.00744810
_symmetry_Int_Tables_number   1
_chemical_formula_structural   Cu7Ni4C71
_chemical_formula_sum   'Cu21 Ni12 C213'
_cell_volume   3139.45781894
_cell_formula_units_Z   3
loop_
 _symmetry_equiv_pos_site_id
 _symmetry_equiv_pos_as_xyz
  1  'x, y, z'
loop_
 _atom_site_type_symbol
 _atom_site_label
 _atom_site_symmetry_multiplicity
 _atom_site_fract_x
 _atom_site_fract_y
 _atom_site_fract_z
 _atom_site_occupancy
  C  C0  1  0.80864229  0.99376601  0.25405849  1
  C  C1  1  0.18129212  0.35208702  0.25667126  1
  C  C2  1  0.68870492  0.36947138  0.25632597  1
  C  C3  1  0.99354489  0.63289367  0.24746655  1
  C  C4  1  0.49837720  0.63236119  0.25379835  1
  C  C5  1  0.30996727  0.62456459  0.74294461  1
  C  C6  1  0.99744738  0.36093439  0.74799294  1
  C  C7  1  0.49557155  0.35807892  0.74176391  1
  C  C8  1  0.18857050  0.00800576  0.75192801  1
  C  C9  1  0.68359363  0.01210197  0.75225482  1
  C  C10  1  0.15137197  0.33026231  0.58709890  1
  C  C11  1  0.65814972  0.33564952  0.57564500  1
  C  C12  1  0.33689581  0.98754996  0.58020908  1
  C  C13  1  0.83782233  0.98489266  0.57813055  1
  C  C14  1  0.15700536  0.98289082  0.08179112  1
  C  C15  1  0.65137728  0.97197881  0.09073048  1
  C  C16  1  0.33735541  0.69015014  0.08402387  1
  C  C17  1  0.83479519  0.68932854  0.08348096  1
  C  C18  1  0.47847168  0.67213749  0.92247475  1
  C  C19  1  0.97477979  0.66829085  0.91940117  1
  C  C20  1  0.35672192  0.04656595  0.91463206  1
  C  C21  1  0.85444307  0.04320450  0.91173851  1
  C  C22  1  0.16849431  0.28297270  0.91445152  1
  C  C23  1  0.66926103  0.28673631  0.91074636  1
  C  C24  1  0.47738817  0.28622730  0.42086799  1
  C  C25  1  0.97463771  0.27673631  0.42415007  1
  C  C26  1  0.16875680  0.05567693  0.41012760  1
  C  C27  1  0.67334148  0.04600982  0.41219203  1
  C  C28  1  0.35623848  0.66822468  0.41221662  1
  C  C29  1  0.85437756  0.67202301  0.41705651  1
  C  C30  1  0.99540735  0.99173693  0.49691662  1
  C  C31  1  0.50372126  0.99507679  0.49863864  1
  C  C32  1  0.00002456  0.00737166  0.00036244  1
  C  C33  1  0.50048271  0.00901283  0.00070949  1
  C  C34  1  0.32753296  0.32396823  0.82716475  1
  C  C35  1  0.82580151  0.33821411  0.83015341  1
  C  C36  1  0.32817730  0.31639112  0.33246711  1
  C  C37  1  0.82596750  0.31950686  0.33264988  1
  C  C38  1  0.16557921  0.66955432  0.17057642  1
  C  C39  1  0.66068811  0.65641013  0.17206147  1
  C  C40  1  0.16085268  0.66378583  0.66972617  1
  C  C41  1  0.66365181  0.65849407  0.66525464  1
  C  C42  1  0.99182705  0.00708853  0.64890235  1
  C  C43  1  0.50508475  0.03264273  0.64950118  1
  C  C44  1  0.00480137  0.98043080  0.15077636  1
  C  C45  1  0.49211307  0.97690091  0.15007631  1
  C  C46  1  0.82812347  0.32800096  0.67870162  1
  C  C47  1  0.32733658  0.32839832  0.17990717  1
  C  C48  1  0.16681901  0.66726715  0.02956040  1
  C  C49  1  0.66443582  0.67772626  0.01605870  1
  C  C50  1  0.16474799  0.65382814  0.51623571  1
  C  C51  1  0.67553875  0.67935504  0.52630611  1
  C  C52  1  0.18211636  0.68452267  0.31290673  1
  C  C53  1  0.68222153  0.68157698  0.81167236  1
  Ni  Ni54  1  0.99956340  0.00095405  0.35171565  1
  Ni  Ni55  1  0.49558763  0.99063654  0.34383303  1
  Ni  Ni56  1  0.99515480  0.99869906  0.84178085  1
  Ni  Ni57  1  0.50898747  0.01322381  0.84330350  1
  Ni  Ni58  1  0.33472566  0.31992816  0.68526953  1
  Ni  Ni59  1  0.83470716  0.34592768  0.18634577  1
  Ni  Ni60  1  0.33524028  0.33281891  0.00552307  1
  Ni  Ni61  1  0.83044431  0.34463810  0.97933931  1
  Ni  Ni62  1  0.33292462  0.31993863  0.47956002  1
  Ni  Ni63  1  0.83176482  0.31754337  0.49329695  1
  Ni  Ni64  1  0.67718080  0.69688882  0.31197646  1
  Ni  Ni65  1  0.17101314  0.65958336  0.80834825  1
  Cu  Cu66  1  0.15040593  0.99807422  0.25349656  1
  Cu  Cu67  1  0.64629031  0.00491732  0.25064909  1
  Cu  Cu68  1  0.35136070  0.69255940  0.25218277  1
  Cu  Cu69  1  0.85289926  0.70508264  0.25347950  1
  Cu  Cu70  1  0.14668719  0.28584321  0.75166162  1
  Cu  Cu71  1  0.65325988  0.30847894  0.75200637  1
  Cu  Cu72  1  0.35410450  0.99825278  0.75484071  1
  Cu  Cu73  1  0.85169397  0.01175318  0.75235930  1
  Cu  Cu74  1  0.48084918  0.34202881  0.58195605  1
  Cu  Cu75  1  0.98401066  0.34251100  0.58447797  1
  Cu  Cu76  1  0.67953664  0.03291858  0.58289392  1
  Cu  Cu77  1  0.84113962  0.63069297  0.57781292  1
  Cu  Cu78  1  0.48318808  0.62645959  0.08325747  1
  Cu  Cu79  1  0.97691960  0.62015090  0.08258429  1
  Cu  Cu80  1  0.34011204  0.04474328  0.07876849  1
  Cu  Cu81  1  0.18012396  0.32614235  0.08161355  1
  Cu  Cu82  1  0.81571276  0.67228946  0.91800843  1
  Cu  Cu83  1  0.66533655  0.96105302  0.91423238  1
  Cu  Cu84  1  0.31612765  0.96060796  0.41875247  1
  Cu  Cu85  1  0.81364802  0.96916831  0.41633955  1
  Cu  Cu86  1  0.16781866  0.37406774  0.41454921  1
  C  C87  1  0.00111800  0.29087552  0.25098304  1
  C  C88  1  0.49418366  0.28505480  0.24934583  1
  C  C89  1  0.99581775  0.70416056  0.75043995  1
  C  C90  1  0.50057373  0.70943707  0.75281865  1
  C  C91  1  0.18005768  0.02731870  0.58310652  1
  C  C92  1  0.33325425  0.63559109  0.58222589  1
  C  C93  1  0.83306122  0.03264222  0.08098066  1
  C  C94  1  0.67963680  0.33325931  0.08225870  1
  C  C95  1  0.31053870  0.66151826  0.91773427  1
  C  C96  1  0.02655557  0.38656659  0.91864518  1
  C  C97  1  0.52353385  0.38523038  0.91557152  1
  C  C98  1  0.16813041  0.95269412  0.91634260  1
  C  C99  1  0.66589950  0.37947728  0.41511271  1
  C  C100  1  0.02602840  0.66447813  0.41516476  1
  C  C101  1  0.52480131  0.66528523  0.41810789  1
  C  C102  1  0.11417450  0.04878886  0.31241765  1
  C  C103  1  0.60854476  0.04749987  0.31180794  1
  C  C104  1  0.40650874  0.76756235  0.31250772  1
  C  C105  1  0.91132939  0.79087484  0.31250757  1
  C  C106  1  0.48303486  0.19551448  0.30806314  1
  C  C107  1  0.99469621  0.20542959  0.30941943  1
  C  C108  1  0.10983003  0.17129712  0.81381791  1
  C  C109  1  0.62050328  0.19027634  0.81262583  1
  C  C110  1  0.49257132  0.78106696  0.81200268  1
  C  C111  1  0.98653705  0.77296240  0.80988743  1
  C  C112  1  0.40915095  0.02082030  0.81578111  1
  C  C113  1  0.90625547  0.04483525  0.81317823  1
  C  C114  1  0.40678506  0.97810908  0.69523233  1
  C  C115  1  0.90082512  0.98599114  0.69269429  1
  C  C116  1  0.08330165  0.17304812  0.69456539  1
  C  C117  1  0.58634791  0.20750766  0.69506451  1
  C  C118  1  0.00222987  0.81557383  0.69987526  1
  C  C119  1  0.51207816  0.82532911  0.70241254  1
  C  C120  1  0.40001858  0.81409028  0.19195049  1
  C  C121  1  0.90719172  0.83093905  0.19294972  1
  C  C122  1  0.01286473  0.19747404  0.19956372  1
  C  C123  1  0.49937740  0.18443294  0.19791679  1
  C  C124  1  0.08678161  0.96738500  0.19380002  1
  C  C125  1  0.58291401  0.99438801  0.19293613  1
  C  C126  1  0.44197774  0.36960456  0.64453944  1
  C  C127  1  0.93448293  0.35763526  0.64495951  1
  C  C128  1  0.23351562  0.10566086  0.63737402  1
  C  C129  1  0.74762696  0.13047528  0.63938105  1
  C  C130  1  0.32040471  0.53260585  0.63729053  1
  C  C131  1  0.82172793  0.49239795  0.63322087  1
  C  C132  1  0.43095702  0.50595052  0.14141113  1
  C  C133  1  0.94139858  0.51357866  0.14424888  1
  C  C134  1  0.31736150  0.14480493  0.13167805  1
  C  C135  1  0.82025525  0.11092516  0.13531782  1
  C  C136  1  0.24755927  0.36685901  0.13797502  1
  C  C137  1  0.73377167  0.36136436  0.13548626  1
  C  C138  1  0.21705712  0.28344770  0.02047048  1
  C  C139  1  0.71666729  0.29953608  0.02635794  1
  C  C140  1  0.42625283  0.56140590  0.02221452  1
  C  C141  1  0.91821861  0.54970139  0.02286140  1
  C  C142  1  0.35314717  0.13866689  0.01405133  1
  C  C143  1  0.83993046  0.12734268  0.02497032  1
  C  C144  1  0.21814711  0.13630524  0.52828004  1
  C  C145  1  0.71135365  0.15064730  0.52273402  1
  C  C146  1  0.33933456  0.55157939  0.52691046  1
  C  C147  1  0.85236890  0.55409364  0.51471045  1
  C  C148  1  0.41785197  0.28531952  0.52405317  1
  C  C149  1  0.92707794  0.29188866  0.52459455  1
  C  C150  1  0.26292057  0.66954881  0.97255490  1
  C  C151  1  0.75905112  0.68248735  0.97684992  1
  C  C152  1  0.08078295  0.48966134  0.97008390  1
  C  C153  1  0.57476062  0.48173450  0.96965374  1
  C  C154  1  0.16890455  0.85695104  0.97135720  1
  C  C155  1  0.65694251  0.83989398  0.97507809  1
  C  C156  1  0.26044962  0.83816045  0.47774208  1
  C  C157  1  0.75754075  0.83954310  0.47525193  1
  C  C158  1  0.16036798  0.47939669  0.47569848  1
  C  C159  1  0.66382901  0.47238013  0.47066230  1
  C  C160  1  0.07672086  0.66777552  0.46946174  1
  C  C161  1  0.57762383  0.67015947  0.46943154  1
  C  C162  1  0.07130446  0.65617934  0.35935264  1
  C  C163  1  0.55975487  0.64349798  0.35951713  1
  C  C164  1  0.25583476  0.85237944  0.35935581  1
  C  C165  1  0.75768915  0.89403033  0.35561740  1
  C  C166  1  0.17406837  0.49607542  0.35635518  1
  C  C167  1  0.66574942  0.47128358  0.35955039  1
  C  C168  1  0.06389621  0.47904345  0.86073661  1
  C  C169  1  0.56860351  0.48084295  0.85963723  1
  C  C170  1  0.17003257  0.86232090  0.86061263  1
  C  C171  1  0.67204608  0.85109049  0.85644807  1
  C  C172  1  0.26258093  0.64905277  0.86215016  1
  C  C173  1  0.75535238  0.65950581  0.85886872  1
  C  C174  1  0.02260471  0.82317078  0.41879193  1
  C  C175  1  0.52085928  0.82558394  0.42006022  1
  C  C176  1  0.40847483  0.97143931  0.41685693  1
  C  C177  1  0.90445006  0.97107433  0.41915123  1
  C  C178  1  0.08195999  0.19052626  0.41826768  1
  C  C179  1  0.58784570  0.20723736  0.41930140  1
  C  C180  1  0.02269101  0.21951603  0.92147007  1
  C  C181  1  0.51687884  0.21608069  0.91901806  1
  C  C182  1  0.08912603  0.96419613  0.92098193  1
  C  C183  1  0.57841719  0.97273387  0.91684157  1
  C  C184  1  0.39549012  0.81821835  0.91951037  1
  C  C185  1  0.90822153  0.84606333  0.91691331  1
  C  C186  1  0.49239890  0.16589052  0.59056501  1
  C  C187  1  0.99884127  0.17383611  0.59373373  1
  C  C188  1  0.09383729  0.00754818  0.59018853  1
  C  C189  1  0.58478223  0.00693636  0.59910662  1
  C  C190  1  0.40803163  0.81043255  0.58583877  1
  C  C191  1  0.91886747  0.82565907  0.59168115  1
  C  C192  1  0.49766658  0.82270213  0.09234000  1
  C  C193  1  0.99254902  0.81991847  0.08949206  1
  C  C194  1  0.41730642  0.00555572  0.09129484  1
  C  C195  1  0.90730594  0.00496304  0.08474653  1
  C  C196  1  0.08640042  0.16078108  0.09504956  1
  C  C197  1  0.59327237  0.18095238  0.08906540  1
  C  C198  1  0.34468225  0.16759931  0.74977261  1
  C  C199  1  0.83924125  0.17738858  0.74419146  1
  C  C200  1  0.24414589  0.32069861  0.74162790  1
  C  C201  1  0.74611984  0.32654691  0.73801558  1
  C  C202  1  0.42212767  0.54052911  0.74774923  1
  C  C203  1  0.92165558  0.52945624  0.74538552  1
  C  C204  1  0.33915304  0.50165960  0.24275742  1
  C  C205  1  0.84348173  0.51691049  0.24847843  1
  C  C206  1  0.41986169  0.31241884  0.24346217  1
  C  C207  1  0.92259271  0.30182080  0.24556302  1
  C  C208  1  0.24354927  0.16611857  0.23789076  1
  C  C209  1  0.74312706  0.16452356  0.24059030  1
  C  C210  1  0.32011540  0.50791911  0.91864453  1
  C  C211  1  0.81873673  0.49656284  0.91525460  1
  C  C212  1  0.43848793  0.37077234  0.91618511  1
  C  C213  1  0.93899291  0.36163139  0.92277939  1
  C  C214  1  0.24475371  0.12608539  0.91446781  1
  C  C215  1  0.75377980  0.14179901  0.91850961  1
  C  C216  1  0.31834095  0.14116926  0.41572690  1
  C  C217  1  0.82397615  0.15898583  0.42243827  1
  C  C218  1  0.25653318  0.37072565  0.41826138  1
  C  C219  1  0.74385193  0.36454294  0.41346758  1
  C  C220  1  0.43613086  0.51585389  0.42243941  1
  C  C221  1  0.94097709  0.51260669  0.41534346  1
  C  C222  1  0.17704287  0.50627400  0.07633415  1
  C  C223  1  0.67359218  0.49064443  0.07585667  1
  C  C224  1  0.07865755  0.66298467  0.07275786  1
  C  C225  1  0.58058016  0.65375009  0.07869613  1
  C  C226  1  0.25031086  0.84891485  0.07549991  1
  C  C227  1  0.75243585  0.85348517  0.07848520  1
  C  C228  1  0.17411843  0.85818118  0.57682899  1
  C  C229  1  0.67743556  0.84864070  0.57928659  1
  C  C230  1  0.25312712  0.65451663  0.58011865  1
  C  C231  1  0.75206210  0.64832182  0.57682898  1
  C  C232  1  0.08227141  0.50848893  0.57989975  1
  C  C233  1  0.58046389  0.49563569  0.57243255  1
  C  C234  1  0.15130807  0.81714011  0.25658731  1
  C  C235  1  0.64284188  0.82129981  0.24714063  1
  C  C236  1  0.25500482  0.67284512  0.25244077  1
  C  C237  1  0.75855106  0.68814451  0.24861988  1
  C  C238  1  0.07778623  0.46685412  0.25006449  1
  C  C239  1  0.57397690  0.45353514  0.24860957  1
  C  C240  1  0.14592277  0.46641906  0.74998837  1
  C  C241  1  0.65166964  0.48847082  0.75633534  1
  C  C242  1  0.07618195  0.69391143  0.74965854  1
  C  C243  1  0.57719998  0.68654344  0.75254636  1
  C  C244  1  0.25931138  0.82628448  0.75065136  1
  C  C245  1  0.75555610  0.83755228  0.75292442  1
