# generated using pymatgen
data_Cu(Ni4C5)3
_symmetry_space_group_name_H-M   'P 1'
_cell_length_a   7.06628335
_cell_length_b   7.06628335
_cell_length_c   7.06628344
_cell_angle_alpha   93.83155968
_cell_angle_beta   93.83155968
_cell_angle_gamma   93.83155785
_symmetry_Int_Tables_number   1
_chemical_formula_structural   Cu(Ni4C5)3
_chemical_formula_sum   'Cu1 Ni12 C15'
_cell_volume   350.35890996
_cell_formula_units_Z   1
loop_
 _symmetry_equiv_pos_site_id
 _symmetry_equiv_pos_as_xyz
  1  'x, y, z'
loop_
 _atom_site_type_symbol
 _atom_site_label
 _atom_site_symmetry_multiplicity
 _atom_site_fract_x
 _atom_site_fract_y
 _atom_site_fract_z
 _atom_site_occupancy
  C  C0  1  0.50000000  0.50000000  0.00000000  1
  C  C1  1  0.00000000  0.50000000  0.50000000  1
  C  C2  1  0.50000000  0.00000000  0.50000000  1
  C  C3  1  0.12092300  0.84200100  0.12092300  1
  C  C4  1  0.87907700  0.15799900  0.87907700  1
  C  C5  1  0.15799900  0.87907700  0.87907700  1
  C  C6  1  0.87907700  0.87907700  0.15799900  1
  C  C7  1  0.06081400  0.06081400  0.23282900  1
  C  C8  1  0.23282900  0.06081400  0.06081400  1
  C  C9  1  0.06081400  0.23282900  0.06081400  1
  C  C10  1  0.93918600  0.76717100  0.93918600  1
  C  C11  1  0.93918600  0.93918600  0.76717100  1
  C  C12  1  0.76717100  0.93918600  0.93918600  1
  C  C13  1  0.12092300  0.12092300  0.84200100  1
  C  C14  1  0.84200100  0.12092300  0.12092300  1
  Ni  Ni15  1  0.79225500  0.79225500  0.26977800  1
  Ni  Ni16  1  0.26977800  0.79225500  0.79225500  1
  Ni  Ni17  1  0.79225500  0.26977800  0.79225500  1
  Ni  Ni18  1  0.20774500  0.73022200  0.20774500  1
  Ni  Ni19  1  0.89559500  0.89559500  0.60174400  1
  Ni  Ni20  1  0.60174400  0.89559500  0.89559500  1
  Ni  Ni21  1  0.89559500  0.60174400  0.89559500  1
  Ni  Ni22  1  0.10440500  0.39825600  0.10440500  1
  Ni  Ni23  1  0.10440500  0.10440500  0.39825600  1
  Ni  Ni24  1  0.39825600  0.10440500  0.10440500  1
  Ni  Ni25  1  0.20774500  0.20774500  0.73022200  1
  Ni  Ni26  1  0.73022200  0.20774500  0.20774500  1
  Cu  Cu27  1  0.50000000  0.50000000  0.50000000  1
