# generated using pymatgen
data_Cu2NiC6
_symmetry_space_group_name_H-M   'P 1'
_cell_length_a   3.34718000
_cell_length_b   3.34674534
_cell_length_c   10.58770800
_cell_angle_alpha   90.00000000
_cell_angle_beta   90.00000000
_cell_angle_gamma   120.00429632
_symmetry_Int_Tables_number   1
_chemical_formula_structural   Cu2NiC6
_chemical_formula_sum   'Cu2 Ni1 C6'
_cell_volume   102.71065981
_cell_formula_units_Z   1
loop_
 _symmetry_equiv_pos_site_id
 _symmetry_equiv_pos_as_xyz
  1  'x, y, z'
loop_
 _atom_site_type_symbol
 _atom_site_label
 _atom_site_symmetry_multiplicity
 _atom_site_fract_x
 _atom_site_fract_y
 _atom_site_fract_z
 _atom_site_occupancy
  C  C0  1  0.66667700  0.33335300  0.25000000  1
  C  C1  1  0.33337500  0.66675000  0.75000000  1
  Ni  Ni2  1  0.00005800  0.00011600  0.25000000  1
  Cu  Cu3  1  0.99999100  0.99998200  0.52360700  1
  Cu  Cu4  1  0.99999100  0.99998200  0.97639300  1
  C  C5  1  0.33331500  0.66662700  0.36501400  1
  C  C6  1  0.66664000  0.33328100  0.59340000  1
  C  C7  1  0.66664000  0.33328100  0.90660000  1
  C  C8  1  0.33331500  0.66662700  0.13498600  1
