# generated using pymatgen
data_Cu(NiC8)2
_symmetry_space_group_name_H-M   'P 1'
_cell_length_a   8.67885856
_cell_length_b   8.66782968
_cell_length_c   21.76282886
_cell_angle_alpha   90.88288799
_cell_angle_beta   90.00000000
_cell_angle_gamma   120.04209932
_symmetry_Int_Tables_number   1
_chemical_formula_structural   Cu(NiC8)2
_chemical_formula_sum   'Cu6 Ni12 C96'
_cell_volume   1416.98663371
_cell_formula_units_Z   6
loop_
 _symmetry_equiv_pos_site_id
 _symmetry_equiv_pos_as_xyz
  1  'x, y, z'
loop_
 _atom_site_type_symbol
 _atom_site_label
 _atom_site_symmetry_multiplicity
 _atom_site_fract_x
 _atom_site_fract_y
 _atom_site_fract_z
 _atom_site_occupancy
  C  C0  1  0.99249957  0.63733055  0.24390335  1
  C  C1  1  0.64483098  0.63733055  0.74390335  1
  C  C2  1  0.65916657  0.97066355  0.57723635  1
  C  C3  1  0.31149798  0.97066355  0.07723635  1
  C  C4  1  0.32583257  0.30399755  0.91057035  1
  C  C5  1  0.97816398  0.30399755  0.41057035  1
  C  C6  1  0.00441529  0.97398704  0.49677099  1
  C  C7  1  0.96957175  0.97398704  0.99677099  1
  C  C8  1  0.67108229  0.30732004  0.83010399  1
  C  C9  1  0.63623875  0.30732004  0.33010399  1
  C  C10  1  0.33774829  0.64065404  0.16343799  1
  C  C11  1  0.30290475  0.64065404  0.66343799  1
  C  C12  1  0.99909320  0.99734290  0.35466804  1
  C  C13  1  0.99824970  0.99734290  0.85466804  1
  C  C14  1  0.66576020  0.33067590  0.68800104  1
  C  C15  1  0.66491670  0.33067590  0.18800104  1
  C  C16  1  0.33242620  0.66400990  0.02133504  1
  C  C17  1  0.33158270  0.66400990  0.52133504  1
  C  C18  1  0.99271998  0.00713374  0.64872224  1
  C  C19  1  0.01441377  0.00713374  0.14872224  1
  C  C20  1  0.65938698  0.34046674  0.98205524  1
  C  C21  1  0.68108077  0.34046674  0.48205524  1
  C  C22  1  0.32605298  0.67380074  0.31538924  1
  C  C23  1  0.34774677  0.67380074  0.81538924  1
  Ni  Ni24  1  0.29254804  -0.00423238  0.25169016  1
  Ni  Ni25  1  0.01258580  0.29521237  0.25420572  1
  Ni  Ni26  1  0.28262657  0.29521237  0.75420572  1
  Ni  Ni27  1  0.70321957  -0.00423238  0.75169016  1
  Ni  Ni28  1  0.95921504  0.32910062  0.58502316  1
  Ni  Ni29  1  0.67925280  0.62854537  0.58753872  1
  Ni  Ni30  1  0.94929357  0.62854537  0.08753872  1
  Ni  Ni31  1  0.36988657  0.32910062  0.08502316  1
  Ni  Ni32  1  0.62588104  0.66243462  0.91835716  1
  Ni  Ni33  1  0.34591880  0.96187937  0.92087272  1
  Ni  Ni34  1  0.61595957  0.96187937  0.42087272  1
  Ni  Ni35  1  0.03655257  0.66243462  0.41835716  1
  Cu  Cu36  1  0.70019526  0.71859665  0.24992605  1
  Cu  Cu37  1  0.01840139  0.71859665  0.74992605  1
  Cu  Cu38  1  0.36686226  0.05192965  0.58325905  1
  Cu  Cu39  1  0.68506839  0.05192965  0.08325905  1
  Cu  Cu40  1  0.03352826  0.38526365  0.91659305  1
  Cu  Cu41  1  0.35173439  0.38526365  0.41659305  1
  C  C42  1  0.19505625  0.00850087  0.30618954  1
  C  C43  1  0.80658210  0.80302996  0.30459194  1
  C  C44  1  0.99209928  0.19693739  0.31268632  1
  C  C45  1  0.20483811  0.19693739  0.81268632  1
  C  C46  1  0.99644785  0.80302996  0.80459194  1
  C  C47  1  0.81344462  0.00850087  0.80618954  1
  C  C48  1  0.77958043  0.95228728  0.68981199  1
  C  C49  1  0.15996503  0.19934143  0.69551111  1
  C  C50  1  0.04156929  0.82444362  0.69247192  1
  C  C51  1  0.78287433  0.82444362  0.19247192  1
  C  C52  1  0.03937641  0.19934143  0.19551111  1
  C  C53  1  0.17270685  0.95228728  0.18981199  1
  C  C54  1  0.86172325  0.34183387  0.63952254  1
  C  C55  1  0.47324910  0.13636296  0.63792494  1
  C  C56  1  0.65876628  0.53027039  0.64601932  1
  C  C57  1  0.87150511  0.53027039  0.14601932  1
  C  C58  1  0.66311485  0.13636296  0.13792494  1
  C  C59  1  0.48011162  0.34183387  0.13952254  1
  C  C60  1  0.44624743  0.28562028  0.02314499  1
  C  C61  1  0.82663203  0.53267443  0.02884411  1
  C  C62  1  0.70823629  0.15777662  0.02580492  1
  C  C63  1  0.44954133  0.15777662  0.52580492  1
  C  C64  1  0.70604341  0.53267443  0.52884411  1
  C  C65  1  0.83937385  0.28562028  0.52314499  1
  C  C66  1  0.52838925  0.67516787  0.97285654  1
  C  C67  1  0.13991510  0.46969696  0.97125894  1
  C  C68  1  0.32543228  0.86360439  0.97935332  1
  C  C69  1  0.53817111  0.86360439  0.47935332  1
  C  C70  1  0.32978085  0.46969696  0.47125894  1
  C  C71  1  0.14677762  0.67516787  0.47285654  1
  C  C72  1  0.11291343  0.61895428  0.35647899  1
  C  C73  1  0.49329803  0.86600843  0.36217811  1
  C  C74  1  0.37490229  0.49111062  0.35913892  1
  C  C75  1  0.11620733  0.49111062  0.85913892  1
  C  C76  1  0.37270941  0.86600843  0.86217811  1
  C  C77  1  0.50603985  0.61895428  0.85647899  1
  C  C78  1  0.00568329  0.81684498  0.41080628  1
  C  C79  1  0.80591237  -0.00178798  0.41229085  1
  C  C80  1  0.19400824  0.20562342  0.41126733  1
  C  C81  1  0.01161518  0.20562342  0.91126733  1
  C  C82  1  0.19229965  -0.00178798  0.91229085  1
  C  C83  1  0.81116169  0.81684498  0.91080628  1
  C  C84  1  0.96448472  0.14700837  0.58803928  1
  C  C85  1  0.18848474  0.03899429  0.58682037  1
  C  C86  1  0.85880518  0.81810548  0.58962651  1
  C  C87  1  0.95930030  0.81810548  0.08962651  1
  C  C88  1  0.85050955  0.03899429  0.08682037  1
  C  C89  1  0.18252365  0.14700837  0.08803928  1
  C  C90  1  0.67235029  0.15017798  0.74413928  1
  C  C91  1  0.47257937  0.33154502  0.74562385  1
  C  C92  1  0.86067524  0.53895642  0.74460033  1
  C  C93  1  0.67828218  0.53895642  0.24460033  1
  C  C94  1  0.85896665  0.33154502  0.24562385  1
  C  C95  1  0.47782869  0.15017798  0.24413928  1
  C  C96  1  0.63115172  0.48034137  0.92137228  1
  C  C97  1  0.85515174  0.37232729  0.92015337  1
  C  C98  1  0.52547218  0.15143848  0.92295951  1
  C  C99  1  0.62596730  0.15143848  0.42295951  1
  C  C100  1  0.51717655  0.37232729  0.42015337  1
  C  C101  1  0.84919065  0.48034137  0.42137228  1
  C  C102  1  0.33901629  0.48351198  0.07747328  1
  C  C103  1  0.13924537  0.66487902  0.07895785  1
  C  C104  1  0.52734124  0.87229042  0.07793433  1
  C  C105  1  0.34494818  0.87229042  0.57793433  1
  C  C106  1  0.52563265  0.66487902  0.57895785  1
  C  C107  1  0.14449469  0.48351198  0.57747328  1
  C  C108  1  0.29781772  0.81367537  0.25470628  1
  C  C109  1  0.52181774  0.70566129  0.25348737  1
  C  C110  1  0.19213818  0.48477248  0.25629351  1
  C  C111  1  0.29263330  0.48477248  0.75629351  1
  C  C112  1  0.18384255  0.70566129  0.75348737  1
  C  C113  1  0.51585665  0.81367537  0.75470628  1
