# generated using pymatgen
data_CuNiC3
_symmetry_space_group_name_H-M   'P 1'
_cell_length_a   12.02727200
_cell_length_b   12.02727200
_cell_length_c   11.42494600
_cell_angle_alpha   90.00000000
_cell_angle_beta   90.00000000
_cell_angle_gamma   90.00000000
_symmetry_Int_Tables_number   1
_chemical_formula_structural   CuNiC3
_chemical_formula_sum   'Cu8 Ni8 C24'
_cell_volume   1652.67866850
_cell_formula_units_Z   8
loop_
 _symmetry_equiv_pos_site_id
 _symmetry_equiv_pos_as_xyz
  1  'x, y, z'
loop_
 _atom_site_type_symbol
 _atom_site_label
 _atom_site_symmetry_multiplicity
 _atom_site_fract_x
 _atom_site_fract_y
 _atom_site_fract_z
 _atom_site_occupancy
  C  C0  1  0.00000000  0.00000000  0.25000000  1
  C  C1  1  0.00000000  0.00000000  0.75000000  1
  C  C2  1  0.00000000  0.50000000  0.23198500  1
  C  C3  1  0.00000000  0.50000000  0.76801500  1
  C  C4  1  0.50000000  0.00000000  0.26801500  1
  C  C5  1  0.50000000  0.00000000  0.73198500  1
  C  C6  1  0.50000000  0.50000000  0.25000000  1
  C  C7  1  0.50000000  0.50000000  0.75000000  1
  Ni  Ni8  1  0.70578900  0.25526300  0.02999500  1
  Ni  Ni9  1  0.70578900  0.74473700  0.97000500  1
  Ni  Ni10  1  0.29421100  0.25526300  0.97000500  1
  Ni  Ni11  1  0.29421100  0.74473700  0.02999500  1
  Ni  Ni12  1  0.74473700  0.29421100  0.47000500  1
  Ni  Ni13  1  0.74473700  0.70578900  0.52999500  1
  Ni  Ni14  1  0.25526300  0.29421100  0.52999500  1
  Ni  Ni15  1  0.25526300  0.70578900  0.47000500  1
  Cu  Cu16  1  0.74125300  0.74125300  0.75000000  1
  Cu  Cu17  1  0.74125300  0.25874700  0.25000000  1
  Cu  Cu18  1  0.25874700  0.74125300  0.25000000  1
  Cu  Cu19  1  0.25874700  0.25874700  0.75000000  1
  Cu  Cu20  1  0.70782000  0.50000000  0.50000000  1
  Cu  Cu21  1  0.29218000  0.50000000  0.50000000  1
  Cu  Cu22  1  0.50000000  0.29218000  0.00000000  1
  Cu  Cu23  1  0.50000000  0.70782000  0.00000000  1
  C  C24  1  0.70743400  0.00000000  0.00000000  1
  C  C25  1  0.29256500  0.00000000  0.00000000  1
  C  C26  1  0.00000000  0.29256500  0.50000000  1
  C  C27  1  0.00000000  0.70743400  0.50000000  1
  C  C28  1  0.76327700  0.00000000  0.50000000  1
  C  C29  1  0.23672400  0.00000000  0.50000000  1
  C  C30  1  0.00000000  0.23672400  0.00000000  1
  C  C31  1  0.00000000  0.76327700  0.00000000  1
  C  C32  1  0.76276700  0.50000000  0.00000000  1
  C  C33  1  0.23723300  0.50000000  0.00000000  1
  C  C34  1  0.50000000  0.23723300  0.50000000  1
  C  C35  1  0.50000000  0.76276700  0.50000000  1
  C  C36  1  0.74890500  0.74890500  0.25000000  1
  C  C37  1  0.74890500  0.25109500  0.75000000  1
  C  C38  1  0.25109500  0.74890500  0.75000000  1
  C  C39  1  0.25109500  0.25109500  0.25000000  1
