# generated using pymatgen
data_CuNi3C10
_symmetry_space_group_name_H-M   'P 1'
_cell_length_a   5.76536787
_cell_length_b   5.76536787
_cell_length_c   7.41233100
_cell_angle_alpha   90.00000000
_cell_angle_beta   90.00000000
_cell_angle_gamma   119.99999851
_symmetry_Int_Tables_number   1
_chemical_formula_structural   CuNi3C10
_chemical_formula_sum   'Cu1 Ni3 C10'
_cell_volume   213.37301299
_cell_formula_units_Z   1
loop_
 _symmetry_equiv_pos_site_id
 _symmetry_equiv_pos_as_xyz
  1  'x, y, z'
loop_
 _atom_site_type_symbol
 _atom_site_label
 _atom_site_symmetry_multiplicity
 _atom_site_fract_x
 _atom_site_fract_y
 _atom_site_fract_z
 _atom_site_occupancy
  Ni  Ni0  1  0.33333300  0.66666700  0.17633300  1
  Ni  Ni1  1  0.00000000  0.00000000  0.50000000  1
  Ni  Ni2  1  0.66666700  0.33333300  0.82366700  1
  Cu  Cu3  1  0.00000000  0.00000000  0.00000000  1
  C  C4  1  0.66666700  0.33333300  0.26830600  1
  C  C5  1  0.33333300  0.66666700  0.73169400  1
  C  C6  1  0.19238300  0.80761700  0.80276800  1
  C  C7  1  0.19238300  0.38476600  0.80276800  1
  C  C8  1  0.61523400  0.80761700  0.80276800  1
  C  C9  1  0.38476600  0.19238300  0.19723200  1
  C  C10  1  0.80761700  0.61523400  0.19723200  1
  C  C11  1  0.80761700  0.19238300  0.19723200  1
  C  C12  1  0.66666700  0.33333300  0.46697500  1
  C  C13  1  0.33333300  0.66666700  0.53302500  1
