# generated using pymatgen
data_Cu2NiC16
_symmetry_space_group_name_H-M   'P 1'
_cell_length_a   9.29795937
_cell_length_b   9.32198568
_cell_length_c   24.00776708
_cell_angle_alpha   90.09276920
_cell_angle_beta   89.40968592
_cell_angle_gamma   119.93354285
_symmetry_Int_Tables_number   1
_chemical_formula_structural   Cu2NiC16
_chemical_formula_sum   'Cu12 Ni6 C96'
_cell_volume   1803.19328709
_cell_formula_units_Z   6
loop_
 _symmetry_equiv_pos_site_id
 _symmetry_equiv_pos_as_xyz
  1  'x, y, z'
loop_
 _atom_site_type_symbol
 _atom_site_label
 _atom_site_symmetry_multiplicity
 _atom_site_fract_x
 _atom_site_fract_y
 _atom_site_fract_z
 _atom_site_occupancy
  C  C0  1  0.00113415  0.62326656  0.25431420  1
  C  C1  1  0.38251676  0.00996335  0.74525424  1
  C  C2  1  0.65695506  0.96893757  0.59624843  1
  C  C3  1  0.02859529  0.34271385  0.09928222  1
  C  C4  1  0.98785557  0.67903189  0.92837425  1
  C  C5  1  0.32104146  0.01754400  0.42190337  1
  C  C6  1  0.01544518  0.98367787  0.50133553  1
  C  C7  1  0.02001830  0.97759020  0.00134992  1
  C  C8  1  0.65674332  0.29373597  0.83192777  1
  C  C9  1  0.69719695  0.33979957  0.33609740  1
  C  C10  1  0.32381274  0.65237148  0.17149578  1
  C  C11  1  0.34262177  0.67409614  0.66654082  1
  C  C12  1  0.99365126  0.00864887  0.84500663  1
  C  C13  1  0.99779547  0.98773844  0.15628487  1
  C  C14  1  0.65140573  0.32140911  0.98331460  1
  C  C15  1  0.33371427  0.68796521  0.02003939  1
  C  C16  1  0.31242087  0.67132754  0.51586349  1
  C  C17  1  0.35700049  0.68620354  0.81186641  1
  C  C18  1  0.99070561  0.00252560  0.34753823  1
  C  C19  1  0.00748279  0.00181922  0.64661815  1
  C  C20  1  0.66878342  0.32942132  0.68030058  1
  C  C21  1  0.67868733  0.33492282  0.18835550  1
  C  C22  1  0.66773096  0.34468586  0.48308249  1
  C  C23  1  0.30785575  0.64128537  0.32089378  1
  Ni  Ni24  1  -0.00010140  0.30130173  0.25002876  1
  Ni  Ni25  1  0.70574333  0.01140756  0.73882553  1
  Ni  Ni26  1  0.37340178  0.05264220  0.58246917  1
  Ni  Ni27  1  0.95954700  0.62831155  0.08448295  1
  Ni  Ni28  1  0.32653573  0.97572395  0.91009087  1
  Ni  Ni29  1  0.01863892  0.67164962  0.41169266  1
  Cu  Cu30  1  0.31433182  0.00029270  0.25543782  1
  Cu  Cu31  1  0.68570002  0.68940806  0.25571415  1
  Cu  Cu32  1  0.30775431  0.30003804  0.74251101  1
  Cu  Cu33  1  0.98991903  0.69407981  0.74481270  1
  Cu  Cu34  1  0.95233712  0.32393617  0.58356063  1
  Cu  Cu35  1  0.67523971  0.63174193  0.58569332  1
  Cu  Cu36  1  0.66780612  0.03765837  0.08989370  1
  Cu  Cu37  1  0.36888319  0.33630258  0.09085584  1
  Cu  Cu38  1  0.64164840  0.66638786  0.91753913  1
  Cu  Cu39  1  0.03684298  0.36899007  0.91779444  1
  Cu  Cu40  1  0.62884647  0.96424346  0.41421813  1
  Cu  Cu41  1  0.33440854  0.36153853  0.41456482  1
  C  C42  1  0.23616677  0.02512968  0.30595897  1
  C  C43  1  0.80562609  0.77332148  0.30164313  1
  C  C44  1  0.98159830  0.17950297  0.30194969  1
  C  C45  1  0.23694664  0.20480581  0.79479909  1
  C  C46  1  0.96922801  0.75944497  0.79874973  1
  C  C47  1  0.79882119  0.01674814  0.79658130  1
  C  C48  1  0.80131687  0.99476890  0.68321410  1
  C  C49  1  0.20408000  0.20868515  0.69454302  1
  C  C50  1  0.01977108  0.81260672  0.69884359  1
  C  C51  1  0.75017315  0.78298272  0.20317325  1
  C  C52  1  0.01783087  0.22903053  0.18986600  1
  C  C53  1  0.20374520  0.96300141  0.20671226  1
  C  C54  1  0.87952155  0.35022377  0.63476624  1
  C  C55  1  0.48521335  0.13431760  0.63802211  1
  C  C56  1  0.66354389  0.53498084  0.63598985  1
  C  C57  1  0.86125948  0.51632901  0.14020914  1
  C  C58  1  0.64796756  0.12445869  0.13824907  1
  C  C59  1  0.46414566  0.33272726  0.13954268  1
  C  C60  1  0.44428447  0.32603372  0.03778911  1
  C  C61  1  0.87037815  0.54364322  0.02506690  1
  C  C62  1  0.67178407  0.12042342  0.03684467  1
  C  C63  1  0.46103522  0.15643246  0.52368187  1
  C  C64  1  0.69316578  0.55417793  0.53404495  1
  C  C65  1  0.85524713  0.31371104  0.53341948  1
  C  C66  1  0.55072292  0.66214809  0.96826316  1
  C  C67  1  0.12421546  0.44691935  0.97011790  1
  C  C68  1  0.31157923  0.85763056  0.96351561  1
  C  C69  1  0.56333650  0.87389475  0.46758185  1
  C  C70  1  0.31502845  0.43986129  0.46483629  1
  C  C71  1  0.14925339  0.72138048  0.46360045  1
  C  C72  1  0.09998257  0.63934966  0.35495912  1
  C  C73  1  0.51788486  0.86963480  0.36732745  1
  C  C74  1  0.36059811  0.46558454  0.36434775  1
  C  C75  1  0.13400604  0.46459453  0.86865734  1
  C  C76  1  0.33621728  0.88830869  0.85141744  1
  C  C77  1  0.54941122  0.65813288  0.86701634  1
  C  C78  1  0.01323643  0.84746928  0.40445918  1
  C  C79  1  0.79905573  0.99158128  0.40732698  1
  C  C80  1  0.18468058  0.19314522  0.40926911  1
  C  C81  1  0.00532269  0.19807719  0.91733341  1
  C  C82  1  0.14904164  0.97362208  0.91364853  1
  C  C83  1  0.80695221  0.81957223  0.91800271  1
  C  C84  1  0.95370887  0.16467059  0.58539918  1
  C  C85  1  0.18340621  0.02601336  0.58708286  1
  C  C86  1  0.82370483  0.80196751  0.58749151  1
  C  C87  1  0.98734922  0.81630658  0.08657116  1
  C  C88  1  0.82760388  0.03921860  0.09121576  1
  C  C89  1  0.19698396  0.19248627  0.09105629  1
  C  C90  1  0.68008498  0.17536635  0.74119728  1
  C  C91  1  0.47585218  0.31764902  0.73867899  1
  C  C92  1  0.84003590  0.53129821  0.73664320  1
  C  C93  1  0.67239013  0.52305458  0.25052643  1
  C  C94  1  0.83596730  0.33119179  0.25113337  1
  C  C95  1  0.47651750  0.15226445  0.24579122  1
  C  C96  1  0.67295097  0.52417716  0.91491473  1
  C  C97  1  0.87586473  0.36948060  0.91583552  1
  C  C98  1  0.49166105  0.15906250  0.91225421  1
  C  C99  1  0.63176573  0.12684911  0.41682429  1
  C  C100  1  0.48146363  0.33692306  0.41803140  1
  C  C101  1  0.83762937  0.50370123  0.42389727  1
  C  C102  1  0.35690269  0.48929665  0.09213248  1
  C  C103  1  0.13930280  0.62968509  0.08762001  1
  C  C104  1  0.52744612  0.86635601  0.09098569  1
  C  C105  1  0.36816075  0.87108017  0.57944605  1
  C  C106  1  0.52526320  0.65023983  0.58363512  1
  C  C107  1  0.12444762  0.46356128  0.58052735  1
  C  C108  1  0.33559877  0.85243945  0.26134261  1
  C  C109  1  0.52167495  0.67378625  0.26649936  1
  C  C110  1  0.16448569  0.49216442  0.25513370  1
  C  C111  1  0.32065663  0.46363705  0.74469734  1
  C  C112  1  0.14075855  0.67638160  0.74627512  1
  C  C113  1  0.51363238  0.84966138  0.73834595  1
