# generated using pymatgen
data_Cu4NiC14
_symmetry_space_group_name_H-M   'P 1'
_cell_length_a   5.08996991
_cell_length_b   6.35258580
_cell_length_c   6.84027257
_cell_angle_alpha   105.70039737
_cell_angle_beta   98.19441660
_cell_angle_gamma   106.97708347
_symmetry_Int_Tables_number   1
_chemical_formula_structural   Cu4NiC14
_chemical_formula_sum   'Cu4 Ni1 C14'
_cell_volume   197.66238673
_cell_formula_units_Z   1
loop_
 _symmetry_equiv_pos_site_id
 _symmetry_equiv_pos_as_xyz
  1  'x, y, z'
loop_
 _atom_site_type_symbol
 _atom_site_label
 _atom_site_symmetry_multiplicity
 _atom_site_fract_x
 _atom_site_fract_y
 _atom_site_fract_z
 _atom_site_occupancy
  C  C0  1  0.20489655  0.40390383  0.40480562  1
  C  C1  1  0.55564187  0.66363858  0.17081360  1
  C  C2  1  0.84998525  0.13294501  0.62412657  1
  C  C3  1  0.95555392  0.48290526  0.99670175  1
  Ni  Ni4  1  0.21314973  0.90110928  0.40626962  1
  Cu  Cu5  1  0.39741166  0.80379108  0.80118234  1
  Cu  Cu6  1  0.99985579  0.98706889  0.00321205  1
  Cu  Cu7  1  0.79686879  0.61650270  0.59598941  1
  Cu  Cu8  1  0.60744723  0.18998842  0.20171640  1
  C  C9  1  0.09283052  0.91605264  0.72112789  1
  C  C10  1  0.09018298  0.52254761  0.70389604  1
  C  C11  1  0.27264062  0.87050872  0.10543642  1
  C  C12  1  0.29235608  0.27269024  0.08684804  1
  C  C13  1  0.51815480  0.76612003  0.52183652  1
  C  C14  1  0.70010716  0.68444369  0.86615718  1
  C  C15  1  0.55316150  0.27833161  0.47715709  1
  C  C16  1  0.70132993  0.10032793  0.93168197  1
  C  C17  1  0.89405410  0.57540333  0.33616969  1
  C  C18  1  0.89788353  0.03674114  0.26247680  1
