# generated using pymatgen
data_Cu2NiC10
_symmetry_space_group_name_H-M   'P 1'
_cell_length_a   6.08134031
_cell_length_b   6.08133971
_cell_length_c   6.20755118
_cell_angle_alpha   105.67163910
_cell_angle_beta   105.67164080
_cell_angle_gamma   116.54848579
_symmetry_Int_Tables_number   1
_chemical_formula_structural   Cu2NiC10
_chemical_formula_sum   'Cu2 Ni1 C10'
_cell_volume   176.19878184
_cell_formula_units_Z   1
loop_
 _symmetry_equiv_pos_site_id
 _symmetry_equiv_pos_as_xyz
  1  'x, y, z'
loop_
 _atom_site_type_symbol
 _atom_site_label
 _atom_site_symmetry_multiplicity
 _atom_site_fract_x
 _atom_site_fract_y
 _atom_site_fract_z
 _atom_site_occupancy
  C  C0  1  0.12549000  0.87451000  0.25000000  1
  C  C1  1  0.90352500  0.09647500  0.75000000  1
  Ni  Ni2  1  0.61470400  0.38529600  0.75000000  1
  Cu  Cu3  1  0.35086100  0.64913900  0.75000000  1
  Cu  Cu4  1  0.62659000  0.37341000  0.25000000  1
  C  C5  1  0.81464400  0.73917400  0.42468500  1
  C  C6  1  0.38442800  0.84694700  0.58361300  1
  C  C7  1  0.72027000  0.77211400  0.90730500  1
  C  C8  1  0.79528200  0.36297600  0.05071600  1
  C  C9  1  0.63702400  0.20471800  0.44928400  1
  C  C10  1  0.22788600  0.27973000  0.59269500  1
  C  C11  1  0.15305300  0.61557200  0.91638700  1
  C  C12  1  0.26082600  0.18535600  0.07531500  1
