# generated using pymatgen
data_Cu2NiC12
_symmetry_space_group_name_H-M   'P 1'
_cell_length_a   5.79273100
_cell_length_b   6.61039501
_cell_length_c   6.61166901
_cell_angle_alpha   90.00584128
_cell_angle_beta   89.99986511
_cell_angle_gamma   89.99991832
_symmetry_Int_Tables_number   1
_chemical_formula_structural   Cu2NiC12
_chemical_formula_sum   'Cu2 Ni1 C12'
_cell_volume   253.17561576
_cell_formula_units_Z   1
loop_
 _symmetry_equiv_pos_site_id
 _symmetry_equiv_pos_as_xyz
  1  'x, y, z'
loop_
 _atom_site_type_symbol
 _atom_site_label
 _atom_site_symmetry_multiplicity
 _atom_site_fract_x
 _atom_site_fract_y
 _atom_site_fract_z
 _atom_site_occupancy
  Ni  Ni0  1  0.99988500  0.75000000  0.25000200  1
  Cu  Cu1  1  0.80917200  0.25000000  0.25000100  1
  Cu  Cu2  1  0.19067600  0.75000000  0.74999900  1
  C  C3  1  0.50025200  0.25000000  0.75000200  1
  C  C4  1  0.49989200  0.75000000  0.24999800  1
  C  C5  1  0.67976300  0.24432400  0.97030300  1
  C  C6  1  0.74348200  0.54653000  0.24476800  1
  C  C7  1  0.74348300  0.95346900  0.25523100  1
  C  C8  1  0.67976000  0.25567400  0.52969900  1
  C  C9  1  0.09195900  0.25000000  0.25000100  1
  C  C10  1  0.90801900  0.75000000  0.74999600  1
  C  C11  1  0.25625300  0.74523100  0.45341300  1
  C  C12  1  0.32057500  0.02961100  0.74482700  1
  C  C13  1  0.32057900  0.47038900  0.75517500  1
  C  C14  1  0.25624900  0.75477100  0.04658600  1
