# generated using pymatgen
data_Cu4NiC10
_symmetry_space_group_name_H-M   'P 1'
_cell_length_a   3.10622640
_cell_length_b   5.23214781
_cell_length_c   12.64766238
_cell_angle_alpha   87.43427452
_cell_angle_beta   89.96545764
_cell_angle_gamma   107.21900341
_symmetry_Int_Tables_number   1
_chemical_formula_structural   Cu4NiC10
_chemical_formula_sum   'Cu4 Ni1 C10'
_cell_volume   196.12246026
_cell_formula_units_Z   1
loop_
 _symmetry_equiv_pos_site_id
 _symmetry_equiv_pos_as_xyz
  1  'x, y, z'
loop_
 _atom_site_type_symbol
 _atom_site_label
 _atom_site_symmetry_multiplicity
 _atom_site_fract_x
 _atom_site_fract_y
 _atom_site_fract_z
 _atom_site_occupancy
  Ni  Ni0  1  0.80533600  0.61234900  0.11556500  1
  Cu  Cu1  1  0.06547500  0.13019400  0.25374100  1
  Cu  Cu2  1  0.23648500  0.47350300  0.89174600  1
  Cu  Cu3  1  0.76858400  0.53738200  0.40137800  1
  Cu  Cu4  1  0.92299800  0.84702100  0.68199900  1
  C  C5  1  0.33564500  0.67218900  0.75231700  1
  C  C6  1  0.70450900  0.40905300  0.26028200  1
  C  C7  1  0.18659900  0.37395200  0.07923800  1
  C  C8  1  0.13885200  0.27899000  0.42737500  1
  C  C9  1  0.43621200  0.87575200  0.15485500  1
  C  C10  1  0.41121300  0.81973300  0.35903600  1
  C  C11  1  0.61191400  0.22376600  0.86574100  1
  C  C12  1  0.53284000  0.06681800  0.62868100  1
  C  C13  1  0.82317200  0.64648700  0.54152900  1
  C  C14  1  0.85349800  0.70781000  0.96338400  1
