# generated using pymatgen
data_CuNiC6
_symmetry_space_group_name_H-M   'P 1'
_cell_length_a   10.09411700
_cell_length_b   10.09411700
_cell_length_c   5.66067800
_cell_angle_alpha   90.00000000
_cell_angle_beta   90.00000000
_cell_angle_gamma   90.00000000
_symmetry_Int_Tables_number   1
_chemical_formula_structural   CuNiC6
_chemical_formula_sum   'Cu2 Ni2 C12'
_cell_volume   576.77326297
_cell_formula_units_Z   2
loop_
 _symmetry_equiv_pos_site_id
 _symmetry_equiv_pos_as_xyz
  1  'x, y, z'
loop_
 _atom_site_type_symbol
 _atom_site_label
 _atom_site_symmetry_multiplicity
 _atom_site_fract_x
 _atom_site_fract_y
 _atom_site_fract_z
 _atom_site_occupancy
  Ni  Ni0  1  0.00000000  0.00000000  0.50000000  1
  Ni  Ni1  1  0.50000000  0.50000000  0.50000000  1
  Cu  Cu2  1  0.00000000  0.50000000  0.11795300  1
  Cu  Cu3  1  0.50000000  0.00000000  0.88204700  1
  C  C4  1  0.31951700  0.81951700  0.88468400  1
  C  C5  1  0.07689900  0.13785600  0.70553400  1
  C  C6  1  0.18048300  0.31951700  0.11531600  1
  C  C7  1  0.68048300  0.18048300  0.88468400  1
  C  C8  1  0.36214400  0.42310100  0.70553400  1
  C  C9  1  0.81951700  0.68048300  0.11531600  1
  C  C10  1  0.57689900  0.36214400  0.29446600  1
  C  C11  1  0.13785600  0.92310100  0.29446600  1
  C  C12  1  0.42310100  0.63785600  0.29446600  1
  C  C13  1  0.63785600  0.57689900  0.70553400  1
  C  C14  1  0.86214400  0.07689900  0.29446600  1
  C  C15  1  0.92310100  0.86214400  0.70553400  1
