# generated using pymatgen
data_Cu4NiC10
_symmetry_space_group_name_H-M   'P 1'
_cell_length_a   3.06285310
_cell_length_b   6.12623887
_cell_length_c   11.06060291
_cell_angle_alpha   82.80201244
_cell_angle_beta   98.74724535
_cell_angle_gamma   61.27508061
_symmetry_Int_Tables_number   1
_chemical_formula_structural   Cu4NiC10
_chemical_formula_sum   'Cu4 Ni1 C10'
_cell_volume   175.10606806
_cell_formula_units_Z   1
loop_
 _symmetry_equiv_pos_site_id
 _symmetry_equiv_pos_as_xyz
  1  'x, y, z'
loop_
 _atom_site_type_symbol
 _atom_site_label
 _atom_site_symmetry_multiplicity
 _atom_site_fract_x
 _atom_site_fract_y
 _atom_site_fract_z
 _atom_site_occupancy
  C  C0  1  0.22355068  0.25005983  0.21007061  1
  C  C1  1  0.78985862  0.86893324  0.80957910  1
  Ni  Ni2  1  0.59057330  0.55118588  0.65663529  1
  Cu  Cu3  1  0.51948347  0.30179415  0.94480711  1
  Cu  Cu4  1  0.22218913  0.74830058  0.33896242  1
  Cu  Cu5  1  0.43080185  0.14335384  0.53678483  1
  Cu  Cu6  1  0.50212253  0.81378848  0.07417950  1
  C  C7  1  0.17834694  0.93711210  0.62307745  1
  C  C8  1  0.16546342  0.05217258  0.91555274  1
  C  C9  1  0.57596233  0.93020468  0.39585606  1
  C  C10  1  0.86534599  0.03470265  0.11920690  1
  C  C11  1  0.79415262  0.62008052  0.25270324  1
  C  C12  1  0.23669439  0.46204676  0.76430465  1
  C  C13  1  0.66156616  0.39923055  0.49973959  1
  C  C14  1  0.91114759  0.52453316  0.00224050  1
