# generated using pymatgen
data_Cu2Ni4C7
_symmetry_space_group_name_H-M   'P 1'
_cell_length_a   3.35004497
_cell_length_b   3.35043224
_cell_length_c   43.62072263
_cell_angle_alpha   90.00142585
_cell_angle_beta   89.88387852
_cell_angle_gamma   120.00430633
_symmetry_Int_Tables_number   1
_chemical_formula_structural   Cu2Ni4C7
_chemical_formula_sum   'Cu2 Ni4 C7'
_cell_volume   423.98934385
_cell_formula_units_Z   1
loop_
 _symmetry_equiv_pos_site_id
 _symmetry_equiv_pos_as_xyz
  1  'x, y, z'
loop_
 _atom_site_type_symbol
 _atom_site_label
 _atom_site_symmetry_multiplicity
 _atom_site_fract_x
 _atom_site_fract_y
 _atom_site_fract_z
 _atom_site_occupancy
  C  C0  1  0.32744800  0.66375200  0.55412300  1
  C  C1  1  0.66863900  0.33425600  0.05037500  1
  C  C2  1  0.66559000  0.33277000  0.13728900  1
  C  C3  1  0.33344000  0.66667900  0.09382200  1
  C  C4  1  0.33054900  0.66526400  0.46323700  1
  C  C5  1  0.66726700  0.33368400  0.28190300  1
  C  C6  1  0.66650700  0.33325800  0.66257100  1
  Ni  Ni7  1  0.33240000  0.66624200  0.32026700  1
  Ni  Ni8  1  0.33161900  0.66583300  0.70082900  1
  Ni  Ni9  1  0.33490100  0.66749300  0.24354200  1
  Ni  Ni10  1  0.33431000  0.66715700  0.62410000  1
  Cu  Cu11  1  0.66487300  0.33238400  0.42872300  1
  Cu  Cu12  1  0.66388700  0.33194300  0.49831400  1
