# generated using pymatgen
data_Cu3Ni3C31
_symmetry_space_group_name_H-M   'P 1'
_cell_length_a   8.88857300
_cell_length_b   8.86330219
_cell_length_c   22.70765340
_cell_angle_alpha   89.83460772
_cell_angle_beta   90.13259448
_cell_angle_gamma   119.96690479
_symmetry_Int_Tables_number   1
_chemical_formula_structural   Cu3Ni3C31
_chemical_formula_sum   'Cu9 Ni9 C93'
_cell_volume   1549.79121675
_cell_formula_units_Z   3
loop_
 _symmetry_equiv_pos_site_id
 _symmetry_equiv_pos_as_xyz
  1  'x, y, z'
loop_
 _atom_site_type_symbol
 _atom_site_label
 _atom_site_symmetry_multiplicity
 _atom_site_fract_x
 _atom_site_fract_y
 _atom_site_fract_z
 _atom_site_occupancy
  C  C0  1  0.97880316  0.35115753  0.74753259  1
  C  C1  1  0.64970856  0.97237016  0.58177279  1
  C  C2  1  0.32770349  0.02656165  0.40854323  1
  C  C3  1  0.99110070  0.00454727  0.49415283  1
  C  C4  1  0.98268713  0.99870560  0.99052488  1
  C  C5  1  0.66163961  0.32391724  0.82930309  1
  C  C6  1  0.66367461  0.32675758  0.32291356  1
  C  C7  1  0.32925804  0.68173115  0.16311518  1
  C  C8  1  0.31935382  0.67208841  0.65628995  1
  C  C9  1  0.99682936  0.00349012  0.35032876  1
  C  C10  1  0.98159164  0.99877469  0.85745108  1
  C  C11  1  0.66718650  0.32010732  0.68435830  1
  C  C12  1  0.66634349  0.31814595  0.18530326  1
  C  C13  1  0.33227604  0.66902006  0.52012391  1
  C  C14  1  0.99388750  0.00058434  0.64459523  1
  C  C15  1  0.00031381  0.99217266  0.14368470  1
  C  C16  1  0.69306603  0.34522024  0.97791217  1
  C  C17  1  0.66225651  0.31567227  0.48238213  1
  C  C18  1  0.33562742  0.66462120  0.02107927  1
  C  C19  1  0.33856339  0.68161687  0.31088611  1
  C  C20  1  0.34457793  0.66731857  0.81419352  1
  Ni  Ni21  1  0.29569145  0.01839436  0.25494307  1
  Ni  Ni22  1  0.70589198  0.00408288  0.75204963  1
  Ni  Ni23  1  0.97065151  0.34790701  0.58828467  1
  Ni  Ni24  1  0.36873894  0.03501047  0.58658670  1
  Ni  Ni25  1  0.95635009  0.61575467  0.08773207  1
  Ni  Ni26  1  0.66506239  0.04571903  0.08593251  1
  Ni  Ni27  1  0.62930633  0.66216097  0.91911155  1
  Ni  Ni28  1  0.05179714  0.37331218  0.91479625  1
  Ni  Ni29  1  0.63646656  0.95410001  0.42045371  1
  Cu  Cu30  1  0.71096473  0.70946295  0.25076080  1
  Cu  Cu31  1  0.00245256  0.29114400  0.25141387  1
  Cu  Cu32  1  0.29027972  0.28669968  0.75122573  1
  Cu  Cu33  1  0.00004829  0.71419358  0.75188553  1
  Cu  Cu34  1  0.66788856  0.61749163  0.58488010  1
  Cu  Cu35  1  0.37848244  0.33194953  0.08434360  1
  Cu  Cu36  1  0.33454228  0.95501524  0.91665605  1
  Cu  Cu37  1  0.33664717  0.38202749  0.41764098  1
  Cu  Cu38  1  0.04067870  0.66268907  0.41658831  1
  C  C39  1  0.20345838  0.01648955  0.31522566  1
  C  C40  1  0.81136931  0.79393975  0.30327622  1
  C  C41  1  0.98067469  0.18690352  0.30381918  1
  C  C42  1  0.21413603  0.18352685  0.80360176  1
  C  C43  1  0.99099824  0.80194441  0.80415126  1
  C  C44  1  0.83756250  0.03475017  0.80369440  1
  C  C45  1  0.79812960  0.96941732  0.69074806  1
  C  C46  1  0.17359451  0.20192809  0.69743778  1
  C  C47  1  0.02714230  0.82323629  0.69704250  1
  C  C48  1  0.78719881  0.82311046  0.19664146  1
  C  C49  1  0.02817493  0.21033408  0.19745851  1
  C  C50  1  0.16233335  0.98238483  0.19704312  1
  C  C51  1  0.88808845  0.36939438  0.64718257  1
  C  C52  1  0.49564148  0.13594606  0.63863536  1
  C  C53  1  0.65094503  0.51869859  0.63762600  1
  C  C54  1  0.87022855  0.50732031  0.14456332  1
  C  C55  1  0.61889955  0.11245604  0.14291502  1
  C  C56  1  0.47946772  0.36318553  0.13747714  1
  C  C57  1  0.45274986  0.30284517  0.03059470  1
  C  C58  1  0.83699324  0.53367814  0.02631084  1
  C  C59  1  0.69092278  0.16585586  0.02588024  1
  C  C60  1  0.46049077  0.16309874  0.52336094  1
  C  C61  1  0.69588422  0.53807256  0.53018346  1
  C  C62  1  0.82675933  0.30225942  0.52993700  1
  C  C63  1  0.52001435  0.68274272  0.97335274  1
  C  C64  1  0.16433187  0.49005281  0.97119338  1
  C  C65  1  0.31375743  0.84937516  0.97031687  1
  C  C66  1  0.54068609  0.85077337  0.47812846  1
  C  C67  1  0.31569577  0.46369270  0.46955487  1
  C  C68  1  0.14876332  0.68667164  0.46781296  1
  C  C69  1  0.12353316  0.63314538  0.36183882  1
  C  C70  1  0.49564020  0.85577166  0.36182399  1
  C  C71  1  0.35397896  0.48547113  0.36279335  1
  C  C72  1  0.13447275  0.49798906  0.85513088  1
  C  C73  1  0.36467262  0.86913632  0.86347174  1
  C  C74  1  0.50080726  0.64022989  0.86041347  1
  C  C75  1  0.02459661  0.81874658  0.40902794  1
  C  C76  1  0.82679230  0.98817969  0.40934957  1
  C  C77  1  0.19119586  0.20134039  0.41218486  1
  C  C78  1  0.04266148  0.19152273  0.91470079  1
  C  C79  1  0.18079096  0.96845220  0.90864451  1
  C  C80  1  0.81877333  0.82206054  0.91468951  1
  C  C81  1  0.96150986  0.15002139  0.59106803  1
  C  C82  1  0.17581942  0.01973218  0.59230538  1
  C  C83  1  0.83359703  0.79791113  0.58831631  1
  C  C84  1  0.97954633  0.81643773  0.09227837  1
  C  C85  1  0.84383551  0.02984965  0.09361962  1
  C  C86  1  0.19676645  0.17579306  0.09060743  1
  C  C87  1  0.68285342  0.17256411  0.74764053  1
  C  C88  1  0.46736586  0.32636029  0.74112918  1
  C  C89  1  0.84519488  0.54077178  0.74528076  1
  C  C90  1  0.68553502  0.53680812  0.24267925  1
  C  C91  1  0.85790123  0.32367251  0.24599203  1
  C  C92  1  0.48706314  0.17701061  0.24720546  1
  C  C93  1  0.61716905  0.47123021  0.92528696  1
  C  C94  1  0.85776170  0.36159381  0.92182294  1
  C  C95  1  0.49463907  0.12692890  0.92204168  1
  C  C96  1  0.63519951  0.14927013  0.42227481  1
  C  C97  1  0.50339958  0.37166696  0.42076255  1
  C  C98  1  0.86388185  0.50472512  0.42121740  1
  C  C99  1  0.34945738  0.48542240  0.07635006  1
  C  C100  1  0.15252583  0.65066033  0.07396665  1
  C  C101  1  0.50509175  0.84704250  0.07120095  1
  C  C102  1  0.35581729  0.85142331  0.57622509  1
  C  C103  1  0.52336730  0.64978207  0.57746630  1
  C  C104  1  0.16186869  0.49300877  0.57388330  1
  C  C105  1  0.30357005  0.82369294  0.25841634  1
  C  C106  1  0.52927781  0.69312271  0.25675143  1
  C  C107  1  0.17090277  0.46779445  0.25778100  1
  C  C108  1  0.28961410  0.46113749  0.75464308  1
  C  C109  1  0.15867058  0.69004794  0.75398722  1
  C  C110  1  0.50940001  0.82199170  0.75683298  1
