# generated using pymatgen
data_Cu4Ni8C5
_symmetry_space_group_name_H-M   'P 1'
_cell_length_a   13.82037177
_cell_length_b   3.60602800
_cell_length_c   4.89790259
_cell_angle_alpha   90.00000000
_cell_angle_beta   88.95166330
_cell_angle_gamma   90.00000000
_symmetry_Int_Tables_number   1
_chemical_formula_structural   Cu4Ni8C5
_chemical_formula_sum   'Cu4 Ni8 C5'
_cell_volume   244.05418749
_cell_formula_units_Z   1
loop_
 _symmetry_equiv_pos_site_id
 _symmetry_equiv_pos_as_xyz
  1  'x, y, z'
loop_
 _atom_site_type_symbol
 _atom_site_label
 _atom_site_symmetry_multiplicity
 _atom_site_fract_x
 _atom_site_fract_y
 _atom_site_fract_z
 _atom_site_occupancy
  C  C0  1  0.66808100  0.75000000  0.82329800  1
  C  C1  1  0.08438900  0.25000000  0.10067900  1
  C  C2  1  0.40818400  0.75000000  0.59939300  1
  C  C3  1  0.57494300  0.25000000  0.37664900  1
  C  C4  1  0.92234000  0.75000000  0.89669700  1
  Ni  Ni5  1  0.06111800  0.75000000  0.99160000  1
  Ni  Ni6  1  0.08898300  0.25000000  0.42721600  1
  Ni  Ni7  1  0.41569400  0.75000000  0.92896800  1
  Ni  Ni8  1  0.44055900  0.25000000  0.47791500  1
  Ni  Ni9  1  0.56368700  0.75000000  0.52302000  1
  Ni  Ni10  1  0.60671500  0.25000000  0.03896300  1
  Ni  Ni11  1  0.90751300  0.75000000  0.57002600  1
  Ni  Ni12  1  0.94129100  0.25000000  0.01433100  1
  Cu  Cu13  1  0.20605700  0.25000000  0.98040200  1
  Cu  Cu14  1  0.28637900  0.75000000  0.49539500  1
  Cu  Cu15  1  0.69600100  0.25000000  0.58550700  1
  Cu  Cu16  1  0.78547300  0.75000000  0.01716300  1
