# generated using pymatgen
data_Cu(NiC2)4
_symmetry_space_group_name_H-M   'P 1'
_cell_length_a   5.64124235
_cell_length_b   5.62878239
_cell_length_c   5.80836191
_cell_angle_alpha   89.87780838
_cell_angle_beta   62.51025176
_cell_angle_gamma   59.83364116
_symmetry_Int_Tables_number   1
_chemical_formula_structural   Cu(NiC2)4
_chemical_formula_sum   'Cu1 Ni4 C8'
_cell_volume   134.95296097
_cell_formula_units_Z   1
loop_
 _symmetry_equiv_pos_site_id
 _symmetry_equiv_pos_as_xyz
  1  'x, y, z'
loop_
 _atom_site_type_symbol
 _atom_site_label
 _atom_site_symmetry_multiplicity
 _atom_site_fract_x
 _atom_site_fract_y
 _atom_site_fract_z
 _atom_site_occupancy
  Ni  Ni0  1  0.00000000  0.50000000  0.50000000  1
  Ni  Ni1  1  0.00000000  0.00000000  0.00000000  1
  Ni  Ni2  1  0.50000000  0.00000000  0.00000000  1
  Ni  Ni3  1  0.00000000  0.50000000  0.00000000  1
  Cu  Cu4  1  0.50000000  0.50000000  0.00000000  1
  C  C5  1  0.46070500  0.26898600  0.80673300  1
  C  C6  1  0.95412600  0.27954800  0.79635900  1
  C  C7  1  0.47309300  0.76172600  0.79656100  1
  C  C8  1  0.95536700  0.76817200  0.79580800  1
  C  C9  1  0.04463300  0.23182800  0.20419200  1
  C  C10  1  0.52690700  0.23827400  0.20343900  1
  C  C11  1  0.04587400  0.72045200  0.20364100  1
  C  C12  1  0.53929500  0.73101400  0.19326700  1
