# generated using pymatgen
data_Cu4Ni11C67
_symmetry_space_group_name_H-M   'P 1'
_cell_length_a   18.05792443
_cell_length_b   9.03511501
_cell_length_c   22.20220384
_cell_angle_alpha   90.07781356
_cell_angle_beta   90.08046496
_cell_angle_gamma   120.00484804
_symmetry_Int_Tables_number   1
_chemical_formula_structural   Cu4Ni11C67
_chemical_formula_sum   'Cu12 Ni33 C201'
_cell_volume   3136.93382924
_cell_formula_units_Z   3
loop_
 _symmetry_equiv_pos_site_id
 _symmetry_equiv_pos_as_xyz
  1  'x, y, z'
loop_
 _atom_site_type_symbol
 _atom_site_label
 _atom_site_symmetry_multiplicity
 _atom_site_fract_x
 _atom_site_fract_y
 _atom_site_fract_z
 _atom_site_occupancy
  C  C0  1  0.31798328  0.00004295  0.24995950  1
  C  C1  1  0.81770336  0.99975576  0.24993128  1
  C  C2  1  0.31812868  0.63177839  0.74963994  1
  C  C3  1  0.81528990  0.63103846  0.74977378  1
  C  C4  1  0.49807670  0.36602147  0.75065170  1
  C  C5  1  0.68465175  0.00109319  0.74962245  1
  C  C6  1  0.15013830  0.33461067  0.58260087  1
  C  C7  1  0.64703325  0.32813880  0.58476367  1
  C  C8  1  0.01921027  0.69825319  0.58345646  1
  C  C9  1  0.51637807  0.70403320  0.58349366  1
  C  C10  1  0.33258940  0.95898156  0.58341186  1
  C  C11  1  0.83380178  0.97163752  0.58393437  1
  C  C12  1  0.14929514  0.96669164  0.08304538  1
  C  C13  1  0.64739926  0.96547615  0.08314636  1
  C  C14  1  0.33216658  0.69677257  0.08331263  1
  C  C15  1  0.83306124  0.69636349  0.08429301  1
  C  C16  1  0.01796300  0.33733947  0.08370356  1
  C  C17  1  0.51667035  0.33813110  0.08371714  1
  C  C18  1  0.48127958  0.66603438  0.91634467  1
  C  C19  1  0.98602265  0.66654440  0.91635985  1
  C  C20  1  0.34962361  0.03417480  0.91615436  1
  C  C21  1  0.84974896  0.03543918  0.91572135  1
  C  C22  1  0.16739098  0.30100154  0.91765958  1
  C  C23  1  0.66390886  0.29434087  0.91561497  1
  C  C24  1  0.48183082  0.30230544  0.41698691  1
  C  C25  1  0.98503347  0.30481912  0.41632470  1
  C  C26  1  0.16779515  0.03780670  0.41758670  1
  C  C27  1  0.66422890  0.03169465  0.41682381  1
  C  C28  1  0.34756548  0.65916289  0.41685952  1
  C  C29  1  0.84903626  0.66247904  0.41576340  1
  C  C30  1  0.00158211  0.00255951  0.50002120  1
  C  C31  1  0.50188043  0.00001789  0.50180860  1
  C  C32  1  0.00248639  0.00210655  0.00012419  1
  C  C33  1  0.50106142  0.99986341  0.99799874  1
  C  C34  1  0.33066996  0.32322692  0.83333250  1
  C  C35  1  0.83890287  0.33463703  0.83209393  1
  C  C36  1  0.33692881  0.34848460  0.33371231  1
  C  C37  1  0.83679697  0.34864466  0.33253014  1
  C  C38  1  0.16279415  0.65129786  0.16762876  1
  C  C39  1  0.66209371  0.65115550  0.16766347  1
  C  C40  1  0.16267851  0.67272089  0.66642508  1
  C  C41  1  0.66710677  0.66797233  0.66631954  1
  C  C42  1  0.99285970  0.99681621  0.35473955  1
  C  C43  1  0.49027553  0.99485211  0.35542771  1
  C  C44  1  0.99387315  0.98910363  0.85485029  1
  C  C45  1  0.49792386  0.99915665  0.85148768  1
  C  C46  1  0.99603303  0.98661612  0.64546067  1
  C  C47  1  0.49841986  0.99744591  0.64826352  1
  C  C48  1  0.99467282  0.00400428  0.14557917  1
  C  C49  1  0.49288500  0.00426219  0.14463303  1
  C  C50  1  0.33621955  0.32800843  0.68307980  1
  C  C51  1  0.33302998  0.33645478  0.98120912  1
  C  C52  1  0.33259550  0.33363424  0.48171075  1
  C  C53  1  0.16612408  0.66374776  0.51884381  1
  Ni  Ni54  1  0.35457408  0.70752143  0.24979591  1
  Ni  Ni55  1  0.85490136  0.70826602  0.25022053  1
  Ni  Ni56  1  0.00136260  0.29253257  0.25008796  1
  Ni  Ni57  1  0.50046616  0.29141837  0.25016697  1
  Ni  Ni58  1  0.64343451  0.28656212  0.74984768  1
  Ni  Ni59  1  0.00311571  0.71278035  0.74982918  1
  Ni  Ni60  1  0.49749037  0.70831865  0.74956548  1
  Ni  Ni61  1  0.35327720  0.99952894  0.74924914  1
  Ni  Ni62  1  0.85743227  0.00337328  0.75007745  1
  Ni  Ni63  1  0.47762021  0.33013523  0.58240339  1
  Ni  Ni64  1  0.98194098  0.33448761  0.58367489  1
  Ni  Ni65  1  0.18906243  0.04345686  0.58315624  1
  Ni  Ni66  1  0.68609145  0.04081912  0.58466162  1
  Ni  Ni67  1  0.33266896  0.62080412  0.58457038  1
  Ni  Ni68  1  0.83268059  0.62433331  0.58425147  1
  Ni  Ni69  1  0.47951847  0.62704535  0.08261620  1
  Ni  Ni70  1  0.98159891  0.63021465  0.08351339  1
  Ni  Ni71  1  0.33162289  0.04614126  0.08411592  1
  Ni  Ni72  1  0.83216959  0.04223532  0.08522232  1
  Ni  Ni73  1  0.18844903  0.33261820  0.08396802  1
  Ni  Ni74  1  0.68653350  0.33088003  0.08455281  1
  Ni  Ni75  1  0.31297478  0.66606437  0.91489120  1
  Ni  Ni76  1  0.81275129  0.66513898  0.91618788  1
  Ni  Ni77  1  0.02097960  0.37330748  0.91544930  1
  Ni  Ni78  1  0.51825238  0.37064922  0.91612995  1
  Ni  Ni79  1  0.16780350  0.96532672  0.91715864  1
  Ni  Ni80  1  0.66561617  0.96077688  0.91564210  1
  Ni  Ni81  1  0.30888739  0.95648276  0.41647999  1
  Ni  Ni82  1  0.81083894  0.95707774  0.41498610  1
  Ni  Ni83  1  0.16750071  0.37359089  0.41775688  1
  Ni  Ni84  1  0.66590424  0.36940437  0.41698289  1
  Ni  Ni85  1  0.02324648  0.66909610  0.41650871  1
  Ni  Ni86  1  0.51924217  0.66624533  0.41576927  1
  Cu  Cu87  1  0.83746034  0.33626897  0.68838297  1
  Cu  Cu88  1  0.33898349  0.34639884  0.18706904  1
  Cu  Cu89  1  0.83882781  0.34605068  0.18735266  1
  Cu  Cu90  1  0.83353993  0.33497831  0.98178538  1
  Cu  Cu91  1  0.83442066  0.33182640  0.48195158  1
  Cu  Cu92  1  0.16650940  0.66715045  0.01758277  1
  Cu  Cu93  1  0.66669374  0.66654853  0.01830976  1
  Cu  Cu94  1  0.66492629  0.66468797  0.51838637  1
  Cu  Cu95  1  0.16655983  0.65410877  0.31366123  1
  Cu  Cu96  1  0.66484430  0.65318236  0.31308158  1
  Cu  Cu97  1  0.16645617  0.67741335  0.81369863  1
  Cu  Cu98  1  0.66568480  0.66606707  0.81284250  1
  C  C99  1  0.14332239  0.00001462  0.25031608  1
  C  C100  1  0.64288726  0.99966866  0.25000757  1
  C  C101  1  0.14446392  0.28711425  0.74975241  1
  C  C102  1  0.10235198  0.01586217  0.30535943  1
  C  C103  1  0.60230374  0.01526633  0.30505738  1
  C  C104  1  0.41231078  0.80745667  0.30980581  1
  C  C105  1  0.91358356  0.80759714  0.31031325  1
  C  C106  1  0.48905922  0.16951287  0.30901706  1
  C  C107  1  0.99059837  0.16988689  0.30877940  1
  C  C108  1  0.10381388  0.19024156  0.80503199  1
  C  C109  1  0.59696355  0.16759970  0.80889648  1
  C  C110  1  0.48373671  0.80110398  0.80853141  1
  C  C111  1  0.99204030  0.81269349  0.80862857  1
  C  C112  1  0.41438449  0.03070102  0.80856011  1
  C  C113  1  0.91394099  0.01903671  0.81016660  1
  C  C114  1  0.40127303  0.97229315  0.69039958  1
  C  C115  1  0.90579709  0.97876682  0.69124244  1
  C  C116  1  0.09391652  0.20414823  0.69493819  1
  C  C117  1  0.58311473  0.19498394  0.69042904  1
  C  C118  1  0.01183835  0.82890812  0.68968232  1
  C  C119  1  0.51255961  0.83094639  0.69081546  1
  C  C120  1  0.40428770  0.82971429  0.19087799  1
  C  C121  1  0.90503459  0.83053766  0.19161479  1
  C  C122  1  0.01004837  0.19379529  0.18997401  1
  C  C123  1  0.50875670  0.19197499  0.19012811  1
  C  C124  1  0.09456430  0.98494696  0.19510505  1
  C  C125  1  0.59449000  0.98419540  0.19471762  1
  C  C126  1  0.43312193  0.36520597  0.64192441  1
  C  C127  1  0.94060498  0.38656377  0.63877179  1
  C  C128  1  0.25436927  0.14225275  0.63988989  1
  C  C129  1  0.74863305  0.12205229  0.64315365  1
  C  C130  1  0.31692667  0.49756102  0.64345287  1
  C  C131  1  0.81203098  0.50442614  0.64321236  1
  C  C132  1  0.44319583  0.49893239  0.13988512  1
  C  C133  1  0.94189384  0.49644880  0.13880635  1
  C  C134  1  0.31144527  0.12110943  0.14496336  1
  C  C135  1  0.81168887  0.12231514  0.14431253  1
  C  C136  1  0.25165356  0.37752421  0.14150339  1
  C  C137  1  0.75286251  0.37808405  0.14023166  1
  C  C138  1  0.23310358  0.30097669  0.02438009  1
  C  C139  1  0.72291926  0.28739971  0.02311672  1
  C  C140  1  0.41736352  0.53826102  0.02364201  1
  C  C141  1  0.92137188  0.55831593  0.02274920  1
  C  C142  1  0.34957525  0.17082414  0.02616016  1
  C  C143  1  0.85547477  0.16207441  0.02534907  1
  C  C144  1  0.23248787  0.16517469  0.52400803  1
  C  C145  1  0.72546909  0.15943120  0.52446375  1
  C  C146  1  0.34895593  0.52938927  0.52570812  1
  C  C147  1  0.85589618  0.55051429  0.52445211  1
  C  C148  1  0.41730062  0.30234766  0.52381859  1
  C  C149  1  0.92107516  0.28211137  0.52296521  1
  C  C150  1  0.27464783  0.71203250  0.97461797  1
  C  C151  1  0.77602388  0.71146965  0.97598343  1
  C  C152  1  0.07900914  0.44505767  0.97693798  1
  C  C153  1  0.58127067  0.44913038  0.97495889  1
  C  C154  1  0.14153434  0.84107544  0.97664498  1
  C  C155  1  0.64571767  0.84075562  0.97528299  1
  C  C156  1  0.26461564  0.82854296  0.47419504  1
  C  C157  1  0.77402234  0.83754787  0.47494170  1
  C  C158  1  0.14853362  0.46394987  0.47590278  1
  C  C159  1  0.64170020  0.44176132  0.47770242  1
  C  C160  1  0.08377253  0.70057479  0.47647603  1
  C  C161  1  0.57963967  0.71510382  0.47663032  1
  C  C162  1  0.06350927  0.62249407  0.35919977  1
  C  C163  1  0.56198392  0.61859544  0.36014361  1
  C  C164  1  0.25044465  0.88110160  0.35569413  1
  C  C165  1  0.74989316  0.87704517  0.35593995  1
  C  C166  1  0.19595229  0.50194185  0.36038274  1
  C  C167  1  0.69341822  0.50342869  0.36161689  1
  C  C168  1  0.06345577  0.50593790  0.85995630  1
  C  C169  1  0.55774902  0.49447275  0.85689963  1
  C  C170  1  0.19559001  0.88716415  0.86146493  1
  C  C171  1  0.68788923  0.88120874  0.85649352  1
  C  C172  1  0.25010750  0.61891880  0.85596287  1
  C  C173  1  0.75224096  0.62461353  0.85700758  1
  C  C174  1  0.01493035  0.84189460  0.41040988  1
  C  C175  1  0.50987587  0.83724391  0.40773608  1
  C  C176  1  0.40491598  0.97449793  0.41171887  1
  C  C177  1  0.90720399  0.97765296  0.40941048  1
  C  C178  1  0.08161815  0.18473166  0.41031072  1
  C  C179  1  0.58147431  0.17981009  0.40774854  1
  C  C180  1  0.01181046  0.18398453  0.90768808  1
  C  C181  1  0.50837026  0.18096626  0.90979100  1
  C  C182  1  0.08347378  0.98697678  0.90771430  1
  C  C183  1  0.58034108  0.97889539  0.90967709  1
  C  C184  1  0.40762512  0.83676552  0.90883154  1
  C  C185  1  0.90878574  0.83623382  0.91035472  1
  C  C186  1  0.48554993  0.15870107  0.58783121  1
  C  C187  1  0.99389922  0.16724704  0.59281865  1
  C  C188  1  0.09462484  0.02666115  0.59048141  1
  C  C189  1  0.59117374  0.02151773  0.59009428  1
  C  C190  1  0.41820463  0.81071884  0.58911795  1
  C  C191  1  0.91866925  0.81744127  0.58976334  1
  C  C192  1  0.48820353  0.81607849  0.08990042  1
  C  C193  1  0.99186442  0.81967393  0.09282721  1
  C  C194  1  0.41839036  0.02727228  0.08875271  1
  C  C195  1  0.91809580  0.02102700  0.09053719  1
  C  C196  1  0.09362926  0.15989075  0.09004961  1
  C  C197  1  0.59187419  0.15962422  0.09245201  1
  C  C198  1  0.34729683  0.17433837  0.74334521  1
  C  C199  1  0.84437060  0.16849151  0.74887015  1
  C  C200  1  0.23165243  0.30827125  0.74654918  1
  C  C201  1  0.73809711  0.30466489  0.74767309  1
  C  C202  1  0.41171608  0.51846393  0.74489267  1
  C  C203  1  0.91200418  0.53190998  0.74858984  1
  C  C204  1  0.34503284  0.51905795  0.24931311  1
  C  C205  1  0.84522505  0.51950862  0.24937844  1
  C  C206  1  0.40884635  0.29078449  0.24897967  1
  C  C207  1  0.90921531  0.29045301  0.24894184  1
  C  C208  1  0.23121910  0.15383265  0.24888175  1
  C  C209  1  0.73130700  0.15360738  0.24854453  1
  C  C210  1  0.32280864  0.49624481  0.92236488  1
  C  C211  1  0.82310960  0.49658465  0.91997607  1
  C  C212  1  0.42400652  0.35278564  0.92329400  1
  C  C213  1  0.92557755  0.35236904  0.92049835  1
  C  C214  1  0.25218596  0.15485018  0.92459488  1
  C  C215  1  0.75211147  0.14922373  0.92035717  1
  C  C216  1  0.32210200  0.14759164  0.42386691  1
  C  C217  1  0.82300283  0.14830079  0.41936224  1
  C  C218  1  0.25102779  0.35002433  0.42575629  1
  C  C219  1  0.75151907  0.35077035  0.42189973  1
  C  C220  1  0.42410167  0.49725515  0.42298377  1
  C  C221  1  0.92729451  0.49997008  0.42154502  1
  C  C222  1  0.17766877  0.50211193  0.07870700  1
  C  C223  1  0.67625364  0.50110453  0.07974788  1
  C  C224  1  0.07642332  0.64950873  0.07899248  1
  C  C225  1  0.57512907  0.64958570  0.07765247  1
  C  C226  1  0.24905748  0.85380332  0.07875927  1
  C  C227  1  0.74832243  0.85134040  0.08042975  1
  C  C228  1  0.18031302  0.85472738  0.57818157  1
  C  C229  1  0.67741989  0.85120535  0.58000251  1
  C  C230  1  0.24742457  0.63998587  0.57801571  1
  C  C231  1  0.74798154  0.64551719  0.57959279  1
  C  C232  1  0.07634863  0.50557909  0.57630871  1
  C  C233  1  0.57173876  0.50361399  0.58074095  1
  C  C234  1  0.15372750  0.84564135  0.25166880  1
  C  C235  1  0.65399738  0.84545799  0.25147853  1
  C  C236  1  0.26345292  0.70935450  0.25130569  1
  C  C237  1  0.76357790  0.70914290  0.25159434  1
  C  C238  1  0.08567041  0.48137056  0.25143870  1
  C  C239  1  0.58528499  0.48049359  0.25078905  1
  C  C240  1  0.15469729  0.46238435  0.75123281  1
  C  C241  1  0.65070390  0.47546898  0.75198338  1
  C  C242  1  0.08757962  0.69278596  0.75104067  1
  C  C243  1  0.58483686  0.69384795  0.75144213  1
  C  C244  1  0.26267042  0.81742661  0.75177918  1
  C  C245  1  0.76293656  0.82612456  0.75133919  1
