# generated using pymatgen
data_CuNiC3
_symmetry_space_group_name_H-M   'P 1'
_cell_length_a   5.18656372
_cell_length_b   6.72321583
_cell_length_c   6.72321390
_cell_angle_alpha   45.95958310
_cell_angle_beta   37.12398800
_cell_angle_gamma   37.12397268
_symmetry_Int_Tables_number   1
_chemical_formula_structural   CuNiC3
_chemical_formula_sum   'Cu1 Ni1 C3'
_cell_volume   84.25394532
_cell_formula_units_Z   1
loop_
 _symmetry_equiv_pos_site_id
 _symmetry_equiv_pos_as_xyz
  1  'x, y, z'
loop_
 _atom_site_type_symbol
 _atom_site_label
 _atom_site_symmetry_multiplicity
 _atom_site_fract_x
 _atom_site_fract_y
 _atom_site_fract_z
 _atom_site_occupancy
  C  C0  1  -0.00000155  -0.00000513  -0.00000513  1
  Ni  Ni1  1  0.00000395  0.50000080  0.50000080  1
  Cu  Cu2  1  0.49999859  0.50000221  0.50000221  1
  C  C3  1  0.17951220  0.28993330  0.28993330  1
  C  C4  1  0.82048781  0.71006982  0.71006982  1
