# generated using pymatgen
data_Cu2Ni10C7
_symmetry_space_group_name_H-M   'P 1'
_cell_length_a   5.06755492
_cell_length_b   7.55295185
_cell_length_c   5.65890120
_cell_angle_alpha   98.05334312
_cell_angle_beta   98.14033234
_cell_angle_gamma   84.06753100
_symmetry_Int_Tables_number   1
_chemical_formula_structural   Cu2Ni10C7
_chemical_formula_sum   'Cu2 Ni10 C7'
_cell_volume   211.52544701
_cell_formula_units_Z   1
loop_
 _symmetry_equiv_pos_site_id
 _symmetry_equiv_pos_as_xyz
  1  'x, y, z'
loop_
 _atom_site_type_symbol
 _atom_site_label
 _atom_site_symmetry_multiplicity
 _atom_site_fract_x
 _atom_site_fract_y
 _atom_site_fract_z
 _atom_site_occupancy
  C  C0  1  0.49034715  0.16222959  0.15835383  1
  C  C1  1  0.44713510  0.97014475  0.54668051  1
  C  C2  1  0.51515039  0.66625114  0.15313007  1
  C  C3  1  0.56235304  0.35197542  0.77862892  1
  C  C4  1  0.99744565  0.66578793  0.67272681  1
  C  C5  1  0.00467614  0.33703452  0.32712503  1
  C  C6  1  0.99681812  0.98412230  0.99188057  1
  Ni  Ni7  1  0.86691095  0.43431180  0.62051426  1
  Ni  Ni8  1  0.85737014  0.75602192  0.95736436  1
  Ni  Ni9  1  0.64974591  0.08874539  0.83763959  1
  Ni  Ni10  1  0.67167908  0.75285313  0.47864576  1
  Ni  Ni11  1  0.65520177  0.40963524  0.13296367  1
  Ni  Ni12  1  0.34421142  0.57746516  0.83637399  1
  Ni  Ni13  1  0.35756468  0.23105086  0.49136620  1
  Ni  Ni14  1  0.33795896  0.91295401  0.19182954  1
  Ni  Ni15  1  0.11802993  0.21869229  0.03120872  1
  Ni  Ni16  1  0.13861936  0.89965372  0.71023659  1
  Cu  Cu17  1  0.84208150  0.07004729  0.30330933  1
  Cu  Cu18  1  0.16058970  0.59138255  0.36752124  1
