# generated using pymatgen
data_Cu2NiC12
_symmetry_space_group_name_H-M   'P 1'
_cell_length_a   5.38084938
_cell_length_b   5.15361438
_cell_length_c   7.34618063
_cell_angle_alpha   107.91073406
_cell_angle_beta   110.98603614
_cell_angle_gamma   92.01084241
_symmetry_Int_Tables_number   1
_chemical_formula_structural   Cu2NiC12
_chemical_formula_sum   'Cu2 Ni1 C12'
_cell_volume   178.55035005
_cell_formula_units_Z   1
loop_
 _symmetry_equiv_pos_site_id
 _symmetry_equiv_pos_as_xyz
  1  'x, y, z'
loop_
 _atom_site_type_symbol
 _atom_site_label
 _atom_site_symmetry_multiplicity
 _atom_site_fract_x
 _atom_site_fract_y
 _atom_site_fract_z
 _atom_site_occupancy
  Ni  Ni0  1  0.99843700  0.50140400  0.49825700  1
  Cu  Cu1  1  0.99820800  0.00115000  0.99715100  1
  Cu  Cu2  1  0.49751800  0.50244000  0.49646900  1
  C  C3  1  0.40741100  0.11373100  0.75434400  1
  C  C4  1  0.58891900  0.89019700  0.23980600  1
  C  C5  1  0.27749600  0.83710500  0.13579600  1
  C  C6  1  0.73330700  0.84346300  0.09218800  1
  C  C7  1  0.68302200  0.19175900  0.40309300  1
  C  C8  1  0.66849900  0.68590500  0.36423900  1
  C  C9  1  0.26208600  0.15971700  0.90143700  1
  C  C10  1  0.31167900  0.81278900  0.58974200  1
  C  C11  1  0.32881100  0.31963700  0.63102800  1
  C  C12  1  0.71884900  0.16410700  0.85771000  1
  C  C13  1  0.12747100  0.35627400  0.26428600  1
  C  C14  1  0.86703600  0.64532200  0.72981200  1
