# generated using pymatgen
data_Cu2Ni2C15
_symmetry_space_group_name_H-M   'P 1'
_cell_length_a   5.43106315
_cell_length_b   5.37282967
_cell_length_c   10.33471489
_cell_angle_alpha   90.00000000
_cell_angle_beta   90.00000000
_cell_angle_gamma   84.17094960
_symmetry_Int_Tables_number   1
_chemical_formula_structural   Cu2Ni2C15
_chemical_formula_sum   'Cu2 Ni2 C15'
_cell_volume   300.00950337
_cell_formula_units_Z   1
loop_
 _symmetry_equiv_pos_site_id
 _symmetry_equiv_pos_as_xyz
  1  'x, y, z'
loop_
 _atom_site_type_symbol
 _atom_site_label
 _atom_site_symmetry_multiplicity
 _atom_site_fract_x
 _atom_site_fract_y
 _atom_site_fract_z
 _atom_site_occupancy
  C  C0  1  0.50000000  0.50000000  0.03523227  1
  Ni  Ni1  1  -0.00000000  0.00000000  0.48184289  1
  Ni  Ni2  1  0.50000000  0.50000000  0.47010103  1
  Cu  Cu3  1  -0.00000000  0.50000000  0.26538564  1
  Cu  Cu4  1  0.50000000  0.00000000  0.72602595  1
  C  C5  1  0.50000000  0.00000000  0.24207918  1
  C  C6  1  -0.00000000  0.50000000  0.80810816  1
  C  C7  1  0.34276329  0.23763596  0.11837669  1
  C  C8  1  0.22399504  0.62686396  0.90698989  1
  C  C9  1  0.65723671  0.76236404  0.11837669  1
  C  C10  1  0.77600496  0.37313604  0.90698989  1
  C  C11  1  0.25438059  0.76774995  0.31329830  1
  C  C12  1  0.16940840  0.25693991  0.71006430  1
  C  C13  1  0.74561941  0.23225005  0.31329830  1
  C  C14  1  0.83059160  0.74306009  0.71006430  1
  C  C15  1  0.20727268  0.28971468  0.38831312  1
  C  C16  1  0.33260259  0.80128658  0.61285564  1
  C  C17  1  0.79272732  0.71028532  0.38831312  1
  C  C18  1  0.66739741  0.19871342  0.61285564  1
