# generated using pymatgen
data_CuNiC16
_symmetry_space_group_name_H-M   'P 1'
_cell_length_a   9.24440632
_cell_length_b   9.28384309
_cell_length_c   23.74610876
_cell_angle_alpha   91.11575312
_cell_angle_beta   90.00000000
_cell_angle_gamma   119.85958003
_symmetry_Int_Tables_number   1
_chemical_formula_structural   CuNiC16
_chemical_formula_sum   'Cu6 Ni6 C96'
_cell_volume   1766.98627542
_cell_formula_units_Z   6
loop_
 _symmetry_equiv_pos_site_id
 _symmetry_equiv_pos_as_xyz
  1  'x, y, z'
loop_
 _atom_site_type_symbol
 _atom_site_label
 _atom_site_symmetry_multiplicity
 _atom_site_fract_x
 _atom_site_fract_y
 _atom_site_fract_z
 _atom_site_occupancy
  C  C0  1  0.04222852  0.01644609  0.49687483  1
  C  C1  1  0.97421757  0.01644609  0.99687483  1
  C  C2  1  0.70671781  0.33298754  0.82858351  1
  C  C3  1  0.62627073  0.33298754  0.32858351  1
  C  C4  1  0.34023241  0.71117495  0.16272754  1
  C  C5  1  0.37094155  0.71117495  0.66272754  1
  C  C6  1  0.00006254  -0.00010578  0.64422593  1
  C  C7  1  0.99983168  -0.00010578  0.14422593  1
  C  C8  1  0.67472358  0.32148703  0.97659127  1
  C  C9  1  0.64676445  0.32148703  0.47659127  1
  C  C10  1  0.33583391  0.67127095  0.31042424  1
  C  C11  1  0.33543604  0.67127095  0.81042424  1
  Ni  Ni12  1  0.30534797  0.01559108  0.24811805  1
  Ni  Ni13  1  0.71024311  0.01559108  0.74811805  1
  Ni  Ni14  1  0.37099835  0.01707405  0.57982126  1
  Ni  Ni15  1  0.64607670  0.01707405  0.07982126  1
  Ni  Ni16  1  0.05608124  0.36850357  0.91534934  1
  Ni  Ni17  1  0.31242133  0.36850357  0.41534934  1
  Cu  Cu18  1  0.02355295  0.01466445  0.35193160  1
  Cu  Cu19  1  0.99111150  0.01466445  0.85193160  1
  Cu  Cu20  1  0.65578974  0.30256477  0.68331372  1
  Cu  Cu21  1  0.64677602  0.30256477  0.18331372  1
  Cu  Cu22  1  0.33044360  0.66227270  0.01732398  1
  Cu  Cu23  1  0.33182810  0.66227270  0.51732398  1
  C  C24  1  0.72033530  0.68966269  0.25070955  1
  C  C25  1  0.97049374  0.28460483  0.25172923  1
  C  C26  1  0.31411109  0.28460483  0.75172923  1
  C  C27  1  0.96932739  0.68966269  0.75070955  1
  C  C28  1  0.97304132  0.35818706  0.58396410  1
  C  C29  1  0.63898723  0.61141631  0.58609276  1
  C  C30  1  0.97243007  0.61141631  0.08609276  1
  C  C31  1  0.38514674  0.35818706  0.08396410  1
  C  C32  1  0.64498640  0.69127501  0.91793090  1
  C  C33  1  0.29938057  0.95335578  0.91701553  1
  C  C34  1  0.65397421  0.95335578  0.41701553  1
  C  C35  1  0.04628762  0.69127501  0.41793090  1
  C  C36  1  0.21359880  0.03239522  0.30792028  1
  C  C37  1  0.81711166  0.77634343  0.30392352  1
  C  C38  1  0.95326710  0.18489483  0.30302631  1
  C  C39  1  0.23162773  0.18489483  0.80302631  1
  C  C40  1  0.95923177  0.77634343  0.80392352  1
  C  C41  1  0.81879642  0.03239522  0.80792028  1
  C  C42  1  0.80282856  0.00325107  0.69315370  1
  C  C43  1  0.21879326  0.20364507  0.70015017  1
  C  C44  1  0.99186315  0.78800738  0.70078176  1
  C  C45  1  0.79614423  0.78800738  0.20078176  1
  C  C46  1  0.98485182  0.20364507  0.20015017  1
  C  C47  1  0.20042251  0.00325107  0.19315370  1
  C  C48  1  0.89064393  0.37528283  0.63720232  1
  C  C49  1  0.48355159  0.10688550  0.63938821  1
  C  C50  1  0.63101184  0.51540765  0.63757876  1
  C  C51  1  0.88439680  0.51540765  0.13757876  1
  C  C52  1  0.62333491  0.10688550  0.13938821  1
  C  C53  1  0.48463990  0.37528283  0.13720232  1
  C  C54  1  0.46843283  0.34472320  0.03387073  1
  C  C55  1  0.87684482  0.53643894  0.03435356  1
  C  C56  1  0.66475614  0.12575648  0.02628494  1
  C  C57  1  0.46100135  0.12575648  0.52628494  1
  C  C58  1  0.65959512  0.53643894  0.53435356  1
  C  C59  1  0.87629136  0.34472320  0.53387073  1
  C  C60  1  0.56236401  0.71363791  0.96962624  1
  C  C61  1  0.16533283  0.46454024  0.97549779  1
  C  C62  1  0.28975036  0.85853980  0.96855076  1
  C  C63  1  0.56878844  0.85853980  0.46855076  1
  C  C64  1  0.29920641  0.46454024  0.47549779  1
  C  C65  1  0.15127290  0.71363791  0.46962624  1
  C  C66  1  0.12467160  0.67570508  0.36650702  1
  C  C67  1  0.55127432  0.88182020  0.36609652  1
  C  C68  1  0.31801195  0.47001127  0.36137015  1
  C  C69  1  0.15199832  0.47001127  0.86137015  1
  C  C70  1  0.33054488  0.88182020  0.86609652  1
  C  C71  1  0.55103248  0.67570508  0.86650702  1
  C  C72  1  0.03317215  0.84740978  0.41528838  1
  C  C73  1  0.81360669  0.94623776  0.41143262  1
  C  C74  1  0.13710348  0.18240826  0.41478961  1
  C  C75  1  0.04530477  0.18240826  0.91478961  1
  C  C76  1  0.13263107  0.94623776  0.91143262  1
  C  C77  1  0.81423763  0.84740978  0.91528838  1
  C  C78  1  0.99665310  0.21255104  0.58637993  1
  C  C79  1  0.18137072  0.98124091  0.58294751  1
  C  C80  1  0.77747092  0.78360812  0.58967597  1
  C  C81  1  0.00613720  0.78360812  0.08967597  1
  C  C82  1  0.79987019  0.98124091  0.08294751  1
  C  C83  1  0.21589795  0.21255104  0.08637993  1
  C  C84  1  0.70588324  0.19446320  0.74657648  1
  C  C85  1  0.48335087  0.29745447  0.74844322  1
  C  C86  1  0.80821965  0.52547625  0.74586487  1
  C  C87  1  0.71725760  0.52547625  0.24586487  1
  C  C88  1  0.81410460  0.29745447  0.24844322  1
  C  C89  1  0.48858096  0.19446320  0.24657648  1
  C  C90  1  0.66863961  0.54753356  0.92271957  1
  C  C91  1  0.86832297  0.34033141  0.91602864  1
  C  C92  1  0.43189723  0.12816605  0.92215813  1
  C  C93  1  0.69626983  0.12816605  0.42215813  1
  C  C94  1  0.47200944  0.34033141  0.41602864  1
  C  C95  1  0.87889495  0.54753356  0.42271957  1
  C  C96  1  0.37138651  0.51296279  0.08252819  1
  C  C97  1  0.13772849  0.61534853  0.08345371  1
  C  C98  1  0.46533106  0.83421721  0.07470746  1
  C  C99  1  0.36888514  0.83421721  0.57470746  1
  C  C100  1  0.47761904  0.61534853  0.58345371  1
  C  C101  1  0.14157528  0.51296279  0.58252819  1
  C  C102  1  0.33918845  0.86039637  0.24935358  1
  C  C103  1  0.54782002  0.65757085  0.25433494  1
  C  C104  1  0.11435139  0.45290423  0.25530713  1
  C  C105  1  0.33855184  0.45290423  0.75530713  1
  C  C106  1  0.10974983  0.65757085  0.75433494  1
  C  C107  1  0.52120692  0.86039637  0.74935358  1
