# generated using pymatgen
data_CuNiC17
_symmetry_space_group_name_H-M   'P 1'
_cell_length_a   8.77695973
_cell_length_b   8.72140305
_cell_length_c   22.06742456
_cell_angle_alpha   91.07737066
_cell_angle_beta   90.00000000
_cell_angle_gamma   120.21094773
_symmetry_Int_Tables_number   1
_chemical_formula_structural   CuNiC17
_chemical_formula_sum   'Cu6 Ni6 C102'
_cell_volume   1459.42854286
_cell_formula_units_Z   6
loop_
 _symmetry_equiv_pos_site_id
 _symmetry_equiv_pos_as_xyz
  1  'x, y, z'
loop_
 _atom_site_type_symbol
 _atom_site_label
 _atom_site_symmetry_multiplicity
 _atom_site_fract_x
 _atom_site_fract_y
 _atom_site_fract_z
 _atom_site_occupancy
  C  C0  1  0.99874788  0.63524764  0.24298972  1
  C  C1  1  0.63649976  0.63524764  0.74298972  1
  C  C2  1  0.65869050  0.95761417  0.57930617  1
  C  C3  1  0.29892467  0.95761417  0.07930617  1
  C  C4  1  0.69632445  0.03037512  0.91065769  1
  C  C5  1  0.33404967  0.03037512  0.41065769  1
  C  C6  1  0.98476395  0.99422165  0.49686353  1
  C  C7  1  0.00945770  0.99422165  0.99686353  1
  C  C8  1  0.66346409  0.31802399  0.83032262  1
  C  C9  1  0.65456090  0.31802399  0.33032262  1
  C  C10  1  0.32849644  0.65852392  0.16334979  1
  C  C11  1  0.33002649  0.65852392  0.66334979  1
  C  C12  1  0.99853106  0.00572109  0.35335698  1
  C  C13  1  0.00719003  0.00572109  0.85335698  1
  C  C14  1  0.66568837  0.32731092  0.68601428  1
  C  C15  1  0.66162354  0.32731092  0.18601428  1
  C  C16  1  0.32295847  0.66679710  0.02029121  1
  C  C17  1  0.34383763  0.66679710  0.52029121  1
  Ni  Ni18  1  0.29869110  0.00608198  0.25450672  1
  Ni  Ni19  1  0.70739088  0.00608198  0.75450672  1
  Ni  Ni20  1  0.66490025  0.61779587  0.58744581  1
  Ni  Ni21  1  0.95289662  0.61779587  0.08744581  1
  Ni  Ni22  1  0.33018971  0.96655456  0.92277756  1
  Ni  Ni23  1  0.63636385  0.96655456  0.42277756  1
  Cu  Cu24  1  0.98051851  0.97774689  0.65086349  1
  Cu  Cu25  1  0.99722838  0.97774689  0.15086349  1
  Cu  Cu26  1  0.66119349  0.33986896  0.98321601  1
  Cu  Cu27  1  0.67867647  0.33986896  0.48321601  1
  Cu  Cu28  1  0.34852586  0.69601498  0.31617514  1
  Cu  Cu29  1  0.34748813  0.69601498  0.81617514  1
  C  C30  1  0.70298809  0.71016550  0.25137591  1
  C  C31  1  0.00491195  0.28793097  0.25019007  1
  C  C32  1  0.28301901  0.28793097  0.75019007  1
  C  C33  1  0.00717741  0.71016550  0.75137591  1
  C  C34  1  0.96145918  0.33550282  0.58455061  1
  C  C35  1  0.36541984  0.04263223  0.58387355  1
  C  C36  1  0.67721339  0.04263223  0.08387355  1
  C  C37  1  0.37404464  0.33550282  0.08455061  1
  C  C38  1  0.61975502  0.65989136  0.91727106  1
  C  C39  1  0.04718063  0.38385733  0.91558881  1
  C  C40  1  0.33667569  0.38385733  0.41558881  1
  C  C41  1  0.04013534  0.65989136  0.41727106  1
  C  C42  1  0.20300146  0.01613163  0.31406854  1
  C  C43  1  0.81511680  0.79635984  0.30396154  1
  C  C44  1  0.97896143  0.18254529  0.30323775  1
  C  C45  1  0.20358386  0.18254529  0.80323775  1
  C  C46  1  0.98124304  0.79635984  0.80396154  1
  C  C47  1  0.81313017  0.01613163  0.81406854  1
  C  C48  1  0.79188298  0.95442039  0.69168171  1
  C  C49  1  0.17218460  0.20376209  0.69249561  1
  C  C50  1  0.04538866  0.82146403  0.69451119  1
  C  C51  1  0.77607537  0.82146403  0.19451119  1
  C  C52  1  0.03157749  0.20376209  0.19249561  1
  C  C53  1  0.16253741  0.95442039  0.19168171  1
  C  C54  1  0.87853994  0.35836047  0.63789779  1
  C  C55  1  0.48494763  0.12476382  0.63533035  1
  C  C56  1  0.64947406  0.51572831  0.64755217  1
  C  C57  1  0.86625524  0.51572831  0.14755217  1
  C  C58  1  0.63981720  0.12476382  0.13533035  1
  C  C59  1  0.47982153  0.35836047  0.13789779  1
  C  C60  1  0.44712124  0.28774757  0.02795418  1
  C  C61  1  0.82206754  0.52649650  0.02418290  1
  C  C62  1  0.70544396  0.14701363  0.02639743  1
  C  C63  1  0.44157066  0.14701363  0.52639743  1
  C  C64  1  0.70442996  0.52649650  0.52418290  1
  C  C65  1  0.84062733  0.28774757  0.52795418  1
  C  C66  1  0.53291466  0.68422925  0.96955865  1
  C  C67  1  0.15308308  0.46371241  0.97003398  1
  C  C68  1  0.31904530  0.86002767  0.98121487  1
  C  C69  1  0.54098138  0.86002767  0.48121487  1
  C  C70  1  0.31062832  0.46371241  0.47003398  1
  C  C71  1  0.15131360  0.68422925  0.46955865  1
  C  C72  1  0.11389964  0.62591504  0.35855045  1
  C  C73  1  0.49640671  0.88335260  0.36112279  1
  C  C74  1  0.36406891  0.49355715  0.35911406  1
  C  C75  1  0.12948723  0.49355715  0.85911406  1
  C  C76  1  0.38694489  0.88335260  0.86112279  1
  C  C77  1  0.51201440  0.62591504  0.85855045  1
  C  C78  1  0.02376648  0.81874866  0.41199507  1
  C  C79  1  0.82572435  0.99257015  0.41175703  1
  C  C80  1  0.18449950  0.20321862  0.40981151  1
  C  C81  1  0.01871912  0.20321862  0.90981151  1
  C  C82  1  0.16684580  0.99257015  0.91175703  1
  C  C83  1  0.79498218  0.81874866  0.91199507  1
  C  C84  1  0.97653362  0.17025261  0.58830998  1
  C  C85  1  0.19128370  0.03553693  0.59101470  1
  C  C86  1  0.85426264  0.82638961  0.58861889  1
  C  C87  1  0.97212697  0.82638961  0.08861889  1
  C  C88  1  0.84425324  0.03553693  0.09101470  1
  C  C89  1  0.19371899  0.17025261  0.08830998  1
  C  C90  1  0.67862301  0.16904639  0.74455371  1
  C  C91  1  0.46200824  0.31577496  0.74392677  1
  C  C92  1  0.84869235  0.53558174  0.74385623  1
  C  C93  1  0.68689039  0.53558174  0.24385623  1
  C  C94  1  0.85376772  0.31577496  0.24392677  1
  C  C95  1  0.49042438  0.16904639  0.24455371  1
  C  C96  1  0.63653940  0.49689912  0.92030060  1
  C  C97  1  0.86693386  0.36601168  0.91908997  1
  C  C98  1  0.52975162  0.16828556  0.92737560  1
  C  C99  1  0.63853494  0.16828556  0.42737560  1
  C  C100  1  0.49907882  0.36601168  0.41908997  1
  C  C101  1  0.86036072  0.49689912  0.42030060  1
  C  C102  1  0.35981497  0.49195284  0.07506397  1
  C  C103  1  0.15088848  0.65432215  0.08100136  1
  C  C104  1  0.52512180  0.86171467  0.07704995  1
  C  C105  1  0.33659187  0.86171467  0.57704995  1
  C  C106  1  0.50343267  0.65432215  0.58100136  1
  C  C107  1  0.13213687  0.49195284  0.57506397  1
  C  C108  1  0.30052650  0.80693673  0.25578504  1
  C  C109  1  0.52188206  0.68896595  0.25607576  1
  C  C110  1  0.17001027  0.46902490  0.25456116  1
  C  C111  1  0.29901363  0.46902490  0.75456116  1
  C  C112  1  0.16708289  0.68896595  0.75607576  1
  C  C113  1  0.50640922  0.80693673  0.75578504  1
