# generated using pymatgen
data_Cu2NiC12
_symmetry_space_group_name_H-M   'P 1'
_cell_length_a   6.53129775
_cell_length_b   6.14540628
_cell_length_c   7.40962873
_cell_angle_alpha   94.20468352
_cell_angle_beta   97.59511933
_cell_angle_gamma   117.97687729
_symmetry_Int_Tables_number   1
_chemical_formula_structural   Cu2NiC12
_chemical_formula_sum   'Cu2 Ni1 C12'
_cell_volume   257.21449907
_cell_formula_units_Z   1
loop_
 _symmetry_equiv_pos_site_id
 _symmetry_equiv_pos_as_xyz
  1  'x, y, z'
loop_
 _atom_site_type_symbol
 _atom_site_label
 _atom_site_symmetry_multiplicity
 _atom_site_fract_x
 _atom_site_fract_y
 _atom_site_fract_z
 _atom_site_occupancy
  Ni  Ni0  1  0.64650627  0.67306331  0.00889304  1
  C  C1  1  0.27234646  0.59832341  0.74804799  1
  C  C2  1  0.72642740  0.38032437  0.25740579  1
  C  C3  1  0.26117124  0.77344039  0.28189639  1
  C  C4  1  0.57555699  0.21514172  0.70416718  1
  Cu  Cu5  1  0.10907569  0.03737399  0.00424883  1
  Cu  Cu6  1  0.90005949  0.98704504  0.50626268  1
  C  C7  1  0.34636991  0.69186817  0.98710478  1
  C  C8  1  0.59938878  0.32229700  0.02215259  1
  C  C9  1  0.54288584  0.17096221  0.38272848  1
  C  C10  1  0.23011291  0.81258429  0.63427451  1
  C  C11  1  0.01391787  0.28913622  0.70474856  1
  C  C12  1  0.75092216  0.69571611  0.29147869  1
  C  C13  1  0.98651462  0.37443375  0.28344035  1
  C  C14  1  0.53596238  0.60329002  0.72018714  1
