# generated using pymatgen
data_Cu8Ni2C5
_symmetry_space_group_name_H-M   'P 1'
_cell_length_a   6.56069673
_cell_length_b   6.56069673
_cell_length_c   6.98532326
_cell_angle_alpha   72.39488424
_cell_angle_beta   72.39488424
_cell_angle_gamma   65.99149194
_symmetry_Int_Tables_number   1
_chemical_formula_structural   Cu8Ni2C5
_chemical_formula_sum   'Cu8 Ni2 C5'
_cell_volume   256.17458102
_cell_formula_units_Z   1
loop_
 _symmetry_equiv_pos_site_id
 _symmetry_equiv_pos_as_xyz
  1  'x, y, z'
loop_
 _atom_site_type_symbol
 _atom_site_label
 _atom_site_symmetry_multiplicity
 _atom_site_fract_x
 _atom_site_fract_y
 _atom_site_fract_z
 _atom_site_occupancy
  C  C0  1  0.76550300  0.75666300  0.10769700  1
  C  C1  1  0.24333700  0.23449700  0.89230300  1
  C  C2  1  0.31143600  0.68856400  0.50000000  1
  C  C3  1  0.63490800  0.64704700  0.73545000  1
  C  C4  1  0.35295300  0.36509200  0.26455000  1
  Ni  Ni5  1  0.05912700  0.95357300  0.75039300  1
  Ni  Ni6  1  0.04642700  0.94087300  0.24960700  1
  Cu  Cu7  1  0.60764100  0.75715100  0.45720700  1
  Cu  Cu8  1  0.24284900  0.39235900  0.54279300  1
  Cu  Cu9  1  0.52781300  0.55027000  0.21813100  1
  Cu  Cu10  1  0.44973000  0.47218700  0.78186900  1
  Cu  Cu11  1  0.08666000  0.44867700  0.16515300  1
  Cu  Cu12  1  0.51184700  0.12072200  0.12964600  1
  Cu  Cu13  1  0.87927800  0.48815300  0.87035400  1
  Cu  Cu14  1  0.55132300  0.91334000  0.83484700  1
