# generated using pymatgen
data_Cu2NiC17
_symmetry_space_group_name_H-M   'P 1'
_cell_length_a   16.23148091
_cell_length_b   9.40687888
_cell_length_c   9.44371915
_cell_angle_alpha   90.00000000
_cell_angle_beta   126.79415518
_cell_angle_gamma   90.00000000
_symmetry_Int_Tables_number   1
_chemical_formula_structural   Cu2NiC17
_chemical_formula_sum   'Cu8 Ni4 C68'
_cell_volume   1154.69355902
_cell_formula_units_Z   4
loop_
 _symmetry_equiv_pos_site_id
 _symmetry_equiv_pos_as_xyz
  1  'x, y, z'
loop_
 _atom_site_type_symbol
 _atom_site_label
 _atom_site_symmetry_multiplicity
 _atom_site_fract_x
 _atom_site_fract_y
 _atom_site_fract_z
 _atom_site_occupancy
  C  C0  1  0.25617243  0.72663115  0.01362481  1
  C  C1  1  0.75617243  0.77336885  0.51362481  1
  C  C2  1  0.75617243  0.22663115  0.01362481  1
  C  C3  1  0.25617243  0.27336885  0.51362481  1
  C  C4  1  0.50164644  0.08881704  0.73961816  1
  C  C5  1  0.50164644  0.91118296  0.23961816  1
  C  C6  1  0.00164644  0.58881704  0.73961816  1
  C  C7  1  0.00164644  0.41118296  0.23961816  1
  C  C8  1  0.19391300  0.92618070  0.31260661  1
  C  C9  1  0.19391300  0.07381930  0.81260661  1
  C  C10  1  0.69391300  0.42618070  0.31260661  1
  C  C11  1  0.69391300  0.57381930  0.81260661  1
  C  C12  1  0.10862036  0.74260627  0.57028042  1
  C  C13  1  0.10862036  0.25739373  0.07028042  1
  C  C14  1  0.60862036  0.24260627  0.57028042  1
  C  C15  1  0.60862036  0.75739373  0.07028042  1
  C  C16  1  0.90012202  0.76907091  0.92855450  1
  C  C17  1  0.90012202  0.23092909  0.42855450  1
  C  C18  1  0.40012202  0.26907091  0.92855450  1
  C  C19  1  0.40012202  0.73092909  0.42855450  1
  Ni  Ni20  1  0.65001805  0.87410880  0.74217284  1
  Ni  Ni21  1  0.65001805  0.12589120  0.24217284  1
  Ni  Ni22  1  0.15001805  0.37410880  0.74217284  1
  Ni  Ni23  1  0.15001805  0.62589120  0.24217284  1
  Cu  Cu24  1  0.98759605  0.96210205  0.75082029  1
  Cu  Cu25  1  0.98759605  0.03789795  0.25082029  1
  Cu  Cu26  1  0.48759605  0.46210205  0.75082029  1
  Cu  Cu27  1  0.48759605  0.53789795  0.25082029  1
  Cu  Cu28  1  0.35554931  0.92813160  0.74977557  1
  Cu  Cu29  1  0.35554931  0.07186840  0.24977557  1
  Cu  Cu30  1  0.85554931  0.42813160  0.74977557  1
  Cu  Cu31  1  0.85554931  0.57186840  0.24977557  1
  C  C32  1  0.15573430  0.54620681  0.75634081  1
  C  C33  1  0.85596391  0.59726158  0.74434897  1
  C  C34  1  0.85596391  0.40273842  0.24434897  1
  C  C35  1  0.15573430  0.45379319  0.25634081  1
  C  C36  1  0.65573430  0.04620681  0.75634081  1
  C  C37  1  0.35596391  0.09726158  0.74434897  1
  C  C38  1  0.35596391  0.90273842  0.24434897  1
  C  C39  1  0.65573430  0.95379319  0.25634081  1
  C  C40  1  0.43090563  0.56877341  0.58855704  1
  C  C41  1  0.55548860  0.53946324  0.92531359  1
  C  C42  1  0.55548860  0.46053676  0.42531359  1
  C  C43  1  0.43090563  0.43122659  0.08855704  1
  C  C44  1  0.93090563  0.06877341  0.58855704  1
  C  C45  1  0.05548860  0.03946324  0.92531359  1
  C  C46  1  0.05548860  0.96053676  0.42531359  1
  C  C47  1  0.93090563  0.93122659  0.08855704  1
  C  C48  1  0.26299672  0.88208866  0.74790536  1
  C  C49  1  0.74930584  0.80046654  0.75989495  1
  C  C50  1  0.74930584  0.19953346  0.25989495  1
  C  C51  1  0.26299672  0.11791134  0.24790536  1
  C  C52  1  0.76299672  0.38208866  0.74790536  1
  C  C53  1  0.24930584  0.30046654  0.75989495  1
  C  C54  1  0.24930584  0.69953346  0.25989495  1
  C  C55  1  0.76299672  0.61791134  0.24790536  1
  C  C56  1  0.35414288  0.87432687  0.59196276  1
  C  C57  1  0.65310344  0.80858259  0.90143775  1
  C  C58  1  0.65310344  0.19141741  0.40143775  1
  C  C59  1  0.35414288  0.12567313  0.09196276  1
  C  C60  1  0.85414288  0.37432687  0.59196276  1
  C  C61  1  0.15310344  0.30858259  0.90143775  1
  C  C62  1  0.15310344  0.69141741  0.40143775  1
  C  C63  1  0.85414288  0.62567313  0.09196276  1
  C  C64  1  0.45408440  0.88213679  0.92859784  1
  C  C65  1  0.53518798  0.80945462  0.55825285  1
  C  C66  1  0.53518798  0.19054538  0.05825285  1
  C  C67  1  0.45408440  0.11786321  0.42859784  1
  C  C68  1  0.95408440  0.38213679  0.92859784  1
  C  C69  1  0.03518798  0.30945462  0.55825285  1
  C  C70  1  0.03518798  0.69054538  0.05825285  1
  C  C71  1  0.95408440  0.61786321  0.42859784  1
  C  C72  1  0.05446048  0.85445144  0.73636546  1
  C  C73  1  0.90498816  0.87526848  0.75356941  1
  C  C74  1  0.90498816  0.12473152  0.25356941  1
  C  C75  1  0.05446048  0.14554856  0.23636546  1
  C  C76  1  0.55446048  0.35445144  0.73636546  1
  C  C77  1  0.40498816  0.37526848  0.75356941  1
  C  C78  1  0.40498816  0.62473152  0.25356941  1
  C  C79  1  0.55446048  0.64554856  0.23636546  1
