# generated using pymatgen
data_Cu6Ni3C2
_symmetry_space_group_name_H-M   'P 1'
_cell_length_a   10.87818900
_cell_length_b   10.87818900
_cell_length_c   10.87818900
_cell_angle_alpha   90.00000000
_cell_angle_beta   90.00000000
_cell_angle_gamma   90.00000000
_symmetry_Int_Tables_number   1
_chemical_formula_structural   Cu6Ni3C2
_chemical_formula_sum   'Cu48 Ni24 C16'
_cell_volume   1287.27045093
_cell_formula_units_Z   8
loop_
 _symmetry_equiv_pos_site_id
 _symmetry_equiv_pos_as_xyz
  1  'x, y, z'
loop_
 _atom_site_type_symbol
 _atom_site_label
 _atom_site_symmetry_multiplicity
 _atom_site_fract_x
 _atom_site_fract_y
 _atom_site_fract_z
 _atom_site_occupancy
  C  C0  1  0.50000000  0.50000000  0.50000000  1
  C  C1  1  0.00000000  0.00000000  0.00000000  1
  C  C2  1  0.50000000  0.00000000  0.00000000  1
  C  C3  1  0.00000000  0.50000000  0.00000000  1
  C  C4  1  0.00000000  0.00000000  0.50000000  1
  C  C5  1  0.50000000  0.50000000  0.00000000  1
  C  C6  1  0.50000000  0.00000000  0.50000000  1
  C  C7  1  0.00000000  0.50000000  0.50000000  1
  C  C8  1  0.25000000  0.75000000  0.25000000  1
  C  C9  1  0.75000000  0.25000000  0.25000000  1
  C  C10  1  0.25000000  0.25000000  0.75000000  1
  C  C11  1  0.75000000  0.75000000  0.75000000  1
  C  C12  1  0.75000000  0.25000000  0.75000000  1
  C  C13  1  0.25000000  0.75000000  0.75000000  1
  C  C14  1  0.75000000  0.75000000  0.25000000  1
  C  C15  1  0.25000000  0.25000000  0.25000000  1
  Ni  Ni16  1  0.24314200  0.05497100  0.23913000  1
  Ni  Ni17  1  0.55497100  0.73913000  0.25685800  1
  Ni  Ni18  1  0.55497100  0.26087000  0.74314200  1
  Ni  Ni19  1  0.44502900  0.73913000  0.74314200  1
  Ni  Ni20  1  0.26087000  0.74314200  0.55497100  1
  Ni  Ni21  1  0.74314200  0.44502900  0.73913000  1
  Ni  Ni22  1  0.74314200  0.55497100  0.26087000  1
  Ni  Ni23  1  0.73913000  0.25685800  0.55497100  1
  Ni  Ni24  1  0.25685800  0.55497100  0.73913000  1
  Ni  Ni25  1  0.73913000  0.74314200  0.44502900  1
  Ni  Ni26  1  0.26087000  0.25685800  0.44502900  1
  Ni  Ni27  1  0.25685800  0.44502900  0.26087000  1
  Ni  Ni28  1  0.44502900  0.26087000  0.25685800  1
  Ni  Ni29  1  0.94502900  0.76087000  0.24314200  1
  Ni  Ni30  1  0.94502900  0.23913000  0.75685800  1
  Ni  Ni31  1  0.05497100  0.76087000  0.75685800  1
  Ni  Ni32  1  0.05497100  0.23913000  0.24314200  1
  Ni  Ni33  1  0.23913000  0.75685800  0.94502900  1
  Ni  Ni34  1  0.23913000  0.24314200  0.05497100  1
  Ni  Ni35  1  0.76087000  0.75685800  0.05497100  1
  Ni  Ni36  1  0.24314200  0.94502900  0.76087000  1
  Ni  Ni37  1  0.76087000  0.24314200  0.94502900  1
  Ni  Ni38  1  0.75685800  0.94502900  0.23913000  1
  Ni  Ni39  1  0.75685800  0.05497100  0.76087000  1
  Cu  Cu40  1  0.49667700  0.83814400  0.24615600  1
  Cu  Cu41  1  0.33814400  0.74615600  0.00332300  1
  Cu  Cu42  1  0.99667700  0.66185600  0.74615600  1
  Cu  Cu43  1  0.00332300  0.33814400  0.74615600  1
  Cu  Cu44  1  0.00332300  0.66185600  0.25384400  1
  Cu  Cu45  1  0.50332300  0.16185600  0.24615600  1
  Cu  Cu46  1  0.24615600  0.50332300  0.16185600  1
  Cu  Cu47  1  0.16185600  0.24615600  0.50332300  1
  Cu  Cu48  1  0.83814400  0.75384400  0.50332300  1
  Cu  Cu49  1  0.24615600  0.49667700  0.83814400  1
  Cu  Cu50  1  0.83814400  0.24615600  0.49667700  1
  Cu  Cu51  1  0.75384400  0.49667700  0.16185600  1
  Cu  Cu52  1  0.75384400  0.50332300  0.83814400  1
  Cu  Cu53  1  0.16185600  0.75384400  0.49667700  1
  Cu  Cu54  1  0.50332300  0.83814400  0.75384400  1
  Cu  Cu55  1  0.49667700  0.16185600  0.75384400  1
  Cu  Cu56  1  0.99642300  0.14509500  0.20573000  1
  Cu  Cu57  1  0.20573000  0.99642300  0.14509500  1
  Cu  Cu58  1  0.14509500  0.20573000  0.99642300  1
  Cu  Cu59  1  0.85490500  0.79427000  0.99642300  1
  Cu  Cu60  1  0.20573000  0.00357700  0.85490500  1
  Cu  Cu61  1  0.85490500  0.20573000  0.00357700  1
  Cu  Cu62  1  0.79427000  0.00357700  0.14509500  1
  Cu  Cu63  1  0.79427000  0.99642300  0.85490500  1
  Cu  Cu64  1  0.14509500  0.79427000  0.00357700  1
  Cu  Cu65  1  0.99642300  0.85490500  0.79427000  1
  Cu  Cu66  1  0.00357700  0.14509500  0.79427000  1
  Cu  Cu67  1  0.00357700  0.85490500  0.20573000  1
  Cu  Cu68  1  0.50357700  0.35490500  0.29427000  1
  Cu  Cu69  1  0.29427000  0.50357700  0.35490500  1
  Cu  Cu70  1  0.35490500  0.29427000  0.50357700  1
  Cu  Cu71  1  0.64509500  0.70573000  0.50357700  1
  Cu  Cu72  1  0.29427000  0.49642300  0.64509500  1
  Cu  Cu73  1  0.64509500  0.29427000  0.49642300  1
  Cu  Cu74  1  0.70573000  0.49642300  0.35490500  1
  Cu  Cu75  1  0.70573000  0.50357700  0.64509500  1
  Cu  Cu76  1  0.35490500  0.70573000  0.49642300  1
  Cu  Cu77  1  0.50357700  0.64509500  0.70573000  1
  Cu  Cu78  1  0.49642300  0.35490500  0.70573000  1
  Cu  Cu79  1  0.49642300  0.64509500  0.29427000  1
  Cu  Cu80  1  0.99667700  0.33814400  0.25384400  1
  Cu  Cu81  1  0.25384400  0.99667700  0.33814400  1
  Cu  Cu82  1  0.74615600  0.99667700  0.66185600  1
  Cu  Cu83  1  0.66185600  0.74615600  0.99667700  1
  Cu  Cu84  1  0.25384400  0.00332300  0.66185600  1
  Cu  Cu85  1  0.66185600  0.25384400  0.00332300  1
  Cu  Cu86  1  0.74615600  0.00332300  0.33814400  1
  Cu  Cu87  1  0.33814400  0.25384400  0.99667700  1
