# generated using pymatgen
data_Cu4NiC
_symmetry_space_group_name_H-M   'P 1'
_cell_length_a   6.27196600
_cell_length_b   7.89389300
_cell_length_c   9.39251800
_cell_angle_alpha   90.00000000
_cell_angle_beta   90.00000000
_cell_angle_gamma   90.00000000
_symmetry_Int_Tables_number   1
_chemical_formula_structural   Cu4NiC
_chemical_formula_sum   'Cu16 Ni4 C4'
_cell_volume   465.02571240
_cell_formula_units_Z   4
loop_
 _symmetry_equiv_pos_site_id
 _symmetry_equiv_pos_as_xyz
  1  'x, y, z'
loop_
 _atom_site_type_symbol
 _atom_site_label
 _atom_site_symmetry_multiplicity
 _atom_site_fract_x
 _atom_site_fract_y
 _atom_site_fract_z
 _atom_site_occupancy
  C  C0  1  0.25000000  0.33311600  0.67580600  1
  C  C1  1  0.75000000  0.66688400  0.32419400  1
  C  C2  1  0.75000000  0.83311600  0.82419400  1
  C  C3  1  0.25000000  0.16688400  0.17580600  1
  Ni  Ni4  1  0.25000000  0.81478400  0.57449600  1
  Ni  Ni5  1  0.75000000  0.18521600  0.42550400  1
  Ni  Ni6  1  0.75000000  0.31478400  0.92550400  1
  Ni  Ni7  1  0.25000000  0.68521600  0.07449600  1
  Cu  Cu8  1  0.53546000  0.30831800  0.41767000  1
  Cu  Cu9  1  0.03546000  0.69168200  0.58233000  1
  Cu  Cu10  1  0.46454000  0.80831800  0.08233000  1
  Cu  Cu11  1  0.96454000  0.19168200  0.91767000  1
  Cu  Cu12  1  0.46454000  0.69168200  0.58233000  1
  Cu  Cu13  1  0.96454000  0.30831800  0.41767000  1
  Cu  Cu14  1  0.53546000  0.19168200  0.91767000  1
  Cu  Cu15  1  0.03546000  0.80831800  0.08233000  1
  Cu  Cu16  1  0.25000000  0.55612800  0.21293900  1
  Cu  Cu17  1  0.75000000  0.44387200  0.78706100  1
  Cu  Cu18  1  0.75000000  0.05612800  0.28706100  1
  Cu  Cu19  1  0.25000000  0.94387200  0.71293900  1
  Cu  Cu20  1  0.25000000  0.57742700  0.92439800  1
  Cu  Cu21  1  0.75000000  0.42257300  0.07560200  1
  Cu  Cu22  1  0.75000000  0.07742700  0.57560200  1
  Cu  Cu23  1  0.25000000  0.92257300  0.42439800  1
