# generated using pymatgen
data_CuNiC18
_symmetry_space_group_name_H-M   'P 1'
_cell_length_a   15.71106649
_cell_length_b   9.12054988
_cell_length_c   9.13274003
_cell_angle_alpha   90.00000000
_cell_angle_beta   125.07226724
_cell_angle_gamma   90.00000000
_symmetry_Int_Tables_number   1
_chemical_formula_structural   CuNiC18
_chemical_formula_sum   'Cu4 Ni4 C72'
_cell_volume   1071.04626779
_cell_formula_units_Z   4
loop_
 _symmetry_equiv_pos_site_id
 _symmetry_equiv_pos_as_xyz
  1  'x, y, z'
loop_
 _atom_site_type_symbol
 _atom_site_label
 _atom_site_symmetry_multiplicity
 _atom_site_fract_x
 _atom_site_fract_y
 _atom_site_fract_z
 _atom_site_occupancy
  C  C0  1  0.25308853  0.72124339  0.99754990  1
  C  C1  1  0.75308853  0.77875661  0.49754990  1
  C  C2  1  0.75308853  0.22124339  0.99754990  1
  C  C3  1  0.25308853  0.27875661  0.49754990  1
  C  C4  1  0.50874772  0.10832355  0.76475320  1
  C  C5  1  0.50874772  0.89167645  0.26475320  1
  C  C6  1  0.00874772  0.60832355  0.76475320  1
  C  C7  1  0.00874772  0.39167645  0.26475320  1
  C  C8  1  0.18440021  0.93101714  0.28835713  1
  C  C9  1  0.18440021  0.06898286  0.78835713  1
  C  C10  1  0.68440021  0.43101714  0.28835713  1
  C  C11  1  0.68440021  0.56898286  0.78835713  1
  C  C12  1  0.10220849  0.74698063  0.55975543  1
  C  C13  1  0.10220849  0.25301937  0.05975543  1
  C  C14  1  0.60220849  0.24698063  0.55975543  1
  C  C15  1  0.60220849  0.75301937  0.05975543  1
  Ni  Ni16  1  0.64841521  0.89310910  0.74530355  1
  Ni  Ni17  1  0.64841521  0.10689090  0.24530355  1
  Ni  Ni18  1  0.14841521  0.39310910  0.74530355  1
  Ni  Ni19  1  0.14841521  0.60689090  0.24530355  1
  Cu  Cu20  1  0.89806135  0.75589656  0.94330841  1
  Cu  Cu21  1  0.89806135  0.24410344  0.44330841  1
  Cu  Cu22  1  0.39806135  0.25589656  0.94330841  1
  Cu  Cu23  1  0.39806135  0.74410344  0.44330841  1
  C  C24  1  0.99663555  0.95402886  0.75376058  1
  C  C25  1  0.99663555  0.04597114  0.25376058  1
  C  C26  1  0.49663555  0.45402886  0.75376058  1
  C  C27  1  0.49663555  0.54597114  0.25376058  1
  C  C28  1  0.35167878  0.90418278  0.75592630  1
  C  C29  1  0.35167878  0.09581722  0.25592630  1
  C  C30  1  0.85167878  0.40418278  0.75592630  1
  C  C31  1  0.85167878  0.59581722  0.25592630  1
  C  C32  1  0.15301857  0.57139841  0.74603838  1
  C  C33  1  0.85117657  0.57714000  0.75469737  1
  C  C34  1  0.85117657  0.42286000  0.25469737  1
  C  C35  1  0.15301857  0.42860159  0.24603838  1
  C  C36  1  0.65301857  0.07139841  0.74603838  1
  C  C37  1  0.35117657  0.07714000  0.75469737  1
  C  C38  1  0.35117657  0.92286000  0.25469737  1
  C  C39  1  0.65301857  0.92860159  0.24603838  1
  C  C40  1  0.43328578  0.55285044  0.58530952  1
  C  C41  1  0.56082627  0.54130976  0.92766062  1
  C  C42  1  0.56082627  0.45869024  0.42766062  1
  C  C43  1  0.43328578  0.44714956  0.08530952  1
  C  C44  1  0.93328578  0.05285044  0.58530952  1
  C  C45  1  0.06082627  0.04130976  0.92766062  1
  C  C46  1  0.06082627  0.95869024  0.42766062  1
  C  C47  1  0.93328578  0.94714956  0.08530952  1
  C  C48  1  0.25484396  0.85467474  0.74594758  1
  C  C49  1  0.74607778  0.80938537  0.75671544  1
  C  C50  1  0.74607778  0.19061463  0.25671544  1
  C  C51  1  0.25484396  0.14532526  0.24594758  1
  C  C52  1  0.75484396  0.35467474  0.74594758  1
  C  C53  1  0.24607778  0.30938537  0.75671544  1
  C  C54  1  0.24607778  0.69061463  0.25671544  1
  C  C55  1  0.75484396  0.64532526  0.24594758  1
  C  C56  1  0.34953744  0.86537532  0.58606731  1
  C  C57  1  0.64429369  0.84208413  0.90816904  1
  C  C58  1  0.64429369  0.15791587  0.40816904  1
  C  C59  1  0.34953744  0.13462468  0.08606731  1
  C  C60  1  0.84953744  0.36537532  0.58606731  1
  C  C61  1  0.14429369  0.34208413  0.90816904  1
  C  C62  1  0.14429369  0.65791587  0.40816904  1
  C  C63  1  0.84953744  0.63462468  0.08606731  1
  C  C64  1  0.44823462  0.84626249  0.92993405  1
  C  C65  1  0.54342219  0.82582355  0.55591839  1
  C  C66  1  0.54342219  0.17417645  0.05591839  1
  C  C67  1  0.44823462  0.15373751  0.42993405  1
  C  C68  1  0.94823462  0.34626249  0.92993405  1
  C  C69  1  0.04342219  0.32582355  0.55591839  1
  C  C70  1  0.04342219  0.67417645  0.05591839  1
  C  C71  1  0.94823462  0.65373751  0.42993405  1
  C  C72  1  0.07527206  0.85723781  0.74549627  1
  C  C73  1  0.91677524  0.84951254  0.74933150  1
  C  C74  1  0.91677524  0.15048746  0.24933150  1
  C  C75  1  0.07527206  0.14276219  0.24549627  1
  C  C76  1  0.57527206  0.35723781  0.74549627  1
  C  C77  1  0.41677524  0.34951254  0.74933150  1
  C  C78  1  0.41677524  0.65048746  0.24933150  1
  C  C79  1  0.57527206  0.64276219  0.24549627  1
