# generated using pymatgen
data_Cu7Ni5C66
_symmetry_space_group_name_H-M   'P 1'
_cell_length_a   18.26443505
_cell_length_b   9.18725126
_cell_length_c   23.10825017
_cell_angle_alpha   89.54743647
_cell_angle_beta   88.59113572
_cell_angle_gamma   120.19610771
_symmetry_Int_Tables_number   1
_chemical_formula_structural   Cu7Ni5C66
_chemical_formula_sum   'Cu21 Ni15 C198'
_cell_volume   3349.47803064
_cell_formula_units_Z   3
loop_
 _symmetry_equiv_pos_site_id
 _symmetry_equiv_pos_as_xyz
  1  'x, y, z'
loop_
 _atom_site_type_symbol
 _atom_site_label
 _atom_site_symmetry_multiplicity
 _atom_site_fract_x
 _atom_site_fract_y
 _atom_site_fract_z
 _atom_site_occupancy
  C  C0  1  0.32827582  0.99911390  0.25068291  1
  C  C1  1  0.81661437  0.98575971  0.25877251  1
  C  C2  1  0.18835555  0.38630315  0.24208185  1
  C  C3  1  0.66554042  0.35175206  0.24792434  1
  C  C4  1  0.99426954  0.63937495  0.26473035  1
  C  C5  1  0.49568182  0.61835182  0.25924241  1
  C  C6  1  0.83089921  0.65171358  0.73529597  1
  C  C7  1  0.98936914  0.35517760  0.75077658  1
  C  C8  1  0.49371990  0.34667188  0.75532450  1
  C  C9  1  0.17433576  0.99579039  0.73437218  1
  C  C10  1  0.01967913  0.71483038  0.58751761  1
  C  C11  1  0.33008718  0.98980576  0.59396316  1
  C  C12  1  0.02497398  0.32693638  0.08583160  1
  C  C13  1  0.50985633  0.33272927  0.09075753  1
  C  C14  1  0.15947076  0.30198572  0.93031996  1
  C  C15  1  0.66295753  0.29876755  0.93138601  1
  C  C16  1  0.16542393  0.01747470  0.42594975  1
  C  C17  1  0.66059987  0.03810763  0.42129521  1
  C  C18  1  0.99029434  0.99325191  0.50893283  1
  C  C19  1  0.51285373  0.99421580  0.48707091  1
  C  C20  1  0.00376703  0.00695210  0.00214611  1
  C  C21  1  0.50792394  0.00395952  0.01004869  1
  C  C22  1  0.34826075  0.33163784  0.83579279  1
  C  C23  1  0.85084407  0.31781694  0.82690567  1
  C  C24  1  0.35428817  0.36516275  0.34068705  1
  C  C25  1  0.84441623  0.36201605  0.34296043  1
  C  C26  1  0.17793125  0.66002470  0.17451871  1
  C  C27  1  0.67771916  0.65818335  0.16429235  1
  C  C28  1  0.17150451  0.67848197  0.66901205  1
  C  C29  1  0.68740342  0.72067600  0.65121971  1
  C  C30  1  0.98511133  0.98207611  0.35541264  1
  C  C31  1  0.98501732  0.98364133  0.84396876  1
  C  C32  1  0.49500002  0.02257005  0.84729765  1
  C  C33  1  0.51512326  0.01059203  0.63776094  1
  C  C34  1  0.99435131  0.99824725  0.16441662  1
  C  C35  1  0.82030738  0.32698551  0.18016976  1
  C  C36  1  0.34147173  0.33520614  0.99186428  1
  C  C37  1  0.83274423  0.33292996  0.98917551  1
  C  C38  1  0.17416113  0.65728234  0.02197225  1
  C  C39  1  0.17026653  0.66945147  0.51975035  1
  C  C40  1  0.16253287  0.66566700  0.81239948  1
  C  C41  1  0.67191049  0.69697641  0.81058183  1
  C  C42  1  0.48077970  0.95945086  0.34359423  1
  C  C43  1  0.01039607  0.99583643  0.64998004  1
  C  C44  1  0.49753532  0.02253052  0.15859466  1
  C  C45  1  0.33058522  0.32406047  0.67714269  1
  C  C46  1  0.82955743  0.30732329  0.67983810  1
  C  C47  1  0.34025352  0.36154633  0.18777656  1
  C  C48  1  0.34103203  0.35860412  0.48577367  1
  C  C49  1  0.84695098  0.36267067  0.48909820  1
  C  C50  1  0.65856371  0.63623659  0.01778555  1
  C  C51  1  0.65465866  0.72698860  0.51418983  1
  C  C52  1  0.16095774  0.64300196  0.31774104  1
  C  C53  1  0.64180675  0.59899783  0.32128771  1
  Ni  Ni54  1  0.35534263  0.71188971  0.24994304  1
  Ni  Ni55  1  0.82681955  0.68232245  0.25652647  1
  Ni  Ni56  1  0.00486099  0.32763372  0.25090543  1
  Ni  Ni57  1  0.49278659  0.27860325  0.25300806  1
  Ni  Ni58  1  0.98826429  0.67937908  0.73546111  1
  Ni  Ni59  1  0.34894345  0.02293525  0.73574115  1
  Ni  Ni60  1  0.85795843  0.01054363  0.73353195  1
  Ni  Ni61  1  0.19018756  0.07092035  0.58068291  1
  Ni  Ni62  1  0.70478762  0.06713099  0.57432867  1
  Ni  Ni63  1  0.18921888  0.33181758  0.09157294  1
  Ni  Ni64  1  0.66320000  0.32137866  0.08381464  1
  Ni  Ni65  1  0.00897069  0.34613925  0.91716782  1
  Ni  Ni66  1  0.52353833  0.37756722  0.91740725  1
  Ni  Ni67  1  0.01566103  0.64354129  0.41953482  1
  Ni  Ni68  1  0.51490668  0.66647912  0.41463903  1
  Cu  Cu69  1  0.16349564  0.00220349  0.25403433  1
  Cu  Cu70  1  0.63051832  0.98440538  0.25416004  1
  Cu  Cu71  1  0.15542493  0.29099423  0.73885943  1
  Cu  Cu72  1  0.66494015  0.30783676  0.74768667  1
  Cu  Cu73  1  0.48721425  0.67221948  0.74438485  1
  Cu  Cu74  1  0.47656525  0.35660821  0.57816335  1
  Cu  Cu75  1  0.97027723  0.32236328  0.58409080  1
  Cu  Cu76  1  0.33491698  0.60336812  0.58440872  1
  Cu  Cu77  1  0.83344547  0.61977563  0.58183415  1
  Cu  Cu78  1  0.48799497  0.64910041  0.09222237  1
  Cu  Cu79  1  0.99129145  0.65491989  0.08685725  1
  Cu  Cu80  1  0.34107315  0.03741083  0.09836458  1
  Cu  Cu81  1  0.82116591  0.98691779  0.08170211  1
  Cu  Cu82  1  0.32531587  0.66170148  0.91284229  1
  Cu  Cu83  1  0.80863329  0.67102596  0.92360429  1
  Cu  Cu84  1  0.16785443  0.98131011  0.91599790  1
  Cu  Cu85  1  0.66072998  0.95498540  0.92640532  1
  Cu  Cu86  1  0.32344376  0.97119898  0.41065817  1
  Cu  Cu87  1  0.80105975  0.95371692  0.42005501  1
  Cu  Cu88  1  0.17859255  0.37717663  0.41261985  1
  Cu  Cu89  1  0.66644371  0.37840756  0.41963132  1
  C  C90  1  0.12583727  0.03947768  0.30496798  1
  C  C91  1  0.59075085  0.01164780  0.30715048  1
  C  C92  1  0.41464558  0.77427472  0.30620919  1
  C  C93  1  0.90690107  0.76430586  0.30008283  1
  C  C94  1  0.47613940  0.13617362  0.30327889  1
  C  C95  1  0.98615097  0.18540922  0.30009595  1
  C  C96  1  0.12664638  0.20208766  0.79626845  1
  C  C97  1  0.63412129  0.21924910  0.80472397  1
  C  C98  1  0.48344787  0.74762072  0.79954935  1
  C  C99  1  0.96597688  0.74843167  0.79464636  1
  C  C100  1  0.40891497  0.06170928  0.79275958  1
  C  C101  1  0.90214926  0.04882949  0.79741186  1
  C  C102  1  0.39551300  -0.00013769  0.67868746  1
  C  C103  1  0.92464069  0.99956996  0.68716610  1
  C  C104  1  0.09685082  0.18438269  0.69399534  1
  C  C105  1  0.60078962  0.21695502  0.70380312  1
  C  C106  1  0.01138662  0.81986474  0.68273062  1
  C  C107  1  0.50207978  0.78545190  0.69480554  1
  C  C108  1  0.40454298  0.85280120  0.19795050  1
  C  C109  1  0.85976499  0.80559365  0.19844606  1
  C  C110  1  0.02436294  0.26458001  0.18889620  1
  C  C111  1  0.51666293  0.21431086  0.19334538  1
  C  C112  1  0.10606246  0.95574877  0.20447769  1
  C  C113  1  0.58507287  0.98332435  0.20170245  1
  C  C114  1  0.43765945  0.36612199  0.63500881  1
  C  C115  1  0.92687006  0.34068353  0.63596497  1
  C  C116  1  0.25079911  0.16060905  0.63568476  1
  C  C117  1  0.75059263  0.15308577  0.63414153  1
  C  C118  1  0.34004846  0.51225326  0.63593778  1
  C  C119  1  0.82240963  0.51949634  0.63550896  1
  C  C120  1  0.44083092  0.51917544  0.14088424  1
  C  C121  1  0.94645904  0.56382824  0.14135091  1
  C  C122  1  0.33841154  0.14629689  0.14437963  1
  C  C123  1  0.80790514  0.05060592  0.13787532  1
  C  C124  1  0.25332941  0.33424401  0.14193424  1
  C  C125  1  0.72110913  0.36329967  0.14083966  1
  C  C126  1  0.22539013  0.33712992  0.02496110  1
  C  C127  1  0.70503209  0.29237727  0.02496840  1
  C  C128  1  0.44022346  0.58680824  0.03832159  1
  C  C129  1  0.94501883  0.55817572  0.03631896  1
  C  C130  1  0.35627033  0.12339329  0.04043969  1
  C  C131  1  0.83697296  0.11191537  0.03506781  1
  C  C132  1  0.24226798  0.17619201  0.51942220  1
  C  C133  1  0.75659414  0.18428627  0.51779196  1
  C  C134  1  0.33379846  0.51938929  0.53000238  1
  C  C135  1  0.85127502  0.53791267  0.53104354  1
  C  C136  1  0.41890752  0.33656995  0.53087898  1
  C  C137  1  0.92601104  0.32172709  0.53095050  1
  C  C138  1  0.28453935  0.67402871  0.96701576  1
  C  C139  1  0.75362801  0.66860644  0.97181475  1
  C  C140  1  0.06543395  0.45306129  0.97373062  1
  C  C141  1  0.57820910  0.49567143  0.97127209  1
  C  C142  1  0.17114401  0.88753184  0.96696333  1
  C  C143  1  0.66602055  0.85356161  0.97414130  1
  C  C144  1  0.29268830  0.88303888  0.46819885  1
  C  C145  1  0.75169778  0.84002008  0.47059888  1
  C  C146  1  0.16887804  0.45405906  0.46522645  1
  C  C147  1  0.65631226  0.46837233  0.46816706  1
  C  C148  1  0.06723667  0.67402842  0.47936292  1
  C  C149  1  0.57907962  0.71961978  0.46955635  1
  C  C150  1  0.07282368  0.63339359  0.36341959  1
  C  C151  1  0.56151536  0.62643913  0.35889594  1
  C  C152  1  0.26239744  0.87319065  0.36488988  1
  C  C153  1  0.76145681  0.87249028  0.36546379  1
  C  C154  1  0.18132653  0.47711757  0.35983341  1
  C  C155  1  0.67293711  0.47016623  0.36281481  1
  C  C156  1  0.05719448  0.43918743  0.85508690  1
  C  C157  1  0.56765037  0.45396472  0.85287642  1
  C  C158  1  0.17128585  0.90210381  0.86107948  1
  C  C159  1  0.66655128  0.89020766  0.86877179  1
  C  C160  1  0.28002326  0.67190851  0.86214584  1
  C  C161  1  0.77573621  0.68145805  0.86664692  1
  C  C162  1  0.01369057  0.81972085  0.41444570  1
  C  C163  1  0.50918383  0.84119632  0.40188514  1
  C  C164  1  0.40798727  0.98676821  0.40076041  1
  C  C165  1  0.88725788  0.97778925  0.42666524  1
  C  C166  1  0.10576775  0.20248270  0.41115899  1
  C  C167  1  0.59285056  0.20314495  0.41563479  1
  C  C168  1  0.01027094  0.16948218  0.92078208  1
  C  C169  1  0.52148909  0.19437489  0.92425309  1
  C  C170  1  0.08936508  0.99119138  0.91937480  1
  C  C171  1  0.58189823  0.96269410  0.93028990  1
  C  C172  1  0.41320999  0.80072684  0.91353256  1
  C  C173  1  0.89456857  0.81489263  0.93040015  1
  C  C174  1  0.48142399  0.19967255  0.57763544  1
  C  C175  1  0.98019004  0.17351862  0.58574817  1
  C  C176  1  0.09081358  0.03676093  0.58985135  1
  C  C177  1  0.60789000  0.03795645  0.57016711  1
  C  C178  1  0.40904314  0.77591643  0.57999402  1
  C  C179  1  0.91326179  0.78956849  0.58446408  1
  C  C180  1  0.49918940  0.81361582  0.10472746  1
  C  C181  1  0.99998604  0.82247185  0.08326229  1
  C  C182  1  0.41491207  0.01418173  0.10361787  1
  C  C183  1  0.89975064  0.97634775  0.08245341  1
  C  C184  1  0.09200541  0.16908277  0.09320728  1
  C  C185  1  0.57071841  0.15039891  0.09696516  1
  C  C186  1  0.34247897  0.19594248  0.73178415  1
  C  C187  1  0.84170997  0.16891955  0.72878805  1
  C  C188  1  0.24200518  0.32024610  0.72844935  1
  C  C189  1  0.74713235  0.32211971  0.73436539  1
  C  C190  1  0.40775997  0.50704021  0.73862580  1
  C  C191  1  0.90589577  0.49460237  0.72373263  1
  C  C192  1  0.34261483  0.52161800  0.23630002  1
  C  C193  1  0.80941989  0.49050040  0.24954665  1
  C  C194  1  0.41302252  0.31678465  0.24222746  1
  C  C195  1  0.92110349  0.34952330  0.24891206  1
  C  C196  1  0.24757034  0.15494529  0.24088332  1
  C  C197  1  0.71968053  0.12972565  0.25254563  1
  C  C198  1  0.32132650  0.49686528  0.91133872  1
  C  C199  1  0.80944187  0.51025444  0.92372958  1
  C  C200  1  0.42734556  0.34520812  0.91768402  1
  C  C201  1  0.91552686  0.32821225  0.91593037  1
  C  C202  1  0.24157648  0.15626752  0.91413222  1
  C  C203  1  0.73333060  0.13159370  0.92487932  1
  C  C204  1  0.32847315  0.13781029  0.41396552  1
  C  C205  1  0.80595161  0.11906947  0.42136918  1
  C  C206  1  0.25793842  0.36830286  0.41334168  1
  C  C207  1  0.74527323  0.36707832  0.42073295  1
  C  C208  1  0.42161063  0.49635088  0.43185290  1
  C  C209  1  0.91961898  0.47495364  0.42893344  1
  C  C210  1  0.17665479  0.49836623  0.09816710  1
  C  C211  1  0.65186911  0.48888873  0.07293334  1
  C  C212  1  0.07498418  0.66621406  0.08807639  1
  C  C213  1  0.57072947  0.65310230  0.08476476  1
  C  C214  1  0.26169658  0.87362871  0.09916601  1
  C  C215  1  0.74521250  0.82223934  0.07035267  1
  C  C216  1  0.18154087  0.88040435  0.58155875  1
  C  C217  1  0.68800920  0.86866286  0.57148968  1
  C  C218  1  0.25714993  0.61524188  0.59076139  1
  C  C219  1  0.75917274  0.63764208  0.57387313  1
  C  C220  1  0.05606081  0.47940131  0.58507822  1
  C  C221  1  0.56197305  0.50785123  0.57087124  1
  C  C222  1  0.17605205  0.85603666  0.26521437  1
  C  C223  1  0.63612211  0.82992237  0.25680116  1
  C  C224  1  0.25924798  0.68708595  0.26452877  1
  C  C225  1  0.73770280  0.67997590  0.27469133  1
  C  C226  1  0.09216720  0.51052875  0.26203177  1
  C  C227  1  0.57652296  0.46410541  0.26505926  1
  C  C228  1  0.15721456  0.45375364  0.73868475  1
  C  C229  1  0.67611043  0.47932590  0.74937827  1
  C  C230  1  0.07227188  0.65871570  0.74040134  1
  C  C231  1  0.55946232  0.63716480  0.74304828  1
  C  C232  1  0.25259787  0.86381317  0.74276298  1
  C  C233  1  0.76929336  0.82704390  0.73394359  1
