# generated using pymatgen
data_CuNi3C16
_symmetry_space_group_name_H-M   'P 1'
_cell_length_a   9.39021643
_cell_length_b   9.37370478
_cell_length_c   23.38529047
_cell_angle_alpha   89.64926547
_cell_angle_beta   90.00000000
_cell_angle_gamma   120.05828665
_symmetry_Int_Tables_number   1
_chemical_formula_structural   CuNi3C16
_chemical_formula_sum   'Cu6 Ni18 C96'
_cell_volume   1781.53367460
_cell_formula_units_Z   6
loop_
 _symmetry_equiv_pos_site_id
 _symmetry_equiv_pos_as_xyz
  1  'x, y, z'
loop_
 _atom_site_type_symbol
 _atom_site_label
 _atom_site_symmetry_multiplicity
 _atom_site_fract_x
 _atom_site_fract_y
 _atom_site_fract_z
 _atom_site_occupancy
  Ni  Ni0  1  0.35539114  0.34895608  0.24456726  1
  Ni  Ni1  1  0.00265160  0.63478777  0.24285682  1
  Ni  Ni2  1  0.63213617  0.63478777  0.74285682  1
  Ni  Ni3  1  0.99356495  0.34895608  0.74456726  1
  Ni  Ni4  1  0.02205814  0.68228908  0.57790026  1
  Ni  Ni5  1  0.66931860  0.96812077  0.57618982  1
  Ni  Ni6  1  0.29880317  0.96812077  0.07618982  1
  Ni  Ni7  1  0.66023195  0.68228908  0.07790026  1
  Ni  Ni8  1  0.68872414  0.01562308  0.91123426  1
  Ni  Ni9  1  0.33598460  0.30145477  0.90952382  1
  Ni  Ni10  1  0.96546917  0.30145477  0.40952382  1
  Ni  Ni11  1  0.32689795  0.01562308  0.41123426  1
  Ni  Ni12  1  0.97188499  0.97858774  0.49451457  1
  Ni  Ni13  1  0.00670275  0.97858774  0.99451457  1
  Ni  Ni14  1  0.63855199  0.31192074  0.82784757  1
  Ni  Ni15  1  0.67336975  0.31192074  0.32784757  1
  Ni  Ni16  1  0.30521799  0.64525474  0.16118157  1
  Ni  Ni17  1  0.34003575  0.64525474  0.66118157  1
  Cu  Cu18  1  0.98633359  0.99237258  0.34920242  1
  Cu  Cu19  1  0.00603899  0.99237258  0.84920242  1
  Cu  Cu20  1  0.65300059  0.32570558  0.68253542  1
  Cu  Cu21  1  0.67270599  0.32570558  0.18253542  1
  Cu  Cu22  1  0.31966659  0.65903958  0.01586942  1
  Cu  Cu23  1  0.33937199  0.65903958  0.51586942  1
  C  C24  1  0.00850887  0.01544738  0.65101283  1
  C  C25  1  0.00693851  0.01544738  0.15101283  1
  C  C26  1  0.67517587  0.34878038  0.98434583  1
  C  C27  1  0.67360551  0.34878038  0.48434583  1
  C  C28  1  0.34184187  0.68211438  0.31767983  1
  C  C29  1  0.34027151  0.68211438  0.81767983  1
  C  C30  1  0.29778234  0.00063281  0.25198918  1
  C  C31  1  0.00709069  0.31045771  0.25522582  1
  C  C32  1  0.30336702  0.31045771  0.75522582  1
  C  C33  1  0.70285047  0.00063281  0.75198918  1
  C  C34  1  0.96444934  0.33396581  0.58532218  1
  C  C35  1  0.67375769  0.64379071  0.58855882  1
  C  C36  1  0.97003402  0.64379071  0.08855882  1
  C  C37  1  0.36951747  0.33396581  0.08532218  1
  C  C38  1  0.63111534  0.66729981  0.91865618  1
  C  C39  1  0.34042369  0.97712471  0.92189282  1
  C  C40  1  0.63670002  0.97712471  0.42189282  1
  C  C41  1  0.03618347  0.66729981  0.41865618  1
  C  C42  1  0.69569018  0.69543589  0.24751506  1
  C  C43  1  0.99974571  0.69543589  0.74751506  1
  C  C44  1  0.36235718  0.02876889  0.58084806  1
  C  C45  1  0.66641271  0.02876889  0.08084806  1
  C  C46  1  0.02902318  0.36210289  0.91418206  1
  C  C47  1  0.33307871  0.36210289  0.41418206  1
  C  C48  1  0.21398782  0.01540544  0.30642839  1
  C  C49  1  0.79727683  0.78150954  0.29732875  1
  C  C50  1  0.99146964  0.21946107  0.31158446  1
  C  C51  1  0.22799143  0.21946107  0.81158446  1
  C  C52  1  0.98423271  0.78150954  0.79732875  1
  C  C53  1  0.80141762  0.01540544  0.80642839  1
  C  C54  1  0.79180570  0.97952613  0.69854613  1
  C  C55  1  0.19230062  0.21195531  0.70373717  1
  C  C56  1  0.02046210  0.79155219  0.69409566  1
  C  C57  1  0.77109009  0.79155219  0.19409566  1
  C  C58  1  0.01965469  0.21195531  0.20373717  1
  C  C59  1  0.18772043  0.97952613  0.19854613  1
  C  C60  1  0.88065482  0.34873844  0.63976139  1
  C  C61  1  0.46394383  0.11484254  0.63066175  1
  C  C62  1  0.65813664  0.55279407  0.64491746  1
  C  C63  1  0.89465843  0.55279407  0.14491746  1
  C  C64  1  0.65089971  0.11484254  0.13066175  1
  C  C65  1  0.46808462  0.34873844  0.13976139  1
  C  C66  1  0.45847270  0.31285913  0.03187913  1
  C  C67  1  0.85896762  0.54528831  0.03707017  1
  C  C68  1  0.68712910  0.12488519  0.02742866  1
  C  C69  1  0.43775709  0.12488519  0.52742866  1
  C  C70  1  0.68632169  0.54528831  0.53707017  1
  C  C71  1  0.85438743  0.31285913  0.53187913  1
  C  C72  1  0.54732082  0.68207244  0.97309539  1
  C  C73  1  0.13060983  0.44817654  0.96399575  1
  C  C74  1  0.32480264  0.88612807  0.97825146  1
  C  C75  1  0.56132443  0.88612807  0.47825146  1
  C  C76  1  0.31756571  0.44817654  0.46399575  1
  C  C77  1  0.13475062  0.68207244  0.47309539  1
  C  C78  1  0.12513870  0.64619313  0.36521313  1
  C  C79  1  0.52563362  0.87862231  0.37040417  1
  C  C80  1  0.35379510  0.45821919  0.36076266  1
  C  C81  1  0.10442309  0.45821919  0.86076266  1
  C  C82  1  0.35298769  0.87862231  0.87040417  1
  C  C83  1  0.52105343  0.64619313  0.86521313  1
  C  C84  1  0.02346052  0.82509835  0.41373944  1
  C  C85  1  0.81568639  0.01152183  0.41654118  1
  C  C86  1  0.18257599  0.19609752  0.41217271  1
  C  C87  1  0.01352153  0.19609752  0.91217271  1
  C  C88  1  0.19583544  0.01152183  0.91654118  1
  C  C89  1  0.80163782  0.82509835  0.91373944  1
  C  C90  1  0.97580585  0.17268981  0.58669750  1
  C  C91  1  0.19206097  0.00381530  0.58573090  1
  C  C92  1  0.84021330  0.81468955  0.58651375  1
  C  C93  1  0.97447625  0.81468955  0.08651375  1
  C  C94  1  0.81175433  0.00381530  0.08573090  1
  C  C95  1  0.19688396  0.17268981  0.08669750  1
  C  C96  1  0.69012752  0.15843135  0.74707244  1
  C  C97  1  0.48235339  0.34485483  0.74987418  1
  C  C98  1  0.84924299  0.52943052  0.74550571  1
  C  C99  1  0.68018853  0.52943052  0.24550571  1
  C  C100  1  0.86250244  0.34485483  0.24987418  1
  C  C101  1  0.46830482  0.15843135  0.24707244  1
  C  C102  1  0.64247285  0.50602281  0.92003050  1
  C  C103  1  0.85872797  0.33714830  0.91906390  1
  C  C104  1  0.50688030  0.14802255  0.91984675  1
  C  C105  1  0.64114325  0.14802255  0.41984675  1
  C  C106  1  0.47842133  0.33714830  0.41906390  1
  C  C107  1  0.86355096  0.50602281  0.42003050  1
  C  C108  1  0.35679352  0.49176535  0.08040644  1
  C  C109  1  0.14901939  0.67818883  0.08320818  1
  C  C110  1  0.51590899  0.86276452  0.07883971  1
  C  C111  1  0.34685453  0.86276452  0.57883971  1
  C  C112  1  0.52916844  0.67818883  0.58320818  1
  C  C113  1  0.13497082  0.49176535  0.58040644  1
  C  C114  1  0.30913885  0.83935681  0.25336450  1
  C  C115  1  0.52539397  0.67048230  0.25239790  1
  C  C116  1  0.17354630  0.48135655  0.25318075  1
  C  C117  1  0.30780925  0.48135655  0.75318075  1
  C  C118  1  0.14508733  0.67048230  0.75239790  1
  C  C119  1  0.53021696  0.83935681  0.75336450  1
