# generated using pymatgen
data_Cu9NiC3
_symmetry_space_group_name_H-M   'P 1'
_cell_length_a   13.15729200
_cell_length_b   6.36030500
_cell_length_c   10.15415504
_cell_angle_alpha   84.87704760
_cell_angle_beta   90.00000000
_cell_angle_gamma   90.00000000
_symmetry_Int_Tables_number   1
_chemical_formula_structural   Cu9NiC3
_chemical_formula_sum   'Cu36 Ni4 C12'
_cell_volume   846.34986186
_cell_formula_units_Z   4
loop_
 _symmetry_equiv_pos_site_id
 _symmetry_equiv_pos_as_xyz
  1  'x, y, z'
loop_
 _atom_site_type_symbol
 _atom_site_label
 _atom_site_symmetry_multiplicity
 _atom_site_fract_x
 _atom_site_fract_y
 _atom_site_fract_z
 _atom_site_occupancy
  C  C0  1  0.88724000  0.90027100  0.33229500  1
  C  C1  1  0.38724000  0.09972900  0.16770500  1
  C  C2  1  0.11276000  0.09972900  0.66770500  1
  C  C3  1  0.61276000  0.90027100  0.83229500  1
  C  C4  1  0.78543500  0.28509300  0.12407400  1
  C  C5  1  0.28543500  0.71490700  0.37592600  1
  C  C6  1  0.21456500  0.71490700  0.87592600  1
  C  C7  1  0.71456500  0.28509300  0.62407400  1
  C  C8  1  0.03762800  0.29291600  0.20020200  1
  C  C9  1  0.53762800  0.70708400  0.29979800  1
  C  C10  1  0.96237200  0.70708400  0.79979800  1
  C  C11  1  0.46237200  0.29291600  0.70020200  1
  Ni  Ni12  1  0.88643200  0.25736600  0.30541700  1
  Ni  Ni13  1  0.38643200  0.74263400  0.19458300  1
  Ni  Ni14  1  0.11356800  0.74263400  0.69458300  1
  Ni  Ni15  1  0.61356800  0.25736600  0.80541700  1
  Cu  Cu16  1  0.97543900  0.82963500  0.41773600  1
  Cu  Cu17  1  0.47543900  0.17036500  0.08226400  1
  Cu  Cu18  1  0.02456100  0.17036500  0.58226400  1
  Cu  Cu19  1  0.52456100  0.82963500  0.91773600  1
  Cu  Cu20  1  0.79084500  0.82912500  0.39982500  1
  Cu  Cu21  1  0.29084500  0.17087500  0.10017500  1
  Cu  Cu22  1  0.20915500  0.17087500  0.60017500  1
  Cu  Cu23  1  0.70915500  0.82912500  0.89982500  1
  Cu  Cu24  1  0.89513900  0.80317500  0.20392900  1
  Cu  Cu25  1  0.39513900  0.19682500  0.29607100  1
  Cu  Cu26  1  0.10486100  0.19682500  0.79607100  1
  Cu  Cu27  1  0.60486100  0.80317500  0.70392900  1
  Cu  Cu28  1  0.68269500  0.20462400  0.16575700  1
  Cu  Cu29  1  0.18269500  0.79537600  0.33424300  1
  Cu  Cu30  1  0.31730500  0.79537600  0.83424300  1
  Cu  Cu31  1  0.81730500  0.20462400  0.66575700  1
  Cu  Cu32  1  0.45093200  0.15094600  0.59143500  1
  Cu  Cu33  1  0.95093200  0.84905400  0.90856500  1
  Cu  Cu34  1  0.54906800  0.84905400  0.40856500  1
  Cu  Cu35  1  0.04906800  0.15094600  0.09143500  1
  Cu  Cu36  1  0.38035600  0.24434700  0.79996200  1
  Cu  Cu37  1  0.88035600  0.75565300  0.70003800  1
  Cu  Cu38  1  0.61964400  0.75565300  0.20003800  1
  Cu  Cu39  1  0.11964400  0.24434700  0.29996200  1
  Cu  Cu40  1  0.45132600  0.51683800  0.64391200  1
  Cu  Cu41  1  0.95132600  0.48316200  0.85608800  1
  Cu  Cu42  1  0.54867400  0.48316200  0.35608800  1
  Cu  Cu43  1  0.04867400  0.51683800  0.14391200  1
  Cu  Cu44  1  0.67552000  0.16179500  0.51614300  1
  Cu  Cu45  1  0.17552000  0.83820500  0.98385700  1
  Cu  Cu46  1  0.32448000  0.83820500  0.48385700  1
  Cu  Cu47  1  0.82448000  0.16179500  0.01614300  1
  Cu  Cu48  1  0.72238300  0.51262200  0.57470900  1
  Cu  Cu49  1  0.22238300  0.48737800  0.92529100  1
  Cu  Cu50  1  0.27761700  0.48737800  0.42529100  1
  Cu  Cu51  1  0.77761700  0.51262200  0.07470900  1
