# generated using pymatgen
data_Cu7NiC8
_symmetry_space_group_name_H-M   'P 1'
_cell_length_a   10.03047400
_cell_length_b   10.36839000
_cell_length_c   10.69290100
_cell_angle_alpha   90.00000000
_cell_angle_beta   90.00000000
_cell_angle_gamma   90.00000000
_symmetry_Int_Tables_number   1
_chemical_formula_structural   Cu7NiC8
_chemical_formula_sum   'Cu56 Ni8 C64'
_cell_volume   1112.06027454
_cell_formula_units_Z   8
loop_
 _symmetry_equiv_pos_site_id
 _symmetry_equiv_pos_as_xyz
  1  'x, y, z'
loop_
 _atom_site_type_symbol
 _atom_site_label
 _atom_site_symmetry_multiplicity
 _atom_site_fract_x
 _atom_site_fract_y
 _atom_site_fract_z
 _atom_site_occupancy
  C  C0  1  0.58688900  0.29754700  0.25454000  1
  C  C1  1  0.08688900  0.20245300  0.74546000  1
  C  C2  1  0.41311100  0.79754700  0.24546000  1
  C  C3  1  0.91311100  0.70245300  0.75454000  1
  C  C4  1  0.41311100  0.70245300  0.74546000  1
  C  C5  1  0.91311100  0.79754700  0.25454000  1
  C  C6  1  0.58688900  0.20245300  0.75454000  1
  C  C7  1  0.08688900  0.29754700  0.24546000  1
  Ni  Ni8  1  0.65568900  0.99184800  0.36941400  1
  Ni  Ni9  1  0.15568900  0.50815200  0.63058600  1
  Ni  Ni10  1  0.34431100  0.49184800  0.13058600  1
  Ni  Ni11  1  0.84431100  0.00815200  0.86941400  1
  Ni  Ni12  1  0.34431100  0.00815200  0.63058600  1
  Ni  Ni13  1  0.84431100  0.49184800  0.36941400  1
  Ni  Ni14  1  0.65568900  0.50815200  0.86941400  1
  Ni  Ni15  1  0.15568900  0.99184800  0.13058600  1
  Cu  Cu16  1  0.60016400  0.99466100  0.57405900  1
  Cu  Cu17  1  0.10016400  0.50533900  0.42594100  1
  Cu  Cu18  1  0.39983600  0.49466100  0.92594100  1
  Cu  Cu19  1  0.89983600  0.00533900  0.07405900  1
  Cu  Cu20  1  0.39983600  0.00533900  0.42594100  1
  Cu  Cu21  1  0.89983600  0.49466100  0.57405900  1
  Cu  Cu22  1  0.60016400  0.50533900  0.07405900  1
  Cu  Cu23  1  0.10016400  0.99466100  0.92594100  1
  Cu  Cu24  1  0.48048600  0.34508300  0.49880500  1
  Cu  Cu25  1  0.98048600  0.15491700  0.50119500  1
  Cu  Cu26  1  0.51951400  0.84508300  0.00119500  1
  Cu  Cu27  1  0.01951400  0.65491700  0.99880500  1
  Cu  Cu28  1  0.51951400  0.65491700  0.50119500  1
  Cu  Cu29  1  0.01951400  0.84508300  0.49880500  1
  Cu  Cu30  1  0.48048600  0.15491700  0.99880500  1
  Cu  Cu31  1  0.98048600  0.34508300  0.00119500  1
  Cu  Cu32  1  0.36858300  0.32753700  0.39761800  1
  Cu  Cu33  1  0.86858300  0.17246300  0.60238200  1
  Cu  Cu34  1  0.63141700  0.82753700  0.10238200  1
  Cu  Cu35  1  0.13141700  0.67246300  0.89761800  1
  Cu  Cu36  1  0.63141700  0.67246300  0.60238200  1
  Cu  Cu37  1  0.13141700  0.82753700  0.39761800  1
  Cu  Cu38  1  0.36858300  0.17246300  0.89761800  1
  Cu  Cu39  1  0.86858300  0.32753700  0.10238200  1
  Cu  Cu40  1  0.73758000  0.16720600  0.06780100  1
  Cu  Cu41  1  0.23758000  0.33279400  0.93219900  1
  Cu  Cu42  1  0.26242000  0.66720600  0.43219900  1
  Cu  Cu43  1  0.76242000  0.83279400  0.56780100  1
  Cu  Cu44  1  0.26242000  0.83279400  0.93219900  1
  Cu  Cu45  1  0.76242000  0.66720600  0.06780100  1
  Cu  Cu46  1  0.73758000  0.33279400  0.56780100  1
  Cu  Cu47  1  0.23758000  0.16720600  0.43219900  1
  Cu  Cu48  1  0.68258400  0.29391500  0.00456600  1
  Cu  Cu49  1  0.18258400  0.20608500  0.99543400  1
  Cu  Cu50  1  0.31741600  0.79391500  0.49543400  1
  Cu  Cu51  1  0.81741600  0.70608500  0.50456600  1
  Cu  Cu52  1  0.31741600  0.70608500  0.99543400  1
  Cu  Cu53  1  0.81741600  0.79391500  0.00456600  1
  Cu  Cu54  1  0.68258400  0.20608500  0.50456600  1
  Cu  Cu55  1  0.18258400  0.29391500  0.49543400  1
  Cu  Cu56  1  0.46264900  0.07821600  0.21926200  1
  Cu  Cu57  1  0.96264900  0.42178400  0.78073800  1
  Cu  Cu58  1  0.53735100  0.57821600  0.28073800  1
  Cu  Cu59  1  0.03735100  0.92178400  0.71926200  1
  Cu  Cu60  1  0.53735100  0.92178400  0.78073800  1
  Cu  Cu61  1  0.03735100  0.57821600  0.21926200  1
  Cu  Cu62  1  0.46264900  0.42178400  0.71926200  1
  Cu  Cu63  1  0.96264900  0.07821600  0.28073800  1
  Cu  Cu64  1  0.34741600  0.16953600  0.17362000  1
  Cu  Cu65  1  0.84741700  0.33046400  0.82638000  1
  Cu  Cu66  1  0.65258300  0.66953600  0.32638000  1
  Cu  Cu67  1  0.15258400  0.83046400  0.67362000  1
  Cu  Cu68  1  0.65258300  0.83046400  0.82638000  1
  Cu  Cu69  1  0.15258400  0.66953600  0.17362000  1
  Cu  Cu70  1  0.34741600  0.33046400  0.67362000  1
  Cu  Cu71  1  0.84741700  0.16953600  0.32638000  1
  C  C72  1  0.46511100  0.34474000  0.40785500  1
  C  C73  1  0.96511100  0.15526000  0.59214500  1
  C  C74  1  0.53488900  0.84474000  0.09214500  1
  C  C75  1  0.03488900  0.65526000  0.90785500  1
  C  C76  1  0.53488900  0.65526000  0.59214500  1
  C  C77  1  0.03488900  0.84474000  0.40785500  1
  C  C78  1  0.46511100  0.15526000  0.90785500  1
  C  C79  1  0.96511100  0.34474000  0.09214500  1
  C  C80  1  0.70133300  0.25439500  0.08774300  1
  C  C81  1  0.20133300  0.24560500  0.91225700  1
  C  C82  1  0.29866700  0.75439500  0.41225700  1
  C  C83  1  0.79866700  0.74560500  0.58774300  1
  C  C84  1  0.29866700  0.74560500  0.91225700  1
  C  C85  1  0.79866700  0.75439500  0.08774300  1
  C  C86  1  0.70133300  0.24560500  0.58774300  1
  C  C87  1  0.20133300  0.25439500  0.41225700  1
  C  C88  1  0.44644400  0.16324800  0.17924600  1
  C  C89  1  0.94644400  0.33675200  0.82075400  1
  C  C90  1  0.55355600  0.66324800  0.32075400  1
  C  C91  1  0.05355600  0.83675200  0.67924600  1
  C  C92  1  0.55355600  0.83675200  0.82075400  1
  C  C93  1  0.05355600  0.66324800  0.17924600  1
  C  C94  1  0.44644400  0.33675200  0.67924600  1
  C  C95  1  0.94644400  0.16324800  0.32075400  1
  C  C96  1  0.67474200  0.96286200  0.51631800  1
  C  C97  1  0.17474200  0.53713800  0.48368200  1
  C  C98  1  0.32525800  0.46286200  0.98368200  1
  C  C99  1  0.82525800  0.03713800  0.01631800  1
  C  C100  1  0.32525800  0.03713800  0.48368200  1
  C  C101  1  0.82525800  0.46286200  0.51631800  1
  C  C102  1  0.67474200  0.53713800  0.01631800  1
  C  C103  1  0.17474200  0.96286200  0.98368200  1
  C  C104  1  0.67464700  0.13952500  0.35157900  1
  C  C105  1  0.17464700  0.36047500  0.64842100  1
  C  C106  1  0.32535300  0.63952500  0.14842100  1
  C  C107  1  0.82535300  0.86047500  0.85157900  1
  C  C108  1  0.32535300  0.86047500  0.64842100  1
  C  C109  1  0.82535300  0.63952500  0.35157900  1
  C  C110  1  0.67464700  0.36047500  0.85157900  1
  C  C111  1  0.17464700  0.13952500  0.14842100  1
  C  C112  1  0.50968900  0.95484800  0.33487400  1
  C  C113  1  0.00968900  0.54515200  0.66512600  1
  C  C114  1  0.49031100  0.45484800  0.16512600  1
  C  C115  1  0.99031100  0.04515200  0.83487400  1
  C  C116  1  0.49031100  0.04515200  0.66512600  1
  C  C117  1  0.99031100  0.45484800  0.33487400  1
  C  C118  1  0.50968900  0.54515200  0.83487400  1
  C  C119  1  0.00968900  0.95484800  0.16512600  1
  C  C120  1  0.75970100  0.91198300  0.30397800  1
  C  C121  1  0.25970100  0.58801700  0.69602200  1
  C  C122  1  0.24029900  0.41198300  0.19602200  1
  C  C123  1  0.74029900  0.08801700  0.80397800  1
  C  C124  1  0.24029900  0.08801700  0.69602200  1
  C  C125  1  0.74029900  0.41198300  0.30397800  1
  C  C126  1  0.75970100  0.58801700  0.80397800  1
  C  C127  1  0.25970100  0.91198300  0.19602200  1
