# generated using pymatgen
data_Cu(Ni4C3)2
_symmetry_space_group_name_H-M   'P 1'
_cell_length_a   10.45698100
_cell_length_b   6.44762800
_cell_length_c   7.54893289
_cell_angle_alpha   70.19314972
_cell_angle_beta   90.00000000
_cell_angle_gamma   90.00000000
_symmetry_Int_Tables_number   1
_chemical_formula_structural   Cu(Ni4C3)2
_chemical_formula_sum   'Cu4 Ni32 C24'
_cell_volume   478.85910596
_cell_formula_units_Z   4
loop_
 _symmetry_equiv_pos_site_id
 _symmetry_equiv_pos_as_xyz
  1  'x, y, z'
loop_
 _atom_site_type_symbol
 _atom_site_label
 _atom_site_symmetry_multiplicity
 _atom_site_fract_x
 _atom_site_fract_y
 _atom_site_fract_z
 _atom_site_occupancy
  Ni  Ni0  1  0.64465600  0.33233700  0.93847900  1
  Ni  Ni1  1  0.14465600  0.16766300  0.06152100  1
  Ni  Ni2  1  0.35534400  0.66766300  0.06152100  1
  Ni  Ni3  1  0.85534400  0.83233700  0.93847900  1
  Ni  Ni4  1  0.71156500  0.08999000  0.05069200  1
  Ni  Ni5  1  0.21156500  0.41001000  0.94930800  1
  Ni  Ni6  1  0.28843500  0.91001000  0.94930800  1
  Ni  Ni7  1  0.78843500  0.58999000  0.05069200  1
  Ni  Ni8  1  0.45685900  0.07415000  0.14428900  1
  Ni  Ni9  1  0.95685900  0.42585000  0.85571100  1
  Ni  Ni10  1  0.54314100  0.92585000  0.85571100  1
  Ni  Ni11  1  0.04314100  0.57415000  0.14428900  1
  Ni  Ni12  1  0.34230700  0.04190300  0.49460100  1
  Ni  Ni13  1  0.84230700  0.45809700  0.50539900  1
  Ni  Ni14  1  0.69080100  0.70764900  0.27021800  1
  Ni  Ni15  1  0.65769300  0.95809700  0.50539900  1
  Ni  Ni16  1  0.24636100  0.21794600  0.34395500  1
  Ni  Ni17  1  0.74636100  0.28205400  0.65604500  1
  Ni  Ni18  1  0.75363900  0.78205400  0.65604500  1
  Ni  Ni19  1  0.25363900  0.71794600  0.34395500  1
  Ni  Ni20  1  0.43370200  0.38541500  0.43573000  1
  Ni  Ni21  1  0.93370200  0.11458500  0.56427000  1
  Ni  Ni22  1  0.56629800  0.61458500  0.56427000  1
  Ni  Ni23  1  0.06629800  0.88541500  0.43573000  1
  Ni  Ni24  1  0.53717200  0.70421300  0.23560800  1
  Ni  Ni25  1  0.03717200  0.79578700  0.76439200  1
  Ni  Ni26  1  0.46282800  0.29578700  0.76439200  1
  Ni  Ni27  1  0.96282800  0.20421300  0.23560800  1
  Ni  Ni28  1  0.80919900  0.20764900  0.27021800  1
  Ni  Ni29  1  0.30919900  0.29235100  0.72978200  1
  Ni  Ni30  1  0.19080100  0.79235100  0.72978200  1
  Ni  Ni31  1  0.15769300  0.54190300  0.49460100  1
  Cu  Cu32  1  0.96188900  0.80531600  0.23589400  1
  Cu  Cu33  1  0.46188900  0.69468400  0.76410600  1
  Cu  Cu34  1  0.03811100  0.19468400  0.76410600  1
  Cu  Cu35  1  0.53811100  0.30531600  0.23589400  1
  C  C36  1  0.54396700  0.13984100  0.15793600  1
  C  C37  1  0.04396700  0.36015900  0.84206400  1
  C  C38  1  0.45603300  0.86015900  0.84206400  1
  C  C39  1  0.95603300  0.63984100  0.15793600  1
  C  C40  1  0.33523700  0.14811000  0.35860000  1
  C  C41  1  0.83523700  0.35189000  0.64140000  1
  C  C42  1  0.66476300  0.85189000  0.64140000  1
  C  C43  1  0.16476300  0.64811000  0.35860000  1
  C  C44  1  0.42618800  0.32003100  0.32816900  1
  C  C45  1  0.92618800  0.17996900  0.67183100  1
  C  C46  1  0.57381200  0.67996900  0.67183100  1
  C  C47  1  0.07381200  0.82003100  0.32816900  1
  C  C48  1  0.61236300  0.60548800  0.30340900  1
  C  C49  1  0.11236300  0.89451200  0.69659100  1
  C  C50  1  0.38763700  0.39451200  0.69659100  1
  C  C51  1  0.88763700  0.10548800  0.30340900  1
  C  C52  1  0.63439000  0.44123200  0.21617400  1
  C  C53  1  0.13439000  0.05876800  0.78382600  1
  C  C54  1  0.36561000  0.55876800  0.78382600  1
  C  C55  1  0.86561000  0.94123200  0.21617400  1
  C  C56  1  0.87429400  0.66689200  0.00096500  1
  C  C57  1  0.37429400  0.83310800  0.99903500  1
  C  C58  1  0.12570600  0.33310800  0.99903500  1
  C  C59  1  0.62570600  0.16689200  0.00096500  1
