# generated using pymatgen
data_Cu3Ni3C28
_symmetry_space_group_name_H-M   'P 1'
_cell_length_a   9.02514621
_cell_length_b   8.99898437
_cell_length_c   23.15535880
_cell_angle_alpha   90.73932944
_cell_angle_beta   89.97741930
_cell_angle_gamma   120.02667107
_symmetry_Int_Tables_number   1
_chemical_formula_structural   Cu3Ni3C28
_chemical_formula_sum   'Cu9 Ni9 C84'
_cell_volume   1628.04461307
_cell_formula_units_Z   3
loop_
 _symmetry_equiv_pos_site_id
 _symmetry_equiv_pos_as_xyz
  1  'x, y, z'
loop_
 _atom_site_type_symbol
 _atom_site_label
 _atom_site_symmetry_multiplicity
 _atom_site_fract_x
 _atom_site_fract_y
 _atom_site_fract_z
 _atom_site_occupancy
  C  C0  1  0.99064603  0.00891592  0.35727008  1
  C  C1  1  0.01383142  0.01309541  0.85416484  1
  C  C2  1  0.66663477  0.33819807  0.69139473  1
  C  C3  1  0.67864060  0.34445968  0.18741624  1
  C  C4  1  0.32007203  0.66639222  0.02366618  1
  C  C5  1  0.34799988  0.67046335  0.52716224  1
  C  C6  1  0.98492181  0.01086056  0.64351343  1
  C  C7  1  0.01128126  0.01648642  0.13841125  1
  C  C8  1  0.65464372  0.34076237  0.97574981  1
  C  C9  1  0.67754814  0.33081731  0.48264679  1
  C  C10  1  0.33348652  0.67219427  0.31088850  1
  C  C11  1  0.34194022  0.68064398  0.80524786  1
  Ni  Ni12  1  0.00045696  0.28870125  0.24994822  1
  Ni  Ni13  1  0.28649293  0.28857113  0.74946282  1
  Ni  Ni14  1  0.71706202  0.00592253  0.75159081  1
  Ni  Ni15  1  0.95861882  0.33862930  0.58584610  1
  Ni  Ni16  1  0.67589236  0.62219439  0.58491394  1
  Ni  Ni17  1  0.95000757  0.62147671  0.08284063  1
  Ni  Ni18  1  0.38697911  0.34150723  0.08389337  1
  Ni  Ni19  1  0.33348678  0.95286198  0.91677475  1
  Ni  Ni20  1  0.61613170  0.95752251  0.41797829  1
  Cu  Cu21  1  0.28614944  0.99849180  0.24983195  1
  Cu  Cu22  1  0.71010759  0.71447208  0.25025076  1
  Cu  Cu23  1  0.00353374  0.71578143  0.75010435  1
  Cu  Cu24  1  0.37697341  0.04928778  0.58339288  1
  Cu  Cu25  1  0.66877024  0.04754915  0.08263181  1
  Cu  Cu26  1  0.61904095  0.66807039  0.91610212  1
  Cu  Cu27  1  0.04169872  0.38080209  0.91637893  1
  Cu  Cu28  1  0.33879426  0.38306017  0.41590941  1
  Cu  Cu29  1  0.04506290  0.66500246  0.41626537  1
  C  C30  1  0.20618301  0.02116162  0.30219841  1
  C  C31  1  0.81769053  0.79198268  0.30245339  1
  C  C32  1  0.97924156  0.17101885  0.30538983  1
  C  C33  1  0.19941980  0.17236744  0.80582829  1
  C  C34  1  0.97661955  0.79194709  0.80267434  1
  C  C35  1  0.82613957  0.01953480  0.80770959  1
  C  C36  1  0.80238907  0.96558556  0.69336206  1
  C  C37  1  0.16001732  0.18842862  0.69325882  1
  C  C38  1  0.03560770  0.82068016  0.69855056  1
  C  C39  1  0.78582194  0.81952944  0.19906216  1
  C  C40  1  0.02833754  0.18810517  0.19379881  1
  C  C41  1  0.17602207  0.96489609  0.19788696  1
  C  C42  1  0.86380341  0.36130262  0.63955183  1
  C  C43  1  0.48514910  0.12270275  0.63425852  1
  C  C44  1  0.63834895  0.50103754  0.63876591  1
  C  C45  1  0.86568054  0.50520057  0.13936827  1
  C  C46  1  0.64064547  0.12267881  0.13557647  1
  C  C47  1  0.49261471  0.35298302  0.14084155  1
  C  C48  1  0.47448329  0.30179122  0.02639713  1
  C  C49  1  0.82688746  0.52318077  0.02644804  1
  C  C50  1  0.70174431  0.15531466  0.03181288  1
  C  C51  1  0.46160568  0.15761354  0.53041663  1
  C  C52  1  0.69277706  0.52011916  0.52563335  1
  C  C53  1  0.83016638  0.30060856  0.52646893  1
  C  C54  1  0.54159682  0.69004625  0.96864667  1
  C  C55  1  0.15033396  0.45736557  0.96877817  1
  C  C56  1  0.31510504  0.83968616  0.97262552  1
  C  C57  1  0.52378028  0.83499208  0.47097324  1
  C  C58  1  0.30203008  0.45618369  0.46704455  1
  C  C59  1  0.15085426  0.69388543  0.46718908  1
  C  C60  1  0.12894625  0.63658737  0.36299789  1
  C  C61  1  0.49354806  0.85366958  0.35970166  1
  C  C62  1  0.35948296  0.49085813  0.36381040  1
  C  C63  1  0.12119155  0.48629015  0.86558015  1
  C  C64  1  0.36043205  0.85334082  0.86022596  1
  C  C65  1  0.50957737  0.63232731  0.86436752  1
  C  C66  1  0.02626796  0.81550819  0.40481871  1
  C  C67  1  0.80260023  0.97621497  0.40631199  1
  C  C68  1  0.18779749  0.20853246  0.40621013  1
  C  C69  1  0.02020651  0.20759660  0.91013466  1
  C  C70  1  0.17068277  0.97691397  0.90784440  1
  C  C71  1  0.79200371  0.81217518  0.90863961  1
  C  C72  1  0.97287695  0.16314701  0.59115012  1
  C  C73  1  0.20672347  0.03064549  0.58966583  1
  C  C74  1  0.84883857  0.80987594  0.59412812  1
  C  C75  1  0.96739803  0.81085380  0.09830829  1
  C  C76  1  0.82484771  0.02803891  0.09238650  1
  C  C77  1  0.19342469  0.16328299  0.09340673  1
  C  C78  1  0.68524749  0.16078475  0.73975582  1
  C  C79  1  0.47327966  0.31528860  0.74045310  1
  C  C80  1  0.85534637  0.54302458  0.74386492  1
  C  C81  1  0.68525031  0.54083671  0.24373120  1
  C  C82  1  0.83602047  0.30914695  0.24078612  1
  C  C83  1  0.45691849  0.14354226  0.24194663  1
  C  C84  1  0.63550661  0.50725557  0.92403990  1
  C  C85  1  0.86969533  0.36159644  0.92662692  1
  C  C86  1  0.51010645  0.14448554  0.92894882  1
  C  C87  1  0.63436552  0.14725036  0.42662366  1
  C  C88  1  0.49030884  0.36467265  0.42281418  1
  C  C89  1  0.87319307  0.50964588  0.42243617  1
  C  C90  1  0.35846928  0.49800199  0.07105787  1
  C  C91  1  0.13833151  0.64825487  0.07467207  1
  C  C92  1  0.52311844  0.87412258  0.07498235  1
  C  C93  1  0.35671829  0.87765029  0.57316109  1
  C  C94  1  0.51264981  0.64701701  0.57334073  1
  C  C95  1  0.13912006  0.49783767  0.56885890  1
  C  C96  1  0.30106371  0.83791998  0.25897541  1
  C  C97  1  0.53493474  0.69411522  0.26033253  1
  C  C98  1  0.17305757  0.47930871  0.26421564  1
  C  C99  1  0.29988042  0.47636808  0.76466760  1
  C  C100  1  0.15759995  0.69352492  0.75911788  1
  C  C101  1  0.52496893  0.82736562  0.76028336  1
