# generated using pymatgen
data_Cu2NiC5
_symmetry_space_group_name_H-M   'P 1'
_cell_length_a   6.39377300
_cell_length_b   6.92610800
_cell_length_c   7.70195200
_cell_angle_alpha   90.00000000
_cell_angle_beta   90.00000000
_cell_angle_gamma   90.00000000
_symmetry_Int_Tables_number   1
_chemical_formula_structural   Cu2NiC5
_chemical_formula_sum   'Cu8 Ni4 C20'
_cell_volume   341.07295220
_cell_formula_units_Z   4
loop_
 _symmetry_equiv_pos_site_id
 _symmetry_equiv_pos_as_xyz
  1  'x, y, z'
loop_
 _atom_site_type_symbol
 _atom_site_label
 _atom_site_symmetry_multiplicity
 _atom_site_fract_x
 _atom_site_fract_y
 _atom_site_fract_z
 _atom_site_occupancy
  C  C0  1  0.01308100  0.50454500  0.72719500  1
  C  C1  1  0.51308100  0.50454500  0.77280500  1
  C  C2  1  0.48691900  0.00454500  0.22719500  1
  C  C3  1  0.98691900  0.00454500  0.27280500  1
  Ni  Ni4  1  0.19867000  0.67813800  0.07106500  1
  Ni  Ni5  1  0.80133000  0.17813800  0.92893500  1
  Ni  Ni6  1  0.30133000  0.17813800  0.57106500  1
  Ni  Ni7  1  0.69867000  0.67813800  0.42893500  1
  Cu  Cu8  1  0.03767100  0.39102100  0.14002500  1
  Cu  Cu9  1  0.96232900  0.89102100  0.85997500  1
  Cu  Cu10  1  0.46232900  0.89102100  0.64002500  1
  Cu  Cu11  1  0.53767100  0.39102100  0.35997500  1
  Cu  Cu12  1  0.98841600  0.06458600  0.61232700  1
  Cu  Cu13  1  0.01158400  0.56458600  0.38767300  1
  Cu  Cu14  1  0.48841600  0.06458600  0.88767300  1
  Cu  Cu15  1  0.51158400  0.56458600  0.11232700  1
  C  C16  1  0.72727200  0.85438600  0.31561500  1
  C  C17  1  0.07685600  0.09905900  0.50823300  1
  C  C18  1  0.93126700  0.20092900  0.09259700  1
  C  C19  1  0.06873300  0.70092900  0.90740300  1
  C  C20  1  0.92314400  0.59905900  0.49176700  1
  C  C21  1  0.56873300  0.70092900  0.59259700  1
  C  C22  1  0.57685600  0.09905900  0.99176700  1
  C  C23  1  0.42314400  0.59905900  0.00823300  1
  C  C24  1  0.60588600  0.51290600  0.30619300  1
  C  C25  1  0.39411400  0.01290600  0.69380700  1
  C  C26  1  0.89411400  0.01290600  0.80619300  1
  C  C27  1  0.10588600  0.51290600  0.19380700  1
  C  C28  1  0.77272800  0.35438600  0.81561500  1
  C  C29  1  0.27272800  0.35438600  0.68438500  1
  C  C30  1  0.43126700  0.20092900  0.40740300  1
  C  C31  1  0.22727200  0.85438600  0.18438500  1
