# generated using pymatgen
data_CuNiC9
_symmetry_space_group_name_H-M   'P 1'
_cell_length_a   6.09299751
_cell_length_b   6.66953917
_cell_length_c   6.63914223
_cell_angle_alpha   125.48843103
_cell_angle_beta   117.30256846
_cell_angle_gamma   90.00154272
_symmetry_Int_Tables_number   1
_chemical_formula_structural   CuNiC9
_chemical_formula_sum   'Cu1 Ni1 C9'
_cell_volume   181.50104533
_cell_formula_units_Z   1
loop_
 _symmetry_equiv_pos_site_id
 _symmetry_equiv_pos_as_xyz
  1  'x, y, z'
loop_
 _atom_site_type_symbol
 _atom_site_label
 _atom_site_symmetry_multiplicity
 _atom_site_fract_x
 _atom_site_fract_y
 _atom_site_fract_z
 _atom_site_occupancy
  C  C0  1  0.80709600  0.19195055  0.61561320  1
  C  C1  1  0.22267098  0.77932171  0.44649825  1
  C  C2  1  0.60141218  0.40055796  0.20243999  1
  Ni  Ni3  1  0.00295253  -0.00226171  0.00537776  1
  Cu  Cu4  1  0.41832289  0.57955734  0.83708938  1
  C  C5  1  0.77935479  0.76127353  0.55813336  1
  C  C6  1  0.24147735  0.20769125  0.48236299  1
  C  C7  1  0.78965969  0.75753956  0.02968431  1
  C  C8  1  0.24002659  0.75811288  0.02988703  1
  C  C9  1  0.24165670  0.22061615  0.02111410  1
  C  C10  1  0.78037132  0.22063979  0.02180063  1
