# generated using pymatgen
data_CuNiC4
_symmetry_space_group_name_H-M   'P 1'
_cell_length_a   4.51719018
_cell_length_b   4.51719018
_cell_length_c   4.51719018
_cell_angle_alpha   81.09956246
_cell_angle_beta   81.09956246
_cell_angle_gamma   81.09956246
_symmetry_Int_Tables_number   1
_chemical_formula_structural   CuNiC4
_chemical_formula_sum   'Cu1 Ni1 C4'
_cell_volume   89.15565531
_cell_formula_units_Z   1
loop_
 _symmetry_equiv_pos_site_id
 _symmetry_equiv_pos_as_xyz
  1  'x, y, z'
loop_
 _atom_site_type_symbol
 _atom_site_label
 _atom_site_symmetry_multiplicity
 _atom_site_fract_x
 _atom_site_fract_y
 _atom_site_fract_z
 _atom_site_occupancy
  C  C0  1  0.13814017  0.13814017  0.13814017  1
  Ni  Ni1  1  0.73812154  0.73812154  0.73812154  1
  Cu  Cu2  1  0.45686748  0.45686748  0.45686748  1
  C  C3  1  0.97205782  0.47240500  0.47240500  1
  C  C4  1  0.47240500  0.97205782  0.47240500  1
  C  C5  1  0.47240500  0.47240500  0.97205782  1
