# generated using pymatgen
data_Cu2Ni2C9
_symmetry_space_group_name_H-M   'P 1'
_cell_length_a   5.97135726
_cell_length_b   5.97135874
_cell_length_c   5.97135892
_cell_angle_alpha   120.17949588
_cell_angle_beta   118.61051276
_cell_angle_gamma   91.05638666
_symmetry_Int_Tables_number   1
_chemical_formula_structural   Cu2Ni2C9
_chemical_formula_sum   'Cu2 Ni2 C9'
_cell_volume   151.87222491
_cell_formula_units_Z   1
loop_
 _symmetry_equiv_pos_site_id
 _symmetry_equiv_pos_as_xyz
  1  'x, y, z'
loop_
 _atom_site_type_symbol
 _atom_site_label
 _atom_site_symmetry_multiplicity
 _atom_site_fract_x
 _atom_site_fract_y
 _atom_site_fract_z
 _atom_site_occupancy
  C  C0  1  0.97837800  0.22837800  0.75000000  1
  Ni  Ni1  1  0.71639900  0.46640000  0.25000000  1
  Ni  Ni2  1  0.31840100  0.56840200  0.75000000  1
  Cu  Cu3  1  0.45264600  0.95946600  0.49317800  1
  Cu  Cu4  1  0.96628800  0.95946600  0.00682200  1
  C  C5  1  0.21272700  0.74065200  0.02792100  1
  C  C6  1  0.20323300  0.68337100  0.51986200  1
  C  C7  1  0.80446400  0.33880200  0.46566200  1
  C  C8  1  0.37314300  0.33880200  0.03433800  1
  C  C9  1  0.77820800  0.83025300  0.55204500  1
  C  C10  1  0.77820900  0.22616200  0.94795600  1
  C  C11  1  0.66350900  0.68337100  0.98013900  1
  C  C12  1  0.21272800  0.18480600  0.47207800  1
