# generated using pymatgen
data_Cu4Ni2C9
_symmetry_space_group_name_H-M   'P 1'
_cell_length_a   7.20609297
_cell_length_b   6.97706662
_cell_length_c   6.97503090
_cell_angle_alpha   89.21986961
_cell_angle_beta   121.08847410
_cell_angle_gamma   121.12719928
_symmetry_Int_Tables_number   1
_chemical_formula_structural   Cu4Ni2C9
_chemical_formula_sum   'Cu4 Ni2 C9'
_cell_volume   241.24260040
_cell_formula_units_Z   1
loop_
 _symmetry_equiv_pos_site_id
 _symmetry_equiv_pos_as_xyz
  1  'x, y, z'
loop_
 _atom_site_type_symbol
 _atom_site_label
 _atom_site_symmetry_multiplicity
 _atom_site_fract_x
 _atom_site_fract_y
 _atom_site_fract_z
 _atom_site_occupancy
  C  C0  1  0.24977300  0.13874100  0.86128700  1
  Ni  Ni1  1  0.94014400  0.94259900  0.05807600  1
  Ni  Ni2  1  0.55855500  0.94244400  0.05678100  1
  Cu  Cu3  1  0.49728300  0.98623500  0.50811900  1
  Cu  Cu4  1  0.50641900  0.48833600  0.51170100  1
  Cu  Cu5  1  0.00288300  0.49187000  0.01377500  1
  Cu  Cu6  1  0.99395300  0.48840100  0.51166000  1
  C  C7  1  0.04416900  0.72081200  0.27912800  1
  C  C8  1  0.47275700  0.73002100  0.71442400  1
  C  C9  1  0.45597700  0.72090500  0.27912500  1
  C  C10  1  0.97176500  0.69576900  0.74720900  1
  C  C11  1  0.54343000  0.25668400  0.74328700  1
  C  C12  1  0.52848200  0.25278500  0.30425700  1
  C  C13  1  0.02782700  0.28551500  0.27003100  1
  C  C14  1  0.95663200  0.25699800  0.74303700  1
