# generated using pymatgen
data_Cu2NiC3
_symmetry_space_group_name_H-M   'P 1'
_cell_length_a   7.73744140
_cell_length_b   7.73744140
_cell_length_c   13.19709871
_cell_angle_alpha   66.91476509
_cell_angle_beta   66.91476509
_cell_angle_gamma   41.26295869
_symmetry_Int_Tables_number   1
_chemical_formula_structural   Cu2NiC3
_chemical_formula_sum   'Cu16 Ni8 C24'
_cell_volume   473.13412122
_cell_formula_units_Z   8
loop_
 _symmetry_equiv_pos_site_id
 _symmetry_equiv_pos_as_xyz
  1  'x, y, z'
loop_
 _atom_site_type_symbol
 _atom_site_label
 _atom_site_symmetry_multiplicity
 _atom_site_fract_x
 _atom_site_fract_y
 _atom_site_fract_z
 _atom_site_occupancy
  C  C0  1  0.34032500  0.34516900  0.30284900  1
  C  C1  1  0.34516900  0.34032500  0.80284900  1
  C  C2  1  0.65967500  0.65483100  0.69715100  1
  C  C3  1  0.65483100  0.65967500  0.19715100  1
  C  C4  1  0.60325400  0.19029500  0.70240300  1
  C  C5  1  0.80970500  0.39674600  0.79759700  1
  C  C6  1  0.39674600  0.80970500  0.29759700  1
  C  C7  1  0.19029500  0.60325400  0.20240300  1
  C  C8  1  0.60034100  0.22812100  0.12867100  1
  C  C9  1  0.77187900  0.39965900  0.37132900  1
  C  C10  1  0.39965900  0.77187900  0.87132900  1
  C  C11  1  0.22812100  0.60034100  0.62867100  1
  C  C12  1  0.35348700  0.32556400  0.08883300  1
  C  C13  1  0.06224500  0.50416800  0.69296600  1
  C  C14  1  0.64651300  0.67443600  0.91116700  1
  C  C15  1  0.32556400  0.35348700  0.58883300  1
  C  C16  1  0.50416800  0.06224500  0.19296600  1
  C  C17  1  0.93775500  0.49583200  0.30703400  1
  C  C18  1  0.49583200  0.93775500  0.80703400  1
  C  C19  1  0.67443600  0.64651300  0.41116700  1
  Ni  Ni20  1  0.44051100  0.24873200  0.15677500  1
  Ni  Ni21  1  0.75638800  0.57317800  0.76182700  1
  Ni  Ni22  1  0.57317800  0.75638800  0.26182700  1
  Ni  Ni23  1  0.24361200  0.42682200  0.23817300  1
  Ni  Ni24  1  0.75126800  0.55948900  0.34322500  1
  Ni  Ni25  1  0.24873200  0.44051100  0.65677500  1
  Ni  Ni26  1  0.55948900  0.75126800  0.84322500  1
  Ni  Ni27  1  0.42682200  0.24361200  0.73817300  1
  C  C28  1  0.81910700  0.97098800  0.42370400  1
  C  C29  1  0.97098800  0.81910700  0.92370400  1
  C  C30  1  0.18089300  0.02901200  0.57629700  1
  C  C31  1  0.02901200  0.18089300  0.07629700  1
  Cu  Cu32  1  0.21837300  0.07920400  0.65781600  1
  Cu  Cu33  1  0.86994500  0.08139400  0.89544500  1
  Cu  Cu34  1  0.91860600  0.13005500  0.60455500  1
  Cu  Cu35  1  0.13005500  0.91860600  0.10455500  1
  Cu  Cu36  1  0.78162700  0.92079600  0.34218400  1
  Cu  Cu37  1  0.07920400  0.21837300  0.15781600  1
  Cu  Cu38  1  0.08139400  0.86994500  0.39544500  1
  Cu  Cu39  1  0.92079600  0.78162700  0.84218400  1
  Cu  Cu40  1  0.78961000  0.84378700  0.53504300  1
  Cu  Cu41  1  0.15621300  0.21039000  0.96495700  1
  Cu  Cu42  1  0.21039000  0.15621300  0.46495700  1
  Cu  Cu43  1  0.84378700  0.78961000  0.03504300  1
  Cu  Cu44  1  0.61406200  0.26094900  0.42217700  1
  Cu  Cu45  1  0.73905100  0.38593800  0.07782300  1
  Cu  Cu46  1  0.38593800  0.73905100  0.57782300  1
  Cu  Cu47  1  0.26094900  0.61406200  0.92217700  1
