# generated using pymatgen
data_Cu2Ni2C15
_symmetry_space_group_name_H-M   'P 1'
_cell_length_a   5.76427404
_cell_length_b   5.91287636
_cell_length_c   8.78951654
_cell_angle_alpha   95.34743449
_cell_angle_beta   90.00000000
_cell_angle_gamma   90.00000000
_symmetry_Int_Tables_number   1
_chemical_formula_structural   Cu2Ni2C15
_chemical_formula_sum   'Cu2 Ni2 C15'
_cell_volume   298.27316364
_cell_formula_units_Z   1
loop_
 _symmetry_equiv_pos_site_id
 _symmetry_equiv_pos_as_xyz
  1  'x, y, z'
loop_
 _atom_site_type_symbol
 _atom_site_label
 _atom_site_symmetry_multiplicity
 _atom_site_fract_x
 _atom_site_fract_y
 _atom_site_fract_z
 _atom_site_occupancy
  Ni  Ni0  1  0.25000000  0.68081898  0.09689405  1
  Ni  Ni1  1  0.75000000  0.25278057  0.00554027  1
  Cu  Cu2  1  0.25000000  0.37859532  0.74374975  1
  Cu  Cu3  1  0.75000000  0.73673197  0.24437730  1
  C  C4  1  0.25000000  0.74771932  0.48808902  1
  C  C5  1  0.75000000  0.25483749  0.50396602  1
  C  C6  1  0.25000000  0.96059268  0.83141632  1
  C  C7  1  0.25000000  0.21371070  0.25787583  1
  C  C8  1  0.75000000  0.77509922  0.74868409  1
  C  C9  1  0.98567969  0.03221133  0.69131859  1
  C  C10  1  0.52728959  0.55710455  0.62574770  1
  C  C11  1  0.75000000  0.74471663  0.95946098  1
  C  C12  1  0.47947521  0.00259271  0.33934988  1
  C  C13  1  0.47994068  0.45400476  0.31040105  1
  C  C14  1  0.25000000  0.16257041  0.03787394  1
  C  C15  1  0.51432031  0.03221133  0.69131859  1
  C  C16  1  0.97271041  0.55710455  0.62574770  1
  C  C17  1  0.02052479  0.00259271  0.33934988  1
  C  C18  1  0.02005932  0.45400476  0.31040105  1
