# generated using pymatgen
data_Cu4NiC4
_symmetry_space_group_name_H-M   'P 1'
_cell_length_a   14.43525100
_cell_length_b   14.43525100
_cell_length_c   14.43525100
_cell_angle_alpha   90.00000000
_cell_angle_beta   90.00000000
_cell_angle_gamma   90.00000000
_symmetry_Int_Tables_number   1
_chemical_formula_structural   Cu4NiC4
_chemical_formula_sum   'Cu32 Ni8 C32'
_cell_volume   3007.96666763
_cell_formula_units_Z   8
loop_
 _symmetry_equiv_pos_site_id
 _symmetry_equiv_pos_as_xyz
  1  'x, y, z'
loop_
 _atom_site_type_symbol
 _atom_site_label
 _atom_site_symmetry_multiplicity
 _atom_site_fract_x
 _atom_site_fract_y
 _atom_site_fract_z
 _atom_site_occupancy
  C  C0  1  0.34792400  0.34792400  0.34792400  1
  C  C1  1  0.15207600  0.84792400  0.15207600  1
  C  C2  1  0.84792400  0.15207600  0.15207600  1
  C  C3  1  0.15207600  0.15207600  0.84792400  1
  C  C4  1  0.34792400  0.65207600  0.65207600  1
  C  C5  1  0.65207600  0.65207600  0.34792400  1
  C  C6  1  0.65207600  0.34792400  0.65207600  1
  C  C7  1  0.84792400  0.84792400  0.84792400  1
  C  C8  1  0.34873900  0.13470900  0.08454700  1
  C  C9  1  0.34873900  0.86529100  0.91545300  1
  C  C10  1  0.13470900  0.08454700  0.34873900  1
  C  C11  1  0.86529100  0.08454700  0.65126100  1
  C  C12  1  0.08454700  0.34873900  0.13470900  1
  C  C13  1  0.91545300  0.65126100  0.13470900  1
  C  C14  1  0.15126100  0.41545300  0.63470900  1
  C  C15  1  0.15126100  0.58454700  0.36529100  1
  C  C16  1  0.84873900  0.41545300  0.36529100  1
  C  C17  1  0.58454700  0.36529100  0.15126100  1
  C  C18  1  0.36529100  0.84873900  0.41545300  1
  C  C19  1  0.36529100  0.15126100  0.58454700  1
  C  C20  1  0.41545300  0.63470900  0.15126100  1
  C  C21  1  0.63470900  0.15126100  0.41545300  1
  C  C22  1  0.41545300  0.36529100  0.84873900  1
  C  C23  1  0.58454700  0.63470900  0.84873900  1
  C  C24  1  0.63470900  0.84873900  0.58454700  1
  C  C25  1  0.91545300  0.34873900  0.86529100  1
  C  C26  1  0.08454700  0.65126100  0.86529100  1
  C  C27  1  0.13470900  0.91545300  0.65126100  1
  C  C28  1  0.86529100  0.91545300  0.34873900  1
  C  C29  1  0.65126100  0.86529100  0.08454700  1
  C  C30  1  0.65126100  0.13470900  0.91545300  1
  C  C31  1  0.84873900  0.58454700  0.63470900  1
  Ni  Ni32  1  0.00000000  0.25000000  0.50000000  1
  Ni  Ni33  1  0.00000000  0.75000000  0.50000000  1
  Ni  Ni34  1  0.50000000  0.00000000  0.75000000  1
  Ni  Ni35  1  0.50000000  0.00000000  0.25000000  1
  Ni  Ni36  1  0.75000000  0.50000000  0.00000000  1
  Ni  Ni37  1  0.00000000  0.00000000  0.00000000  1
  Ni  Ni38  1  0.50000000  0.50000000  0.50000000  1
  Ni  Ni39  1  0.25000000  0.50000000  0.00000000  1
  Cu  Cu40  1  0.10013000  0.16160400  0.58928700  1
  Cu  Cu41  1  0.33839600  0.60013000  0.91071300  1
  Cu  Cu42  1  0.39987000  0.08928700  0.33839600  1
  Cu  Cu43  1  0.60013000  0.08928700  0.66160400  1
  Cu  Cu44  1  0.08928700  0.33839600  0.39987000  1
  Cu  Cu45  1  0.91071300  0.66160400  0.39987000  1
  Cu  Cu46  1  0.16160400  0.41071300  0.89987000  1
  Cu  Cu47  1  0.16160400  0.58928700  0.10013000  1
  Cu  Cu48  1  0.83839600  0.41071300  0.10013000  1
  Cu  Cu49  1  0.59251800  0.59251800  0.59251800  1
  Cu  Cu50  1  0.10013000  0.83839600  0.41071300  1
  Cu  Cu51  1  0.33839600  0.39987000  0.08928700  1
  Cu  Cu52  1  0.41071300  0.89987000  0.16160400  1
  Cu  Cu53  1  0.89987000  0.16160400  0.41071300  1
  Cu  Cu54  1  0.41071300  0.10013000  0.83839600  1
  Cu  Cu55  1  0.58928700  0.89987000  0.83839600  1
  Cu  Cu56  1  0.89987000  0.83839600  0.58928700  1
  Cu  Cu57  1  0.91071300  0.33839600  0.60013000  1
  Cu  Cu58  1  0.08928700  0.66160400  0.60013000  1
  Cu  Cu59  1  0.39987000  0.91071300  0.66160400  1
  Cu  Cu60  1  0.60013000  0.91071300  0.33839600  1
  Cu  Cu61  1  0.66160400  0.60013000  0.08928700  1
  Cu  Cu62  1  0.66160400  0.39987000  0.91071300  1
  Cu  Cu63  1  0.83839600  0.58928700  0.89987000  1
  Cu  Cu64  1  0.90748200  0.09251800  0.90748200  1
  Cu  Cu65  1  0.90748200  0.90748200  0.09251800  1
  Cu  Cu66  1  0.09251800  0.90748200  0.90748200  1
  Cu  Cu67  1  0.40748200  0.40748200  0.59251800  1
  Cu  Cu68  1  0.59251800  0.40748200  0.40748200  1
  Cu  Cu69  1  0.40748200  0.59251800  0.40748200  1
  Cu  Cu70  1  0.09251800  0.09251800  0.09251800  1
  Cu  Cu71  1  0.58928700  0.10013000  0.16160400  1
