# generated using pymatgen
data_Cu2Ni2C7
_symmetry_space_group_name_H-M   'P 1'
_cell_length_a   11.15934812
_cell_length_b   3.08317611
_cell_length_c   6.99110887
_cell_angle_alpha   116.18939803
_cell_angle_beta   146.06032694
_cell_angle_gamma   65.50917419
_symmetry_Int_Tables_number   1
_chemical_formula_structural   Cu2Ni2C7
_chemical_formula_sum   'Cu2 Ni2 C7'
_cell_volume   119.94635965
_cell_formula_units_Z   1
loop_
 _symmetry_equiv_pos_site_id
 _symmetry_equiv_pos_as_xyz
  1  'x, y, z'
loop_
 _atom_site_type_symbol
 _atom_site_label
 _atom_site_symmetry_multiplicity
 _atom_site_fract_x
 _atom_site_fract_y
 _atom_site_fract_z
 _atom_site_occupancy
  C  C0  1  0.00000000  0.00000000  0.00000000  1
  Ni  Ni1  1  0.24558200  0.30567900  0.67440100  1
  Ni  Ni2  1  0.75441800  0.69432100  0.32559900  1
  Cu  Cu3  1  0.68553500  0.77476500  0.80298600  1
  Cu  Cu4  1  0.31446500  0.22523500  0.19701400  1
  C  C5  1  0.20593300  0.56599200  0.37459000  1
  C  C6  1  0.40239000  0.89912700  0.00287000  1
  C  C7  1  0.90953100  0.34043500  0.20439400  1
  C  C8  1  0.79406700  0.43400800  0.62541000  1
  C  C9  1  0.59761000  0.10087300  0.99713000  1
  C  C10  1  0.09046900  0.65956500  0.79560600  1
