# generated using pymatgen
data_Cu2Ni2C9
_symmetry_space_group_name_H-M   'P 1'
_cell_length_a   4.92451358
_cell_length_b   5.12789957
_cell_length_c   5.95549100
_cell_angle_alpha   90.00000000
_cell_angle_beta   90.00000000
_cell_angle_gamma   87.39913230
_symmetry_Int_Tables_number   1
_chemical_formula_structural   Cu2Ni2C9
_chemical_formula_sum   'Cu2 Ni2 C9'
_cell_volume   150.23558706
_cell_formula_units_Z   1
loop_
 _symmetry_equiv_pos_site_id
 _symmetry_equiv_pos_as_xyz
  1  'x, y, z'
loop_
 _atom_site_type_symbol
 _atom_site_label
 _atom_site_symmetry_multiplicity
 _atom_site_fract_x
 _atom_site_fract_y
 _atom_site_fract_z
 _atom_site_occupancy
  C  C0  1  0.00000000  0.75000000  0.38619300  1
  Ni  Ni1  1  0.50000000  0.25000000  0.64024100  1
  Ni  Ni2  1  0.50000000  0.75000000  0.34421400  1
  Cu  Cu3  1  0.00000000  0.25000000  0.15193600  1
  Cu  Cu4  1  0.00000000  0.75000000  0.85116200  1
  C  C5  1  0.75105400  0.42496700  0.36088500  1
  C  C6  1  0.24894600  0.07503300  0.36088500  1
  C  C7  1  0.25276700  0.59457700  0.61883100  1
  C  C8  1  0.74723300  0.90542300  0.61883100  1
  C  C9  1  0.78353100  0.92385600  0.12828500  1
  C  C10  1  0.21646900  0.57614400  0.12828500  1
  C  C11  1  0.20714200  0.06141500  0.88965000  1
  C  C12  1  0.79285800  0.43858500  0.88965000  1
