# generated using pymatgen
data_CuNi3C17
_symmetry_space_group_name_H-M   'P 1'
_cell_length_a   9.49498577
_cell_length_b   9.49498541
_cell_length_c   22.72415491
_cell_angle_alpha   90.00000000
_cell_angle_beta   90.00000000
_cell_angle_gamma   120.00000123
_symmetry_Int_Tables_number   1
_chemical_formula_structural   CuNi3C17
_chemical_formula_sum   'Cu6 Ni18 C102'
_cell_volume   1774.21802601
_cell_formula_units_Z   6
loop_
 _symmetry_equiv_pos_site_id
 _symmetry_equiv_pos_as_xyz
  1  'x, y, z'
loop_
 _atom_site_type_symbol
 _atom_site_label
 _atom_site_symmetry_multiplicity
 _atom_site_fract_x
 _atom_site_fract_y
 _atom_site_fract_z
 _atom_site_occupancy
  Ni  Ni0  1  0.65828409  -0.00000000  0.25000000  1
  Ni  Ni1  1  0.34171591  0.34171591  0.25000000  1
  Ni  Ni2  1  1.00000000  0.65828409  0.25000000  1
  Ni  Ni3  1  0.65828409  0.65828409  0.75000000  1
  Ni  Ni4  1  0.00000000  0.34171591  0.75000000  1
  Ni  Ni5  1  0.34171591  0.00000000  0.75000000  1
  Ni  Ni6  1  0.32495109  0.33333300  0.58333300  1
  Ni  Ni7  1  0.00838291  0.67504891  0.58333300  1
  Ni  Ni8  1  0.66666700  0.99161709  0.58333300  1
  Ni  Ni9  1  0.32495109  0.99161709  0.08333300  1
  Ni  Ni10  1  0.66666700  0.67504891  0.08333300  1
  Ni  Ni11  1  0.00838291  0.33333300  0.08333300  1
  Ni  Ni12  1  0.99161709  0.66666700  0.91666700  1
  Ni  Ni13  1  0.67504891  0.00838291  0.91666700  1
  Ni  Ni14  1  0.33333300  0.32495109  0.91666700  1
  Ni  Ni15  1  0.99161709  0.32495109  0.41666700  1
  Ni  Ni16  1  0.33333300  0.00838291  0.41666700  1
  Ni  Ni17  1  0.67504891  0.66666700  0.41666700  1
  Cu  Cu18  1  -0.00000000  0.00000000  0.50000000  1
  Cu  Cu19  1  -0.00000000  0.00000000  -0.00000000  1
  Cu  Cu20  1  0.66666700  0.33333300  0.83333300  1
  Cu  Cu21  1  0.66666700  0.33333300  0.33333300  1
  Cu  Cu22  1  0.33333300  0.66666700  0.16666700  1
  Cu  Cu23  1  0.33333300  0.66666700  0.66666700  1
  C  C24  1  -0.00000000  0.00000000  0.35129311  1
  C  C25  1  -0.00000000  0.00000000  0.85129311  1
  C  C26  1  -0.00000000  -0.00000000  0.64870689  1
  C  C27  1  -0.00000000  0.00000000  0.14870689  1
  C  C28  1  0.66666700  0.33333300  0.68462611  1
  C  C29  1  0.66666700  0.33333300  0.18462611  1
  C  C30  1  0.66666700  0.33333300  0.98203989  1
  C  C31  1  0.66666700  0.33333300  0.48203989  1
  C  C32  1  0.33333300  0.66666700  0.01796011  1
  C  C33  1  0.33333300  0.66666700  0.51796011  1
  C  C34  1  0.33333300  0.66666700  0.31537389  1
  C  C35  1  0.33333300  0.66666700  0.81537389  1
  C  C36  1  0.29994892  -0.00000000  0.25000000  1
  C  C37  1  0.70005108  0.70005108  0.25000000  1
  C  C38  1  0.00000000  0.29994892  0.25000000  1
  C  C39  1  0.29994892  0.29994892  0.75000000  1
  C  C40  1  1.00000000  0.70005108  0.75000000  1
  C  C41  1  0.70005108  0.00000000  0.75000000  1
  C  C42  1  0.96661592  0.33333300  0.58333300  1
  C  C43  1  0.36671808  0.03338408  0.58333300  1
  C  C44  1  0.66666700  0.63328192  0.58333300  1
  C  C45  1  0.96661592  0.63328192  0.08333300  1
  C  C46  1  0.66666700  0.03338408  0.08333300  1
  C  C47  1  0.36671808  0.33333300  0.08333300  1
  C  C48  1  0.63328192  0.66666700  0.91666700  1
  C  C49  1  0.03338408  0.36671808  0.91666700  1
  C  C50  1  0.33333300  0.96661592  0.91666700  1
  C  C51  1  0.63328192  0.96661592  0.41666700  1
  C  C52  1  0.33333300  0.36671808  0.41666700  1
  C  C53  1  0.03338408  0.66666700  0.41666700  1
  C  C54  1  0.20136551  0.01940681  0.30669086  1
  C  C55  1  0.81804131  0.79863449  0.30669086  1
  C  C56  1  0.98059319  0.18195869  0.30669086  1
  C  C57  1  0.20136551  0.18195869  0.80669086  1
  C  C58  1  0.98059319  0.79863449  0.80669086  1
  C  C59  1  0.81804131  0.01940681  0.80669086  1
  C  C60  1  0.79863449  0.98059319  0.69330914  1
  C  C61  1  0.18195869  0.20136551  0.69330914  1
  C  C62  1  0.01940681  0.81804131  0.69330914  1
  C  C63  1  0.79863449  0.81804131  0.19330914  1
  C  C64  1  0.01940681  0.20136551  0.19330914  1
  C  C65  1  0.18195869  0.98059319  0.19330914  1
  C  C66  1  0.86803251  0.35273981  0.64002386  1
  C  C67  1  0.48470831  0.13196749  0.64002386  1
  C  C68  1  0.64726019  0.51529169  0.64002386  1
  C  C69  1  0.86803251  0.51529169  0.14002386  1
  C  C70  1  0.64726019  0.13196749  0.14002386  1
  C  C71  1  0.48470831  0.35273981  0.14002386  1
  C  C72  1  0.46530149  0.31392619  0.02664214  1
  C  C73  1  0.84862569  0.53469851  0.02664214  1
  C  C74  1  0.68607381  0.15137431  0.02664214  1
  C  C75  1  0.46530149  0.15137431  0.52664214  1
  C  C76  1  0.68607381  0.53469851  0.52664214  1
  C  C77  1  0.84862569  0.31392619  0.52664214  1
  C  C78  1  0.53469851  0.68607381  0.97335786  1
  C  C79  1  0.15137431  0.46530149  0.97335786  1
  C  C80  1  0.31392619  0.84862569  0.97335786  1
  C  C81  1  0.53469851  0.84862569  0.47335786  1
  C  C82  1  0.31392619  0.46530149  0.47335786  1
  C  C83  1  0.15137431  0.68607381  0.47335786  1
  C  C84  1  0.13196749  0.64726019  0.35997614  1
  C  C85  1  0.51529169  0.86803251  0.35997614  1
  C  C86  1  0.35273981  0.48470831  0.35997614  1
  C  C87  1  0.13196749  0.48470831  0.85997614  1
  C  C88  1  0.35273981  0.86803251  0.85997614  1
  C  C89  1  0.51529169  0.64726019  0.85997614  1
  C  C90  1  0.01285312  0.82857813  0.41170854  1
  C  C91  1  0.81572501  0.98714688  0.41170854  1
  C  C92  1  0.17142187  0.18427499  0.41170854  1
  C  C93  1  0.01285312  0.18427499  0.91170854  1
  C  C94  1  0.17142187  0.98714688  0.91170854  1
  C  C95  1  0.81572501  0.82857813  0.91170854  1
  C  C96  1  0.98714688  0.17142187  0.58829146  1
  C  C97  1  0.18427499  0.01285312  0.58829146  1
  C  C98  1  0.82857813  0.81572501  0.58829146  1
  C  C99  1  0.98714688  0.81572501  0.08829146  1
  C  C100  1  0.82857813  0.01285312  0.08829146  1
  C  C101  1  0.18427499  0.17142187  0.08829146  1
  C  C102  1  0.67952012  0.16191113  0.74504154  1
  C  C103  1  0.48239201  0.32047988  0.74504154  1
  C  C104  1  0.83808887  0.51760799  0.74504154  1
  C  C105  1  0.67952012  0.51760799  0.24504154  1
  C  C106  1  0.83808887  0.32047988  0.24504154  1
  C  C107  1  0.48239201  0.16191113  0.24504154  1
  C  C108  1  0.65381388  0.50475487  0.92162446  1
  C  C109  1  0.85094199  0.34618612  0.92162446  1
  C  C110  1  0.49524513  0.14905801  0.92162446  1
  C  C111  1  0.65381388  0.14905801  0.42162446  1
  C  C112  1  0.49524513  0.34618612  0.42162446  1
  C  C113  1  0.85094199  0.50475487  0.42162446  1
  C  C114  1  0.34618612  0.49524513  0.07837554  1
  C  C115  1  0.14905801  0.65381388  0.07837554  1
  C  C116  1  0.50475487  0.85094199  0.07837554  1
  C  C117  1  0.34618612  0.85094199  0.57837554  1
  C  C118  1  0.50475487  0.65381388  0.57837554  1
  C  C119  1  0.14905801  0.49524513  0.57837554  1
  C  C120  1  0.32047988  0.83808887  0.25495846  1
  C  C121  1  0.51760799  0.67952012  0.25495846  1
  C  C122  1  0.16191113  0.48239201  0.25495846  1
  C  C123  1  0.32047988  0.48239201  0.75495846  1
  C  C124  1  0.16191113  0.67952012  0.75495846  1
  C  C125  1  0.51760799  0.83808887  0.75495846  1
