# generated using pymatgen
data_Cu2NiC15
_symmetry_space_group_name_H-M   'P 1'
_cell_length_a   6.68114727
_cell_length_b   6.68114727
_cell_length_c   9.24140818
_cell_angle_alpha   70.34892215
_cell_angle_beta   70.34892215
_cell_angle_gamma   78.22796178
_symmetry_Int_Tables_number   1
_chemical_formula_structural   Cu2NiC15
_chemical_formula_sum   'Cu4 Ni2 C30'
_cell_volume   363.93556722
_cell_formula_units_Z   2
loop_
 _symmetry_equiv_pos_site_id
 _symmetry_equiv_pos_as_xyz
  1  'x, y, z'
loop_
 _atom_site_type_symbol
 _atom_site_label
 _atom_site_symmetry_multiplicity
 _atom_site_fract_x
 _atom_site_fract_y
 _atom_site_fract_z
 _atom_site_occupancy
  C  C0  1  0.12567700  0.87432300  0.75000000  1
  C  C1  1  0.87432300  0.12567700  0.25000000  1
  C  C2  1  0.00000000  0.50000000  0.50000000  1
  C  C3  1  0.50000000  0.00000000  0.00000000  1
  Ni  Ni4  1  0.52760400  0.47239600  0.75000000  1
  Ni  Ni5  1  0.47239600  0.52760400  0.25000000  1
  Cu  Cu6  1  0.71744700  0.84716100  0.67304800  1
  Cu  Cu7  1  0.15283900  0.28255300  0.82695200  1
  Cu  Cu8  1  0.84716100  0.71744700  0.17304800  1
  Cu  Cu9  1  0.28255300  0.15283900  0.32695200  1
  C  C10  1  0.50000000  0.00000000  0.50000000  1
  C  C11  1  0.00000000  0.50000000  0.00000000  1
  C  C12  1  0.69440600  0.33741200  0.91488000  1
  C  C13  1  0.66258800  0.30559400  0.58512000  1
  C  C14  1  0.33741200  0.69440600  0.41488000  1
  C  C15  1  0.30559400  0.66258800  0.08512000  1
  C  C16  1  0.52969500  0.70031400  0.74327400  1
  C  C17  1  0.56099400  0.32315300  0.89886800  1
  C  C18  1  0.70031400  0.52969500  0.24327400  1
  C  C19  1  0.47030500  0.29968600  0.25672600  1
  C  C20  1  0.29968600  0.47030500  0.75672600  1
  C  C21  1  0.67684700  0.43900600  0.60113200  1
  C  C22  1  0.97038000  0.34643300  0.97037100  1
  C  C23  1  0.65356700  0.02962000  0.52962900  1
  C  C24  1  0.02962000  0.65356700  0.02962900  1
  C  C25  1  0.34643300  0.97038000  0.47037100  1
  C  C26  1  0.43900600  0.67684700  0.10113200  1
  C  C27  1  0.73152500  0.93856200  0.11373600  1
  C  C28  1  0.93856200  0.73152500  0.61373600  1
  C  C29  1  0.26847500  0.06143800  0.88626400  1
  C  C30  1  0.93882000  0.73376400  0.29886500  1
  C  C31  1  0.26623600  0.06118000  0.20113500  1
  C  C32  1  0.06118000  0.26623600  0.70113500  1
  C  C33  1  0.73376400  0.93882000  0.79886500  1
  C  C34  1  0.32315300  0.56099400  0.39886800  1
  C  C35  1  0.06143800  0.26847500  0.38626400  1
