# generated using pymatgen
data_Cu3NiC7
_symmetry_space_group_name_H-M   'P 1'
_cell_length_a   13.13928800
_cell_length_b   13.13928800
_cell_length_c   13.13928800
_cell_angle_alpha   90.00000000
_cell_angle_beta   90.00000000
_cell_angle_gamma   90.00000000
_symmetry_Int_Tables_number   1
_chemical_formula_structural   Cu3NiC7
_chemical_formula_sum   'Cu24 Ni8 C56'
_cell_volume   2268.37836308
_cell_formula_units_Z   8
loop_
 _symmetry_equiv_pos_site_id
 _symmetry_equiv_pos_as_xyz
  1  'x, y, z'
loop_
 _atom_site_type_symbol
 _atom_site_label
 _atom_site_symmetry_multiplicity
 _atom_site_fract_x
 _atom_site_fract_y
 _atom_site_fract_z
 _atom_site_occupancy
  Ni  Ni0  1  0.18824300  0.18824300  0.18824300  1
  Ni  Ni1  1  0.81175700  0.81175700  0.18824300  1
  Ni  Ni2  1  0.18824300  0.81175700  0.81175700  1
  Ni  Ni3  1  0.81175700  0.18824300  0.81175700  1
  Ni  Ni4  1  0.31175700  0.31175700  0.31175700  1
  Ni  Ni5  1  0.68824300  0.68824300  0.31175700  1
  Ni  Ni6  1  0.31175700  0.68824300  0.68824300  1
  Ni  Ni7  1  0.68824300  0.31175700  0.68824300  1
  Cu  Cu8  1  0.88598200  0.72504700  0.78111900  1
  Cu  Cu9  1  0.78111900  0.88598200  0.72504700  1
  Cu  Cu10  1  0.72504700  0.78111900  0.88598200  1
  Cu  Cu11  1  0.27495300  0.21888100  0.88598200  1
  Cu  Cu12  1  0.78111900  0.11401800  0.27495300  1
  Cu  Cu13  1  0.27495300  0.78111900  0.11401800  1
  Cu  Cu14  1  0.21888100  0.11401800  0.72504700  1
  Cu  Cu15  1  0.21888100  0.88598200  0.27495300  1
  Cu  Cu16  1  0.72504700  0.21888100  0.11401800  1
  Cu  Cu17  1  0.88598200  0.27495300  0.21888100  1
  Cu  Cu18  1  0.11401800  0.72504700  0.21888100  1
  Cu  Cu19  1  0.11401800  0.27495300  0.78111900  1
  Cu  Cu20  1  0.61401800  0.77495300  0.71888100  1
  Cu  Cu21  1  0.71888100  0.61401800  0.77495300  1
  Cu  Cu22  1  0.77495300  0.71888100  0.61401800  1
  Cu  Cu23  1  0.22504700  0.28111900  0.61401800  1
  Cu  Cu24  1  0.71888100  0.38598200  0.22504700  1
  Cu  Cu25  1  0.22504700  0.71888100  0.38598200  1
  Cu  Cu26  1  0.28111900  0.38598200  0.77495300  1
  Cu  Cu27  1  0.28111900  0.61401800  0.22504700  1
  Cu  Cu28  1  0.77495300  0.28111900  0.38598200  1
  Cu  Cu29  1  0.61401800  0.22504700  0.28111900  1
  Cu  Cu30  1  0.38598200  0.77495300  0.28111900  1
  Cu  Cu31  1  0.38598200  0.22504700  0.71888100  1
  C  C32  1  0.88573900  0.88573900  0.88573900  1
  C  C33  1  0.11426100  0.11426100  0.88573900  1
  C  C34  1  0.88573900  0.11426100  0.11426100  1
  C  C35  1  0.11426100  0.88573900  0.11426100  1
  C  C36  1  0.61426100  0.61426100  0.61426100  1
  C  C37  1  0.38573900  0.38573900  0.61426100  1
  C  C38  1  0.61426100  0.38573900  0.38573900  1
  C  C39  1  0.38573900  0.61426100  0.38573900  1
  C  C40  1  0.93267000  0.82503000  0.62532300  1
  C  C41  1  0.62532300  0.93267000  0.82503000  1
  C  C42  1  0.82503000  0.62532300  0.93267000  1
  C  C43  1  0.17497000  0.37467700  0.93267000  1
  C  C44  1  0.62532300  0.06733000  0.17497000  1
  C  C45  1  0.17497000  0.62532300  0.06733000  1
  C  C46  1  0.37467700  0.06733000  0.82503000  1
  C  C47  1  0.37467700  0.93267000  0.17497000  1
  C  C48  1  0.82503000  0.37467700  0.06733000  1
  C  C49  1  0.93267000  0.17497000  0.37467700  1
  C  C50  1  0.06733000  0.82503000  0.37467700  1
  C  C51  1  0.06733000  0.17497000  0.62532300  1
  C  C52  1  0.56733000  0.67497000  0.87467700  1
  C  C53  1  0.87467700  0.56733000  0.67497000  1
  C  C54  1  0.67497000  0.87467700  0.56733000  1
  C  C55  1  0.32503000  0.12532300  0.56733000  1
  C  C56  1  0.87467700  0.43267000  0.32503000  1
  C  C57  1  0.32503000  0.87467700  0.43267000  1
  C  C58  1  0.12532300  0.43267000  0.67497000  1
  C  C59  1  0.12532300  0.56733000  0.32503000  1
  C  C60  1  0.67497000  0.12532300  0.43267000  1
  C  C61  1  0.56733000  0.32503000  0.12532300  1
  C  C62  1  0.43267000  0.67497000  0.12532300  1
  C  C63  1  0.43267000  0.32503000  0.87467700  1
  C  C64  1  0.06611300  0.69126500  0.82787500  1
  C  C65  1  0.82787500  0.06611300  0.69126500  1
  C  C66  1  0.69126500  0.82787500  0.06611300  1
  C  C67  1  0.30873500  0.17212500  0.06611300  1
  C  C68  1  0.82787500  0.93388700  0.30873500  1
  C  C69  1  0.30873500  0.82787500  0.93388700  1
  C  C70  1  0.17212500  0.93388700  0.69126500  1
  C  C71  1  0.17212500  0.06611300  0.30873500  1
  C  C72  1  0.69126500  0.17212500  0.93388700  1
  C  C73  1  0.06611300  0.30873500  0.17212500  1
  C  C74  1  0.93388700  0.69126500  0.17212500  1
  C  C75  1  0.93388700  0.30873500  0.82787500  1
  C  C76  1  0.43388700  0.80873500  0.67212500  1
  C  C77  1  0.67212500  0.43388700  0.80873500  1
  C  C78  1  0.80873500  0.67212500  0.43388700  1
  C  C79  1  0.19126500  0.32787500  0.43388700  1
  C  C80  1  0.67212500  0.56611300  0.19126500  1
  C  C81  1  0.19126500  0.67212500  0.56611300  1
  C  C82  1  0.32787500  0.56611300  0.80873500  1
  C  C83  1  0.32787500  0.43388700  0.19126500  1
  C  C84  1  0.80873500  0.32787500  0.56611300  1
  C  C85  1  0.43388700  0.19126500  0.32787500  1
  C  C86  1  0.56611300  0.80873500  0.32787500  1
  C  C87  1  0.56611300  0.19126500  0.67212500  1
