# generated using pymatgen
data_CuNi11C4
_symmetry_space_group_name_H-M   'P 1'
_cell_length_a   2.94497809
_cell_length_b   5.64610571
_cell_length_c   9.99932278
_cell_angle_alpha   90.00000000
_cell_angle_beta   90.00000000
_cell_angle_gamma   90.00000000
_symmetry_Int_Tables_number   1
_chemical_formula_structural   CuNi11C4
_chemical_formula_sum   'Cu1 Ni11 C4'
_cell_volume   166.26531552
_cell_formula_units_Z   1
loop_
 _symmetry_equiv_pos_site_id
 _symmetry_equiv_pos_as_xyz
  1  'x, y, z'
loop_
 _atom_site_type_symbol
 _atom_site_label
 _atom_site_symmetry_multiplicity
 _atom_site_fract_x
 _atom_site_fract_y
 _atom_site_fract_z
 _atom_site_occupancy
  Ni  Ni0  1  0.25017514  0.00000000  0.82036822  1
  Ni  Ni1  1  0.75013691  0.24367293  0.31070927  1
  Ni  Ni2  1  0.75013691  0.24367293  0.68929073  1
  Ni  Ni3  1  0.75013691  0.75632707  0.31070927  1
  Ni  Ni4  1  0.75013691  0.75632707  0.68929073  1
  Ni  Ni5  1  0.25017484  0.50000000  0.18495391  1
  Ni  Ni6  1  0.25017484  0.50000000  0.81504609  1
  Ni  Ni7  1  0.25017514  0.00000000  0.17963178  1
  Ni  Ni8  1  0.75020322  0.73991309  -0.00000000  1
  Ni  Ni9  1  0.24989985  0.00000000  0.50000000  1
  Ni  Ni10  1  0.75020322  0.26008691  -0.00000000  1
  Cu  Cu11  1  0.24998501  0.50000000  0.50000000  1
  C  C12  1  0.25025398  0.50000000  -0.00000000  1
  C  C13  1  0.75004195  0.77287436  0.50000000  1
  C  C14  1  0.75004195  0.22712564  0.50000000  1
  C  C15  1  0.25026725  0.00000000  -0.00000000  1
