# generated using pymatgen
data_Cu6NiC27
_symmetry_space_group_name_H-M   'P 1'
_cell_length_a   8.73790093
_cell_length_b   8.73790065
_cell_length_c   22.53035043
_cell_angle_alpha   90.00000000
_cell_angle_beta   90.00000000
_cell_angle_gamma   120.00000102
_symmetry_Int_Tables_number   1
_chemical_formula_structural   Cu6NiC27
_chemical_formula_sum   'Cu18 Ni3 C81'
_cell_volume   1489.74793703
_cell_formula_units_Z   3
loop_
 _symmetry_equiv_pos_site_id
 _symmetry_equiv_pos_as_xyz
  1  'x, y, z'
loop_
 _atom_site_type_symbol
 _atom_site_label
 _atom_site_symmetry_multiplicity
 _atom_site_fract_x
 _atom_site_fract_y
 _atom_site_fract_z
 _atom_site_occupancy
  C  C0  1  0.00000000  -0.00000000  0.85463441  1
  C  C1  1  0.00000000  -0.00000000  0.64022246  1
  C  C2  1  0.00000000  -0.00000000  0.14739937  1
  C  C3  1  0.66666700  0.33333300  0.97817074  1
  C  C4  1  0.66666700  0.33333300  0.47355802  1
  C  C5  1  0.33333300  0.66666700  0.02682429  1
  C  C6  1  0.33333300  0.66666700  0.52149998  1
  C  C7  1  0.33333300  0.66666700  0.30659341  1
  C  C8  1  0.33333300  0.66666700  0.80652502  1
  Ni  Ni9  1  0.00000000  -0.00000000  0.35384991  1
  Ni  Ni10  1  0.66666700  0.33333300  0.68755830  1
  Ni  Ni11  1  0.66666700  0.33333300  0.19169479  1
  Cu  Cu12  1  0.29205462  0.01046024  0.25204772  1
  Cu  Cu13  1  0.71840563  0.70794538  0.25204772  1
  Cu  Cu14  1  0.98953976  0.28159437  0.25204772  1
  Cu  Cu15  1  0.29371230  0.28407251  0.74816329  1
  Cu  Cu16  1  0.99036020  0.70628770  0.74816329  1
  Cu  Cu17  1  0.71592750  0.00963980  0.74816329  1
  Cu  Cu18  1  0.94833905  0.33716936  0.58483831  1
  Cu  Cu19  1  0.38883132  0.05166095  0.58483831  1
  Cu  Cu20  1  0.66283064  0.61116868  0.58483831  1
  Cu  Cu21  1  0.94695892  0.61661114  0.08610035  1
  Cu  Cu22  1  0.66965322  0.05304108  0.08610035  1
  Cu  Cu23  1  0.38338886  0.33034678  0.08610035  1
  Cu  Cu24  1  0.61747625  0.66665848  0.91647193  1
  Cu  Cu25  1  0.04918123  0.38252375  0.91647193  1
  Cu  Cu26  1  0.33334152  0.95081877  0.91647193  1
  Cu  Cu27  1  0.62697468  0.95074919  0.41475097  1
  Cu  Cu28  1  0.32377351  0.37302532  0.41475097  1
  Cu  Cu29  1  0.04925081  0.67622649  0.41475097  1
  C  C30  1  0.20350889  0.03426960  0.30601386  1
  C  C31  1  0.83076071  0.79649111  0.30601386  1
  C  C32  1  0.96573040  0.16923929  0.30601386  1
  C  C33  1  0.19933159  0.17047913  0.80454477  1
  C  C34  1  0.97114754  0.80066841  0.80454477  1
  C  C35  1  0.82952087  0.02885246  0.80454477  1
  C  C36  1  0.79968395  0.96829839  0.69489631  1
  C  C37  1  0.16861443  0.20031605  0.69489631  1
  C  C38  1  0.03170161  0.83138557  0.69489631  1
  C  C39  1  0.80086254  0.83109322  0.19529408  1
  C  C40  1  0.03023068  0.19913746  0.19529408  1
  C  C41  1  0.16890678  0.96976932  0.19529408  1
  C  C42  1  0.87139919  0.36860615  0.64027956  1
  C  C43  1  0.49720796  0.12860081  0.64027956  1
  C  C44  1  0.63139385  0.50279204  0.64027956  1
  C  C45  1  0.86944060  0.49997409  0.13914281  1
  C  C46  1  0.63053449  0.13055940  0.13914281  1
  C  C47  1  0.50002591  0.36946551  0.13914281  1
  C  C48  1  0.46815368  0.30474338  0.02817969  1
  C  C49  1  0.83659071  0.53184632  0.02817969  1
  C  C50  1  0.69525662  0.16340929  0.02817969  1
  C  C51  1  0.46684538  0.16509925  0.52867332  1
  C  C52  1  0.69825487  0.53315462  0.52867332  1
  C  C53  1  0.83490075  0.30174513  0.52867332  1
  C  C54  1  0.53362099  0.69761473  0.97172122  1
  C  C55  1  0.16399274  0.46637901  0.97172122  1
  C  C56  1  0.30238527  0.83600726  0.97172122  1
  C  C57  1  0.53272740  0.83722314  0.47118272  1
  C  C58  1  0.30449474  0.46727260  0.47118272  1
  C  C59  1  0.16277686  0.69550526  0.47118272  1
  C  C60  1  0.13313858  0.63458014  0.36142337  1
  C  C61  1  0.50144056  0.86686142  0.36142337  1
  C  C62  1  0.36541986  0.49855944  0.36142337  1
  C  C63  1  0.13378784  0.49752960  0.86137047  1
  C  C64  1  0.36374076  0.86621216  0.86137047  1
  C  C65  1  0.50247040  0.63625924  0.86137047  1
  C  C66  1  0.02609416  0.83382063  0.40768062  1
  C  C67  1  0.80772647  0.97390584  0.40768062  1
  C  C68  1  0.16617937  0.19227353  0.40768062  1
  C  C69  1  0.02681074  0.19744505  0.90679682  1
  C  C70  1  0.17063431  0.97318926  0.90679682  1
  C  C71  1  0.80255495  0.82936569  0.90679682  1
  C  C72  1  0.97241703  0.17170555  0.59335665  1
  C  C73  1  0.19928852  0.02758297  0.59335665  1
  C  C74  1  0.82829445  0.80071148  0.59335665  1
  C  C75  1  0.97368532  0.80362845  0.09149426  1
  C  C76  1  0.82994313  0.02631468  0.09149426  1
  C  C77  1  0.19637155  0.17005687  0.09149426  1
  C  C78  1  0.69288570  0.16756611  0.74129956  1
  C  C79  1  0.47468141  0.30711430  0.74129956  1
  C  C80  1  0.83243389  0.52531859  0.74129956  1
  C  C81  1  0.69169524  0.52729617  0.23968669  1
  C  C82  1  0.83560193  0.30830476  0.23968669  1
  C  C83  1  0.47270383  0.16439807  0.23968669  1
  C  C84  1  0.63989582  0.50422844  0.92587979  1
  C  C85  1  0.86433362  0.36010418  0.92587979  1
  C  C86  1  0.49577156  0.13566638  0.92587979  1
  C  C87  1  0.63864866  0.13348422  0.42688148  1
  C  C88  1  0.49483656  0.36135134  0.42688148  1
  C  C89  1  0.86651578  0.50516344  0.42688148  1
  C  C90  1  0.36005439  0.49442734  0.07274930  1
  C  C91  1  0.13437195  0.63994561  0.07274930  1
  C  C92  1  0.50557266  0.86562805  0.07274930  1
  C  C93  1  0.35849180  0.86366741  0.57350293  1
  C  C94  1  0.50517461  0.64150820  0.57350293  1
  C  C95  1  0.13633259  0.49482539  0.57350293  1
  C  C96  1  0.30506470  0.83795056  0.25938740  1
  C  C97  1  0.53288486  0.69493530  0.25938740  1
  C  C98  1  0.16204944  0.46711514  0.25938740  1
  C  C99  1  0.30543523  0.46682255  0.76001288  1
  C  C100  1  0.16138632  0.69456477  0.76001288  1
  C  C101  1  0.53317745  0.83861368  0.76001288  1
