# generated using pymatgen
data_Cu5Ni7C62
_symmetry_space_group_name_H-M   'P 1'
_cell_length_a   17.58323734
_cell_length_b   8.76322713
_cell_length_c   22.47792933
_cell_angle_alpha   89.97935084
_cell_angle_beta   89.97521216
_cell_angle_gamma   119.91872333
_symmetry_Int_Tables_number   1
_chemical_formula_structural   Cu5Ni7C62
_chemical_formula_sum   'Cu15 Ni21 C186'
_cell_volume   3001.95934778
_cell_formula_units_Z   3
loop_
 _symmetry_equiv_pos_site_id
 _symmetry_equiv_pos_as_xyz
  1  'x, y, z'
loop_
 _atom_site_type_symbol
 _atom_site_label
 _atom_site_symmetry_multiplicity
 _atom_site_fract_x
 _atom_site_fract_y
 _atom_site_fract_z
 _atom_site_occupancy
  C  C0  1  0.00036154  0.63210721  0.25103481  1
  C  C1  1  0.49809331  0.63937388  0.24741405  1
  C  C2  1  0.99940673  0.35781536  0.75068052  1
  C  C3  1  0.50032689  0.37005385  0.75184403  1
  C  C4  1  0.66516867  0.30545391  0.91713040  1
  C  C5  1  0.16552682  0.02702997  0.41548955  1
  C  C6  1  0.99826169  0.99404518  0.50170945  1
  C  C7  1  0.49714183  0.99558459  0.49744655  1
  C  C8  1  0.99744440  0.99877468  0.99845562  1
  C  C9  1  0.49786714  0.99968125  0.00375620  1
  C  C10  1  0.33202525  0.33451300  0.83375859  1
  C  C11  1  0.83369256  0.33159719  0.83478242  1
  C  C12  1  0.33278046  0.33501239  0.33109408  1
  C  C13  1  0.83180923  0.32764380  0.33096211  1
  C  C14  1  0.17195573  0.66924044  0.16865244  1
  C  C15  1  0.66930086  0.66756931  0.16289575  1
  C  C16  1  0.17238209  0.67515623  0.66569515  1
  C  C17  1  0.67083148  0.67379066  0.66983910  1
  C  C18  1  0.99923229  0.99305991  0.34682887  1
  C  C19  1  0.49629565  0.97375777  0.35375300  1
  C  C20  1  0.99628494  0.01904072  0.85576014  1
  C  C21  1  0.49872772  0.00485709  0.84827616  1
  C  C22  1  0.99882201  0.00285454  0.64512590  1
  C  C23  1  0.49730400  0.99318960  0.65415023  1
  C  C24  1  0.99848636  0.00236399  0.15391707  1
  C  C25  1  0.49679272  0.98189191  0.14031783  1
  C  C26  1  0.32490469  0.32082962  0.69280143  1
  C  C27  1  0.82445297  0.33127941  0.68888003  1
  C  C28  1  0.33218967  0.32769605  0.18501467  1
  C  C29  1  0.82463984  0.32749796  0.19200133  1
  C  C30  1  0.34521722  0.33603133  0.98286469  1
  C  C31  1  0.83228016  0.33890658  0.97779943  1
  C  C32  1  0.33257763  0.32641793  0.47721645  1
  C  C33  1  0.83983968  0.35706882  0.47985687  1
  C  C34  1  0.16607195  0.66568981  0.02078764  1
  C  C35  1  0.66402713  0.64254678  0.02174510  1
  C  C36  1  0.17084409  0.69365029  0.51799934  1
  C  C37  1  0.66582909  0.66711417  0.51972573  1
  C  C38  1  0.16795156  0.67847890  0.30832421  1
  C  C39  1  0.66429521  0.67353636  0.30941022  1
  C  C40  1  0.16729415  0.65704132  0.81267809  1
  C  C41  1  0.66786307  0.65782113  0.81090245  1
  Ni  Ni42  1  0.14812268  0.00967924  0.24904196  1
  Ni  Ni43  1  0.64140352  0.00521859  0.24995667  1
  Ni  Ni44  1  0.35360425  0.70928798  0.24775408  1
  Ni  Ni45  1  0.85204022  0.71045160  0.24967523  1
  Ni  Ni46  1  0.99973417  0.28932365  0.25109128  1
  Ni  Ni47  1  0.14166885  0.28055126  0.75073042  1
  Ni  Ni48  1  0.64422278  0.28606336  0.74986671  1
  Ni  Ni49  1  0.50012611  0.71049158  0.75141258  1
  Ni  Ni50  1  0.35169866  0.99259123  0.75026321  1
  Ni  Ni51  1  0.85358697  0.99637724  0.74838451  1
  Ni  Ni52  1  0.18888674  0.04836276  0.58383151  1
  Ni  Ni53  1  0.83243339  0.62740653  0.58465572  1
  Ni  Ni54  1  0.48029375  0.61995772  0.08398314  1
  Ni  Ni55  1  0.33237496  0.03978523  0.08428404  1
  Ni  Ni56  1  0.68900169  0.32908238  0.08393444  1
  Ni  Ni57  1  0.81292195  0.67509018  0.91716668  1
  Ni  Ni58  1  0.02249371  0.38274966  0.91779081  1
  Ni  Ni59  1  0.51989270  0.37466377  0.91503892  1
  Ni  Ni60  1  0.31489774  0.95518513  0.41473083  1
  Ni  Ni61  1  0.02151667  0.66704436  0.41494367  1
  Ni  Ni62  1  0.52238249  0.66431650  0.41718802  1
  Cu  Cu63  1  0.50013713  0.28374277  0.25003825  1
  Cu  Cu64  1  0.00031554  0.71485710  0.75035450  1
  Cu  Cu65  1  0.47810744  0.33221600  0.58285707  1
  Cu  Cu66  1  0.97813318  0.33513979  0.58324034  1
  Cu  Cu67  1  0.68832612  0.04531233  0.58216932  1
  Cu  Cu68  1  0.33363809  0.62160187  0.58305124  1
  Cu  Cu69  1  0.97791358  0.62383023  0.08292953  1
  Cu  Cu70  1  0.83428071  0.04621256  0.08309689  1
  Cu  Cu71  1  0.18805849  0.33065865  0.08190165  1
  Cu  Cu72  1  0.31060575  0.66526357  0.91737319  1
  Cu  Cu73  1  0.16679525  0.95525494  0.91639256  1
  Cu  Cu74  1  0.66563901  0.95032583  0.91774326  1
  Cu  Cu75  1  0.81055929  0.95557953  0.41725430  1
  Cu  Cu76  1  0.16568596  0.38116504  0.41753350  1
  Cu  Cu77  1  0.66691612  0.37912597  0.41685697  1
  C  C78  1  0.10154613  0.03333002  0.30951442  1
  C  C79  1  0.59898210  0.03564288  0.30994562  1
  C  C80  1  0.41840802  0.79884117  0.30688500  1
  C  C81  1  0.91770410  0.79758738  0.30714748  1
  C  C82  1  0.48663604  0.18120612  0.30517389  1
  C  C83  1  0.98285646  0.16142359  0.30877819  1
  C  C84  1  0.09791291  0.16035547  0.80899704  1
  C  C85  1  0.60231630  0.16873021  0.80970871  1
  C  C86  1  0.48279677  0.80476403  0.80842934  1
  C  C87  1  0.98465262  0.78776876  0.80357271  1
  C  C88  1  0.41816711  0.03810364  0.80691524  1
  C  C89  1  0.91927020  0.04141915  0.80628556  1
  C  C90  1  0.39911801  0.96406280  0.69181278  1
  C  C91  1  0.90287211  0.96842366  0.69128234  1
  C  C92  1  0.07905986  0.19803817  0.69250959  1
  C  C93  1  0.58090606  0.19648162  0.69190769  1
  C  C94  1  0.01502103  0.81989709  0.69570577  1
  C  C95  1  0.51594871  0.83611756  0.69225981  1
  C  C96  1  0.40146607  0.83775291  0.19203981  1
  C  C97  1  0.89924023  0.83476954  0.19173414  1
  C  C98  1  0.01635722  0.19635153  0.19253066  1
  C  C99  1  0.51580309  0.21323785  0.19702118  1
  C  C100  1  0.08040437  0.96431300  0.19267680  1
  C  C101  1  0.57927708  0.95754709  0.19288770  1
  C  C102  1  0.44199054  0.36495737  0.63734155  1
  C  C103  1  0.93836040  0.36160505  0.63749185  1
  C  C104  1  0.25366575  0.14355808  0.64047772  1
  C  C105  1  0.74279122  0.12292867  0.63680926  1
  C  C106  1  0.32159422  0.51538351  0.63683979  1
  C  C107  1  0.81792412  0.49374180  0.64026883  1
  C  C108  1  0.43227429  0.49910848  0.14290597  1
  C  C109  1  0.94197671  0.51917485  0.13742076  1
  C  C110  1  0.31404615  0.13440881  0.14103968  1
  C  C111  1  0.82282157  0.13044282  0.13693606  1
  C  C112  1  0.24174942  0.36290097  0.13641541  1
  C  C113  1  0.75450559  0.36291415  0.14047869  1
  C  C114  1  0.22851043  0.30581252  0.02840210  1
  C  C115  1  0.73753472  0.30518971  0.02437792  1
  C  C116  1  0.41548313  0.52817814  0.02599970  1
  C  C117  1  0.92317384  0.53819520  0.02969122  1
  C  C118  1  0.34557833  0.16442981  0.02584877  1
  C  C119  1  0.84891387  0.15710394  0.02919920  1
  C  C120  1  0.23635084  0.16749296  0.52417843  1
  C  C121  1  0.73133196  0.15356968  0.52908767  1
  C  C122  1  0.34796238  0.54100763  0.52912767  1
  C  C123  1  0.84644124  0.52594724  0.52647908  1
  C  C124  1  0.42294968  0.30805804  0.52965148  1
  C  C125  1  0.92132834  0.30631159  0.52980489  1
  C  C126  1  0.26938806  0.69520269  0.97066622  1
  C  C127  1  0.76554562  0.70146719  0.97497173  1
  C  C128  1  0.08735499  0.48187423  0.97424673  1
  C  C129  1  0.58416915  0.46632310  0.97271817  1
  C  C130  1  0.15471241  0.84371244  0.97028680  1
  C  C131  1  0.65303096  0.84796337  0.97093780  1
  C  C132  1  0.26689037  0.83437365  0.47437853  1
  C  C133  1  0.76887104  0.84290352  0.47135696  1
  C  C134  1  0.15319052  0.46030546  0.47208567  1
  C  C135  1  0.65576180  0.46609636  0.47101812  1
  C  C136  1  0.08450782  0.69767898  0.47364233  1
  C  C137  1  0.58711069  0.69191881  0.47443341  1
  C  C138  1  0.06366418  0.63171450  0.35655058  1
  C  C139  1  0.56904735  0.63461371  0.35863572  1
  C  C140  1  0.24605079  0.86550084  0.36024808  1
  C  C141  1  0.75597676  0.87305526  0.36379790  1
  C  C142  1  0.18100110  0.48574588  0.36398071  1
  C  C143  1  0.68406842  0.48959647  0.36380591  1
  C  C144  1  0.06877499  0.50201071  0.85794657  1
  C  C145  1  0.56520025  0.49510156  0.85615650  1
  C  C146  1  0.18190198  0.87302765  0.86298563  1
  C  C147  1  0.68113692  0.87654085  0.86294057  1
  C  C148  1  0.25563918  0.64144967  0.86314599  1
  C  C149  1  0.74721593  0.62904313  0.85975848  1
  C  C150  1  0.01331668  0.84566801  0.41204858  1
  C  C151  1  0.51557035  0.84237399  0.41189839  1
  C  C152  1  0.41304691  0.98677220  0.40871895  1
  C  C153  1  0.89827243  0.97336154  0.41222430  1
  C  C154  1  0.08817827  0.19909884  0.41293262  1
  C  C155  1  0.58801268  0.20541929  0.41235904  1
  C  C156  1  0.01565967  0.19061103  0.91147563  1
  C  C157  1  0.51371142  0.18106532  0.91013655  1
  C  C158  1  0.08644445  0.96664956  0.91108925  1
  C  C159  1  0.58821420  0.97788913  0.91171053  1
  C  C160  1  0.39796222  0.82333026  0.91119342  1
  C  C161  1  0.91181985  0.83779872  0.90718006  1
  C  C162  1  0.48811149  0.17427175  0.58707726  1
  C  C163  1  0.98497661  0.17322823  0.58729297  1
  C  C164  1  0.09166672  0.02451021  0.59220225  1
  C  C165  1  0.60033841  0.02663200  0.58814206  1
  C  C166  1  0.41320207  0.80167232  0.58807692  1
  C  C167  1  0.91995195  0.81691926  0.59077328  1
  C  C168  1  0.48601787  0.81020037  0.08827800  1
  C  C169  1  0.98802268  0.80172953  0.08714675  1
  C  C170  1  0.41924625  0.02576666  0.09068967  1
  C  C171  1  0.91471176  0.02788855  0.08835464  1
  C  C172  1  0.09918428  0.17379958  0.08847163  1
  C  C173  1  0.59254358  0.16169420  0.09183862  1
  C  C174  1  0.34944143  0.17526991  0.74204159  1
  C  C175  1  0.85078327  0.18116532  0.73848870  1
  C  C176  1  0.24057446  0.31342761  0.74259597  1
  C  C177  1  0.74160127  0.30689393  0.74247956  1
  C  C178  1  0.41543886  0.51600824  0.73929385  1
  C  C179  1  0.92276298  0.53003733  0.74253754  1
  C  C180  1  0.34909269  0.51858778  0.24238610  1
  C  C181  1  0.84943589  0.52310885  0.24227518  1
  C  C182  1  0.42270399  0.31288373  0.24569095  1
  C  C183  1  0.91575992  0.31584929  0.24007142  1
  C  C184  1  0.24399784  0.18008573  0.24275656  1
  C  C185  1  0.74119847  0.16853035  0.24352782  1
  C  C186  1  0.31576017  0.50354886  0.92252358  1
  C  C187  1  0.81882149  0.49090974  0.92520569  1
  C  C188  1  0.42253876  0.35598164  0.92237666  1
  C  C189  1  0.92473145  0.35533797  0.92672031  1
  C  C190  1  0.24464582  0.13253419  0.92325025  1
  C  C191  1  0.74559218  0.13477889  0.92228595  1
  C  C192  1  0.31880738  0.14706811  0.42564099  1
  C  C193  1  0.81761908  0.13032132  0.42513447  1
  C  C194  1  0.24556232  0.35716566  0.42335209  1
  C  C195  1  0.74610499  0.35684854  0.42519421  1
  C  C196  1  0.42513007  0.49474745  0.42785534  1
  C  C197  1  0.92381826  0.48864215  0.42557291  1
  C  C198  1  0.17936394  0.49329188  0.07609524  1
  C  C199  1  0.68293346  0.50903602  0.07755717  1
  C  C200  1  0.06767666  0.64300477  0.07511470  1
  C  C201  1  0.57751482  0.64726067  0.07450647  1
  C  C202  1  0.24429632  0.84581795  0.07209294  1
  C  C203  1  0.75529645  0.87212458  0.07741727  1
  C  C204  1  0.17935089  0.85054879  0.57695998  1
  C  C205  1  0.68028133  0.86692296  0.57655016  1
  C  C206  1  0.25311202  0.63706503  0.57698370  1
  C  C207  1  0.74425632  0.64206238  0.57273550  1
  C  C208  1  0.06672110  0.49025776  0.57611933  1
  C  C209  1  0.56797483  0.49263543  0.57485473  1
  C  C210  1  0.15106450  0.82718912  0.25542761  1
  C  C211  1  0.65209650  0.82653983  0.25987362  1
  C  C212  1  0.25809735  0.68787071  0.25976718  1
  C  C213  1  0.75575820  0.68640854  0.26105039  1
  C  C214  1  0.08586503  0.48265338  0.25769916  1
  C  C215  1  0.57950448  0.46942069  0.25710813  1
  C  C216  1  0.15131760  0.47889508  0.75882671  1
  C  C217  1  0.65195199  0.47747223  0.75486824  1
  C  C218  1  0.07888893  0.68981545  0.75545378  1
  C  C219  1  0.58589945  0.68827370  0.75721559  1
  C  C220  1  0.25503581  0.82450714  0.76015556  1
  C  C221  1  0.75776136  0.82933953  0.75834683  1
