# generated using pymatgen
data_Cu8Ni2C3
_symmetry_space_group_name_H-M   'P 1'
_cell_length_a   8.79533915
_cell_length_b   6.16857256
_cell_length_c   7.93413251
_cell_angle_alpha   83.05730796
_cell_angle_beta   91.41887530
_cell_angle_gamma   80.12952680
_symmetry_Int_Tables_number   1
_chemical_formula_structural   Cu8Ni2C3
_chemical_formula_sum   'Cu8 Ni2 C3'
_cell_volume   420.52692222
_cell_formula_units_Z   1
loop_
 _symmetry_equiv_pos_site_id
 _symmetry_equiv_pos_as_xyz
  1  'x, y, z'
loop_
 _atom_site_type_symbol
 _atom_site_label
 _atom_site_symmetry_multiplicity
 _atom_site_fract_x
 _atom_site_fract_y
 _atom_site_fract_z
 _atom_site_occupancy
  C  C0  1  0.99431680  0.49987572  0.98755399  1
  C  C1  1  0.22062411  0.84175605  0.78141425  1
  C  C2  1  0.77502552  0.15921911  0.20424795  1
  Ni  Ni3  1  0.26698071  0.63789724  0.02263257  1
  Ni  Ni4  1  0.72177353  0.36239887  0.96322612  1
  Cu  Cu5  1  0.09524452  0.21308417  0.78207222  1
  Cu  Cu6  1  0.04653168  0.22450212  0.23665513  1
  Cu  Cu7  1  0.27669102  0.64982806  0.55707541  1
  Cu  Cu8  1  0.44691254  0.97689269  0.75430518  1
  Cu  Cu9  1  0.54838510  0.02828680  0.24516698  1
  Cu  Cu10  1  0.72849411  0.35328105  0.42903218  1
  Cu  Cu11  1  0.95018460  0.77512082  0.73970732  1
  Cu  Cu12  1  0.89550276  0.78785730  0.19534870  1
