# generated using pymatgen
data_CuNi5C57
_symmetry_space_group_name_H-M   'P 1'
_cell_length_a   9.03208353
_cell_length_b   9.03208322
_cell_length_c   21.97570379
_cell_angle_alpha   90.00000000
_cell_angle_beta   90.00000000
_cell_angle_gamma   120.00000116
_symmetry_Int_Tables_number   1
_chemical_formula_structural   CuNi5C57
_chemical_formula_sum   'Cu2 Ni10 C114'
_cell_volume   1552.56322594
_cell_formula_units_Z   2
loop_
 _symmetry_equiv_pos_site_id
 _symmetry_equiv_pos_as_xyz
  1  'x, y, z'
loop_
 _atom_site_type_symbol
 _atom_site_label
 _atom_site_symmetry_multiplicity
 _atom_site_fract_x
 _atom_site_fract_y
 _atom_site_fract_z
 _atom_site_occupancy
  C  C0  1  0.63494948  0.99945174  0.25029840  1
  C  C1  1  0.36450226  0.36505052  0.25029840  1
  C  C2  1  0.00054826  0.63549774  0.25029840  1
  C  C3  1  0.63494948  0.63549774  0.75029840  1
  C  C4  1  0.00054826  0.36505052  0.75029840  1
  C  C5  1  0.36450226  0.99945174  0.75029840  1
  C  C6  1  0.29356801  0.33407474  0.58899950  1
  C  C7  1  0.04050774  0.70643199  0.58899950  1
  C  C8  1  0.66592526  0.95949226  0.58899950  1
  C  C9  1  0.29356801  0.95949226  0.08899950  1
  C  C10  1  0.66592526  0.70643199  0.08899950  1
  C  C11  1  0.04050774  0.33407474  0.08899950  1
  C  C12  1  0.98283686  0.68279530  0.90602664  1
  C  C13  1  0.69995744  0.01716314  0.90602664  1
  C  C14  1  0.31720470  0.30004256  0.90602664  1
  C  C15  1  0.98283686  0.30004256  0.40602664  1
  C  C16  1  0.31720470  0.01716314  0.40602664  1
  C  C17  1  0.69995744  0.68279530  0.40602664  1
  C  C18  1  -0.00000000  -0.00000000  0.49974237  1
  C  C19  1  -0.00000000  -0.00000000  0.99974237  1
  C  C20  1  0.66666700  0.33333300  0.82173937  1
  C  C21  1  0.66666700  0.33333300  0.32173937  1
  C  C22  1  0.33333300  0.66666700  0.17165503  1
  C  C23  1  0.33333300  0.66666700  0.67165503  1
  Ni  Ni24  1  -0.00000000  -0.00000000  0.34572859  1
  Ni  Ni25  1  -0.00000000  -0.00000000  0.84572859  1
  Ni  Ni26  1  -0.00000000  -0.00000000  0.65293186  1
  Ni  Ni27  1  -0.00000000  -0.00000000  0.15293186  1
  Ni  Ni28  1  0.66666700  0.33333300  0.68477158  1
  Ni  Ni29  1  0.66666700  0.33333300  0.18477158  1
  Ni  Ni30  1  0.33333300  0.66666700  0.01674188  1
  Ni  Ni31  1  0.33333300  0.66666700  0.51674188  1
  Ni  Ni32  1  0.33333300  0.66666700  0.31623532  1
  Ni  Ni33  1  0.33333300  0.66666700  0.81623532  1
  Cu  Cu34  1  0.66666700  0.33333300  0.98174567  1
  Cu  Cu35  1  0.66666700  0.33333300  0.48174567  1
  C  C36  1  0.29723645  0.99876730  0.24967202  1
  C  C37  1  0.70153085  0.70276355  0.24967202  1
  C  C38  1  0.00123270  0.29846915  0.24967202  1
  C  C39  1  0.29723645  0.29846915  0.74967202  1
  C  C40  1  0.00123270  0.70276355  0.74967202  1
  C  C41  1  0.70153085  0.99876730  0.74967202  1
  C  C42  1  0.96303555  0.33549964  0.58519023  1
  C  C43  1  0.37246509  0.03696445  0.58519023  1
  C  C44  1  0.66450036  0.62753491  0.58519023  1
  C  C45  1  0.96303555  0.62753491  0.08519023  1
  C  C46  1  0.66450036  0.03696445  0.08519023  1
  C  C47  1  0.37246509  0.33549964  0.08519023  1
  C  C48  1  0.62864308  0.66661926  0.91848006  1
  C  C49  1  0.03797518  0.37135692  0.91848006  1
  C  C50  1  0.33338074  0.96202482  0.91848006  1
  C  C51  1  0.62864308  0.96202482  0.41848006  1
  C  C52  1  0.33338074  0.37135692  0.41848006  1
  C  C53  1  0.03797518  0.66661926  0.41848006  1
  C  C54  1  0.21338975  0.02443517  0.30715379  1
  C  C55  1  0.81104542  0.78661025  0.30715379  1
  C  C56  1  0.97556483  0.18895458  0.30715379  1
  C  C57  1  0.21338975  0.18895458  0.80715379  1
  C  C58  1  0.97556483  0.78661025  0.80715379  1
  C  C59  1  0.81104542  0.02443517  0.80715379  1
  C  C60  1  0.78514014  0.97282214  0.69230287  1
  C  C61  1  0.18768199  0.21485986  0.69230287  1
  C  C62  1  0.02717786  0.81231801  0.69230287  1
  C  C63  1  0.78514014  0.81231801  0.19230287  1
  C  C64  1  0.02717786  0.21485986  0.19230287  1
  C  C65  1  0.18768199  0.97282214  0.19230287  1
  C  C66  1  0.87695627  0.36040690  0.64060857  1
  C  C67  1  0.48345164  0.12304373  0.64060857  1
  C  C68  1  0.63959310  0.51654836  0.64060857  1
  C  C69  1  0.87695627  0.51654836  0.14060857  1
  C  C70  1  0.63959310  0.12304373  0.14060857  1
  C  C71  1  0.48345164  0.36040690  0.14060857  1
  C  C72  1  0.47476628  0.31818984  0.02776487  1
  C  C73  1  0.84342455  0.52523372  0.02776487  1
  C  C74  1  0.68181016  0.15657545  0.02776487  1
  C  C75  1  0.47476628  0.15657545  0.52776487  1
  C  C76  1  0.68181016  0.52523372  0.52776487  1
  C  C77  1  0.84342455  0.31818984  0.52776487  1
  C  C78  1  0.54722124  0.69044120  0.97556950  1
  C  C79  1  0.14321896  0.45277876  0.97556950  1
  C  C80  1  0.30955880  0.85678104  0.97556950  1
  C  C81  1  0.54722124  0.85678104  0.47556950  1
  C  C82  1  0.30955880  0.45277876  0.47556950  1
  C  C83  1  0.14321896  0.69044120  0.47556950  1
  C  C84  1  0.11016677  0.62632823  0.36178910  1
  C  C85  1  0.51616046  0.88983323  0.36178910  1
  C  C86  1  0.37367177  0.48383954  0.36178910  1
  C  C87  1  0.11016677  0.48383954  0.86178910  1
  C  C88  1  0.37367177  0.88983323  0.86178910  1
  C  C89  1  0.51616046  0.62632823  0.86178910  1
  C  C90  1  0.00755939  0.82001761  0.41268255  1
  C  C91  1  0.81245822  0.99244061  0.41268255  1
  C  C92  1  0.17998239  0.18754178  0.41268255  1
  C  C93  1  0.00755939  0.18754178  0.91268255  1
  C  C94  1  0.17998239  0.99244061  0.91268255  1
  C  C95  1  0.81245822  0.82001761  0.91268255  1
  C  C96  1  0.97049612  0.16914720  0.58333381  1
  C  C97  1  0.19865108  0.02950388  0.58333381  1
  C  C98  1  0.83085280  0.80134892  0.58333381  1
  C  C99  1  0.97049612  0.80134892  0.08333381  1
  C  C100  1  0.83085280  0.02950388  0.08333381  1
  C  C101  1  0.19865108  0.16914720  0.08333381  1
  C  C102  1  0.68251784  0.16071362  0.74564762  1
  C  C103  1  0.47819677  0.31748216  0.74564762  1
  C  C104  1  0.83928638  0.52180323  0.74564762  1
  C  C105  1  0.68251784  0.52180323  0.24564762  1
  C  C106  1  0.83928638  0.31748216  0.24564762  1
  C  C107  1  0.47819677  0.16071362  0.24564762  1
  C  C108  1  0.64970708  0.49982760  0.92529890  1
  C  C109  1  0.85012151  0.35029292  0.92529890  1
  C  C110  1  0.50017240  0.14987849  0.92529890  1
  C  C111  1  0.64970708  0.14987849  0.42529890  1
  C  C112  1  0.50017240  0.35029292  0.42529890  1
  C  C113  1  0.85012151  0.49982760  0.42529890  1
  C  C114  1  0.35467846  0.49488894  0.07730284  1
  C  C115  1  0.14020948  0.64532154  0.07730284  1
  C  C116  1  0.50511106  0.85979052  0.07730284  1
  C  C117  1  0.35467846  0.85979052  0.57730284  1
  C  C118  1  0.50511106  0.64532154  0.57730284  1
  C  C119  1  0.14020948  0.49488894  0.57730284  1
  C  C120  1  0.31633582  0.83724905  0.25478152  1
  C  C121  1  0.52091223  0.68366418  0.25478152  1
  C  C122  1  0.16275095  0.47908777  0.25478152  1
  C  C123  1  0.31633582  0.47908777  0.75478152  1
  C  C124  1  0.16275095  0.68366418  0.75478152  1
  C  C125  1  0.52091223  0.83724905  0.75478152  1
