# generated using pymatgen
data_CuNiC3
_symmetry_space_group_name_H-M   'P 1'
_cell_length_a   5.60066800
_cell_length_b   5.81582500
_cell_length_c   8.02309500
_cell_angle_alpha   90.00000000
_cell_angle_beta   90.00000000
_cell_angle_gamma   90.00000000
_symmetry_Int_Tables_number   1
_chemical_formula_structural   CuNiC3
_chemical_formula_sum   'Cu4 Ni4 C12'
_cell_volume   261.33230177
_cell_formula_units_Z   4
loop_
 _symmetry_equiv_pos_site_id
 _symmetry_equiv_pos_as_xyz
  1  'x, y, z'
loop_
 _atom_site_type_symbol
 _atom_site_label
 _atom_site_symmetry_multiplicity
 _atom_site_fract_x
 _atom_site_fract_y
 _atom_site_fract_z
 _atom_site_occupancy
  Ni  Ni0  1  0.98551500  0.05552300  0.75000000  1
  Ni  Ni1  1  0.48551500  0.44447700  0.25000000  1
  Ni  Ni2  1  0.51448500  0.55552300  0.75000000  1
  Ni  Ni3  1  0.01448500  0.94447700  0.25000000  1
  Cu  Cu4  1  0.00000000  0.50000000  0.50000000  1
  Cu  Cu5  1  0.50000000  0.00000000  0.50000000  1
  Cu  Cu6  1  0.50000000  0.00000000  0.00000000  1
  Cu  Cu7  1  0.00000000  0.50000000  0.00000000  1
  C  C8  1  0.69635500  0.30205300  0.55964000  1
  C  C9  1  0.19635500  0.19794700  0.44036000  1
  C  C10  1  0.80364500  0.80205300  0.94036000  1
  C  C11  1  0.30364500  0.69794700  0.05964000  1
  C  C12  1  0.30364500  0.69794700  0.44036000  1
  C  C13  1  0.80364500  0.80205300  0.55964000  1
  C  C14  1  0.19635500  0.19794700  0.05964000  1
  C  C15  1  0.69635500  0.30205300  0.94036000  1
  C  C16  1  0.88650100  0.54630900  0.25000000  1
  C  C17  1  0.38650100  0.95369100  0.75000000  1
  C  C18  1  0.61349900  0.04630900  0.25000000  1
  C  C19  1  0.11349900  0.45369100  0.75000000  1
