# generated using pymatgen
data_Cu2NiC5
_symmetry_space_group_name_H-M   'P 1'
_cell_length_a   5.59808000
_cell_length_b   5.59808000
_cell_length_c   10.37002400
_cell_angle_alpha   90.00000000
_cell_angle_beta   90.00000000
_cell_angle_gamma   90.00000000
_symmetry_Int_Tables_number   1
_chemical_formula_structural   Cu2NiC5
_chemical_formula_sum   'Cu8 Ni4 C20'
_cell_volume   324.98099387
_cell_formula_units_Z   4
loop_
 _symmetry_equiv_pos_site_id
 _symmetry_equiv_pos_as_xyz
  1  'x, y, z'
loop_
 _atom_site_type_symbol
 _atom_site_label
 _atom_site_symmetry_multiplicity
 _atom_site_fract_x
 _atom_site_fract_y
 _atom_site_fract_z
 _atom_site_occupancy
  C  C0  1  0.16667100  0.66667100  0.13727200  1
  C  C1  1  0.83332900  0.33332900  0.13727200  1
  C  C2  1  0.33332900  0.16667100  0.13727200  1
  C  C3  1  0.66667100  0.83332900  0.13727200  1
  C  C4  1  0.83332900  0.66667100  0.36272800  1
  C  C5  1  0.16667100  0.33332900  0.36272800  1
  C  C6  1  0.66667100  0.16667100  0.36272800  1
  C  C7  1  0.33332900  0.83332900  0.36272800  1
  C  C8  1  0.83332900  0.33332900  0.86272800  1
  C  C9  1  0.16667100  0.66667100  0.86272800  1
  C  C10  1  0.66667100  0.83332900  0.86272800  1
  C  C11  1  0.33332900  0.16667100  0.86272800  1
  C  C12  1  0.16667100  0.33332900  0.63727200  1
  C  C13  1  0.83332900  0.66667100  0.63727200  1
  C  C14  1  0.33332900  0.83332900  0.63727200  1
  C  C15  1  0.66667100  0.16667100  0.63727200  1
  C  C16  1  0.00000000  0.00000000  0.00000000  1
  C  C17  1  0.00000000  0.00000000  0.50000000  1
  C  C18  1  0.50000000  0.50000000  0.50000000  1
  C  C19  1  0.50000000  0.50000000  0.00000000  1
  Ni  Ni20  1  0.00000000  0.00000000  0.25000000  1
  Ni  Ni21  1  0.00000000  0.00000000  0.75000000  1
  Ni  Ni22  1  0.50000000  0.50000000  0.75000000  1
  Ni  Ni23  1  0.50000000  0.50000000  0.25000000  1
  Cu  Cu24  1  0.61939200  0.11939200  0.00000000  1
  Cu  Cu25  1  0.38060800  0.88060800  0.00000000  1
  Cu  Cu26  1  0.88060800  0.61939200  0.00000000  1
  Cu  Cu27  1  0.11939200  0.38060800  0.00000000  1
  Cu  Cu28  1  0.38060800  0.11939200  0.50000000  1
  Cu  Cu29  1  0.61939200  0.88060800  0.50000000  1
  Cu  Cu30  1  0.11939200  0.61939200  0.50000000  1
  Cu  Cu31  1  0.88060800  0.38060800  0.50000000  1
