# generated using pymatgen
data_Cu5Ni2
_symmetry_space_group_name_H-M   'P 1'
_cell_length_a   5.22132800
_cell_length_b   8.46308000
_cell_length_c   11.13802599
_cell_angle_alpha   72.73858992
_cell_angle_beta   90.00000000
_cell_angle_gamma   90.00000000
_symmetry_Int_Tables_number   1
_chemical_formula_structural   Cu5Ni2
_chemical_formula_sum   'Cu20 Ni8'
_cell_volume   470.00580969
_cell_formula_units_Z   4
loop_
 _symmetry_equiv_pos_site_id
 _symmetry_equiv_pos_as_xyz
  1  'x, y, z'
loop_
 _atom_site_type_symbol
 _atom_site_label
 _atom_site_symmetry_multiplicity
 _atom_site_fract_x
 _atom_site_fract_y
 _atom_site_fract_z
 _atom_site_occupancy
  Ni  Ni0  1  0.17690700  0.33561900  0.37330700  1
  Ni  Ni1  1  0.67690700  0.16438100  0.62669300  1
  Ni  Ni2  1  0.82309300  0.66438100  0.62669300  1
  Ni  Ni3  1  0.32309300  0.83561900  0.37330700  1
  Ni  Ni4  1  0.61209500  0.27979900  0.12666200  1
  Ni  Ni5  1  0.11209500  0.22020100  0.87333800  1
  Ni  Ni6  1  0.38790500  0.72020100  0.87333800  1
  Ni  Ni7  1  0.88790500  0.77979900  0.12666200  1
  Cu  Cu8  1  0.46213800  0.37829600  0.24823200  1
  Cu  Cu9  1  0.96213800  0.12170400  0.75176800  1
  Cu  Cu10  1  0.53786200  0.62170400  0.75176800  1
  Cu  Cu11  1  0.03786200  0.87829600  0.24823200  1
  Cu  Cu12  1  0.99328900  0.20167000  0.30833200  1
  Cu  Cu13  1  0.49328900  0.29833000  0.69166800  1
  Cu  Cu14  1  0.00671100  0.79833000  0.69166800  1
  Cu  Cu15  1  0.50671100  0.70167000  0.30833200  1
  Cu  Cu16  1  0.14902100  0.84139400  0.01112000  1
  Cu  Cu17  1  0.64902100  0.65860600  0.98888000  1
  Cu  Cu18  1  0.85097900  0.15860600  0.98888000  1
  Cu  Cu19  1  0.35097900  0.34139400  0.01112000  1
  Cu  Cu20  1  0.96426600  0.56476700  0.19734900  1
  Cu  Cu21  1  0.46426600  0.93523300  0.80265100  1
  Cu  Cu22  1  0.03573400  0.43523300  0.80265100  1
  Cu  Cu23  1  0.53573400  0.06476700  0.19734900  1
  Cu  Cu24  1  0.14335400  0.66660700  0.48894200  1
  Cu  Cu25  1  0.64335400  0.83339300  0.51105800  1
  Cu  Cu26  1  0.85664600  0.33339300  0.51105800  1
  Cu  Cu27  1  0.35664600  0.16660700  0.48894200  1
