# generated using pymatgen
data_Cu12Ni3C4
_symmetry_space_group_name_H-M   'P 1'
_cell_length_a   8.80396658
_cell_length_b   8.80396630
_cell_length_c   22.49239854
_cell_angle_alpha   90.25647407
_cell_angle_beta   89.74352594
_cell_angle_gamma   120.59950332
_symmetry_Int_Tables_number   1
_chemical_formula_structural   Cu12Ni3C4
_chemical_formula_sum   'Cu72 Ni18 C24'
_cell_volume   1500.58981763
_cell_formula_units_Z   6
loop_
 _symmetry_equiv_pos_site_id
 _symmetry_equiv_pos_as_xyz
  1  'x, y, z'
loop_
 _atom_site_type_symbol
 _atom_site_label
 _atom_site_symmetry_multiplicity
 _atom_site_fract_x
 _atom_site_fract_y
 _atom_site_fract_z
 _atom_site_occupancy
  C  C0  1  0.36374717  0.36374717  0.25000000  1
  C  C1  1  0.63625283  0.63625283  0.75000000  1
  C  C2  1  0.03041417  0.69708017  0.58333300  1
  C  C3  1  0.30291983  0.96958583  0.08333300  1
  C  C4  1  0.69708017  0.03041417  0.91666700  1
  C  C5  1  0.96958583  0.30291983  0.41666700  1
  C  C6  1  -0.00000000  0.00000000  0.50000000  1
  C  C7  1  -0.00000000  0.00000000  0.00000000  1
  C  C8  1  0.66666700  0.33333300  0.83333300  1
  C  C9  1  0.66666700  0.33333300  0.33333300  1
  C  C10  1  0.33333300  0.66666700  0.16666700  1
  C  C11  1  0.33333300  0.66666700  0.66666700  1
  C  C12  1  0.99758057  0.99130726  0.35041249  1
  C  C13  1  0.00869274  0.00241943  0.85041249  1
  C  C14  1  0.00241943  0.00869274  0.64958751  1
  C  C15  1  0.99130726  0.99758057  0.14958751  1
  C  C16  1  0.66424757  0.32464026  0.68374549  1
  C  C17  1  0.67535974  0.33575243  0.18374549  1
  C  C18  1  0.66908643  0.34202574  0.98292051  1
  C  C19  1  0.65797426  0.33091357  0.48292051  1
  C  C20  1  0.33091357  0.65797426  0.01707949  1
  C  C21  1  0.34202574  0.66908643  0.51707949  1
  C  C22  1  0.33575243  0.67535974  0.31625451  1
  C  C23  1  0.32464026  0.66424757  0.81625451  1
  Ni  Ni24  1  0.29211926  0.99812746  0.24911172  1
  Ni  Ni25  1  0.70727169  0.70727169  0.25000000  1
  Ni  Ni26  1  0.99812746  0.29211926  0.25088828  1
  Ni  Ni27  1  0.29272831  0.29272831  0.75000000  1
  Ni  Ni28  1  0.00187254  0.70788074  0.74911172  1
  Ni  Ni29  1  0.70788074  0.00187254  0.75088828  1
  Ni  Ni30  1  0.95878626  0.33146046  0.58244472  1
  Ni  Ni31  1  0.37393869  0.04060469  0.58333300  1
  Ni  Ni32  1  0.66479446  0.62545226  0.58422128  1
  Ni  Ni33  1  0.95939531  0.62606131  0.08333300  1
  Ni  Ni34  1  0.66853954  0.04121374  0.08244472  1
  Ni  Ni35  1  0.37454774  0.33520554  0.08422128  1
  Ni  Ni36  1  0.62545226  0.66479446  0.91577872  1
  Ni  Ni37  1  0.04060469  0.37393869  0.91666700  1
  Ni  Ni38  1  0.33146046  0.95878626  0.91755528  1
  Ni  Ni39  1  0.62606131  0.95939531  0.41666700  1
  Ni  Ni40  1  0.33520554  0.37454774  0.41577872  1
  Ni  Ni41  1  0.04121374  0.66853954  0.41755528  1
  Cu  Cu42  1  0.21053848  0.03063504  0.30154352  1
  Cu  Cu43  1  0.81387972  0.78720477  0.30328404  1
  Cu  Cu44  1  0.97285582  0.18817708  0.30548017  1
  Cu  Cu45  1  0.21279523  0.18612028  0.80328404  1
  Cu  Cu46  1  0.96936496  0.78946152  0.80154352  1
  Cu  Cu47  1  0.81182292  0.02714418  0.80548017  1
  Cu  Cu48  1  0.78946152  0.96936496  0.69845648  1
  Cu  Cu49  1  0.18612028  0.21279523  0.69671596  1
  Cu  Cu50  1  0.02714418  0.81182292  0.69451983  1
  Cu  Cu51  1  0.78720477  0.81387972  0.19671596  1
  Cu  Cu52  1  0.03063504  0.21053848  0.19845648  1
  Cu  Cu53  1  0.18817708  0.97285582  0.19451983  1
  Cu  Cu54  1  0.87720548  0.36396804  0.63487652  1
  Cu  Cu55  1  0.48054672  0.12053777  0.63661704  1
  Cu  Cu56  1  0.63952282  0.52151008  0.63881317  1
  Cu  Cu57  1  0.87946223  0.51945328  0.13661704  1
  Cu  Cu58  1  0.63603196  0.12279452  0.13487652  1
  Cu  Cu59  1  0.47848992  0.36047718  0.13881317  1
  Cu  Cu60  1  0.45612852  0.30269796  0.03178948  1
  Cu  Cu61  1  0.85278728  0.54612823  0.03004896  1
  Cu  Cu62  1  0.69381118  0.14515592  0.02785283  1
  Cu  Cu63  1  0.45387177  0.14721272  0.53004896  1
  Cu  Cu64  1  0.69730204  0.54387148  0.53178948  1
  Cu  Cu65  1  0.85484408  0.30618882  0.52785283  1
  Cu  Cu66  1  0.54387148  0.69730204  0.96821052  1
  Cu  Cu67  1  0.14721272  0.45387177  0.96995104  1
  Cu  Cu68  1  0.30618882  0.85484408  0.97214717  1
  Cu  Cu69  1  0.54612823  0.85278728  0.46995104  1
  Cu  Cu70  1  0.30269796  0.45612852  0.46821052  1
  Cu  Cu71  1  0.14515592  0.69381118  0.47214717  1
  Cu  Cu72  1  0.12279452  0.63603196  0.36512348  1
  Cu  Cu73  1  0.51945328  0.87946223  0.36338296  1
  Cu  Cu74  1  0.36047718  0.47848992  0.36118683  1
  Cu  Cu75  1  0.12053777  0.48054672  0.86338296  1
  Cu  Cu76  1  0.36396804  0.87720548  0.86512348  1
  Cu  Cu77  1  0.52151008  0.63952282  0.86118683  1
  Cu  Cu78  1  0.02239220  0.82470323  0.41040711  1
  Cu  Cu79  1  0.80738978  0.98439251  0.41053514  1
  Cu  Cu80  1  0.17072019  0.19640885  0.40995497  1
  Cu  Cu81  1  0.01560749  0.19261022  0.91053514  1
  Cu  Cu82  1  0.17529677  0.97760780  0.91040711  1
  Cu  Cu83  1  0.80359115  0.82927981  0.90995497  1
  Cu  Cu84  1  0.97760780  0.17529677  0.58959289  1
  Cu  Cu85  1  0.19261022  0.01560749  0.58946486  1
  Cu  Cu86  1  0.82927981  0.80359115  0.59004503  1
  Cu  Cu87  1  0.98439251  0.80738978  0.08946486  1
  Cu  Cu88  1  0.82470323  0.02239220  0.08959289  1
  Cu  Cu89  1  0.19640885  0.17072019  0.09004503  1
  Cu  Cu90  1  0.68905920  0.15803623  0.74374011  1
  Cu  Cu91  1  0.47405678  0.31772551  0.74386814  1
  Cu  Cu92  1  0.83738719  0.52974185  0.74328797  1
  Cu  Cu93  1  0.68227449  0.52594322  0.24386814  1
  Cu  Cu94  1  0.84196377  0.31094080  0.24374011  1
  Cu  Cu95  1  0.47025815  0.16261281  0.24328797  1
  Cu  Cu96  1  0.64427480  0.50862977  0.92292589  1
  Cu  Cu97  1  0.85927722  0.34894049  0.92279786  1
  Cu  Cu98  1  0.49594681  0.13692415  0.92337803  1
  Cu  Cu99  1  0.65105951  0.14072278  0.42279786  1
  Cu  Cu100  1  0.49137023  0.35572520  0.42292589  1
  Cu  Cu101  1  0.86307585  0.50405319  0.42337803  1
  Cu  Cu102  1  0.35572520  0.49137023  0.07707411  1
  Cu  Cu103  1  0.14072278  0.65105951  0.07720214  1
  Cu  Cu104  1  0.50405319  0.86307585  0.07662197  1
  Cu  Cu105  1  0.34894049  0.85927722  0.57720214  1
  Cu  Cu106  1  0.50862977  0.64427480  0.57707411  1
  Cu  Cu107  1  0.13692415  0.49594681  0.57662197  1
  Cu  Cu108  1  0.31094080  0.84196377  0.25625989  1
  Cu  Cu109  1  0.52594322  0.68227449  0.25613186  1
  Cu  Cu110  1  0.16261281  0.47025815  0.25671203  1
  Cu  Cu111  1  0.31772551  0.47405678  0.75613186  1
  Cu  Cu112  1  0.15803623  0.68905920  0.75625989  1
  Cu  Cu113  1  0.52974185  0.83738719  0.75671203  1
