# generated using pymatgen
data_CuNi3C35
_symmetry_space_group_name_H-M   'P 1'
_cell_length_a   8.84585602
_cell_length_b   8.85672601
_cell_length_c   22.29350623
_cell_angle_alpha   90.23334923
_cell_angle_beta   90.66994497
_cell_angle_gamma   120.13693431
_symmetry_Int_Tables_number   1
_chemical_formula_structural   CuNi3C35
_chemical_formula_sum   'Cu3 Ni9 C105'
_cell_volume   1510.29844193
_cell_formula_units_Z   3
loop_
 _symmetry_equiv_pos_site_id
 _symmetry_equiv_pos_as_xyz
  1  'x, y, z'
loop_
 _atom_site_type_symbol
 _atom_site_label
 _atom_site_symmetry_multiplicity
 _atom_site_fract_x
 _atom_site_fract_y
 _atom_site_fract_z
 _atom_site_occupancy
  C  C0  1  0.63955984  0.00332896  0.25344997  1
  C  C1  1  0.00178358  0.62616412  0.24914399  1
  C  C2  1  0.62835179  0.63302015  0.74743953  1
  C  C3  1  0.37153336  0.01027880  0.75324382  1
  C  C4  1  0.66799258  0.95887156  0.58516277  1
  C  C5  1  0.96876447  0.67764803  0.92015247  1
  C  C6  1  0.69424845  0.02051902  0.91252963  1
  C  C7  1  0.96412214  0.30139613  0.41187018  1
  C  C8  1  0.70792216  0.67830291  0.42011771  1
  C  C9  1  0.00234791  0.98665837  0.50169267  1
  C  C10  1  0.00583361  0.99188428  0.00020811  1
  C  C11  1  0.65281528  0.32657933  0.83150884  1
  C  C12  1  0.66458895  0.32677787  0.33230543  1
  C  C13  1  0.31988278  0.64958128  0.16263890  1
  C  C14  1  0.33040719  0.64985090  0.66510359  1
  Ni  Ni15  1  0.98749997  0.99674369  0.35357239  1
  Ni  Ni16  1  0.00652733  0.00915329  0.85133388  1
  Ni  Ni17  1  0.98548692  0.99633204  0.65230793  1
  Ni  Ni18  1  0.00833362  0.00530437  0.14623358  1
  Ni  Ni19  1  0.64949416  0.33179736  0.68831868  1
  Ni  Ni20  1  0.69286411  0.34144224  0.18062265  1
  Ni  Ni21  1  0.33013634  0.68371522  0.01698891  1
  Ni  Ni22  1  0.34654100  0.67874557  0.51631948  1
  Ni  Ni23  1  0.31567582  0.65838985  0.31882185  1
  C  C24  1  0.00820251  0.28885591  0.24943628  1
  C  C25  1  0.27832226  0.28269046  0.74871401  1
  C  C26  1  0.71681984  0.01294951  0.74939359  1
  C  C27  1  0.66679276  0.62873876  0.58591219  1
  C  C28  1  0.97268860  0.63778356  0.08531723  1
  C  C29  1  0.62470873  0.66960932  0.92010193  1
  C  C30  1  0.32747304  0.96097006  0.91661484  1
  C  C31  1  0.61755226  0.95390419  0.41497569  1
  C  C32  1  0.05223013  0.67828922  0.41699226  1
  Cu  Cu33  1  0.65810928  0.34226825  0.98314240  1
  Cu  Cu34  1  0.67374578  0.33952971  0.48225087  1
  Cu  Cu35  1  0.34652386  0.66852193  0.81409539  1
  C  C36  1  0.29282603  0.00608672  0.24972544  1
  C  C37  1  0.70345183  0.70411104  0.24915363  1
  C  C38  1  0.99833220  0.70631263  0.74967251  1
  C  C39  1  0.96566382  0.33733375  0.58523349  1
  C  C40  1  0.36916672  0.03983749  0.58370246  1
  C  C41  1  0.66751525  0.03973133  0.08464931  1
  C  C42  1  0.37372051  0.33402667  0.08689238  1
  C  C43  1  0.04640161  0.37561814  0.91797713  1
  C  C44  1  0.33108520  0.37493660  0.41615222  1
  C  C45  1  0.21406166  0.03118508  0.30419187  1
  C  C46  1  0.81645196  0.77793333  0.30487115  1
  C  C47  1  0.96546068  0.16772241  0.30994251  1
  C  C48  1  0.20375540  0.15928749  0.80709414  1
  C  C49  1  0.96567821  0.77973326  0.80470700  1
  C  C50  1  0.82516995  0.03335100  0.81137842  1
  C  C51  1  0.78408442  0.95610511  0.69029189  1
  C  C52  1  0.16730794  0.19149675  0.68772047  1
  C  C53  1  0.03410178  0.81798394  0.69653876  1
  C  C54  1  0.78645227  0.81775545  0.19715040  1
  C  C55  1  0.02783430  0.18987546  0.19145030  1
  C  C56  1  0.17804584  0.96681194  0.19604993  1
  C  C57  1  0.87621664  0.36133856  0.63628650  1
  C  C58  1  0.48616737  0.11883292  0.63742751  1
  C  C59  1  0.64041053  0.50566521  0.64330985  1
  C  C60  1  0.88238287  0.51693946  0.14450538  1
  C  C61  1  0.63541867  0.12057908  0.13885328  1
  C  C62  1  0.48816993  0.35754819  0.13978753  1
  C  C63  1  0.44216660  0.29371061  0.03082921  1
  C  C64  1  0.84897601  0.54992277  0.02431015  1
  C  C65  1  0.69514885  0.14781044  0.02978337  1
  C  C66  1  0.45037126  0.14762633  0.52890492  1
  C  C67  1  0.69785000  0.54901399  0.52266144  1
  C  C68  1  0.85214569  0.29463095  0.52771931  1
  C  C69  1  0.52822568  0.70162852  0.97643123  1
  C  C70  1  0.15408621  0.45640475  0.97216575  1
  C  C71  1  0.28547531  0.83235209  0.97277740  1
  C  C72  1  0.54644004  0.83653644  0.47504045  1
  C  C73  1  0.29949935  0.45105910  0.47049962  1
  C  C74  1  0.16656204  0.69391260  0.47635238  1
  C  C75  1  0.11598524  0.62208357  0.35649623  1
  C  C76  1  0.50500187  0.86380561  0.35326496  1
  C  C77  1  0.36857530  0.48632048  0.36282264  1
  C  C78  1  0.11451162  0.48522461  0.86368317  1
  C  C79  1  0.36968406  0.88247518  0.85536134  1
  C  C80  1  0.51422681  0.62323169  0.85659038  1
  C  C81  1  0.02217840  0.84522568  0.40752181  1
  C  C82  1  0.81707417  0.98190142  0.41070675  1
  C  C83  1  0.17494894  0.20022682  0.40953745  1
  C  C84  1  0.02378567  0.19992808  0.91258521  1
  C  C85  1  0.15285482  0.97546163  0.90955122  1
  C  C86  1  0.81764468  0.84512631  0.91243393  1
  C  C87  1  0.97765472  0.17683294  0.58831428  1
  C  C88  1  0.19742117  0.02253709  0.58894921  1
  C  C89  1  0.84274659  0.82690370  0.59052995  1
  C  C90  1  0.98224101  0.82779194  0.09361541  1
  C  C91  1  0.82639629  0.02712608  0.09019272  1
  C  C92  1  0.19834640  0.17552741  0.09087820  1
  C  C93  1  0.68871465  0.18103764  0.74006978  1
  C  C94  1  0.48058578  0.31402125  0.74504514  1
  C  C95  1  0.84182093  0.53152268  0.74294492  1
  C  C96  1  0.68579423  0.52787522  0.24334208  1
  C  C97  1  0.82444836  0.30587839  0.24415824  1
  C  C98  1  0.47009708  0.16153893  0.24273808  1
  C  C99  1  0.65812581  0.50162587  0.92055590  1
  C  C100  1  0.86647135  0.35411470  0.92299222  1
  C  C101  1  0.51708896  0.14580799  0.92439569  1
  C  C102  1  0.64376977  0.15243534  0.42202732  1
  C  C103  1  0.49103519  0.35851529  0.42143865  1
  C  C104  1  0.85014178  0.50042828  0.42056763  1
  C  C105  1  0.36202663  0.49141440  0.07997236  1
  C  C106  1  0.16030114  0.64436038  0.07744037  1
  C  C107  1  0.50966198  0.86607651  0.07990649  1
  C  C108  1  0.35900221  0.86708509  0.57840244  1
  C  C109  1  0.49101810  0.65049325  0.57770570  1
  C  C110  1  0.13624316  0.49450703  0.57742681  1
  C  C111  1  0.31386417  0.84757736  0.25392701  1
  C  C112  1  0.53206020  0.69207498  0.25581290  1
  C  C113  1  0.17670367  0.49018426  0.25607981  1
  C  C114  1  0.30327648  0.48106055  0.75254745  1
  C  C115  1  0.15823519  0.69111426  0.75552117  1
  C  C116  1  0.51477139  0.83627730  0.75172369  1
