# generated using pymatgen
data_Cu(NiC8)2
_symmetry_space_group_name_H-M   'P 1'
_cell_length_a   8.90061616
_cell_length_b   8.88068764
_cell_length_c   22.24548435
_cell_angle_alpha   90.15073971
_cell_angle_beta   90.00000000
_cell_angle_gamma   120.07425969
_symmetry_Int_Tables_number   1
_chemical_formula_structural   Cu(NiC8)2
_chemical_formula_sum   'Cu6 Ni12 C96'
_cell_volume   1521.63921833
_cell_formula_units_Z   6
loop_
 _symmetry_equiv_pos_site_id
 _symmetry_equiv_pos_as_xyz
  1  'x, y, z'
loop_
 _atom_site_type_symbol
 _atom_site_label
 _atom_site_symmetry_multiplicity
 _atom_site_fract_x
 _atom_site_fract_y
 _atom_site_fract_z
 _atom_site_occupancy
  C  C0  1  0.99401092  0.64113481  0.24403384  1
  C  C1  1  0.64712389  0.64113481  0.74403384  1
  C  C2  1  0.29932378  0.33926687  0.58593341  1
  C  C3  1  0.66716754  0.95553097  0.58368562  1
  C  C4  1  0.28836442  0.95553097  0.08368562  1
  C  C5  1  0.03994409  0.33926687  0.08593341  1
  C  C6  1  0.99501583  0.98247179  0.49114646  1
  C  C7  1  0.98745596  0.98247179  0.99114646  1
  C  C8  1  0.65624112  0.30821335  0.82484610  1
  C  C9  1  0.65197322  0.30821335  0.32484610  1
  C  C10  1  0.35028948  0.66751696  0.16296205  1
  C  C11  1  0.31722648  0.66751696  0.66296205  1
  C  C12  1  0.67339066  0.34360986  0.97486577  1
  C  C13  1  0.67022019  0.34360986  0.47486577  1
  C  C14  1  0.33182404  0.66649046  0.31636233  1
  C  C15  1  0.33466542  0.66649046  0.81636233  1
  C  C16  1  0.00976863  0.01424608  0.35113729  1
  C  C17  1  0.00447745  0.01424608  0.85113729  1
  C  C18  1  0.99263781  0.99555945  0.65823028  1
  C  C19  1  0.00292165  0.99555945  0.15823028  1
  C  C20  1  0.65649051  0.32545169  0.68637041  1
  C  C21  1  0.66896218  0.32545169  0.18637041  1
  C  C22  1  0.33068231  0.66875671  0.00899989  1
  C  C23  1  0.33807340  0.66875671  0.50899989  1
  Ni  Ni24  1  0.29856193  0.00354165  0.24987586  1
  Ni  Ni25  1  0.99920443  0.29181648  0.24906753  1
  Ni  Ni26  1  0.29261205  0.29181648  0.74906753  1
  Ni  Ni27  1  0.70497972  0.00354165  0.74987586  1
  Ni  Ni28  1  0.67139737  0.62988892  0.58622960  1
  Ni  Ni29  1  0.95849255  0.62988892  0.08622960  1
  Ni  Ni30  1  0.62996058  0.67488793  0.91870088  1
  Ni  Ni31  1  0.04228242  0.37040335  0.92088124  1
  Ni  Ni32  1  0.32794436  0.96091376  0.92063173  1
  Ni  Ni33  1  0.63296840  0.96091376  0.42063173  1
  Ni  Ni34  1  0.32811993  0.37040335  0.42088124  1
  Ni  Ni35  1  0.04492635  0.67488793  0.41870088  1
  Cu  Cu36  1  0.70283809  0.70704879  0.25115757  1
  Cu  Cu37  1  0.00421070  0.70704879  0.75115757  1
  Cu  Cu38  1  0.95722496  0.33763943  0.58334514  1
  Cu  Cu39  1  0.37422343  0.04001996  0.58194506  1
  Cu  Cu40  1  0.66579753  0.04001996  0.08194506  1
  Cu  Cu41  1  0.38041547  0.33763943  0.08334514  1
  C  C42  1  0.20421754  0.01719836  0.30384072  1
  C  C43  1  0.81062278  0.78809332  0.30391321  1
  C  C44  1  0.97272638  0.17892899  0.30266476  1
  C  C45  1  0.20620261  0.17892899  0.80266476  1
  C  C46  1  0.97747054  0.78809332  0.80391321  1
  C  C47  1  0.81298082  0.01719836  0.80384072  1
  C  C48  1  0.76192218  0.95070434  0.69093090  1
  C  C49  1  0.19553195  0.22631366  0.68839257  1
  C  C50  1  0.03920388  0.80851167  0.69524955  1
  C  C51  1  0.76930779  0.80851167  0.19524955  1
  C  C52  1  0.03078171  0.22631366  0.18839257  1
  C  C53  1  0.18878215  0.95070434  0.19093090  1
  C  C54  1  0.87277066  0.35207725  0.63752596  1
  C  C55  1  0.48044914  0.11846639  0.63599456  1
  C  C56  1  0.64592627  0.52030400  0.64227899  1
  C  C57  1  0.87437873  0.52030400  0.14227899  1
  C  C58  1  0.63801826  0.11846639  0.13599456  1
  C  C59  1  0.47930759  0.35207725  0.13752596  1
  C  C60  1  0.47384489  0.31942268  0.02850248  1
  C  C61  1  0.83985564  0.52049359  0.02939466  1
  C  C62  1  0.68153365  0.15385704  0.02790442  1
  C  C63  1  0.47232440  0.15385704  0.52790442  1
  C  C64  1  0.68063894  0.52049359  0.52939466  1
  C  C65  1  0.84557879  0.31942268  0.52850248  1
  C  C66  1  0.54348878  0.69266516  0.97422535  1
  C  C67  1  0.13395171  0.44759635  0.98002776  1
  C  C68  1  0.30993754  0.86747677  0.97983968  1
  C  C69  1  0.55753823  0.86747677  0.47983968  1
  C  C70  1  0.31364364  0.44759635  0.48002776  1
  C  C71  1  0.14917538  0.69266516  0.47422535  1
  C  C72  1  0.13073446  0.64027213  0.36136257  1
  C  C73  1  0.50217021  0.86075674  0.36696484  1
  C  C74  1  0.35665119  0.49651828  0.36685458  1
  C  C75  1  0.13986610  0.49651828  0.86685458  1
  C  C76  1  0.35858554  0.86075674  0.86696484  1
  C  C77  1  0.50953667  0.64027213  0.86136257  1
  C  C78  1  0.00751187  0.81919830  0.40881728  1
  C  C79  1  0.81105706  0.98836299  0.40980609  1
  C  C80  1  0.18039880  0.18879477  0.41229568  1
  C  C81  1  0.00839597  0.18879477  0.91229568  1
  C  C82  1  0.17730593  0.98836299  0.90980609  1
  C  C83  1  0.81168643  0.81919830  0.90881728  1
  C  C84  1  0.96809490  0.17551010  0.58215699  1
  C  C85  1  0.20725070  0.03676840  0.58311499  1
  C  C86  1  0.83566247  0.81015465  0.58489971  1
  C  C87  1  0.97449217  0.81015465  0.08489971  1
  C  C88  1  0.82951770  0.03676840  0.08311499  1
  C  C89  1  0.20741520  0.17551010  0.08215699  1
  C  C90  1  0.67657147  0.15804732  0.74361627  1
  C  C91  1  0.48528893  0.33979877  0.74645447  1
  C  C92  1  0.85236163  0.52978141  0.74525939  1
  C  C93  1  0.67742078  0.52978141  0.24525939  1
  C  C94  1  0.85451085  0.33979877  0.24645447  1
  C  C95  1  0.48147685  0.15804732  0.24361627  1
  C  C96  1  0.63490131  0.49634503  0.92344330  1
  C  C97  1  0.85848630  0.36413664  0.92265115  1
  C  C98  1  0.50475319  0.14402562  0.92404980  1
  C  C99  1  0.63927343  0.14402562  0.42404980  1
  C  C100  1  0.50565134  0.36413664  0.42265115  1
  C  C101  1  0.86144472  0.49634503  0.42344330  1
  C  C102  1  0.35790706  0.49036531  0.07823179  1
  C  C103  1  0.13940639  0.64450588  0.08018167  1
  C  C104  1  0.51090486  0.86593892  0.07598716  1
  C  C105  1  0.35503306  0.86593892  0.57598716  1
  C  C106  1  0.50509849  0.64450588  0.58018167  1
  C  C107  1  0.13245724  0.49036531  0.57823179  1
  C  C108  1  0.31668038  0.83120515  0.26048203  1
  C  C109  1  0.52292495  0.68654581  0.25939274  1
  C  C110  1  0.17249906  0.48251491  0.25954987  1
  C  C111  1  0.31001485  0.48251491  0.75954987  1
  C  C112  1  0.16361986  0.68654581  0.75939274  1
  C  C113  1  0.51452377  0.83120515  0.76048203  1
