# generated using pymatgen
data_Cu3NiC34
_symmetry_space_group_name_H-M   'P 1'
_cell_length_a   8.71773699
_cell_length_b   8.72661586
_cell_length_c   22.17857110
_cell_angle_alpha   90.00004742
_cell_angle_beta   89.98965374
_cell_angle_gamma   119.93251209
_symmetry_Int_Tables_number   1
_chemical_formula_structural   Cu3NiC34
_chemical_formula_sum   'Cu9 Ni3 C102'
_cell_volume   1462.20662641
_cell_formula_units_Z   3
loop_
 _symmetry_equiv_pos_site_id
 _symmetry_equiv_pos_as_xyz
  1  'x, y, z'
loop_
 _atom_site_type_symbol
 _atom_site_label
 _atom_site_symmetry_multiplicity
 _atom_site_fract_x
 _atom_site_fract_y
 _atom_site_fract_z
 _atom_site_occupancy
  C  C0  1  0.63916082  0.00674044  0.24744287  1
  C  C1  1  0.36762397  0.36083144  0.24753596  1
  C  C2  1  0.99351984  0.63172864  0.24723967  1
  C  C3  1  0.99345582  0.36507503  0.74679312  1
  C  C4  1  0.37007674  0.00354249  0.74683693  1
  C  C5  1  0.70477568  0.67181860  0.41602734  1
  C  C6  1  0.00860932  0.00907588  0.49781165  1
  C  C7  1  0.00009507  0.00023013  0.00046773  1
  C  C8  1  0.66584924  0.34145996  0.83410981  1
  C  C9  1  0.66584466  0.32520426  0.33396044  1
  C  C10  1  0.33333939  0.66664802  0.16260265  1
  C  C11  1  0.34176967  0.66563353  0.66349622  1
  Ni  Ni12  1  0.00483751  0.00557043  0.35402194  1
  Ni  Ni13  1  0.66548666  0.33887337  0.68450923  1
  Ni  Ni14  1  0.66682111  0.33335573  0.18182515  1
  Cu  Cu15  1  0.00061548  0.99895208  0.85470842  1
  Cu  Cu16  1  0.99666588  0.99713209  0.64296047  1
  Cu  Cu17  1  0.00137666  0.00110288  0.14449441  1
  Cu  Cu18  1  0.66708758  0.33263933  0.98254451  1
  Cu  Cu19  1  0.66591016  0.32748038  0.48343557  1
  Cu  Cu20  1  0.33286402  0.66650871  0.02070106  1
  Cu  Cu21  1  0.33188866  0.66538226  0.52101328  1
  Cu  Cu22  1  0.33206628  0.66734529  0.31691739  1
  Cu  Cu23  1  0.33865924  0.66559495  0.81632290  1
  C  C24  1  0.28983634  0.00113601  0.25074280  1
  C  C25  1  0.71076626  0.70991373  0.25143867  1
  C  C26  1  0.99866085  0.28848283  0.25083783  1
  C  C27  1  0.28811832  0.28855100  0.75020860  1
  C  C28  1  0.99724726  0.71182275  0.75052779  1
  C  C29  1  0.71180750  0.99540631  0.75030466  1
  C  C30  1  0.95818155  0.33436979  0.58521645  1
  C  C31  1  0.37636239  0.04149982  0.58518617  1
  C  C32  1  0.66510740  0.62229326  0.58350801  1
  C  C33  1  0.95791042  0.62414467  0.08398518  1
  C  C34  1  0.66565196  0.04140414  0.08409167  1
  C  C35  1  0.37627468  0.33442938  0.08398494  1
  C  C36  1  0.62339893  0.66599513  0.91796212  1
  C  C37  1  0.04354467  0.37758889  0.91693568  1
  C  C38  1  0.33475927  0.95657818  0.91704900  1
  C  C39  1  0.62190229  0.95900439  0.41798359  1
  C  C40  1  0.33068477  0.37400997  0.41826230  1
  C  C41  1  0.04312834  0.66556777  0.41827897  1
  C  C42  1  0.20811842  0.03305750  0.30547512  1
  C  C43  1  0.81936023  0.78740371  0.30816975  1
  C  C44  1  0.96509328  0.17395828  0.30546897  1
  C  C45  1  0.19500446  0.16955067  0.80622206  1
  C  C46  1  0.97671545  0.80610444  0.80663841  1
  C  C47  1  0.83117522  0.02533948  0.80596166  1
  C  C48  1  0.79952913  0.96808243  0.69403667  1
  C  C49  1  0.16621824  0.20300915  0.69479828  1
  C  C50  1  0.03418743  0.83347472  0.69502242  1
  C  C51  1  0.79893785  0.83347888  0.19562760  1
  C  C52  1  0.03588810  0.20348364  0.19410747  1
  C  C53  1  0.16823592  0.96463919  0.19396893  1
  C  C54  1  0.88497865  0.36633658  0.64235614  1
  C  C55  1  0.48224145  0.11417967  0.64222309  1
  C  C56  1  0.63141445  0.51177002  0.63864329  1
  C  C57  1  0.88715985  0.51991228  0.14147458  1
  C  C58  1  0.63243256  0.11268826  0.14141009  1
  C  C59  1  0.48016908  0.36745918  0.14150613  1
  C  C60  1  0.46877965  0.30576674  0.02833870  1
  C  C61  1  0.83698291  0.53124922  0.02834937  1
  C  C62  1  0.69439509  0.16266944  0.02836582  1
  C  C63  1  0.46887426  0.16374306  0.52910798  1
  C  C64  1  0.69639051  0.53879538  0.52526318  1
  C  C65  1  0.83653320  0.30551231  0.52913247  1
  C  C66  1  0.53405036  0.69579851  0.97238839  1
  C  C67  1  0.16321923  0.46778172  0.97135706  1
  C  C68  1  0.30497545  0.83711809  0.97149077  1
  C  C69  1  0.52703402  0.83641563  0.47150045  1
  C  C70  1  0.31285738  0.47430059  0.47227534  1
  C  C71  1  0.16197035  0.68796094  0.47210625  1
  C  C72  1  0.13083761  0.63711609  0.35978896  1
  C  C73  1  0.50547629  0.87073463  0.35946285  1
  C  C74  1  0.36620537  0.49619769  0.36029639  1
  C  C75  1  0.13045068  0.49216590  0.85901155  1
  C  C76  1  0.36196540  0.86945825  0.85910945  1
  C  C77  1  0.50416106  0.63853786  0.86111790  1
  C  C78  1  0.01901590  0.82485514  0.41296133  1
  C  C79  1  0.80016235  0.97026552  0.41223443  1
  C  C80  1  0.16951629  0.19551518  0.41304569  1
  C  C81  1  0.02564360  0.19321716  0.90903069  1
  C  C82  1  0.16781732  0.97441478  0.90933198  1
  C  C83  1  0.80649667  0.83247039  0.90912367  1
  C  C84  1  0.97614405  0.16575560  0.58913819  1
  C  C85  1  0.18994197  0.02428587  0.58964902  1
  C  C86  1  0.83412377  0.81005794  0.58943695  1
  C  C87  1  0.97631997  0.81092366  0.08888044  1
  C  C88  1  0.83425907  0.02293074  0.08895314  1
  C  C89  1  0.18927519  0.16584344  0.08883153  1
  C  C90  1  0.69108347  0.15943011  0.74631343  1
  C  C91  1  0.46783995  0.30281337  0.74626718  1
  C  C92  1  0.83972020  0.52666341  0.74670398  1
  C  C93  1  0.68386864  0.52395452  0.24361424  1
  C  C94  1  0.84062357  0.31703964  0.24309310  1
  C  C95  1  0.47625531  0.15916219  0.24318434  1
  C  C96  1  0.64046690  0.49988557  0.92350231  1
  C  C97  1  0.85947866  0.35965680  0.92350777  1
  C  C98  1  0.50013753  0.14061704  0.92349960  1
  C  C99  1  0.63519020  0.14138771  0.42387153  1
  C  C100  1  0.50631813  0.36857726  0.42342262  1
  C  C101  1  0.85782879  0.49616123  0.42335870  1
  C  C102  1  0.35223138  0.49714877  0.07303323  1
  C  C103  1  0.14467379  0.64761451  0.07299615  1
  C  C104  1  0.50261456  0.85522430  0.07299109  1
  C  C105  1  0.35238010  0.85585625  0.57362886  1
  C  C106  1  0.50415057  0.64968673  0.57340077  1
  C  C107  1  0.14401414  0.49631546  0.57407535  1
  C  C108  1  0.30572129  0.82838835  0.25573790  1
  C  C109  1  0.52217151  0.69382857  0.25594053  1
  C  C110  1  0.17131670  0.47678584  0.25617877  1
  C  C111  1  0.29957988  0.47207414  0.75767594  1
  C  C112  1  0.17002784  0.69770045  0.75702900  1
  C  C113  1  0.52376250  0.83008531  0.75716681  1
