# generated using pymatgen
data_Cu4NiC4
_symmetry_space_group_name_H-M   'P 1'
_cell_length_a   6.60024751
_cell_length_b   6.60024798
_cell_length_c   10.17690675
_cell_angle_alpha   120.90710343
_cell_angle_beta   120.90710594
_cell_angle_gamma   95.94478207
_symmetry_Int_Tables_number   1
_chemical_formula_structural   Cu4NiC4
_chemical_formula_sum   'Cu4 Ni1 C4'
_cell_volume   282.81954527
_cell_formula_units_Z   1
loop_
 _symmetry_equiv_pos_site_id
 _symmetry_equiv_pos_as_xyz
  1  'x, y, z'
loop_
 _atom_site_type_symbol
 _atom_site_label
 _atom_site_symmetry_multiplicity
 _atom_site_fract_x
 _atom_site_fract_y
 _atom_site_fract_z
 _atom_site_occupancy
  C  C0  1  0.99900348  0.55986623  0.55294309  1
  C  C1  1  0.55986623  0.99900348  0.55294308  1
  C  C2  1  0.43888030  0.43888030  0.99207042  1
  C  C3  1  0.99949731  0.99949731  0.28917471  1
  Ni  Ni4  1  -0.00018203  -0.00018203  0.00819928  1
  Cu  Cu5  1  0.99977043  0.99977043  0.51538117  1
  Cu  Cu6  1  0.99960955  0.63756727  0.02184127  1
  Cu  Cu7  1  0.63756727  0.99960955  0.02184128  1
  Cu  Cu8  1  0.36135746  0.36135746  0.38356871  1
