# generated using pymatgen
data_Cu6NiC12
_symmetry_space_group_name_H-M   'P 1'
_cell_length_a   8.22889678
_cell_length_b   5.73658819
_cell_length_c   5.86728243
_cell_angle_alpha   68.20565362
_cell_angle_beta   67.65205956
_cell_angle_gamma   67.50309524
_symmetry_Int_Tables_number   1
_chemical_formula_structural   Cu6NiC12
_chemical_formula_sum   'Cu6 Ni1 C12'
_cell_volume   228.26130111
_cell_formula_units_Z   1
loop_
 _symmetry_equiv_pos_site_id
 _symmetry_equiv_pos_as_xyz
  1  'x, y, z'
loop_
 _atom_site_type_symbol
 _atom_site_label
 _atom_site_symmetry_multiplicity
 _atom_site_fract_x
 _atom_site_fract_y
 _atom_site_fract_z
 _atom_site_occupancy
  Ni  Ni0  1  0.34879798  0.63432599  0.15776434  1
  Cu  Cu1  1  0.83454218  0.70561775  0.69689104  1
  Cu  Cu2  1  0.66870091  0.35132614  0.36312205  1
  Cu  Cu3  1  0.30441758  0.65984215  0.66344812  1
  Cu  Cu4  1  0.11383379  0.28078443  0.29196005  1
  Cu  Cu5  1  0.50994472  0.02813048  0.01493138  1
  Cu  Cu6  1  0.96270477  0.00852853  0.99150175  1
  C  C7  1  0.68557861  0.06229509  0.67599893  1
  C  C8  1  0.34586577  0.38946687  0.98527586  1
  C  C9  1  0.92745085  0.22961544  0.19365733  1
  C  C10  1  0.01303069  0.77109730  0.79305822  1
  C  C11  1  0.40727198  0.40762983  0.48427531  1
  C  C12  1  0.31104006  0.92733806  0.32646259  1
  C  C13  1  0.62057614  0.65030115  0.05421208  1
  C  C14  1  0.26735271  0.91501817  0.85944394  1
  C  C15  1  0.68943497  0.61559644  0.54893897  1
  C  C16  1  0.69256309  0.07619140  0.14811089  1
  C  C17  1  0.98936449  0.32439014  0.68084717  1
  C  C18  1  0.05752770  0.68869563  0.28438698  1
