# generated using pymatgen
data_CuNiC4
_symmetry_space_group_name_H-M   'P 1'
_cell_length_a   6.81149000
_cell_length_b   6.77859900
_cell_length_c   9.03536061
_cell_angle_alpha   53.96018506
_cell_angle_beta   90.00000000
_cell_angle_gamma   90.00000000
_symmetry_Int_Tables_number   1
_chemical_formula_structural   CuNiC4
_chemical_formula_sum   'Cu4 Ni4 C16'
_cell_volume   337.33839678
_cell_formula_units_Z   4
loop_
 _symmetry_equiv_pos_site_id
 _symmetry_equiv_pos_as_xyz
  1  'x, y, z'
loop_
 _atom_site_type_symbol
 _atom_site_label
 _atom_site_symmetry_multiplicity
 _atom_site_fract_x
 _atom_site_fract_y
 _atom_site_fract_z
 _atom_site_occupancy
  Ni  Ni0  1  0.62044300  0.71607800  0.74459700  1
  Ni  Ni1  1  0.12044300  0.28392200  0.75540300  1
  Ni  Ni2  1  0.37955700  0.28392200  0.25540300  1
  Ni  Ni3  1  0.87955700  0.71607800  0.24459700  1
  Cu  Cu4  1  0.64319500  0.10048500  0.77646800  1
  Cu  Cu5  1  0.14319500  0.89951500  0.72353200  1
  Cu  Cu6  1  0.35680500  0.89951500  0.22353200  1
  Cu  Cu7  1  0.85680500  0.10048500  0.27646800  1
  C  C8  1  0.73029800  0.29985000  0.56871600  1
  C  C9  1  0.23029800  0.70015000  0.93128400  1
  C  C10  1  0.26970200  0.70015000  0.43128400  1
  C  C11  1  0.76970200  0.29985000  0.06871600  1
  C  C12  1  0.68285500  0.51409500  0.06080900  1
  C  C13  1  0.18285500  0.48590500  0.43919100  1
  C  C14  1  0.31714500  0.48590500  0.93919100  1
  C  C15  1  0.81714500  0.51409500  0.56080900  1
  C  C16  1  0.03179200  0.21986800  0.30274400  1
  C  C17  1  0.53179200  0.78013200  0.19725600  1
  C  C18  1  0.96820800  0.78013200  0.69725600  1
  C  C19  1  0.46820800  0.21986800  0.80274400  1
  C  C20  1  0.67830900  0.05460200  0.40280200  1
  C  C21  1  0.17830900  0.94539800  0.09719800  1
  C  C22  1  0.32169100  0.94539800  0.59719800  1
  C  C23  1  0.82169100  0.05460200  0.90280200  1
