# generated using pymatgen
data_CuNiC
_symmetry_space_group_name_H-M   'P 1'
_cell_length_a   4.57451200
_cell_length_b   7.20177900
_cell_length_c   7.88180600
_cell_angle_alpha   90.00000000
_cell_angle_beta   90.00000000
_cell_angle_gamma   90.00000000
_symmetry_Int_Tables_number   1
_chemical_formula_structural   CuNiC
_chemical_formula_sum   'Cu4 Ni4 C4'
_cell_volume   259.66313871
_cell_formula_units_Z   4
loop_
 _symmetry_equiv_pos_site_id
 _symmetry_equiv_pos_as_xyz
  1  'x, y, z'
loop_
 _atom_site_type_symbol
 _atom_site_label
 _atom_site_symmetry_multiplicity
 _atom_site_fract_x
 _atom_site_fract_y
 _atom_site_fract_z
 _atom_site_occupancy
  C  C0  1  0.25000000  0.50807500  0.20227600  1
  C  C1  1  0.75000000  0.49192500  0.79772400  1
  C  C2  1  0.25000000  0.00807500  0.29772400  1
  C  C3  1  0.75000000  0.99192500  0.70227600  1
  Ni  Ni4  1  0.25000000  0.19546200  0.90843600  1
  Ni  Ni5  1  0.75000000  0.30453800  0.40843600  1
  Ni  Ni6  1  0.25000000  0.69546200  0.59156400  1
  Ni  Ni7  1  0.75000000  0.80453800  0.09156400  1
  Cu  Cu8  1  0.75000000  0.19441900  0.08192500  1
  Cu  Cu9  1  0.25000000  0.30558100  0.58192500  1
  Cu  Cu10  1  0.75000000  0.69441900  0.41807500  1
  Cu  Cu11  1  0.25000000  0.80558100  0.91807500  1
