# generated using pymatgen
data_Cu2NiC11
_symmetry_space_group_name_H-M   'P 1'
_cell_length_a   3.89987102
_cell_length_b   4.01378576
_cell_length_c   16.99722470
_cell_angle_alpha   90.00000000
_cell_angle_beta   90.00000000
_cell_angle_gamma   90.00000000
_symmetry_Int_Tables_number   1
_chemical_formula_structural   Cu2NiC11
_chemical_formula_sum   'Cu2 Ni1 C11'
_cell_volume   266.06175256
_cell_formula_units_Z   1
loop_
 _symmetry_equiv_pos_site_id
 _symmetry_equiv_pos_as_xyz
  1  'x, y, z'
loop_
 _atom_site_type_symbol
 _atom_site_label
 _atom_site_symmetry_multiplicity
 _atom_site_fract_x
 _atom_site_fract_y
 _atom_site_fract_z
 _atom_site_occupancy
  C  C0  1  0.00000000  0.00000000  0.70284513  1
  C  C1  1  0.00000000  0.00000000  0.28650994  1
  C  C2  1  0.00000000  0.00000000  0.99433656  1
  Ni  Ni3  1  0.00000000  0.50000000  0.49402723  1
  Cu  Cu4  1  0.50000000  0.50000000  0.86341732  1
  Cu  Cu5  1  0.50000000  0.50000000  0.12528677  1
  C  C6  1  0.50000000  0.50000000  0.49305393  1
  C  C7  1  0.50000000  0.50000000  0.75433959  1
  C  C8  1  0.50000000  0.50000000  0.23429284  1
  C  C9  1  0.50000000  0.50000000  0.99431182  1
  C  C10  1  0.50000000  0.00000000  0.88516058  1
  C  C11  1  0.00000000  0.50000000  0.88716907  1
  C  C12  1  0.50000000  0.00000000  0.10328985  1
  C  C13  1  0.00000000  0.50000000  0.10160237  1
