# generated using pymatgen
data_CuNiC12
_symmetry_space_group_name_H-M   'P 1'
_cell_length_a   7.21857370
_cell_length_b   7.23690510
_cell_length_c   7.23690571
_cell_angle_alpha   59.76607038
_cell_angle_beta   60.15069919
_cell_angle_gamma   60.15069443
_symmetry_Int_Tables_number   1
_chemical_formula_structural   CuNiC12
_chemical_formula_sum   'Cu1 Ni1 C12'
_cell_volume   267.45487870
_cell_formula_units_Z   1
loop_
 _symmetry_equiv_pos_site_id
 _symmetry_equiv_pos_as_xyz
  1  'x, y, z'
loop_
 _atom_site_type_symbol
 _atom_site_label
 _atom_site_symmetry_multiplicity
 _atom_site_fract_x
 _atom_site_fract_y
 _atom_site_fract_z
 _atom_site_occupancy
  Ni  Ni0  1  0.90787134  0.86391828  0.86391828  1
  C  C1  1  0.02602058  0.49093174  0.49093174  1
  C  C2  1  0.52954017  0.48966933  0.99058309  1
  C  C3  1  0.52924944  0.48991970  0.48991970  1
  C  C4  1  0.52954017  0.99058309  0.48966933  1
  Cu  Cu5  1  0.15490639  0.11452120  0.11452120  1
  C  C6  1  0.28587514  0.25046396  0.25046396  1
  C  C7  1  0.28713082  0.24973530  0.71179272  1
  C  C8  1  0.28713082  0.71179272  0.24973530  1
  C  C9  1  0.75165831  0.24939266  0.24939266  1
  C  C10  1  0.31735241  0.72751304  0.72751304  1
  C  C11  1  0.76638455  0.72992457  0.27435645  1
  C  C12  1  0.76638455  0.27435645  0.72992457  1
  C  C13  1  0.76836231  0.72838896  0.72838896  1
