# generated using pymatgen
data_CuNiC16
_symmetry_space_group_name_H-M   'P 1'
_cell_length_a   8.86878761
_cell_length_b   8.86878731
_cell_length_c   22.86010913
_cell_angle_alpha   90.00000000
_cell_angle_beta   90.00000000
_cell_angle_gamma   120.00000107
_symmetry_Int_Tables_number   1
_chemical_formula_structural   CuNiC16
_chemical_formula_sum   'Cu6 Ni6 C96'
_cell_volume   1557.17499333
_cell_formula_units_Z   6
loop_
 _symmetry_equiv_pos_site_id
 _symmetry_equiv_pos_as_xyz
  1  'x, y, z'
loop_
 _atom_site_type_symbol
 _atom_site_label
 _atom_site_symmetry_multiplicity
 _atom_site_fract_x
 _atom_site_fract_y
 _atom_site_fract_z
 _atom_site_occupancy
  Ni  Ni0  1  -0.00000000  0.00000000  0.50189959  1
  Ni  Ni1  1  -0.00000000  0.00000000  0.00189959  1
  Ni  Ni2  1  0.66666700  0.33333300  0.83523259  1
  Ni  Ni3  1  0.66666700  0.33333300  0.33523259  1
  Ni  Ni4  1  0.33333300  0.66666700  0.16856659  1
  Ni  Ni5  1  0.33333300  0.66666700  0.66856659  1
  Cu  Cu6  1  -0.00000000  0.00000000  0.35434682  1
  Cu  Cu7  1  -0.00000000  0.00000000  0.85434682  1
  Cu  Cu8  1  0.66666700  0.33333300  0.68767982  1
  Cu  Cu9  1  0.66666700  0.33333300  0.18767982  1
  Cu  Cu10  1  0.33333300  0.66666700  0.02101382  1
  Cu  Cu11  1  0.33333300  0.66666700  0.52101382  1
  C  C12  1  -0.00000000  0.00000000  0.65093193  1
  C  C13  1  -0.00000000  0.00000000  0.15093193  1
  C  C14  1  0.66666700  0.33333300  0.98426493  1
  C  C15  1  0.66666700  0.33333300  0.48426493  1
  C  C16  1  0.33333300  0.66666700  0.31759893  1
  C  C17  1  0.33333300  0.66666700  0.81759893  1
  C  C18  1  0.28503991  0.97830077  0.25013909  1
  C  C19  1  0.69326086  0.71496009  0.25013909  1
  C  C20  1  0.02169923  0.30673914  0.25013909  1
  C  C21  1  0.28503991  0.30673914  0.75013909  1
  C  C22  1  0.02169923  0.71496009  0.75013909  1
  C  C23  1  0.69326086  0.97830077  0.75013909  1
  C  C24  1  0.95170691  0.31163377  0.58347209  1
  C  C25  1  0.35992786  0.04829309  0.58347209  1
  C  C26  1  0.68836623  0.64007214  0.58347209  1
  C  C27  1  0.95170691  0.64007214  0.08347209  1
  C  C28  1  0.68836623  0.04829309  0.08347209  1
  C  C29  1  0.35992786  0.31163377  0.08347209  1
  C  C30  1  0.61837291  0.64496777  0.91680609  1
  C  C31  1  0.02659386  0.38162709  0.91680609  1
  C  C32  1  0.35503223  0.97340614  0.91680609  1
  C  C33  1  0.61837291  0.97340614  0.41680609  1
  C  C34  1  0.35503223  0.38162709  0.41680609  1
  C  C35  1  0.02659386  0.64496777  0.41680609  1
  C  C36  1  0.20612257  0.00097736  0.30212807  1
  C  C37  1  0.79485479  0.79387743  0.30212807  1
  C  C38  1  0.99902264  0.20514521  0.30212807  1
  C  C39  1  0.20612257  0.20514521  0.80212807  1
  C  C40  1  0.99902264  0.79387743  0.80212807  1
  C  C41  1  0.79485479  0.00097736  0.80212807  1
  C  C42  1  0.77878940  0.95718694  0.69566612  1
  C  C43  1  0.17839754  0.22121060  0.69566612  1
  C  C44  1  0.04281306  0.82160246  0.69566612  1
  C  C45  1  0.77878940  0.82160246  0.19566612  1
  C  C46  1  0.04281306  0.22121060  0.19566612  1
  C  C47  1  0.17839754  0.95718694  0.19566612  1
  C  C48  1  0.87278957  0.33431036  0.63546107  1
  C  C49  1  0.46152179  0.12721043  0.63546107  1
  C  C50  1  0.66568964  0.53847821  0.63546107  1
  C  C51  1  0.87278957  0.53847821  0.13546107  1
  C  C52  1  0.66568964  0.12721043  0.13546107  1
  C  C53  1  0.46152179  0.33431036  0.13546107  1
  C  C54  1  0.44545640  0.29051994  0.02899912  1
  C  C55  1  0.84506454  0.55454360  0.02899912  1
  C  C56  1  0.70948006  0.15493546  0.02899912  1
  C  C57  1  0.44545640  0.15493546  0.52899912  1
  C  C58  1  0.70948006  0.55454360  0.52899912  1
  C  C59  1  0.84506454  0.29051994  0.52899912  1
  C  C60  1  0.53945557  0.66764436  0.96879507  1
  C  C61  1  0.12818779  0.46054443  0.96879507  1
  C  C62  1  0.33235564  0.87181221  0.96879507  1
  C  C63  1  0.53945557  0.87181221  0.46879507  1
  C  C64  1  0.33235564  0.46054443  0.46879507  1
  C  C65  1  0.12818779  0.66764436  0.46879507  1
  C  C66  1  0.11212240  0.62385394  0.36233312  1
  C  C67  1  0.51173054  0.88787760  0.36233312  1
  C  C68  1  0.37614606  0.48826946  0.36233312  1
  C  C69  1  0.11212240  0.48826946  0.86233312  1
  C  C70  1  0.37614606  0.88787760  0.86233312  1
  C  C71  1  0.51173054  0.62385394  0.86233312  1
  C  C72  1  0.99694753  0.79342533  0.41183894  1
  C  C73  1  0.79647780  0.00305247  0.41183894  1
  C  C74  1  0.20657467  0.20352220  0.41183894  1
  C  C75  1  0.99694753  0.20352220  0.91183894  1
  C  C76  1  0.20657467  0.00305247  0.91183894  1
  C  C77  1  0.79647780  0.79342533  0.91183894  1
  C  C78  1  0.96102589  0.14591623  0.58783500  1
  C  C79  1  0.18489034  0.03897411  0.58783500  1
  C  C80  1  0.85408377  0.81510966  0.58783500  1
  C  C81  1  0.96102589  0.81510966  0.08783500  1
  C  C82  1  0.85408377  0.03897411  0.08783500  1
  C  C83  1  0.18489034  0.14591623  0.08783500  1
  C  C84  1  0.66361453  0.12675833  0.74517194  1
  C  C85  1  0.46314480  0.33638547  0.74517194  1
  C  C86  1  0.87324167  0.53685520  0.74517194  1
  C  C87  1  0.66361453  0.53685520  0.24517194  1
  C  C88  1  0.87324167  0.33638547  0.24517194  1
  C  C89  1  0.46314480  0.12675833  0.24517194  1
  C  C90  1  0.62769289  0.47924923  0.92116800  1
  C  C91  1  0.85155734  0.37230711  0.92116800  1
  C  C92  1  0.52075077  0.14844266  0.92116800  1
  C  C93  1  0.62769289  0.14844266  0.42116800  1
  C  C94  1  0.52075077  0.37230711  0.42116800  1
  C  C95  1  0.85155734  0.47924923  0.42116800  1
  C  C96  1  0.33028053  0.46009233  0.07850594  1
  C  C97  1  0.12981080  0.66971947  0.07850594  1
  C  C98  1  0.53990767  0.87018920  0.07850594  1
  C  C99  1  0.33028053  0.87018920  0.57850594  1
  C  C100  1  0.53990767  0.66971947  0.57850594  1
  C  C101  1  0.12981080  0.46009233  0.57850594  1
  C  C102  1  0.29435889  0.81258323  0.25450200  1
  C  C103  1  0.51822334  0.70564111  0.25450200  1
  C  C104  1  0.18741677  0.48177666  0.25450200  1
  C  C105  1  0.29435889  0.48177666  0.75450200  1
  C  C106  1  0.18741677  0.70564111  0.75450200  1
  C  C107  1  0.51822334  0.81258323  0.75450200  1
