# generated using pymatgen
data_Cu2Ni2C9
_symmetry_space_group_name_H-M   'P 1'
_cell_length_a   5.59266462
_cell_length_b   5.35228287
_cell_length_c   6.03040950
_cell_angle_alpha   94.02491920
_cell_angle_beta   81.14174741
_cell_angle_gamma   67.75369805
_symmetry_Int_Tables_number   1
_chemical_formula_structural   Cu2Ni2C9
_chemical_formula_sum   'Cu2 Ni2 C9'
_cell_volume   163.44474063
_cell_formula_units_Z   1
loop_
 _symmetry_equiv_pos_site_id
 _symmetry_equiv_pos_as_xyz
  1  'x, y, z'
loop_
 _atom_site_type_symbol
 _atom_site_label
 _atom_site_symmetry_multiplicity
 _atom_site_fract_x
 _atom_site_fract_y
 _atom_site_fract_z
 _atom_site_occupancy
  C  C0  1  0.55769940  0.62879797  0.92091736  1
  Ni  Ni1  1  0.55102453  0.00674178  0.27675189  1
  Ni  Ni2  1  0.38548715  0.13593288  0.78703385  1
  Cu  Cu3  1  0.97369827  0.25534944  0.32870288  1
  Cu  Cu4  1  0.04900716  0.72791513  0.64089159  1
  C  C5  1  0.74066206  0.92155051  0.85730979  1
  C  C6  1  0.80951061  0.49377105  0.61391219  1
  C  C7  1  0.77485696  0.44055251  0.14315603  1
  C  C8  1  0.27006352  0.53039720  0.82181451  1
  C  C9  1  0.21013203  -0.02640905  0.59891344  1
  C  C10  1  0.82900023  -0.00071274  0.40770160  1
  C  C11  1  0.20777384  0.46212673  0.36622542  1
  C  C12  1  0.27997323  -0.00101340  0.12208645  1
