# generated using pymatgen
data_Cu4NiC4
_symmetry_space_group_name_H-M   'P 1'
_cell_length_a   7.08146595
_cell_length_b   8.11366915
_cell_length_c   8.11366800
_cell_angle_alpha   98.35402836
_cell_angle_beta   119.31739183
_cell_angle_gamma   119.31739575
_symmetry_Int_Tables_number   1
_chemical_formula_structural   Cu4NiC4
_chemical_formula_sum   'Cu4 Ni1 C4'
_cell_volume   305.59616275
_cell_formula_units_Z   1
loop_
 _symmetry_equiv_pos_site_id
 _symmetry_equiv_pos_as_xyz
  1  'x, y, z'
loop_
 _atom_site_type_symbol
 _atom_site_label
 _atom_site_symmetry_multiplicity
 _atom_site_fract_x
 _atom_site_fract_y
 _atom_site_fract_z
 _atom_site_occupancy
  C  C0  1  1.00000000  0.36429098  0.36429098  1
  C  C1  1  0.50000000  0.07302422  0.57302422  1
  C  C2  1  0.50000000  0.57302422  0.07302422  1
  C  C3  1  1.00000000  0.72437094  0.72437094  1
  Ni  Ni4  1  1.00000000  0.03387019  0.03387019  1
  Cu  Cu5  1  1.00000000  0.03652615  0.73041335  1
  Cu  Cu6  1  0.00000000  0.73041335  0.03652615  1
  Cu  Cu7  1  0.41861823  0.79803059  0.79803059  1
  Cu  Cu8  1  0.58138177  0.37941237  0.37941237  1
