# generated using pymatgen
data_Cu6NiC2
_symmetry_space_group_name_H-M   'P 1'
_cell_length_a   4.85663200
_cell_length_b   5.07932900
_cell_length_c   11.57712600
_cell_angle_alpha   90.00000000
_cell_angle_beta   90.00000000
_cell_angle_gamma   90.00000000
_symmetry_Int_Tables_number   1
_chemical_formula_structural   Cu6NiC2
_chemical_formula_sum   'Cu12 Ni2 C4'
_cell_volume   285.58954271
_cell_formula_units_Z   2
loop_
 _symmetry_equiv_pos_site_id
 _symmetry_equiv_pos_as_xyz
  1  'x, y, z'
loop_
 _atom_site_type_symbol
 _atom_site_label
 _atom_site_symmetry_multiplicity
 _atom_site_fract_x
 _atom_site_fract_y
 _atom_site_fract_z
 _atom_site_occupancy
  C  C0  1  0.75983700  0.83149100  0.30920900  1
  C  C1  1  0.24016300  0.83149100  0.69079100  1
  C  C2  1  0.25983700  0.16850900  0.19079100  1
  C  C3  1  0.74016300  0.16850900  0.80920900  1
  Ni  Ni4  1  0.00000000  0.79600000  0.00000000  1
  Ni  Ni5  1  0.50000000  0.20400000  0.50000000  1
  Cu  Cu6  1  0.88571100  0.64270700  0.09464100  1
  Cu  Cu7  1  0.11428900  0.64270700  0.90535900  1
  Cu  Cu8  1  0.38571100  0.35729300  0.40535900  1
  Cu  Cu9  1  0.61428900  0.35729300  0.59464100  1
  Cu  Cu10  1  0.41385200  0.87926700  0.25940200  1
  Cu  Cu11  1  0.58614800  0.87926700  0.74059800  1
  Cu  Cu12  1  0.27234300  0.01602800  0.54376500  1
  Cu  Cu13  1  0.72765700  0.01602800  0.45623500  1
  Cu  Cu14  1  0.77234300  0.98397200  0.95623500  1
  Cu  Cu15  1  0.22765700  0.98397200  0.04376500  1
  Cu  Cu16  1  0.08614800  0.12073300  0.75940200  1
  Cu  Cu17  1  0.91385200  0.12073300  0.24059800  1
