# generated using pymatgen
data_CuNi5C34
_symmetry_space_group_name_H-M   'P 1'
_cell_length_a   9.07613431
_cell_length_b   9.08344174
_cell_length_c   22.60146193
_cell_angle_alpha   89.91018680
_cell_angle_beta   89.72029884
_cell_angle_gamma   119.93564804
_symmetry_Int_Tables_number   1
_chemical_formula_structural   CuNi5C34
_chemical_formula_sum   'Cu3 Ni15 C102'
_cell_volume   1614.69297990
_cell_formula_units_Z   3
loop_
 _symmetry_equiv_pos_site_id
 _symmetry_equiv_pos_as_xyz
  1  'x, y, z'
loop_
 _atom_site_type_symbol
 _atom_site_label
 _atom_site_symmetry_multiplicity
 _atom_site_fract_x
 _atom_site_fract_y
 _atom_site_fract_z
 _atom_site_occupancy
  C  C0  1  0.63633035  -0.00013729  0.25353191  1
  C  C1  1  0.35957329  0.36302910  0.24895430  1
  C  C2  1  0.00399415  0.63428048  0.25115358  1
  C  C3  1  0.63141129  0.63024439  0.74849701  1
  C  C4  1  0.99265742  0.36135896  0.74887672  1
  C  C5  1  0.37160387  0.00915720  0.74863135  1
  C  C6  1  0.29612143  0.33325619  0.58272065  1
  C  C7  1  0.03174208  0.70370824  0.58368201  1
  C  C8  1  0.67286381  0.96566517  0.58402391  1
  C  C9  1  0.03839429  0.33786380  0.08705735  1
  C  C10  1  0.97668239  0.66864487  0.91671899  1
  C  C11  1  0.33470481  0.03434108  0.41732955  1
  C  C12  1  0.98667469  0.99314853  0.49758751  1
  C  C13  1  0.02246834  0.00821125  0.99951735  1
  C  C14  1  0.66030281  0.31580104  0.83062124  1
  C  C15  1  0.68337110  0.33920285  0.34065721  1
  C  C16  1  0.33515585  0.66487721  0.16628163  1
  C  C17  1  0.33607891  0.66378343  0.66592034  1
  C  C18  1  0.01041610  0.01414412  0.85031291  1
  C  C19  1  0.01052995  0.99332429  0.14735718  1
  C  C20  1  0.66680353  0.34263221  0.18876864  1
  C  C21  1  0.65629728  0.32823824  0.97679785  1
  C  C22  1  0.32110149  0.65984531  0.01937506  1
  C  C23  1  0.32749733  0.66898356  0.31880376  1
  C  C24  1  0.98143723  0.98526844  0.35303716  1
  C  C25  1  0.99947863  0.00043678  0.64824888  1
  C  C26  1  0.66680998  0.33427301  0.68213684  1
  C  C27  1  0.68589683  0.33691719  0.48519906  1
  C  C28  1  0.33944141  0.68892275  0.52076160  1
  C  C29  1  0.31660173  0.67159845  0.80923397  1
  Ni  Ni30  1  0.28987110  -0.00010444  0.25616178  1
  Ni  Ni31  1  0.70872299  0.71280109  0.25127660  1
  Ni  Ni32  1  0.99956824  0.28399598  0.25114225  1
  Ni  Ni33  1  0.29705520  0.29684707  0.74564486  1
  Ni  Ni34  1  0.99226081  0.70622891  0.74887184  1
  Ni  Ni35  1  0.70586519  0.99959895  0.74765476  1
  Ni  Ni36  1  0.96155114  0.33443167  0.58459782  1
  Ni  Ni37  1  0.37930195  0.05152299  0.58213287  1
  Ni  Ni38  1  0.66546682  0.62093551  0.58269853  1
  Ni  Ni39  1  0.95727818  0.62927283  0.08093474  1
  Ni  Ni40  1  0.36992516  0.33511073  0.08410104  1
  Ni  Ni41  1  0.04042527  0.37275970  0.91447309  1
  Ni  Ni42  1  0.33426411  0.95828552  0.91312801  1
  Ni  Ni43  1  0.63338589  0.96809860  0.41886336  1
  Ni  Ni44  1  0.03278035  0.66660950  0.41978504  1
  Cu  Cu45  1  0.66699338  0.04056233  0.08373342  1
  Cu  Cu46  1  0.62224671  0.66836955  0.91395236  1
  Cu  Cu47  1  0.33380085  0.37266900  0.41980119  1
  C  C48  1  0.19847333  0.03125379  0.31318435  1
  C  C49  1  0.83613623  0.80428077  0.30817590  1
  C  C50  1  0.97181401  0.15258954  0.30599633  1
  C  C51  1  0.21576269  0.16917147  0.80264313  1
  C  C52  1  0.95590777  0.78299310  0.80855899  1
  C  C53  1  0.83313073  0.04021882  0.80341599  1
  C  C54  1  0.80076646  0.96648197  0.69005265  1
  C  C55  1  0.16658427  0.20231252  0.68943756  1
  C  C56  1  0.03145245  0.83600580  0.69199662  1
  C  C57  1  0.79034853  0.83537545  0.19405087  1
  C  C58  1  0.03205294  0.20984645  0.18954884  1
  C  C59  1  0.17042692  0.96041042  0.19749910  1
  C  C60  1  0.86994266  0.36941122  0.64178799  1
  C  C61  1  0.50269721  0.13532605  0.64019751  1
  C  C62  1  0.63281237  0.49927126  0.64173185  1
  C  C63  1  0.87338916  0.50928485  0.14074147  1
  C  C64  1  0.64268124  0.11626205  0.13895743  1
  C  C65  1  0.47601955  0.34942068  0.14498619  1
  C  C66  1  0.46751487  0.30830437  0.02775332  1
  C  C67  1  0.84887214  0.52870185  0.02242070  1
  C  C68  1  0.68772227  0.14913193  0.03157066  1
  C  C69  1  0.46750415  0.17028186  0.52418386  1
  C  C70  1  0.69967950  0.52094663  0.52899798  1
  C  C71  1  0.83087711  0.29676651  0.52879497  1
  C  C72  1  0.54018002  0.68413989  0.96830092  1
  C  C73  1  0.15033254  0.45816541  0.97485920  1
  C  C74  1  0.31436869  0.84079220  0.97052790  1
  C  C75  1  0.52839013  0.84131221  0.47656871  1
  C  C76  1  0.31611956  0.46193529  0.47169251  1
  C  C77  1  0.16834539  0.69346337  0.47505965  1
  C  C78  1  0.11260358  0.63368002  0.35893370  1
  C  C79  1  0.51340585  0.88013731  0.36027536  1
  C  C80  1  0.35366007  0.47270858  0.36405512  1
  C  C81  1  0.14832055  0.50028529  0.85722636  1
  C  C82  1  0.34989102  0.85667372  0.85368004  1
  C  C83  1  0.52318750  0.65052988  0.86006197  1
  C  C84  1  0.03526667  0.84876537  0.41457797  1
  C  C85  1  0.81971063  0.98170371  0.41248011  1
  C  C86  1  0.17952110  0.20175378  0.41595041  1
  C  C87  1  0.01627963  0.18355665  0.91228021  1
  C  C88  1  0.15349048  0.95712435  0.91089884  1
  C  C89  1  0.79639086  0.81769006  0.91162059  1
  C  C90  1  0.97464352  0.16084081  0.59024625  1
  C  C91  1  0.18753564  0.02517671  0.59016269  1
  C  C92  1  0.83668786  0.80983351  0.58959710  1
  C  C93  1  0.97171267  0.81452924  0.08313404  1
  C  C94  1  0.82446835  0.03203270  0.08654243  1
  C  C95  1  0.17346424  0.17570613  0.08401643  1
  C  C96  1  0.68312785  0.16683659  0.74001206  1
  C  C97  1  0.48556880  0.31553548  0.73884039  1
  C  C98  1  0.83006023  0.51502215  0.74062193  1
  C  C99  1  0.69876720  0.52701225  0.24893749  1
  C  C100  1  0.82699269  0.30012590  0.24896760  1
  C  C101  1  0.47937918  0.16692697  0.24925698  1
  C  C102  1  0.64139466  0.51333620  0.91776929  1
  C  C103  1  0.86146268  0.37636563  0.91561276  1
  C  C104  1  0.50401650  0.14521700  0.91468720  1
  C  C105  1  0.63624978  0.14903899  0.42692617  1
  C  C106  1  0.48676252  0.35322638  0.42217031  1
  C  C107  1  0.84574131  0.49793912  0.42847923  1
  C  C108  1  0.35710293  0.50870057  0.08160924  1
  C  C109  1  0.14626620  0.64368629  0.08045314  1
  C  C110  1  0.51673322  0.86905525  0.07785498  1
  C  C111  1  0.36068850  0.85845655  0.57645691  1
  C  C112  1  0.49335250  0.63828432  0.57523291  1
  C  C113  1  0.14907053  0.50509908  0.57558738  1
  C  C114  1  0.31130182  0.83051976  0.25770339  1
  C  C115  1  0.51694791  0.68160434  0.25862433  1
  C  C116  1  0.16846989  0.47285448  0.25819980  1
  C  C117  1  0.31342230  0.48441120  0.75421928  1
  C  C118  1  0.16869637  0.69124606  0.75353499  1
  C  C119  1  0.51800765  0.82586360  0.75472641  1
