# generated using pymatgen
data_Cu4NiC3
_symmetry_space_group_name_H-M   'P 1'
_cell_length_a   6.30423900
_cell_length_b   6.59319500
_cell_length_c   7.61358000
_cell_angle_alpha   90.00000000
_cell_angle_beta   90.00000000
_cell_angle_gamma   90.00000000
_symmetry_Int_Tables_number   1
_chemical_formula_structural   Cu4NiC3
_chemical_formula_sum   'Cu8 Ni2 C6'
_cell_volume   316.45903935
_cell_formula_units_Z   2
loop_
 _symmetry_equiv_pos_site_id
 _symmetry_equiv_pos_as_xyz
  1  'x, y, z'
loop_
 _atom_site_type_symbol
 _atom_site_label
 _atom_site_symmetry_multiplicity
 _atom_site_fract_x
 _atom_site_fract_y
 _atom_site_fract_z
 _atom_site_occupancy
  C  C0  1  0.50629000  0.33116700  0.24901600  1
  C  C1  1  0.00514700  0.16643700  0.50000000  1
  C  C2  1  0.00629000  0.66883300  0.74901600  1
  C  C3  1  0.50629000  0.33116700  0.75098400  1
  C  C4  1  0.00629000  0.66883300  0.25098400  1
  C  C5  1  0.50514700  0.83356300  0.00000000  1
  Ni  Ni6  1  0.00368700  0.16732200  0.00000000  1
  Ni  Ni7  1  0.50368700  0.83267800  0.50000000  1
  Cu  Cu8  1  0.37065500  0.65588200  0.76337000  1
  Cu  Cu9  1  0.87065500  0.34411800  0.73663000  1
  Cu  Cu10  1  0.87065500  0.34411800  0.26337000  1
  Cu  Cu11  1  0.37065500  0.65588200  0.23663000  1
  Cu  Cu12  1  0.37021400  0.18249900  0.50000000  1
  Cu  Cu13  1  0.87021400  0.81750100  0.00000000  1
  Cu  Cu14  1  0.39596100  0.16724500  0.00000000  1
  Cu  Cu15  1  0.89596100  0.83275500  0.50000000  1
