# generated using pymatgen
data_Cu8NiC16
_symmetry_space_group_name_H-M   'P 1'
_cell_length_a   9.81874235
_cell_length_b   9.80691187
_cell_length_c   3.10630400
_cell_angle_alpha   90.00000000
_cell_angle_beta   90.00000000
_cell_angle_gamma   86.48873232
_symmetry_Int_Tables_number   1
_chemical_formula_structural   Cu8NiC16
_chemical_formula_sum   'Cu8 Ni1 C16'
_cell_volume   298.54929965
_cell_formula_units_Z   1
loop_
 _symmetry_equiv_pos_site_id
 _symmetry_equiv_pos_as_xyz
  1  'x, y, z'
loop_
 _atom_site_type_symbol
 _atom_site_label
 _atom_site_symmetry_multiplicity
 _atom_site_fract_x
 _atom_site_fract_y
 _atom_site_fract_z
 _atom_site_occupancy
  Ni  Ni0  1  0.26646000  0.99723800  0.50000000  1
  Cu  Cu1  1  0.99206400  0.98115200  0.00000000  1
  Cu  Cu2  1  0.98258900  0.48688400  0.00000000  1
  Cu  Cu3  1  0.23080000  0.27164400  0.50000000  1
  Cu  Cu4  1  0.18771100  0.70002900  0.50000000  1
  Cu  Cu5  1  0.52106600  0.50807000  0.00000000  1
  Cu  Cu6  1  0.54338100  0.00880700  0.00000000  1
  Cu  Cu7  1  0.75795200  0.28167500  0.50000000  1
  Cu  Cu8  1  0.74728000  0.71483500  0.50000000  1
  C  C9  1  0.07989800  0.38717000  0.50000000  1
  C  C10  1  0.11095900  0.88219400  0.50000000  1
  C  C11  1  0.19548600  0.13574100  0.00000000  1
  C  C12  1  0.14133600  0.61277200  0.00000000  1
  C  C13  1  0.58650800  0.40656400  0.50000000  1
  C  C14  1  0.64399300  0.65211100  0.00000000  1
  C  C15  1  0.83944100  0.35579200  0.00000000  1
  C  C16  1  0.90248400  0.59659000  0.50000000  1
  C  C17  1  0.33979700  0.36100300  0.00000000  1
  C  C18  1  0.36103900  0.89545000  0.00000000  1
  C  C19  1  0.43202700  0.11159600  0.50000000  1
  C  C20  1  0.38976100  0.61413800  0.50000000  1
  C  C21  1  0.62363200  0.89641300  0.50000000  1
  C  C22  1  0.67102800  0.16491100  0.00000000  1
  C  C23  1  0.83960600  0.83918300  0.00000000  1
  C  C24  1  0.89842400  0.10331600  0.50000000  1
