# generated using pymatgen
data_CuNi2C7
_symmetry_space_group_name_H-M   'P 1'
_cell_length_a   5.73221110
_cell_length_b   5.71796610
_cell_length_c   5.42916005
_cell_angle_alpha   89.99036458
_cell_angle_beta   90.01886114
_cell_angle_gamma   120.08000372
_symmetry_Int_Tables_number   1
_chemical_formula_structural   CuNi2C7
_chemical_formula_sum   'Cu1 Ni2 C7'
_cell_volume   153.98425823
_cell_formula_units_Z   1
loop_
 _symmetry_equiv_pos_site_id
 _symmetry_equiv_pos_as_xyz
  1  'x, y, z'
loop_
 _atom_site_type_symbol
 _atom_site_label
 _atom_site_symmetry_multiplicity
 _atom_site_fract_x
 _atom_site_fract_y
 _atom_site_fract_z
 _atom_site_occupancy
  C  C0  1  0.66455300  0.32911200  0.99999900  1
  Ni  Ni1  1  0.66697400  0.33396300  0.49999500  1
  Ni  Ni2  1  0.33307000  0.66614200  0.50000100  1
  Cu  Cu3  1  0.99856500  0.99709600  0.00000700  1
  C  C4  1  0.40411200  0.35893800  0.73220800  1
  C  C5  1  0.64011600  0.04380900  0.73227100  1
  C  C6  1  0.95563300  0.59660100  0.73315900  1
  C  C7  1  0.40369400  0.04381300  0.26772800  1
  C  C8  1  0.95481700  0.35892600  0.26779200  1
  C  C9  1  0.64096800  0.59660200  0.26684000  1
