# generated using pymatgen
data_CuNiC11
_symmetry_space_group_name_H-M   'P 1'
_cell_length_a   17.44734010
_cell_length_b   8.75599563
_cell_length_c   22.05529688
_cell_angle_alpha   89.69043966
_cell_angle_beta   89.19486642
_cell_angle_gamma   119.76267196
_symmetry_Int_Tables_number   1
_chemical_formula_structural   CuNiC11
_chemical_formula_sum   'Cu18 Ni18 C198'
_cell_volume   2924.32005134
_cell_formula_units_Z   18
loop_
 _symmetry_equiv_pos_site_id
 _symmetry_equiv_pos_as_xyz
  1  'x, y, z'
loop_
 _atom_site_type_symbol
 _atom_site_label
 _atom_site_symmetry_multiplicity
 _atom_site_fract_x
 _atom_site_fract_y
 _atom_site_fract_z
 _atom_site_occupancy
  C  C0  1  0.31703184  0.00011341  0.24789194  1
  C  C1  1  0.19148291  0.37065389  0.24704276  1
  C  C2  1  0.68777269  0.37030053  0.24643867  1
  C  C3  1  0.99866172  0.63595379  0.25025513  1
  C  C4  1  0.31623909  0.62364112  0.75257068  1
  C  C5  1  0.81642672  0.62536273  0.75021025  1
  C  C6  1  0.99532088  0.36540351  0.75061483  1
  C  C7  1  0.49775585  0.37441719  0.74551123  1
  C  C8  1  0.18342827  0.00603276  0.75026516  1
  C  C9  1  0.68650089  0.00882166  0.75092986  1
  C  C10  1  0.64801501  0.34094557  0.57941058  1
  C  C11  1  0.32663935  0.68881590  0.08095678  1
  C  C12  1  0.82808524  0.68960659  0.08530931  1
  C  C13  1  0.16531684  0.30922045  0.92049782  1
  C  C14  1  0.99052948  0.30524499  0.41877245  1
  C  C15  1  0.16493707  0.02929672  0.41833876  1
  C  C16  1  0.66470770  0.03082297  0.41570062  1
  C  C17  1  0.84617161  0.66801800  0.41803964  1
  C  C18  1  0.00109640  0.00226749  0.50163278  1
  C  C19  1  0.49449206  0.00260580  0.49831453  1
  C  C20  1  0.00268883  0.01022750  0.99971331  1
  C  C21  1  0.50151627  0.01246001  0.99715771  1
  C  C22  1  0.33885870  0.34515377  0.83487044  1
  C  C23  1  0.83416694  0.33344432  0.83222208  1
  C  C24  1  0.33828707  0.35345351  0.32996351  1
  C  C25  1  0.83224632  0.33212408  0.33136267  1
  C  C26  1  0.16706438  0.66238380  0.16186243  1
  C  C27  1  0.66336307  0.66472184  0.16344893  1
  C  C28  1  0.16458050  0.66344093  0.66334322  1
  C  C29  1  0.66131618  0.66438738  0.66309976  1
  C  C30  1  0.49831667  0.99882804  0.35295029  1
  C  C31  1  0.33581212  0.34444426  0.68556108  1
  C  C32  1  0.83524534  0.33622280  0.68958688  1
  C  C33  1  0.33137624  0.33883338  0.18647773  1
  C  C34  1  0.83125828  0.33407838  0.18450838  1
  C  C35  1  0.16509812  0.65044024  0.01645506  1
  C  C36  1  0.66055658  0.64920241  0.01786667  1
  C  C37  1  0.16342334  0.65910852  0.51733001  1
  C  C38  1  0.66441956  0.66120192  0.51847762  1
  Ni  Ni39  1  0.14538332  0.99538726  0.25279056  1
  Ni  Ni40  1  0.35919330  0.71123079  0.25235561  1
  Ni  Ni41  1  0.85730298  0.72058687  0.25021594  1
  Ni  Ni42  1  0.14465184  0.28992828  0.75082664  1
  Ni  Ni43  1  0.64215901  0.28577086  0.75265390  1
  Ni  Ni44  1  0.00367289  0.71824759  0.75428757  1
  Ni  Ni45  1  0.49941485  0.72059646  0.75104502  1
  Ni  Ni46  1  0.85355714  0.99436276  0.75162825  1
  Ni  Ni47  1  0.47750694  0.33232512  0.58568693  1
  Ni  Ni48  1  0.18538492  0.32864463  0.08493391  1
  Ni  Ni49  1  0.68559565  0.32988916  0.08570355  1
  Ni  Ni50  1  0.31536038  0.67722640  0.91675236  1
  Ni  Ni51  1  0.01263402  0.36253251  0.91923660  1
  Ni  Ni52  1  0.51964013  0.37057981  0.91789583  1
  Ni  Ni53  1  0.81312162  0.95700352  0.41805578  1
  Ni  Ni54  1  0.17069917  0.37900507  0.41763553  1
  Ni  Ni55  1  0.66051753  0.36815849  0.41946469  1
  Ni  Ni56  1  0.02579542  0.66892136  0.41745839  1
  C  C57  1  0.00214080  0.99176208  0.35542483  1
  C  C58  1  0.99725049  0.00820657  0.84890335  1
  C  C59  1  0.50198623  0.99947820  0.85671502  1
  C  C60  1  0.00247829  0.00247943  0.65784413  1
  C  C61  1  0.50403016  0.01619318  0.65056733  1
  C  C62  1  0.00870305  0.99666586  0.14958230  1
  C  C63  1  0.50007591  0.00391251  0.14704729  1
  C  C64  1  0.33654473  0.35122401  0.97828890  1
  C  C65  1  0.82952717  0.32231761  0.98255399  1
  C  C66  1  0.33620942  0.34152751  0.48516584  1
  C  C67  1  0.83375141  0.33490215  0.47457615  1
  C  C68  1  0.17358434  0.67090262  0.31680165  1
  C  C69  1  0.68128665  0.68004936  0.31930243  1
  C  C70  1  0.15469549  0.63730412  0.81940242  1
  C  C71  1  0.65660299  0.65462952  0.81029775  1
  Cu  Cu72  1  0.64451339  0.99167806  0.25074734  1
  Cu  Cu73  1  0.99828796  0.28488049  0.24980285  1
  Cu  Cu74  1  0.50185540  0.29583823  0.25047697  1
  Cu  Cu75  1  0.35460719  0.99793401  0.75077428  1
  Cu  Cu76  1  0.97866998  0.32966507  0.58402115  1
  Cu  Cu77  1  0.18528577  0.03996903  0.58516429  1
  Cu  Cu78  1  0.68924968  0.04167162  0.58398326  1
  Cu  Cu79  1  0.33323469  0.62831177  0.58405604  1
  Cu  Cu80  1  0.83772555  0.63039329  0.58407869  1
  Cu  Cu81  1  0.48041754  0.62530246  0.08408253  1
  Cu  Cu82  1  0.97953798  0.62345758  0.08335117  1
  Cu  Cu83  1  0.33395528  0.04744394  0.08386073  1
  Cu  Cu84  1  0.83370756  0.04323918  0.08364782  1
  Cu  Cu85  1  0.81341634  0.66775284  0.91671541  1
  Cu  Cu86  1  0.16562740  0.95433782  0.91587518  1
  Cu  Cu87  1  0.66767294  0.95677976  0.91698159  1
  Cu  Cu88  1  0.31348117  0.95911126  0.41863558  1
  Cu  Cu89  1  0.52114630  0.66175546  0.41659653  1
  C  C90  1  0.09956410  0.03910405  0.31052989  1
  C  C91  1  0.60718196  0.02820492  0.30544656  1
  C  C92  1  0.41504284  0.81036079  0.30862201  1
  C  C93  1  0.91857224  0.80904432  0.30965452  1
  C  C94  1  0.48701669  0.18553388  0.30453344  1
  C  C95  1  0.98382497  0.18180592  0.30654048  1
  C  C96  1  0.10178213  0.16420429  0.81102050  1
  C  C97  1  0.59510772  0.15153196  0.80893980  1
  C  C98  1  0.48163895  0.81272062  0.80871219  1
  C  C99  1  0.98255494  0.81042150  0.81126134  1
  C  C100  1  0.41085018  0.03396768  0.80367170  1
  C  C101  1  0.91876158  0.04103879  0.80861013  1
  C  C102  1  0.39303617  0.95882084  0.69480435  1
  C  C103  1  0.89573835  0.94464359  0.69105743  1
  C  C104  1  0.07782039  0.20889523  0.69197676  1
  C  C105  1  0.58108795  0.21185869  0.69067701  1
  C  C106  1  0.02772440  0.84581823  0.69214672  1
  C  C107  1  0.51942722  0.84966803  0.68899715  1
  C  C108  1  0.40104236  0.84656099  0.18803789  1
  C  C109  1  0.90192708  0.84252520  0.18727668  1
  C  C110  1  0.01655308  0.20537966  0.19565540  1
  C  C111  1  0.52318150  0.21868817  0.19497745  1
  C  C112  1  0.07865244  0.94654440  0.19452875  1
  C  C113  1  0.58971170  0.96567345  0.19575589  1
  C  C114  1  0.43389254  0.35120454  0.64629653  1
  C  C115  1  0.93519712  0.35152670  0.63771329  1
  C  C116  1  0.23773457  0.12372122  0.63864405  1
  C  C117  1  0.74092857  0.12498703  0.63741812  1
  C  C118  1  0.31747766  0.52013960  0.63860476  1
  C  C119  1  0.82265749  0.51603982  0.63727179  1
  C  C120  1  0.43950048  0.51449714  0.13824100  1
  C  C121  1  0.94143617  0.51990713  0.13957262  1
  C  C122  1  0.32484196  0.12602855  0.14036517  1
  C  C123  1  0.82238655  0.12729674  0.13799484  1
  C  C124  1  0.24414961  0.36036959  0.14305807  1
  C  C125  1  0.74435459  0.36354847  0.14462172  1
  C  C126  1  0.23354801  0.29398703  0.02133714  1
  C  C127  1  0.73509808  0.29419239  0.02386045  1
  C  C128  1  0.42239885  0.55049102  0.02889934  1
  C  C129  1  0.92053779  0.54296977  0.02992084  1
  C  C130  1  0.35092609  0.15908367  0.02897745  1
  C  C131  1  0.85226080  0.15766814  0.02711131  1
  C  C132  1  0.22500313  0.15175252  0.52736453  1
  C  C133  1  0.72928485  0.16030635  0.52683822  1
  C  C134  1  0.34975327  0.54556244  0.52776358  1
  C  C135  1  0.85112207  0.54722644  0.52652542  1
  C  C136  1  0.41245821  0.29606775  0.52363797  1
  C  C137  1  0.92371396  0.30067825  0.52681179  1
  C  C138  1  0.27686795  0.71092378  0.97736590  1
  C  C139  1  0.77511461  0.69864012  0.97128047  1
  C  C140  1  0.07936863  0.44684287  0.97270450  1
  C  C141  1  0.57860065  0.45420797  0.97421013  1
  C  C142  1  0.15177196  0.84470992  0.97072042  1
  C  C143  1  0.65580621  0.85078522  0.97065937  1
  C  C144  1  0.27135657  0.84993652  0.47145948  1
  C  C145  1  0.77263015  0.83247913  0.47507114  1
  C  C146  1  0.14432232  0.45276789  0.47422830  1
  C  C147  1  0.65135499  0.45474627  0.47901766  1
  C  C148  1  0.08661693  0.71945416  0.47417522  1
  C  C149  1  0.57592201  0.69475162  0.46988566  1
  C  C150  1  0.06533072  0.62194525  0.35503624  1
  C  C151  1  0.56145612  0.62914612  0.35995353  1
  C  C152  1  0.25621495  0.88588443  0.36138470  1
  C  C153  1  0.74780415  0.88337032  0.35762881  1
  C  C154  1  0.18613155  0.49539504  0.35361691  1
  C  C155  1  0.68756575  0.50027831  0.35618795  1
  C  C156  1  0.05152059  0.48092430  0.85454926  1
  C  C157  1  0.56139105  0.49803186  0.85404363  1
  C  C158  1  0.18099158  0.87513267  0.85889880  1
  C  C159  1  0.68409877  0.88324836  0.85929951  1
  C  C160  1  0.24829711  0.62987875  0.85474570  1
  C  C161  1  0.75974788  0.63860671  0.86071504  1
  C  C162  1  0.00755463  0.83550925  0.40908884  1
  C  C163  1  0.51146342  0.81885665  0.40936836  1
  C  C164  1  0.40159148  0.98144772  0.41021430  1
  C  C165  1  0.91300941  0.98812067  0.40526339  1
  C  C166  1  0.08210658  0.18014826  0.40679503  1
  C  C167  1  0.58376427  0.16987845  0.40929741  1
  C  C168  1  0.00908418  0.16845990  0.90837182  1
  C  C169  1  0.50897087  0.17581440  0.90450441  1
  C  C170  1  0.08561488  0.97513497  0.91093047  1
  C  C171  1  0.58735690  0.97493325  0.91176385  1
  C  C172  1  0.41404496  0.84450756  0.90650025  1
  C  C173  1  0.90364887  0.82716292  0.91006910  1
  C  C174  1  0.48894586  0.14422320  0.58976481  1
  C  C175  1  0.98561904  0.16417913  0.58765833  1
  C  C176  1  0.09480567  0.02740315  0.58844270  1
  C  C177  1  0.60000280  0.03096033  0.58664907  1
  C  C178  1  0.41571989  0.80249510  0.58756076  1
  C  C179  1  0.91963758  0.80613345  0.58747523  1
  C  C180  1  0.48325235  0.80237199  0.08902715  1
  C  C181  1  0.98168015  0.80003925  0.08731977  1
  C  C182  1  0.41575463  0.02345064  0.08691803  1
  C  C183  1  0.91383502  0.02207251  0.08680795  1
  C  C184  1  0.08319029  0.14340368  0.09132953  1
  C  C185  1  0.58498693  0.14355820  0.09284417  1
  C  C186  1  0.34244538  0.15189722  0.74373870  1
  C  C187  1  0.84289283  0.16382113  0.74358384  1
  C  C188  1  0.23981334  0.30651689  0.74396995  1
  C  C189  1  0.73874070  0.31036750  0.74456168  1
  C  C190  1  0.41607102  0.52528755  0.74739663  1
  C  C191  1  0.91965546  0.52713313  0.74578157  1
  C  C192  1  0.34270828  0.51687419  0.24524934  1
  C  C193  1  0.84701035  0.52506493  0.24772504  1
  C  C194  1  0.42227472  0.30835601  0.24160139  1
  C  C195  1  0.92065686  0.30879212  0.24324865  1
  C  C196  1  0.24292726  0.16019264  0.24803124  1
  C  C197  1  0.73401027  0.14821471  0.24338726  1
  C  C198  1  0.31877932  0.48819645  0.92087320  1
  C  C199  1  0.82236289  0.50523862  0.92201011  1
  C  C200  1  0.41734586  0.34638469  0.92585759  1
  C  C201  1  0.91358153  0.34824232  0.92712956  1
  C  C202  1  0.24472057  0.13278715  0.91849141  1
  C  C203  1  0.74833851  0.13796891  0.92027047  1
  C  C204  1  0.31819438  0.13627838  0.42158393  1
  C  C205  1  0.82439490  0.15664417  0.42448743  1
  C  C206  1  0.25853391  0.34601236  0.42742948  1
  C  C207  1  0.75637175  0.35734721  0.42385264  1
  C  C208  1  0.43078518  0.49981497  0.42226451  1
  C  C209  1  0.92518826  0.49092918  0.42401041  1
  C  C210  1  0.17605686  0.50238436  0.07944464  1
  C  C211  1  0.68044509  0.50720479  0.07799956  1
  C  C212  1  0.06911298  0.65291695  0.07519852  1
  C  C213  1  0.56899406  0.65478948  0.07624870  1
  C  C214  1  0.25534482  0.87032959  0.07885275  1
  C  C215  1  0.75542664  0.86935530  0.07632606  1
  C  C216  1  0.17765773  0.86626197  0.57845487  1
  C  C217  1  0.67892278  0.86700232  0.57630768  1
  C  C218  1  0.25546417  0.64927115  0.57610537  1
  C  C219  1  0.75823857  0.64734437  0.57934869  1
  C  C220  1  0.06619152  0.48722626  0.57852610  1
  C  C221  1  0.57638893  0.49681036  0.57923480  1
  C  C222  1  0.15037221  0.81143583  0.26067535  1
  C  C223  1  0.64986569  0.82605459  0.25597597  1
  C  C224  1  0.25620932  0.69613007  0.25572330  1
  C  C225  1  0.75502282  0.69387670  0.25570609  1
  C  C226  1  0.07939499  0.46328486  0.25300373  1
  C  C227  1  0.58281829  0.47364172  0.25524768  1
  C  C228  1  0.15379771  0.48834993  0.75591683  1
  C  C229  1  0.65263894  0.48414916  0.75774479  1
  C  C230  1  0.09628415  0.70562627  0.76016528  1
  C  C231  1  0.59144904  0.70794600  0.75524919  1
  C  C232  1  0.26589752  0.83717259  0.75584589  1
  C  C233  1  0.75609195  0.81451153  0.76149560  1
