# generated using pymatgen
data_Cu5Ni2C3
_symmetry_space_group_name_H-M   'P 1'
_cell_length_a   6.92728900
_cell_length_b   7.25648100
_cell_length_c   22.78728300
_cell_angle_alpha   90.00000000
_cell_angle_beta   90.00000000
_cell_angle_gamma   90.00000000
_symmetry_Int_Tables_number   1
_chemical_formula_structural   Cu5Ni2C3
_chemical_formula_sum   'Cu20 Ni8 C12'
_cell_volume   1145.46524017
_cell_formula_units_Z   4
loop_
 _symmetry_equiv_pos_site_id
 _symmetry_equiv_pos_as_xyz
  1  'x, y, z'
loop_
 _atom_site_type_symbol
 _atom_site_label
 _atom_site_symmetry_multiplicity
 _atom_site_fract_x
 _atom_site_fract_y
 _atom_site_fract_z
 _atom_site_occupancy
  C  C0  1  0.05498000  0.38020200  0.39625400  1
  C  C1  1  0.55498000  0.11979800  0.60374600  1
  C  C2  1  0.44502000  0.88020200  0.10374600  1
  C  C3  1  0.94502000  0.61979800  0.89625400  1
  C  C4  1  0.94502000  0.61979800  0.60374600  1
  C  C5  1  0.44502000  0.88020200  0.39625400  1
  C  C6  1  0.55498000  0.11979800  0.89625400  1
  C  C7  1  0.05498000  0.38020200  0.10374600  1
  C  C8  1  0.94322000  0.04715300  0.75000000  1
  C  C9  1  0.44322000  0.45284700  0.25000000  1
  C  C10  1  0.55678000  0.54715300  0.75000000  1
  C  C11  1  0.05678000  0.95284700  0.25000000  1
  Ni  Ni12  1  0.69823300  0.83383100  0.82550600  1
  Ni  Ni13  1  0.19823300  0.66616900  0.32550600  1
  Ni  Ni14  1  0.69823300  0.83383100  0.67449400  1
  Ni  Ni15  1  0.30176700  0.16616900  0.17449400  1
  Ni  Ni16  1  0.80176700  0.33383100  0.82550600  1
  Ni  Ni17  1  0.80176700  0.33383100  0.67449400  1
  Ni  Ni18  1  0.30176700  0.16616900  0.32550600  1
  Ni  Ni19  1  0.19823300  0.66616900  0.17449400  1
  Cu  Cu20  1  0.63538000  0.82955900  0.25000000  1
  Cu  Cu21  1  0.13538000  0.67044100  0.75000000  1
  Cu  Cu22  1  0.86462000  0.32955900  0.25000000  1
  Cu  Cu23  1  0.36462000  0.17044100  0.75000000  1
  Cu  Cu24  1  0.34861900  0.47885500  0.61989500  1
  Cu  Cu25  1  0.34861900  0.47885500  0.88010500  1
  Cu  Cu26  1  0.84861900  0.02114500  0.38010500  1
  Cu  Cu27  1  0.15138100  0.97885500  0.88010500  1
  Cu  Cu28  1  0.65138100  0.52114500  0.11989500  1
  Cu  Cu29  1  0.65138100  0.52114500  0.38010500  1
  Cu  Cu30  1  0.15138100  0.97885500  0.61989500  1
  Cu  Cu31  1  0.84861900  0.02114500  0.11989500  1
  Cu  Cu32  1  0.16656600  0.67805900  0.02112200  1
  Cu  Cu33  1  0.66656600  0.82194100  0.97887800  1
  Cu  Cu34  1  0.33343400  0.17805900  0.47887800  1
  Cu  Cu35  1  0.83343400  0.32194100  0.52112200  1
  Cu  Cu36  1  0.83343400  0.32194100  0.97887800  1
  Cu  Cu37  1  0.33343400  0.17805900  0.02112200  1
  Cu  Cu38  1  0.66656600  0.82194100  0.52112200  1
  Cu  Cu39  1  0.16656600  0.67805900  0.47887800  1
