# generated using pymatgen
data_Cu2Ni2C9
_symmetry_space_group_name_H-M   'P 1'
_cell_length_a   5.26697522
_cell_length_b   5.26697522
_cell_length_c   6.29819636
_cell_angle_alpha   86.65561676
_cell_angle_beta   86.65561676
_cell_angle_gamma   64.88313503
_symmetry_Int_Tables_number   1
_chemical_formula_structural   Cu2Ni2C9
_chemical_formula_sum   'Cu2 Ni2 C9'
_cell_volume   157.81933723
_cell_formula_units_Z   1
loop_
 _symmetry_equiv_pos_site_id
 _symmetry_equiv_pos_as_xyz
  1  'x, y, z'
loop_
 _atom_site_type_symbol
 _atom_site_label
 _atom_site_symmetry_multiplicity
 _atom_site_fract_x
 _atom_site_fract_y
 _atom_site_fract_z
 _atom_site_occupancy
  C  C0  1  0.50000000  0.50000000  0.50000000  1
  Ni  Ni1  1  0.00000000  0.00000000  0.00000000  1
  Ni  Ni2  1  0.00000000  0.00000000  0.50000000  1
  Cu  Cu3  1  0.32814300  0.32814300  0.20499900  1
  Cu  Cu4  1  0.67185700  0.67185700  0.79500100  1
  C  C5  1  0.29886600  0.76800000  0.74598200  1
  C  C6  1  0.23200000  0.70113400  0.25401800  1
  C  C7  1  0.76901400  0.76901400  0.55764100  1
  C  C8  1  0.23842200  0.23842200  0.98401800  1
  C  C9  1  0.76157800  0.76157800  0.01598200  1
  C  C10  1  0.23098600  0.23098600  0.44235900  1
  C  C11  1  0.70113400  0.23200000  0.25401800  1
  C  C12  1  0.76800000  0.29886600  0.74598200  1
