# generated using pymatgen
data_Cu9NiC50
_symmetry_space_group_name_H-M   'P 1'
_cell_length_a   15.75766788
_cell_length_b   27.14627802
_cell_length_c   9.06411284
_cell_angle_alpha   89.74673776
_cell_angle_beta   125.03344658
_cell_angle_gamma   90.25703445
_symmetry_Int_Tables_number   1
_chemical_formula_structural   Cu9NiC50
_chemical_formula_sum   'Cu36 Ni4 C200'
_cell_volume   3174.74580802
_cell_formula_units_Z   4
loop_
 _symmetry_equiv_pos_site_id
 _symmetry_equiv_pos_as_xyz
  1  'x, y, z'
loop_
 _atom_site_type_symbol
 _atom_site_label
 _atom_site_symmetry_multiplicity
 _atom_site_fract_x
 _atom_site_fract_y
 _atom_site_fract_z
 _atom_site_occupancy
  C  C0  1  0.25547838  0.25431347  0.01465043  1
  C  C1  1  0.25919289  0.58929522  0.01833275  1
  C  C2  1  0.24688716  0.91448532  0.99767687  1
  C  C3  1  0.74823212  0.25635970  0.50233023  1
  C  C4  1  0.74208273  0.57639536  0.49718752  1
  C  C5  1  0.75144266  0.91450998  0.50682551  1
  C  C6  1  0.75919289  0.08929522  0.01833275  1
  C  C7  1  0.74688716  0.41448532  0.99767687  1
  C  C8  1  0.75547838  0.75431347  0.01465043  1
  C  C9  1  0.24208273  0.07639536  0.49718752  1
  C  C10  1  0.25144266  0.41450998  0.50682551  1
  C  C11  1  0.24823212  0.75635970  0.50233023  1
  C  C12  1  0.50265857  0.03776976  0.75494936  1
  C  C13  1  0.48804028  0.36256982  0.71799293  1
  C  C14  1  0.48828852  0.69755484  0.72399015  1
  C  C15  1  0.50034852  0.28946142  0.26972937  1
  C  C16  1  0.50050187  0.62468197  0.27539736  1
  C  C17  1  0.49933554  0.96407584  0.25252284  1
  C  C18  1  0.98828852  0.19755484  0.72399015  1
  C  C19  1  0.00265857  0.53776976  0.75494936  1
  C  C20  1  0.98804028  0.86256982  0.71799293  1
  C  C21  1  0.00050187  0.12468197  0.27539736  1
  C  C22  1  0.99933554  0.46407584  0.25252284  1
  C  C23  1  0.00034852  0.78946142  0.26972937  1
  C  C24  1  0.80877086  0.65283895  0.24268546  1
  C  C25  1  0.81866546  0.98530306  0.25340503  1
  C  C26  1  0.20537286  0.30779033  0.29206052  1
  C  C27  1  0.20786467  0.64486935  0.28680437  1
  C  C28  1  0.81589252  0.02529960  0.68387687  1
  C  C29  1  0.81242608  0.69118283  0.67990621  1
  C  C30  1  0.30877086  0.15283895  0.24268546  1
  C  C31  1  0.31866546  0.48530306  0.25340503  1
  C  C32  1  0.70786467  0.14486935  0.28680437  1
  C  C33  1  0.70537286  0.80779033  0.29206052  1
  C  C34  1  0.31242608  0.19118283  0.67990621  1
  C  C35  1  0.31589252  0.52529960  0.68387687  1
  Ni  Ni36  1  0.89860233  0.08294356  0.43761515  1
  Ni  Ni37  1  0.89770611  0.74918347  0.43758120  1
  Ni  Ni38  1  0.39770611  0.24918347  0.43758120  1
  Ni  Ni39  1  0.39860233  0.58294356  0.43761515  1
  C  C40  1  0.10765349  0.25032450  0.57432341  1
  C  C41  1  0.10805246  0.58452797  0.57226136  1
  C  C42  1  0.10824445  0.91716377  0.57038805  1
  C  C43  1  0.88945226  0.25165295  0.93137726  1
  C  C44  1  0.89310486  0.58217417  0.93267298  1
  C  C45  1  0.89667559  0.91724804  0.93543673  1
  C  C46  1  0.89163736  0.41520992  0.43193146  1
  C  C47  1  0.10266235  0.08140228  0.05873128  1
  C  C48  1  0.10621560  0.41557658  0.06766347  1
  C  C49  1  0.10731539  0.75059076  0.06088867  1
  C  C50  1  0.60805246  0.08452797  0.57226136  1
  C  C51  1  0.60824445  0.41716377  0.57038805  1
  C  C52  1  0.60765349  0.75032450  0.57432341  1
  C  C53  1  0.39310486  0.08217417  0.93267298  1
  C  C54  1  0.39667559  0.41724804  0.93543673  1
  C  C55  1  0.38945226  0.75165295  0.93137726  1
  C  C56  1  0.39163736  0.91520992  0.43193146  1
  C  C57  1  0.60731539  0.25059076  0.06088867  1
  C  C58  1  0.60266235  0.58140228  0.05873128  1
  C  C59  1  0.60621560  0.91557658  0.06766347  1
  Cu  Cu60  1  0.00064272  0.31948157  0.75168837  1
  Cu  Cu61  1  0.00079734  0.65335646  0.74463017  1
  Cu  Cu62  1  0.99838642  0.98567102  0.73582050  1
  Cu  Cu63  1  0.00255772  0.01372918  0.24845003  1
  Cu  Cu64  1  0.00054430  0.34616725  0.25140744  1
  Cu  Cu65  1  0.00203098  0.67980587  0.24788658  1
  Cu  Cu66  1  0.50079734  0.15335646  0.74463017  1
  Cu  Cu67  1  0.49838642  0.48567102  0.73582050  1
  Cu  Cu68  1  0.50064272  0.81948157  0.75168837  1
  Cu  Cu69  1  0.50203098  0.17980587  0.24788658  1
  Cu  Cu70  1  0.50255772  0.51372918  0.24845003  1
  Cu  Cu71  1  0.50054430  0.84616725  0.25140744  1
  Cu  Cu72  1  0.35487501  0.29774233  0.75262970  1
  Cu  Cu73  1  0.35271032  0.63183080  0.74841853  1
  Cu  Cu74  1  0.35563831  0.96337990  0.75375520  1
  Cu  Cu75  1  0.64145589  0.29772359  0.73304041  1
  Cu  Cu76  1  0.64490304  0.63045545  0.74269712  1
  Cu  Cu77  1  0.64531174  0.96338221  0.74461961  1
  Cu  Cu78  1  0.64415971  0.03425391  0.24586596  1
  Cu  Cu79  1  0.64309915  0.36826077  0.24734252  1
  Cu  Cu80  1  0.64002711  0.70130498  0.24161198  1
  Cu  Cu81  1  0.35461528  0.03579727  0.25576538  1
  Cu  Cu82  1  0.35622540  0.36932559  0.25570038  1
  Cu  Cu83  1  0.35525032  0.70434121  0.25637236  1
  Cu  Cu84  1  0.85271032  0.13183080  0.74841853  1
  Cu  Cu85  1  0.85563831  0.46337990  0.75375520  1
  Cu  Cu86  1  0.85487501  0.79774233  0.75262970  1
  Cu  Cu87  1  0.14490304  0.13045545  0.74269712  1
  Cu  Cu88  1  0.14531174  0.46338221  0.74461961  1
  Cu  Cu89  1  0.14145589  0.79772359  0.73304041  1
  Cu  Cu90  1  0.14002711  0.20130498  0.24161198  1
  Cu  Cu91  1  0.14415971  0.53425391  0.24586596  1
  Cu  Cu92  1  0.14309915  0.86826077  0.24734252  1
  Cu  Cu93  1  0.85525032  0.20434121  0.25637236  1
  Cu  Cu94  1  0.85461528  0.53579727  0.25576538  1
  Cu  Cu95  1  0.85622540  0.86932559  0.25570038  1
  C  C96  1  0.15239861  0.19185601  0.74219444  1
  C  C97  1  0.14744773  0.52398758  0.73665632  1
  C  C98  1  0.14846442  0.85895519  0.74018947  1
  C  C99  1  0.84688229  0.19136894  0.77077979  1
  C  C100  1  0.84946791  0.52374991  0.75866249  1
  C  C101  1  0.84913122  0.85775447  0.77475924  1
  C  C102  1  0.84558720  0.14543531  0.25187843  1
  C  C103  1  0.85113311  0.47548890  0.26538784  1
  C  C104  1  0.84288834  0.81106843  0.24726776  1
  C  C105  1  0.14448023  0.14046166  0.23567191  1
  C  C106  1  0.15084020  0.47314659  0.24474243  1
  C  C107  1  0.14509345  0.80810473  0.23507731  1
  C  C108  1  0.64744773  0.02398758  0.73665632  1
  C  C109  1  0.64846442  0.35895519  0.74018947  1
  C  C110  1  0.65239861  0.69185601  0.74219444  1
  C  C111  1  0.34946791  0.02374991  0.75866249  1
  C  C112  1  0.34913122  0.35775447  0.77475924  1
  C  C113  1  0.34688229  0.69136894  0.77077979  1
  C  C114  1  0.34288834  0.31106843  0.24726776  1
  C  C115  1  0.34558720  0.64543531  0.25187843  1
  C  C116  1  0.35113311  0.97548890  0.26538784  1
  C  C117  1  0.64509345  0.30810473  0.23507731  1
  C  C118  1  0.64448023  0.64046166  0.23567191  1
  C  C119  1  0.65084020  0.97314659  0.24474243  1
  C  C120  1  0.41972964  0.18324672  0.56586445  1
  C  C121  1  0.41808492  0.51581168  0.55601442  1
  C  C122  1  0.43563869  0.85662714  0.57809796  1
  C  C123  1  0.56881555  0.18881808  0.92534857  1
  C  C124  1  0.56268211  0.52376769  0.91165890  1
  C  C125  1  0.56826970  0.85509133  0.93128570  1
  C  C126  1  0.56986780  0.14184538  0.42407669  1
  C  C127  1  0.56625000  0.47618554  0.42326070  1
  C  C128  1  0.56973849  0.80949948  0.42550848  1
  C  C129  1  0.44255144  0.14071049  0.07714735  1
  C  C130  1  0.44103923  0.47803690  0.06917538  1
  C  C131  1  0.43648498  0.81274485  0.07087008  1
  C  C132  1  0.91808492  0.01581168  0.55601442  1
  C  C133  1  0.93563869  0.35662714  0.57809796  1
  C  C134  1  0.91972964  0.68324672  0.56586445  1
  C  C135  1  0.06268211  0.02376769  0.91165890  1
  C  C136  1  0.06826970  0.35509133  0.93128570  1
  C  C137  1  0.06881555  0.68881808  0.92534857  1
  C  C138  1  0.06973849  0.30949948  0.42550848  1
  C  C139  1  0.06986780  0.64184538  0.42407669  1
  C  C140  1  0.06625000  0.97618554  0.42326070  1
  C  C141  1  0.93648498  0.31274485  0.07087008  1
  C  C142  1  0.94255144  0.64071049  0.07714735  1
  C  C143  1  0.94103923  0.97803690  0.06917538  1
  C  C144  1  0.25807313  0.26980471  0.74178506  1
  C  C145  1  0.25813870  0.60240680  0.74256982  1
  C  C146  1  0.25724646  0.93785015  0.73664063  1
  C  C147  1  0.74726786  0.27583992  0.76345994  1
  C  C148  1  0.75150884  0.61026039  0.76698216  1
  C  C149  1  0.74701548  0.94294770  0.75830508  1
  C  C150  1  0.73401915  0.06002075  0.24153654  1
  C  C151  1  0.74526397  0.39291858  0.26942682  1
  C  C152  1  0.73391124  0.72656730  0.24627047  1
  C  C153  1  0.25832002  0.06418237  0.23847820  1
  C  C154  1  0.25729525  0.39670116  0.24261296  1
  C  C155  1  0.25623617  0.73024335  0.24238358  1
  C  C156  1  0.75813870  0.10240680  0.74256982  1
  C  C157  1  0.75724646  0.43785015  0.73664063  1
  C  C158  1  0.75807313  0.76980471  0.74178506  1
  C  C159  1  0.25150884  0.11026039  0.76698216  1
  C  C160  1  0.24701548  0.44294770  0.75830508  1
  C  C161  1  0.24726786  0.77583992  0.76345994  1
  C  C162  1  0.23391124  0.22656730  0.24627047  1
  C  C163  1  0.23401915  0.56002075  0.24153654  1
  C  C164  1  0.24526397  0.89291858  0.26942682  1
  C  C165  1  0.75623617  0.23024335  0.24238358  1
  C  C166  1  0.75832002  0.56418237  0.23847820  1
  C  C167  1  0.75729525  0.89670116  0.24261296  1
  C  C168  1  0.35313377  0.28910980  0.57662631  1
  C  C169  1  0.35021382  0.62160811  0.57243314  1
  C  C170  1  0.36437831  0.95137513  0.58527635  1
  C  C171  1  0.63611803  0.28420906  0.90896774  1
  C  C172  1  0.64523727  0.61899515  0.92398869  1
  C  C173  1  0.64336773  0.95067001  0.92214846  1
  C  C174  1  0.64409634  0.04613786  0.42597099  1
  C  C175  1  0.63669565  0.38072848  0.41762435  1
  C  C176  1  0.64199265  0.71398958  0.42413711  1
  C  C177  1  0.35761278  0.04863679  0.08125730  1
  C  C178  1  0.36017176  0.38998022  0.08792200  1
  C  C179  1  0.35769367  0.72277986  0.08618664  1
  C  C180  1  0.85021382  0.12160811  0.57243314  1
  C  C181  1  0.86437831  0.45137513  0.58527635  1
  C  C182  1  0.85313377  0.78910980  0.57662631  1
  C  C183  1  0.14523727  0.11899515  0.92398869  1
  C  C184  1  0.14336773  0.45067001  0.92214846  1
  C  C185  1  0.13611803  0.78420906  0.90896774  1
  C  C186  1  0.14199265  0.21398958  0.42413711  1
  C  C187  1  0.14409634  0.54613786  0.42597099  1
  C  C188  1  0.13669565  0.88072848  0.41762435  1
  C  C189  1  0.85769367  0.22277986  0.08618664  1
  C  C190  1  0.85761278  0.54863679  0.08125730  1
  C  C191  1  0.86017176  0.88998022  0.08792200  1
  C  C192  1  0.46270030  0.27480519  0.93438806  1
  C  C193  1  0.46220022  0.60864256  0.92795644  1
  C  C194  1  0.46490499  0.94306120  0.93749525  1
  C  C195  1  0.54023518  0.27807687  0.55302918  1
  C  C196  1  0.54341344  0.61047592  0.56217472  1
  C  C197  1  0.53770641  0.94234196  0.56550709  1
  C  C198  1  0.52963196  0.04951052  0.06828246  1
  C  C199  1  0.53673169  0.38891711  0.06375684  1
  C  C200  1  0.52961381  0.72205174  0.06772096  1
  C  C201  1  0.46396698  0.05654686  0.43672657  1
  C  C202  1  0.46194663  0.39160797  0.43993756  1
  C  C203  1  0.46465903  0.72450766  0.44086622  1
  C  C204  1  0.96220022  0.10864256  0.92795644  1
  C  C205  1  0.96490499  0.44306120  0.93749525  1
  C  C206  1  0.96270030  0.77480519  0.93438806  1
  C  C207  1  0.04341344  0.11047592  0.56217472  1
  C  C208  1  0.03770641  0.44234196  0.56550709  1
  C  C209  1  0.04023518  0.77807687  0.55302918  1
  C  C210  1  0.02961381  0.22205174  0.06772096  1
  C  C211  1  0.02963196  0.54951052  0.06828246  1
  C  C212  1  0.03673169  0.88891711  0.06375684  1
  C  C213  1  0.96465903  0.22450766  0.44086622  1
  C  C214  1  0.96396698  0.55654686  0.43672657  1
  C  C215  1  0.96194663  0.89160797  0.43993756  1
  C  C216  1  0.08203776  0.28509661  0.74034559  1
  C  C217  1  0.08363460  0.61680706  0.74097325  1
  C  C218  1  0.08451075  0.95014954  0.74329110  1
  C  C219  1  0.92092075  0.28274939  0.75835188  1
  C  C220  1  0.92905544  0.61421532  0.77388588  1
  C  C221  1  0.92265878  0.94861198  0.76181079  1
  C  C222  1  0.91823726  0.04778970  0.24497651  1
  C  C223  1  0.92332333  0.38368723  0.26327317  1
  C  C224  1  0.91696951  0.71240547  0.24498832  1
  C  C225  1  0.08669608  0.04746939  0.23953120  1
  C  C226  1  0.08614847  0.38028524  0.24541285  1
  C  C227  1  0.08808661  0.71236310  0.24185460  1
  C  C228  1  0.58363460  0.11680706  0.74097325  1
  C  C229  1  0.58451075  0.45014954  0.74329110  1
  C  C230  1  0.58203776  0.78509661  0.74034559  1
  C  C231  1  0.42905544  0.11421532  0.77388588  1
  C  C232  1  0.42265878  0.44861198  0.76181079  1
  C  C233  1  0.42092075  0.78274939  0.75835188  1
  C  C234  1  0.41696951  0.21240547  0.24498832  1
  C  C235  1  0.41823726  0.54778970  0.24497651  1
  C  C236  1  0.42332333  0.88368723  0.26327317  1
  C  C237  1  0.58808661  0.21236310  0.24185460  1
  C  C238  1  0.58669608  0.54746939  0.23953120  1
  C  C239  1  0.58614847  0.88028524  0.24541285  1
