# generated using pymatgen
data_Cu(NiC4)2
_symmetry_space_group_name_H-M   'P 1'
_cell_length_a   6.56946720
_cell_length_b   6.56946710
_cell_length_c   6.56575499
_cell_angle_alpha   53.80943582
_cell_angle_beta   53.80943814
_cell_angle_gamma   53.81227620
_symmetry_Int_Tables_number   1
_chemical_formula_structural   Cu(NiC4)2
_chemical_formula_sum   'Cu1 Ni2 C8'
_cell_volume   171.38059947
_cell_formula_units_Z   1
loop_
 _symmetry_equiv_pos_site_id
 _symmetry_equiv_pos_as_xyz
  1  'x, y, z'
loop_
 _atom_site_type_symbol
 _atom_site_label
 _atom_site_symmetry_multiplicity
 _atom_site_fract_x
 _atom_site_fract_y
 _atom_site_fract_z
 _atom_site_occupancy
  Ni  Ni0  1  0.75468300  0.75468300  0.75653700  1
  Ni  Ni1  1  0.29908300  0.29908300  0.30072200  1
  Cu  Cu2  1  0.50764000  0.50764000  0.50847100  1
  C  C3  1  0.12728400  0.12728400  0.13014000  1
  C  C4  1  0.97982100  0.97982100  0.98042800  1
  C  C5  1  0.22329500  0.75424600  0.75334200  1
  C  C6  1  0.23878000  0.74751200  0.24046400  1
  C  C7  1  0.75424600  0.22329500  0.75334200  1
  C  C8  1  0.23911800  0.23911800  0.74969100  1
  C  C9  1  0.74751200  0.23878000  0.24046400  1
  C  C10  1  0.75353800  0.75353800  0.22181500  1
