# generated using pymatgen
data_Cu2NiC8
_symmetry_space_group_name_H-M   'P 1'
_cell_length_a   6.70565700
_cell_length_b   7.37089500
_cell_length_c   13.18277383
_cell_angle_alpha   62.63216179
_cell_angle_beta   90.00000000
_cell_angle_gamma   90.00000000
_symmetry_Int_Tables_number   1
_chemical_formula_structural   Cu2NiC8
_chemical_formula_sum   'Cu8 Ni4 C32'
_cell_volume   578.65179608
_cell_formula_units_Z   4
loop_
 _symmetry_equiv_pos_site_id
 _symmetry_equiv_pos_as_xyz
  1  'x, y, z'
loop_
 _atom_site_type_symbol
 _atom_site_label
 _atom_site_symmetry_multiplicity
 _atom_site_fract_x
 _atom_site_fract_y
 _atom_site_fract_z
 _atom_site_occupancy
  C  C0  1  0.64747700  0.76063400  0.47595700  1
  C  C1  1  0.14747700  0.23936600  0.02404300  1
  C  C2  1  0.35252300  0.23936600  0.52404300  1
  C  C3  1  0.85252300  0.76063400  0.97595700  1
  Ni  Ni4  1  0.89913700  0.78798900  0.23170500  1
  Ni  Ni5  1  0.60086300  0.78798900  0.73170500  1
  Ni  Ni6  1  0.10086300  0.21201100  0.76829500  1
  Ni  Ni7  1  0.39913700  0.21201100  0.26829500  1
  Cu  Cu8  1  0.65829500  0.21637600  0.03992700  1
  Cu  Cu9  1  0.91122100  0.29762300  0.27946700  1
  Cu  Cu10  1  0.84170500  0.21637600  0.53992700  1
  Cu  Cu11  1  0.34170500  0.78362400  0.96007300  1
  Cu  Cu12  1  0.08877900  0.70237700  0.72053300  1
  Cu  Cu13  1  0.58877900  0.29762300  0.77946700  1
  Cu  Cu14  1  0.41122100  0.70237700  0.22053300  1
  Cu  Cu15  1  0.15829500  0.78362400  0.46007300  1
  C  C16  1  0.68843500  0.15359700  0.31344000  1
  C  C17  1  0.18843500  0.84640300  0.18656000  1
  C  C18  1  0.31156500  0.84640300  0.68656000  1
  C  C19  1  0.81156500  0.15359700  0.81344000  1
  C  C20  1  0.95348300  0.79199600  0.37453200  1
  C  C21  1  0.45348300  0.20800400  0.12546800  1
  C  C22  1  0.04651700  0.20800400  0.62546800  1
  C  C23  1  0.54651700  0.79199600  0.87453200  1
  C  C24  1  0.49751400  0.74566300  0.07953300  1
  C  C25  1  0.99751400  0.25433700  0.42046700  1
  C  C26  1  0.50248600  0.25433700  0.92046700  1
  C  C27  1  0.00248600  0.74566300  0.57953300  1
  C  C28  1  0.83492400  0.01055800  0.07662900  1
  C  C29  1  0.33492400  0.98944200  0.42337100  1
  C  C30  1  0.16507600  0.98944200  0.92337100  1
  C  C31  1  0.66507600  0.01055800  0.57662900  1
  C  C32  1  0.17400800  0.59081800  0.98284800  1
  C  C33  1  0.67400800  0.40918200  0.51715200  1
  C  C34  1  0.82599200  0.40918200  0.01715200  1
  C  C35  1  0.32599200  0.59081800  0.48284800  1
  C  C36  1  0.89086900  0.78121100  0.77947100  1
  C  C37  1  0.39086900  0.21878900  0.72052900  1
  C  C38  1  0.10913100  0.21878900  0.22052900  1
  C  C39  1  0.60913100  0.78121100  0.27947100  1
  C  C40  1  0.62436300  0.56478100  0.69458600  1
  C  C41  1  0.12436300  0.43521900  0.80541400  1
  C  C42  1  0.37563700  0.43521900  0.30541400  1
  C  C43  1  0.87563700  0.56478100  0.19458600  1
