# generated using pymatgen
data_Cu2NiC5
_symmetry_space_group_name_H-M   'P 1'
_cell_length_a   9.20404204
_cell_length_b   10.31771726
_cell_length_c   14.46814101
_cell_angle_alpha   90.54007284
_cell_angle_beta   90.00000000
_cell_angle_gamma   90.00000000
_symmetry_Int_Tables_number   1
_chemical_formula_structural   Cu2NiC5
_chemical_formula_sum   'Cu8 Ni4 C20'
_cell_volume   1373.90168255
_cell_formula_units_Z   4
loop_
 _symmetry_equiv_pos_site_id
 _symmetry_equiv_pos_as_xyz
  1  'x, y, z'
loop_
 _atom_site_type_symbol
 _atom_site_label
 _atom_site_symmetry_multiplicity
 _atom_site_fract_x
 _atom_site_fract_y
 _atom_site_fract_z
 _atom_site_occupancy
  C  C0  1  0.84161799  0.21080807  0.68350727  1
  C  C1  1  0.34161799  0.78919193  0.81649273  1
  C  C2  1  0.15838201  0.78919193  0.31649273  1
  C  C3  1  0.65838201  0.21080807  0.18350727  1
  C  C4  1  0.81350127  0.78138381  0.71449806  1
  C  C5  1  0.31350127  0.21861619  0.78550194  1
  C  C6  1  0.18649873  0.21861619  0.28550194  1
  C  C7  1  0.68649873  0.78138381  0.21449806  1
  C  C8  1  0.67353798  0.46475355  0.92526252  1
  C  C9  1  0.17353798  0.53524645  0.57473748  1
  C  C10  1  0.32646202  0.53524645  0.07473748  1
  C  C11  1  0.82646202  0.46475355  0.42526252  1
  C  C12  1  0.83897791  0.04181319  0.40086898  1
  C  C13  1  0.33897791  0.95818681  0.09913102  1
  C  C14  1  0.16102209  0.95818681  0.59913102  1
  C  C15  1  0.66102209  0.04181319  0.90086898  1
  C  C16  1  0.95182286  0.79550913  0.99663508  1
  C  C17  1  0.45182286  0.20449087  0.50336492  1
  C  C18  1  0.04817714  0.20449087  0.00336492  1
  C  C19  1  0.54817714  0.79550913  0.49663508  1
  Ni  Ni20  1  0.94314259  0.49250547  0.16729610  1
  Ni  Ni21  1  0.44314259  0.50749453  0.33270390  1
  Ni  Ni22  1  0.05685741  0.50749453  0.83270390  1
  Ni  Ni23  1  0.55685741  0.49250547  0.66729610  1
  Cu  Cu24  1  0.52620554  0.99645718  0.68114126  1
  Cu  Cu25  1  0.02620554  0.00354282  0.81885874  1
  Cu  Cu26  1  0.47379446  0.00354282  0.31885874  1
  Cu  Cu27  1  0.97379446  0.99645718  0.18114126  1
  Cu  Cu28  1  0.57181484  0.75629381  0.99372171  1
  Cu  Cu29  1  0.07181484  0.24370619  0.50627829  1
  Cu  Cu30  1  0.42818516  0.24370619  0.00627829  1
  Cu  Cu31  1  0.92818516  0.75629381  0.49372171  1
