# generated using pymatgen
data_Cu8NiC9
_symmetry_space_group_name_H-M   'P 1'
_cell_length_a   13.85004100
_cell_length_b   6.09100400
_cell_length_c   8.04833936
_cell_angle_alpha   89.76213362
_cell_angle_beta   90.00000000
_cell_angle_gamma   90.00000000
_symmetry_Int_Tables_number   1
_chemical_formula_structural   Cu8NiC9
_chemical_formula_sum   'Cu32 Ni4 C36'
_cell_volume   678.95732987
_cell_formula_units_Z   4
loop_
 _symmetry_equiv_pos_site_id
 _symmetry_equiv_pos_as_xyz
  1  'x, y, z'
loop_
 _atom_site_type_symbol
 _atom_site_label
 _atom_site_symmetry_multiplicity
 _atom_site_fract_x
 _atom_site_fract_y
 _atom_site_fract_z
 _atom_site_occupancy
  C  C0  1  0.39790800  0.42892500  0.71611000  1
  C  C1  1  0.89790800  0.07107500  0.78389000  1
  C  C2  1  0.60209200  0.57107500  0.28389000  1
  C  C3  1  0.10209200  0.92892500  0.21611000  1
  C  C4  1  0.19133600  0.41524500  0.72274700  1
  C  C5  1  0.69133600  0.08475500  0.77725300  1
  C  C6  1  0.80866400  0.58475500  0.27725300  1
  C  C7  1  0.30866400  0.91524500  0.22274700  1
  C  C8  1  0.23243800  0.18250100  0.78171700  1
  C  C9  1  0.73243800  0.31749900  0.71828300  1
  C  C10  1  0.76756200  0.81749900  0.21828300  1
  C  C11  1  0.26756200  0.68250100  0.28171700  1
  C  C12  1  0.39811100  0.57944300  0.05370300  1
  C  C13  1  0.89811100  0.92055700  0.44629700  1
  C  C14  1  0.60188900  0.42055700  0.94629700  1
  C  C15  1  0.10188900  0.07944300  0.55370300  1
  C  C16  1  0.31369800  0.70221500  0.95433100  1
  C  C17  1  0.81369800  0.79778500  0.54566900  1
  C  C18  1  0.68630200  0.29778500  0.04566900  1
  C  C19  1  0.18630200  0.20221500  0.45433100  1
  C  C20  1  0.40313500  0.84155500  0.55116800  1
  C  C21  1  0.90313500  0.65844500  0.94883200  1
  C  C22  1  0.59686500  0.15844500  0.44883200  1
  C  C23  1  0.09686500  0.34155500  0.05116800  1
  C  C24  1  0.30586800  0.81362600  0.65268600  1
  C  C25  1  0.80586800  0.68637400  0.84731400  1
  C  C26  1  0.69413200  0.18637400  0.34731400  1
  C  C27  1  0.19413200  0.31362600  0.15268600  1
  C  C28  1  0.48417400  0.03941700  0.83007000  1
  C  C29  1  0.98417400  0.46058300  0.66993000  1
  C  C30  1  0.51582600  0.96058300  0.16993000  1
  C  C31  1  0.01582600  0.53941700  0.33007000  1
  C  C32  1  0.41609000  0.12443500  0.97649800  1
  C  C33  1  0.91609000  0.37556500  0.52350200  1
  C  C34  1  0.58391000  0.87556500  0.02350200  1
  C  C35  1  0.08391000  0.62443500  0.47649800  1
  Ni  Ni36  1  0.38995800  0.30056200  0.31437000  1
  Ni  Ni37  1  0.88995800  0.19943800  0.18563000  1
  Ni  Ni38  1  0.61004200  0.69943800  0.68563000  1
  Ni  Ni39  1  0.11004200  0.80056200  0.81437000  1
  Cu  Cu40  1  0.24748800  0.31429200  0.71537500  1
  Cu  Cu41  1  0.74748800  0.18570800  0.78462500  1
  Cu  Cu42  1  0.75251200  0.68570800  0.28462500  1
  Cu  Cu43  1  0.25251200  0.81429200  0.21537500  1
  Cu  Cu44  1  0.37355200  0.61760900  0.94172000  1
  Cu  Cu45  1  0.87355200  0.88239100  0.55828000  1
  Cu  Cu46  1  0.62644800  0.38239100  0.05828000  1
  Cu  Cu47  1  0.12644800  0.11760900  0.44172000  1
  Cu  Cu48  1  0.35356800  0.73526500  0.58328100  1
  Cu  Cu49  1  0.85356800  0.76473500  0.91671900  1
  Cu  Cu50  1  0.64643200  0.26473500  0.41671900  1
  Cu  Cu51  1  0.14643200  0.23526500  0.08328100  1
  Cu  Cu52  1  0.42676600  0.13028500  0.85520600  1
  Cu  Cu53  1  0.92676600  0.36971500  0.64479400  1
  Cu  Cu54  1  0.57323400  0.86971500  0.14479400  1
  Cu  Cu55  1  0.07323400  0.63028500  0.35520600  1
  Cu  Cu56  1  0.28640600  0.36277500  0.31495900  1
  Cu  Cu57  1  0.78640600  0.13722500  0.18504100  1
  Cu  Cu58  1  0.71359400  0.63722500  0.68504100  1
  Cu  Cu59  1  0.21359400  0.86277500  0.81495900  1
  Cu  Cu60  1  0.40421500  0.10266200  0.20537600  1
  Cu  Cu61  1  0.90421500  0.39733800  0.29462400  1
  Cu  Cu62  1  0.59578500  0.89733800  0.79462400  1
  Cu  Cu63  1  0.09578500  0.60266200  0.70537600  1
  Cu  Cu64  1  0.42493700  0.24528000  0.48505000  1
  Cu  Cu65  1  0.92493700  0.25472000  0.01495000  1
  Cu  Cu66  1  0.57506300  0.75472000  0.51495000  1
  Cu  Cu67  1  0.07506300  0.74528000  0.98505000  1
  Cu  Cu68  1  0.44790000  0.48884800  0.24626600  1
  Cu  Cu69  1  0.94790000  0.01115200  0.25373400  1
  Cu  Cu70  1  0.55210000  0.51115200  0.75373400  1
  Cu  Cu71  1  0.05210000  0.98884800  0.74626600  1
