# generated using pymatgen
data_Cu2NiC10
_symmetry_space_group_name_H-M   'P 1'
_cell_length_a   4.09606013
_cell_length_b   12.93212544
_cell_length_c   5.84776282
_cell_angle_alpha   99.78852226
_cell_angle_beta   44.41530769
_cell_angle_gamma   106.07046676
_symmetry_Int_Tables_number   1
_chemical_formula_structural   Cu2NiC10
_chemical_formula_sum   'Cu2 Ni1 C10'
_cell_volume   208.13855501
_cell_formula_units_Z   1
loop_
 _symmetry_equiv_pos_site_id
 _symmetry_equiv_pos_as_xyz
  1  'x, y, z'
loop_
 _atom_site_type_symbol
 _atom_site_label
 _atom_site_symmetry_multiplicity
 _atom_site_fract_x
 _atom_site_fract_y
 _atom_site_fract_z
 _atom_site_occupancy
  C  C0  1  0.13124070  0.62965147  0.95065848  1
  C  C1  1  0.43459733  0.93234535  0.90949619  1
  C  C2  1  0.89984045  0.39918261  0.47671067  1
  Ni  Ni3  1  0.61427966  0.11185922  0.36377832  1
  Cu  Cu4  1  0.28235651  0.78012152  0.42680732  1
  Cu  Cu5  1  0.74856771  0.24830299  0.96826692  1
  C  C6  1  0.12393953  0.62304900  0.46260491  1
  C  C7  1  0.79440380  0.78272780  0.43126267  1
  C  C8  1  0.24240544  0.23292495  0.52249519  1
  C  C9  1  0.22656360  0.23403301  0.03087503  1
  C  C10  1  0.77372897  0.78275588  0.94187597  1
  C  C11  1  0.45219056  0.95114434  0.42816608  1
  C  C12  1  0.90795474  0.40592186  0.00868625  1
