# generated using pymatgen
data_Cu2NiC16
_symmetry_space_group_name_H-M   'P 1'
_cell_length_a   8.51361240
_cell_length_b   8.51361214
_cell_length_c   21.69636202
_cell_angle_alpha   89.97449107
_cell_angle_beta   90.02550891
_cell_angle_gamma   119.77787822
_symmetry_Int_Tables_number   1
_chemical_formula_structural   Cu2NiC16
_chemical_formula_sum   'Cu12 Ni6 C96'
_cell_volume   1364.93805094
_cell_formula_units_Z   6
loop_
 _symmetry_equiv_pos_site_id
 _symmetry_equiv_pos_as_xyz
  1  'x, y, z'
loop_
 _atom_site_type_symbol
 _atom_site_label
 _atom_site_symmetry_multiplicity
 _atom_site_fract_x
 _atom_site_fract_y
 _atom_site_fract_z
 _atom_site_occupancy
  C  C0  1  0.00027430  0.63324055  0.25018881  1
  C  C1  1  0.36675945  0.99972570  0.75018881  1
  C  C2  1  0.66584172  0.96798710  0.58433312  1
  C  C3  1  0.03201290  0.33415828  0.08433312  1
  C  C4  1  0.96992298  0.66822777  0.91761069  1
  C  C5  1  0.33177223  0.03007702  0.41761069  1
  C  C6  1  0.00102360  0.99882111  0.50010478  1
  C  C7  1  0.00117889  0.99897640  0.00010478  1
  C  C8  1  0.66603921  0.33080258  0.83345492  1
  C  C9  1  0.66919742  0.33396079  0.33345492  1
  C  C10  1  0.34285020  0.67159966  0.16671400  1
  C  C11  1  0.32840034  0.65714980  0.66671400  1
  Ni  Ni12  1  0.99981363  0.28247062  0.24982673  1
  Ni  Ni13  1  0.71752938  0.00018637  0.74982673  1
  Ni  Ni14  1  0.37388443  0.04699592  0.58283722  1
  Ni  Ni15  1  0.95300408  0.62611557  0.08283722  1
  Ni  Ni16  1  0.33894638  0.96193028  0.91617796  1
  Ni  Ni17  1  0.03806972  0.66105362  0.41617796  1
  Cu  Cu18  1  0.99373424  0.99803299  0.35350335  1
  Cu  Cu19  1  0.00196701  0.00626576  0.85350335  1
  Cu  Cu20  1  0.00385553  0.00054884  0.64719742  1
  Cu  Cu21  1  0.99945116  0.99614447  0.14719742  1
  Cu  Cu22  1  0.66981330  0.33081466  0.68639519  1
  Cu  Cu23  1  0.66918534  0.33018670  0.18639519  1
  Cu  Cu24  1  0.66125831  0.33053353  0.98052877  1
  Cu  Cu25  1  0.66946647  0.33874169  0.48052877  1
  Cu  Cu26  1  0.33159939  0.67365476  0.01986657  1
  Cu  Cu27  1  0.32634524  0.66840061  0.51986657  1
  Cu  Cu28  1  0.32787863  0.65786312  0.31347496  1
  Cu  Cu29  1  0.34213688  0.67212137  0.81347496  1
  C  C30  1  0.29340665  0.00591402  0.25020303  1
  C  C31  1  0.70746987  0.71299757  0.25013184  1
  C  C32  1  0.28700243  0.29253013  0.75013184  1
  C  C33  1  0.99408598  0.70659335  0.75020303  1
  C  C34  1  0.95760232  0.33748583  0.58331722  1
  C  C35  1  0.66599307  0.61715968  0.58376255  1
  C  C36  1  0.66251417  0.04239768  0.08331722  1
  C  C37  1  0.38284032  0.33400693  0.08376255  1
  C  C38  1  0.61747694  0.66670281  0.91719445  1
  C  C39  1  0.04848291  0.37731637  0.91652584  1
  C  C40  1  0.62268363  0.95151709  0.41652584  1
  C  C41  1  0.33329719  0.38252306  0.41719445  1
  C  C42  1  0.21148211  0.03754805  0.30929261  1
  C  C43  1  0.83386444  0.78940871  0.30698575  1
  C  C44  1  0.96139252  0.15826724  0.31041376  1
  C  C45  1  0.21059129  0.16613556  0.80698575  1
  C  C46  1  0.96245195  0.78851789  0.80929261  1
  C  C47  1  0.84173276  0.03860748  0.81041376  1
  C  C48  1  0.80007359  0.96320410  0.68707885  1
  C  C49  1  0.16992003  0.20878092  0.69230614  1
  C  C50  1  0.04318563  0.83461455  0.69376254  1
  C  C51  1  0.79121908  0.83007997  0.19230614  1
  C  C52  1  0.03679590  0.19992641  0.18707885  1
  C  C53  1  0.16538545  0.95681437  0.19376254  1
  C  C54  1  0.87731154  0.37517530  0.64111434  1
  C  C55  1  0.50472170  0.12905134  0.64346973  1
  C  C56  1  0.63114914  0.50073247  0.64164385  1
  C  C57  1  0.87094866  0.49527830  0.14346973  1
  C  C58  1  0.62482470  0.12268846  0.14111434  1
  C  C59  1  0.49926753  0.36885086  0.14164385  1
  C  C60  1  0.46057572  0.29506200  0.02557992  1
  C  C61  1  0.83192976  0.53526627  0.02096953  1
  C  C62  1  0.70793410  0.16725312  0.02639109  1
  C  C63  1  0.46473373  0.16807024  0.52096953  1
  C  C64  1  0.70493800  0.53942428  0.52557992  1
  C  C65  1  0.83274688  0.29206590  0.52639109  1
  C  C66  1  0.53500772  0.70154292  0.97521764  1
  C  C67  1  0.16244951  0.45606908  0.97607705  1
  C  C68  1  0.28619374  0.82560777  0.97502404  1
  C  C69  1  0.54393092  0.83755049  0.47607705  1
  C  C70  1  0.29845708  0.46499228  0.47521764  1
  C  C71  1  0.17439223  0.71380626  0.47502404  1
  C  C72  1  0.12747813  0.62988097  0.35418387  1
  C  C73  1  0.49730557  0.86918670  0.35988707  1
  C  C74  1  0.37337065  0.49954586  0.35899507  1
  C  C75  1  0.13081330  0.50269443  0.85988707  1
  C  C76  1  0.37011903  0.87252187  0.85418387  1
  C  C77  1  0.50045414  0.62662935  0.85899507  1
  C  C78  1  0.02716158  0.84824707  0.40800934  1
  C  C79  1  0.81100484  0.97143963  0.41061377  1
  C  C80  1  0.16609009  0.19084111  0.41084715  1
  C  C81  1  0.02856037  0.18899516  0.91061377  1
  C  C82  1  0.15175293  0.97283842  0.90800934  1
  C  C83  1  0.80915889  0.83390991  0.91084715  1
  C  C84  1  0.97091041  0.16321211  0.58962855  1
  C  C85  1  0.17473740  0.02446431  0.59121078  1
  C  C86  1  0.83268737  0.81001936  0.58942325  1
  C  C87  1  0.97553569  0.82526260  0.09121078  1
  C  C88  1  0.83678789  0.02908959  0.08962855  1
  C  C89  1  0.18998064  0.16731263  0.08942325  1
  C  C90  1  0.68872255  0.17714049  0.74359512  1
  C  C91  1  0.47619297  0.30981466  0.74309550  1
  C  C92  1  0.82441246  0.52160357  0.74221651  1
  C  C93  1  0.69018534  0.52380703  0.24309550  1
  C  C94  1  0.82285951  0.31127745  0.24359512  1
  C  C95  1  0.47839643  0.17558754  0.24221651  1
  C  C96  1  0.64404613  0.49974902  0.92276189  1
  C  C97  1  0.86054893  0.36345781  0.92279322  1
  C  C98  1  0.51665178  0.15870377  0.92456245  1
  C  C99  1  0.63654219  0.13945107  0.42279322  1
  C  C100  1  0.50025098  0.35595387  0.42276189  1
  C  C101  1  0.84129623  0.48334822  0.42456245  1
  C  C102  1  0.35948652  0.50311501  0.07641246  1
  C  C103  1  0.15100808  0.63619996  0.07660610  1
  C  C104  1  0.49615308  0.85274925  0.07624323  1
  C  C105  1  0.36380004  0.84899192  0.57660610  1
  C  C106  1  0.49688499  0.64051348  0.57641246  1
  C  C107  1  0.14725075  0.50384692  0.57624323  1
  C  C108  1  0.31130584  0.83373880  0.25652338  1
  C  C109  1  0.52133921  0.69747667  0.25822815  1
  C  C110  1  0.17699116  0.48739388  0.25548685  1
  C  C111  1  0.30252333  0.47866079  0.75822815  1
  C  C112  1  0.16626120  0.68869416  0.75652338  1
  C  C113  1  0.51260612  0.82300884  0.75548685  1
