# generated using pymatgen
data_Cu3NiC31
_symmetry_space_group_name_H-M   'P 1'
_cell_length_a   17.57341142
_cell_length_b   8.79200540
_cell_length_c   22.90207428
_cell_angle_alpha   89.97627542
_cell_angle_beta   89.73380676
_cell_angle_gamma   120.05955122
_symmetry_Int_Tables_number   1
_chemical_formula_structural   Cu3NiC31
_chemical_formula_sum   'Cu18 Ni6 C186'
_cell_volume   3062.53940174
_cell_formula_units_Z   6
loop_
 _symmetry_equiv_pos_site_id
 _symmetry_equiv_pos_as_xyz
  1  'x, y, z'
loop_
 _atom_site_type_symbol
 _atom_site_label
 _atom_site_symmetry_multiplicity
 _atom_site_fract_x
 _atom_site_fract_y
 _atom_site_fract_z
 _atom_site_occupancy
  C  C0  1  0.00132315  0.99255685  0.49543074  1
  C  C1  1  0.50002025  0.00852851  0.99855334  1
  C  C2  1  0.32992661  0.32632798  0.83642012  1
  C  C3  1  0.83436426  0.33362954  0.83595619  1
  C  C4  1  0.32815177  0.32623204  0.33250729  1
  C  C5  1  0.83124409  0.33513405  0.33489371  1
  Ni  Ni6  1  0.00547224  0.99339127  0.35322470  1
  Ni  Ni7  1  0.49961416  0.00707246  0.85574472  1
  Ni  Ni8  1  0.00426663  0.00924717  0.64857066  1
  Ni  Ni9  1  0.50271118  0.99785423  0.15037175  1
  Ni  Ni10  1  0.83407669  0.33354724  0.98323014  1
  Ni  Ni11  1  0.33219970  0.33193991  0.47971915  1
  C  C12  1  0.14525542  0.00135784  0.25267500  1
  C  C13  1  0.64382277  0.99530885  0.24744118  1
  C  C14  1  0.14402678  0.29345636  0.74753887  1
  C  C15  1  0.68872670  0.03986238  0.58222473  1
  C  C16  1  0.18755044  0.33573024  0.08194503  1
  C  C17  1  0.52012225  0.37029648  0.91790035  1
  C  C18  1  0.16576411  0.95044917  0.91667609  1
  C  C19  1  0.66418494  0.37896076  0.41612944  1
  C  C20  1  0.01999904  0.67115611  0.41739462  1
  Cu  Cu21  1  0.50818128  0.01165794  0.35253836  1
  Cu  Cu22  1  0.00967591  0.00703935  0.85426546  1
  Cu  Cu23  1  0.50271681  0.00137761  0.64474939  1
  Cu  Cu24  1  0.00928640  0.00600430  0.14770035  1
  Cu  Cu25  1  0.32671162  0.32826188  0.68458503  1
  Cu  Cu26  1  0.83318112  0.32917271  0.68138594  1
  Cu  Cu27  1  0.32608818  0.32941505  0.18533939  1
  Cu  Cu28  1  0.82930032  0.32728068  0.18617813  1
  Cu  Cu29  1  0.32904531  0.32027802  0.97901540  1
  Cu  Cu30  1  0.82856177  0.33638648  0.47693098  1
  Cu  Cu31  1  0.16560622  0.66737536  0.02216190  1
  Cu  Cu32  1  0.66384173  0.66002164  0.02119088  1
  Cu  Cu33  1  0.16476076  0.66846945  0.51699753  1
  Cu  Cu34  1  0.66605914  0.66770001  0.51908644  1
  Cu  Cu35  1  0.16029838  0.66949343  0.31179072  1
  Cu  Cu36  1  0.66766373  0.66751030  0.31166995  1
  Cu  Cu37  1  0.16722018  0.66516937  0.81357457  1
  Cu  Cu38  1  0.66305030  0.66342822  0.81573475  1
  C  C39  1  0.35526292  0.71280359  0.25066761  1
  C  C40  1  0.85697584  0.71387612  0.24949369  1
  C  C41  1  0.99957863  0.28805233  0.25101824  1
  C  C42  1  0.49903355  0.28977324  0.24801512  1
  C  C43  1  0.64579761  0.29109399  0.75123166  1
  C  C44  1  0.99834135  0.70764168  0.74818662  1
  C  C45  1  0.50028553  0.71097228  0.75113692  1
  C  C46  1  0.35751079  0.00130035  0.74985463  1
  C  C47  1  0.85427538  0.99751602  0.75082114  1
  C  C48  1  0.47580424  0.33249711  0.58303781  1
  C  C49  1  0.98012772  0.33089039  0.58210106  1
  C  C50  1  0.18715000  0.04100021  0.58092637  1
  C  C51  1  0.33216509  0.62430573  0.58133390  1
  C  C52  1  0.83571513  0.63134397  0.58364457  1
  C  C53  1  0.47807448  0.62629984  0.08345926  1
  C  C54  1  0.97529809  0.62080350  0.08296718  1
  C  C55  1  0.33647200  0.04127032  0.08400316  1
  C  C56  1  0.83387633  0.04059302  0.08195385  1
  C  C57  1  0.68740426  0.33143637  0.08159022  1
  C  C58  1  0.31442246  0.66988708  0.91672581  1
  C  C59  1  0.81350442  0.66715237  0.91633126  1
  C  C60  1  0.01751985  0.37305694  0.91711022  1
  C  C61  1  0.66796751  0.96200710  0.91700312  1
  C  C62  1  0.31391998  0.95999545  0.41599499  1
  C  C63  1  0.81486222  0.95859807  0.41606678  1
  C  C64  1  0.16782854  0.37635160  0.41592089  1
  C  C65  1  0.51764577  0.66271787  0.41655284  1
  C  C66  1  0.10491652  0.04283956  0.30739397  1
  C  C67  1  0.60766632  0.03787931  0.30803654  1
  C  C68  1  0.40885846  0.78915442  0.30514359  1
  C  C69  1  0.90880325  0.78957904  0.30136730  1
  C  C70  1  0.47896716  0.18135464  0.30270517  1
  C  C71  1  0.98191468  0.17870049  0.30274072  1
  C  C72  1  0.10731993  0.17688081  0.80775660  1
  C  C73  1  0.60621480  0.18015767  0.80199819  1
  C  C74  1  0.48558544  0.79034668  0.80244571  1
  C  C75  1  0.97779222  0.77507872  0.80233632  1
  C  C76  1  0.41132913  0.02980511  0.80072165  1
  C  C77  1  0.90683501  0.02755451  0.80481446  1
  C  C78  1  0.39598137  0.97073948  0.69479630  1
  C  C79  1  0.89143211  0.96819553  0.69851041  1
  C  C80  1  0.08612539  0.20615685  0.69194349  1
  C  C81  1  0.59279485  0.21812510  0.69726651  1
  C  C82  1  0.01007009  0.81196511  0.69652862  1
  C  C83  1  0.51457189  0.81623609  0.69672301  1
  C  C84  1  0.39312429  0.81861542  0.19857794  1
  C  C85  1  0.89335767  0.81880868  0.19462707  1
  C  C86  1  0.01162620  0.21269388  0.19598859  1
  C  C87  1  0.51190099  0.20881013  0.19690183  1
  C  C88  1  0.08757412  0.95784419  0.19230068  1
  C  C89  1  0.58669329  0.96654659  0.19154305  1
  C  C90  1  0.43743435  0.36503250  0.63840015  1
  C  C91  1  0.94396870  0.37071641  0.63670395  1
  C  C92  1  0.24239002  0.11500525  0.63565032  1
  C  C93  1  0.74664811  0.11918239  0.64238821  1
  C  C94  1  0.31641093  0.51868064  0.63629455  1
  C  C95  1  0.81787940  0.51841297  0.63775891  1
  C  C96  1  0.44125178  0.51359345  0.13624870  1
  C  C97  1  0.93705411  0.50915551  0.13727742  1
  C  C98  1  0.31994335  0.12000623  0.13605733  1
  C  C99  1  0.81552244  0.11432146  0.13544702  1
  C  C100  1  0.24918429  0.38012315  0.13930462  1
  C  C101  1  0.74271920  0.36777530  0.13508295  1
  C  C102  1  0.23182807  0.29948851  0.02510590  1
  C  C103  1  0.72970058  0.30655745  0.03002242  1
  C  C104  1  0.42514798  0.54485879  0.03022810  1
  C  C105  1  0.92169990  0.53782821  0.03136448  1
  C  C106  1  0.35355619  0.15157642  0.03058764  1
  C  C107  1  0.84765329  0.15025287  0.03049499  1
  C  C108  1  0.23020020  0.15405654  0.53079307  1
  C  C109  1  0.73342609  0.16700720  0.52699193  1
  C  C110  1  0.34805110  0.54366712  0.53109284  1
  C  C111  1  0.85265396  0.55243106  0.53222542  1
  C  C112  1  0.42166019  0.30340190  0.53238674  1
  C  C113  1  0.92450168  0.30458801  0.53117960  1
  C  C114  1  0.27487961  0.69999761  0.96923024  1
  C  C115  1  0.77526127  0.70288550  0.96871709  1
  C  C116  1  0.07372388  0.44875004  0.96847694  1
  C  C117  1  0.58381639  0.46160683  0.97459982  1
  C  C118  1  0.14951890  0.83074320  0.97463572  1
  C  C119  1  0.65276550  0.85011017  0.96972778  1
  C  C120  1  0.27721799  0.84998048  0.47034822  1
  C  C121  1  0.77540425  0.85069084  0.47013871  1
  C  C122  1  0.15328837  0.45605940  0.47109168  1
  C  C123  1  0.64897178  0.46503171  0.47572407  1
  C  C124  1  0.08128348  0.70807111  0.47641955  1
  C  C125  1  0.57378139  0.69986409  0.46933358  1
  C  C126  1  0.06049260  0.61857153  0.36169968  1
  C  C127  1  0.55763754  0.63189018  0.36421069  1
  C  C128  1  0.25830754  0.88005703  0.36449511  1
  C  C129  1  0.75794819  0.88199860  0.36452049  1
  C  C130  1  0.18606461  0.49129438  0.36388981  1
  C  C131  1  0.68413245  0.50222056  0.35817726  1
  C  C132  1  0.05657266  0.48181399  0.86340847  1
  C  C133  1  0.56050933  0.49675725  0.85863494  1
  C  C134  1  0.18435452  0.86802736  0.85713342  1
  C  C135  1  0.68710065  0.88621063  0.86314548  1
  C  C136  1  0.25883216  0.63418170  0.86374698  1
  C  C137  1  0.75776793  0.63367411  0.86263393  1
  C  C138  1  0.00814689  0.83841748  0.41340868  1
  C  C139  1  0.50808538  0.81941954  0.40969578  1
  C  C140  1  0.40051558  0.97276730  0.40816108  1
  C  C141  1  0.90145062  0.97775498  0.40898116  1
  C  C142  1  0.08703921  0.20662319  0.41114081  1
  C  C143  1  0.57599956  0.18857703  0.41115732  1
  C  C144  1  0.00752276  0.19611629  0.90943911  1
  C  C145  1  0.51159981  0.18228698  0.91090743  1
  C  C146  1  0.07658320  0.96193872  0.91139452  1
  C  C147  1  0.58790421  0.97092450  0.90875515  1
  C  C148  1  0.40138258  0.82484431  0.90861707  1
  C  C149  1  0.89952728  0.82799531  0.90707110  1
  C  C150  1  0.48380913  0.17291599  0.59230931  1
  C  C151  1  0.98635959  0.17226310  0.58962206  1
  C  C152  1  0.09970490  0.01953715  0.58946566  1
  C  C153  1  0.59235556  0.02282070  0.59166078  1
  C  C154  1  0.41035565  0.80108595  0.59082515  1
  C  C155  1  0.91348478  0.80475683  0.59229868  1
  C  C156  1  0.48657274  0.79987041  0.08917181  1
  C  C157  1  0.98153550  0.79286366  0.09023134  1
  C  C158  1  0.41395202  0.02149609  0.09104195  1
  C  C159  1  0.91005981  0.01807527  0.09140222  1
  C  C160  1  0.09012678  0.16500702  0.08881084  1
  C  C161  1  0.59941370  0.17921824  0.08895395  1
  C  C162  1  0.34964413  0.16294685  0.74192662  1
  C  C163  1  0.84511895  0.16014586  0.74638695  1
  C  C164  1  0.24534133  0.31576418  0.74505182  1
  C  C165  1  0.73643838  0.31266204  0.74426745  1
  C  C166  1  0.42232118  0.53122981  0.74299765  1
  C  C167  1  0.91647224  0.52198500  0.74314545  1
  C  C168  1  0.34952284  0.53658921  0.24600106  1
  C  C169  1  0.84829009  0.53465517  0.24207176  1
  C  C170  1  0.42085764  0.31505986  0.24261709  1
  C  C171  1  0.92122942  0.31395130  0.24316701  1
  C  C172  1  0.24639227  0.17590465  0.24592744  1
  C  C173  1  0.74485827  0.17486531  0.24477629  1
  C  C174  1  0.32205127  0.51043927  0.92234069  1
  C  C175  1  0.82177311  0.51032472  0.92338688  1
  C  C176  1  0.42648533  0.36708910  0.92438733  1
  C  C177  1  0.93037902  0.35654077  0.92404490  1
  C  C178  1  0.25222267  0.14471138  0.91957024  1
  C  C179  1  0.74683148  0.13571967  0.92371502  1
  C  C180  1  0.32248763  0.13381050  0.42456693  1
  C  C181  1  0.82116131  0.13233911  0.42280332  1
  C  C182  1  0.24675253  0.36051019  0.42418953  1
  C  C183  1  0.75102636  0.35900266  0.41993600  1
  C  C184  1  0.43117639  0.50468202  0.42497009  1
  C  C185  1  0.92609875  0.48491944  0.42487682  1
  C  C186  1  0.17784532  0.50963276  0.07341314  1
  C  C187  1  0.68233740  0.49718328  0.07712976  1
  C  C188  1  0.06346803  0.63968651  0.07823597  1
  C  C189  1  0.56780996  0.64522388  0.07743320  1
  C  C190  1  0.25564114  0.86927487  0.07681647  1
  C  C191  1  0.75248866  0.86192236  0.07473627  1
  C  C192  1  0.18210100  0.86626218  0.57695544  1
  C  C193  1  0.67687206  0.84543381  0.57414248  1
  C  C194  1  0.25298195  0.64345756  0.57517953  1
  C  C195  1  0.75505268  0.64170131  0.57752620  1
  C  C196  1  0.06866346  0.49041410  0.57702970  1
  C  C197  1  0.56420207  0.48813042  0.57875088  1
  C  C198  1  0.15983763  0.83105472  0.25522715  1
  C  C199  1  0.65729375  0.82624078  0.25935102  1
  C  C200  1  0.26600261  0.68623251  0.25979118  1
  C  C201  1  0.76745148  0.68928936  0.25414248  1
  C  C202  1  0.07991025  0.46177609  0.25548808  1
  C  C203  1  0.57809658  0.46398474  0.25646149  1
  C  C204  1  0.15767180  0.48972743  0.75933044  1
  C  C205  1  0.65734390  0.47064206  0.75647802  1
  C  C206  1  0.07562526  0.68752188  0.75632969  1
  C  C207  1  0.58113159  0.69587681  0.75543524  1
  C  C208  1  0.26897087  0.84618973  0.75415203  1
  C  C209  1  0.76364659  0.83945527  0.75916224  1
