# generated using pymatgen
data_Cu6NiC12
_symmetry_space_group_name_H-M   'P 1'
_cell_length_a   5.14964357
_cell_length_b   7.65355615
_cell_length_c   5.72734574
_cell_angle_alpha   98.15203547
_cell_angle_beta   99.38465837
_cell_angle_gamma   82.81267592
_symmetry_Int_Tables_number   1
_chemical_formula_structural   Cu6NiC12
_chemical_formula_sum   'Cu6 Ni1 C12'
_cell_volume   219.25527040
_cell_formula_units_Z   1
loop_
 _symmetry_equiv_pos_site_id
 _symmetry_equiv_pos_as_xyz
  1  'x, y, z'
loop_
 _atom_site_type_symbol
 _atom_site_label
 _atom_site_symmetry_multiplicity
 _atom_site_fract_x
 _atom_site_fract_y
 _atom_site_fract_z
 _atom_site_occupancy
  Ni  Ni0  1  0.49325440  0.83472374  0.82359763  1
  Cu  Cu1  1  0.46731097  0.64370768  0.21585030  1
  Cu  Cu2  1  0.58172046  0.02808668  0.43503450  1
  Cu  Cu3  1  0.42509189  0.30933219  0.86176639  1
  Cu  Cu4  1  0.00221476  0.65753284  0.66847973  1
  Cu  Cu5  1  0.00136143  0.32231056  0.32419829  1
  Cu  Cu6  1  0.00607231  0.01282977  0.99201690  1
  C  C7  1  0.89017112  0.43647762  0.60946971  1
  C  C8  1  0.85578355  0.09119019  0.28721577  1
  C  C9  1  0.64296085  0.07452158  0.80001077  1
  C  C10  1  0.65791286  0.75951913  0.51041044  1
  C  C11  1  0.67197917  0.41964581  0.13966018  1
  C  C12  1  0.33198241  0.57919179  0.86028026  1
  C  C13  1  0.33062590  0.23932374  0.51180313  1
  C  C14  1  0.36750987  0.89557028  0.15836648  1
  C  C15  1  0.15947270  0.23973147  0.03221870  1
  C  C16  1  0.11650382  0.88242694  0.69918113  1
  C  C17  1  0.84416354  0.75224259  0.98379027  1
  C  C18  1  0.16779699  0.57996941  0.34855544  1
