# generated using pymatgen
data_Cu2NiC5
_symmetry_space_group_name_H-M   'P 1'
_cell_length_a   3.70626475
_cell_length_b   4.03801277
_cell_length_c   7.22333564
_cell_angle_alpha   90.83979595
_cell_angle_beta   104.86533842
_cell_angle_gamma   90.00000058
_symmetry_Int_Tables_number   1
_chemical_formula_structural   Cu2NiC5
_chemical_formula_sum   'Cu2 Ni1 C5'
_cell_volume   104.47394082
_cell_formula_units_Z   1
loop_
 _symmetry_equiv_pos_site_id
 _symmetry_equiv_pos_as_xyz
  1  'x, y, z'
loop_
 _atom_site_type_symbol
 _atom_site_label
 _atom_site_symmetry_multiplicity
 _atom_site_fract_x
 _atom_site_fract_y
 _atom_site_fract_z
 _atom_site_occupancy
  Ni  Ni0  1  0.50000000  0.50000000  0.00000000  1
  Cu  Cu1  1  0.14423400  0.00954600  0.28846800  1
  Cu  Cu2  1  0.85576600  0.99045400  0.71153200  1
  C  C3  1  0.11762200  0.50559500  0.23524400  1
  C  C4  1  0.88237800  0.49440500  0.76475600  1
  C  C5  1  0.00000000  0.00000000  0.00000000  1
  C  C6  1  0.30435800  0.98419000  0.60871500  1
  C  C7  1  0.69564200  0.01581000  0.39128500  1
