# generated using pymatgen
data_Cu4Ni8C7
_symmetry_space_group_name_H-M   'P 1'
_cell_length_a   7.06583479
_cell_length_b   5.96069511
_cell_length_c   5.75928408
_cell_angle_alpha   82.61158935
_cell_angle_beta   74.66623902
_cell_angle_gamma   73.36592720
_symmetry_Int_Tables_number   1
_chemical_formula_structural   Cu4Ni8C7
_chemical_formula_sum   'Cu4 Ni8 C7'
_cell_volume   223.77356480
_cell_formula_units_Z   1
loop_
 _symmetry_equiv_pos_site_id
 _symmetry_equiv_pos_as_xyz
  1  'x, y, z'
loop_
 _atom_site_type_symbol
 _atom_site_label
 _atom_site_symmetry_multiplicity
 _atom_site_fract_x
 _atom_site_fract_y
 _atom_site_fract_z
 _atom_site_occupancy
  C  C0  1  0.33599580  0.16337348  0.66346657  1
  C  C1  1  0.83595880  0.66384836  0.66451558  1
  C  C2  1  0.67348768  0.37084916  0.28352244  1
  C  C3  1  0.33581300  0.66314593  0.66520762  1
  C  C4  1  0.14991671  0.38212613  0.28916007  1
  C  C5  1  0.52173062  0.94670303  0.03873200  1
  C  C6  1  0.99788910  0.95802811  0.04511658  1
  Ni  Ni7  1  0.30219921  0.89100519  0.90640015  1
  Ni  Ni8  1  0.62806310  0.57436190  0.54725036  1
  Ni  Ni9  1  0.96167859  0.23766172  0.22624143  1
  Ni  Ni10  1  0.70968578  0.09149912  0.10182261  1
  Ni  Ni11  1  0.04344047  0.75371619  0.78194534  1
  Ni  Ni12  1  0.36945204  0.43706882  0.42204804  1
  Ni  Ni13  1  0.68129476  0.64156548  0.99836655  1
  Ni  Ni14  1  0.99030150  0.68703300  0.33046621  1
  Cu  Cu15  1  0.63093527  0.02999869  0.64242096  1
  Cu  Cu16  1  0.34968183  0.31602545  0.94947558  1
  Cu  Cu17  1  0.32125377  0.01309082  0.37727120  1
  Cu  Cu18  1  0.04085298  0.29794942  0.68561971  1
