# generated using pymatgen
data_Cu4NiC8
_symmetry_space_group_name_H-M   'P 1'
_cell_length_a   5.82287768
_cell_length_b   5.76308122
_cell_length_c   5.78899408
_cell_angle_alpha   91.26370536
_cell_angle_beta   91.26139407
_cell_angle_gamma   88.82595317
_symmetry_Int_Tables_number   1
_chemical_formula_structural   Cu4NiC8
_chemical_formula_sum   'Cu4 Ni1 C8'
_cell_volume   194.13221908
_cell_formula_units_Z   1
loop_
 _symmetry_equiv_pos_site_id
 _symmetry_equiv_pos_as_xyz
  1  'x, y, z'
loop_
 _atom_site_type_symbol
 _atom_site_label
 _atom_site_symmetry_multiplicity
 _atom_site_fract_x
 _atom_site_fract_y
 _atom_site_fract_z
 _atom_site_occupancy
  Ni  Ni0  1  0.28970700  0.78233600  0.70994600  1
  Cu  Cu1  1  0.99136000  0.00729200  0.00259900  1
  Cu  Cu2  1  0.52193800  0.02099300  0.48035500  1
  Cu  Cu3  1  0.51280900  0.49624000  0.00900900  1
  Cu  Cu4  1  0.99571900  0.49049400  0.48839900  1
  C  C5  1  0.64569000  0.59946400  0.59550900  1
  C  C6  1  0.86794200  0.36580900  0.13150900  1
  C  C7  1  0.09847600  0.90351900  0.35696500  1
  C  C8  1  0.40500100  0.14284400  0.89727500  1
  C  C9  1  0.39843400  0.39826100  0.39421700  1
  C  C10  1  0.06780100  0.57587000  0.93206100  1
  C  C11  1  0.89892000  0.10584700  0.60304400  1
  C  C12  1  0.60382200  0.89674600  0.10149400  1
