# generated using pymatgen
data_CuNi5C33
_symmetry_space_group_name_H-M   'P 1'
_cell_length_a   9.31732964
_cell_length_b   9.29552105
_cell_length_c   23.66765393
_cell_angle_alpha   90.50807970
_cell_angle_beta   89.86426617
_cell_angle_gamma   120.05796800
_symmetry_Int_Tables_number   1
_chemical_formula_structural   CuNi5C33
_chemical_formula_sum   'Cu3 Ni15 C99'
_cell_volume   1774.10264046
_cell_formula_units_Z   3
loop_
 _symmetry_equiv_pos_site_id
 _symmetry_equiv_pos_as_xyz
  1  'x, y, z'
loop_
 _atom_site_type_symbol
 _atom_site_label
 _atom_site_symmetry_multiplicity
 _atom_site_fract_x
 _atom_site_fract_y
 _atom_site_fract_z
 _atom_site_occupancy
  C  C0  1  0.64143707  0.00081799  0.25020666  1
  C  C1  1  0.99709545  0.35938248  0.74887226  1
  C  C2  1  0.35946969  0.99915459  0.74980652  1
  C  C3  1  0.03104453  0.69618404  0.57665201  1
  C  C4  1  0.66401262  0.97083740  0.58058986  1
  C  C5  1  0.30462409  0.97393190  0.08536017  1
  C  C6  1  0.02610877  0.33163894  0.08797262  1
  C  C7  1  0.97892508  0.66498554  0.92108904  1
  C  C8  1  0.70328987  0.67558045  0.41494849  1
  C  C9  1  0.02148260  0.01773398  0.49601857  1
  C  C10  1  0.99807471  0.00915734  0.00371162  1
  C  C11  1  0.65571449  0.32304561  0.83299490  1
  C  C12  1  0.68998799  0.34255633  0.33306598  1
  C  C13  1  0.33760278  0.64236057  0.16860456  1
  C  C14  1  0.34919806  0.65289918  0.66619564  1
  C  C15  1  0.99893908  0.01148325  0.85463677  1
  C  C16  1  0.00286679  0.00019706  0.64719446  1
  C  C17  1  0.66383671  0.34818387  0.67913285  1
  C  C18  1  0.65933426  0.32344199  0.99119217  1
  C  C19  1  0.32500131  0.66112151  0.50538559  1
  C  C20  1  0.34616438  0.66983936  0.82040209  1
  C  C21  1  0.99121478  0.99448347  0.34362378  1
  C  C22  1  0.99083850  0.99493740  0.15615140  1
  C  C23  1  0.67570990  0.35187811  0.18260369  1
  C  C24  1  0.67002054  0.32590281  0.47842421  1
  C  C25  1  0.33818590  0.66786690  0.02203989  1
  C  C26  1  0.32097987  0.66032640  0.31655273  1
  Ni  Ni27  1  0.69450814  0.69908123  0.25237087  1
  Ni  Ni28  1  0.99762494  0.29718020  0.24865962  1
  Ni  Ni29  1  0.30495112  0.30454354  0.75058325  1
  Ni  Ni30  1  0.00339271  0.69284633  0.75235227  1
  Ni  Ni31  1  0.69154262  0.00406862  0.74563002  1
  Ni  Ni32  1  0.96271852  0.33335213  0.58072049  1
  Ni  Ni33  1  0.37029837  0.03450624  0.57823516  1
  Ni  Ni34  1  0.66934424  0.63719835  0.57179797  1
  Ni  Ni35  1  0.97671390  0.64369227  0.08511870  1
  Ni  Ni36  1  0.66629009  0.02831966  0.09163441  1
  Ni  Ni37  1  0.35615265  0.32846307  0.09015317  1
  Ni  Ni38  1  0.03710289  0.37341154  0.92328872  1
  Ni  Ni39  1  0.32788324  0.96202950  0.92248390  1
  Ni  Ni40  1  0.64035428  0.97269060  0.41033024  1
  Ni  Ni41  1  0.02125304  0.66899278  0.41322083  1
  Cu  Cu42  1  0.29996152  0.00080215  0.24945929  1
  Cu  Cu43  1  0.63950190  0.66808430  0.92397996  1
  Cu  Cu44  1  0.33375355  0.35355505  0.41008102  1
  C  C45  1  0.21386840  0.01926871  0.29892262  1
  C  C46  1  0.79513523  0.76977017  0.30774811  1
  C  C47  1  0.96647590  0.17688526  0.29814079  1
  C  C48  1  0.21013635  0.20516020  0.80307720  1
  C  C49  1  0.99908899  0.78711172  0.80582684  1
  C  C50  1  0.79828726  0.00843660  0.79616671  1
  C  C51  1  0.77205130  0.99770939  0.68908733  1
  C  C52  1  0.20821367  0.21376639  0.69675335  1
  C  C53  1  0.00659704  0.78591855  0.69777783  1
  C  C54  1  0.78289294  0.82071151  0.20278976  1
  C  C55  1  0.02659836  0.22540271  0.19280336  1
  C  C56  1  0.20493966  0.97980324  0.19633489  1
  C  C57  1  0.89298832  0.34663221  0.63890619  1
  C  C58  1  0.45127326  0.10661412  0.63654425  1
  C  C59  1  0.65947594  0.54757567  0.62708389  1
  C  C60  1  0.88383735  0.51526840  0.13251741  1
  C  C61  1  0.63309083  0.11266606  0.14371001  1
  C  C62  1  0.47261714  0.35699503  0.14049314  1
  C  C63  1  0.42334847  0.29060546  0.03618274  1
  C  C64  1  0.88445830  0.58266098  0.02863452  1
  C  C65  1  0.70552995  0.13946780  0.03948451  1
  C  C66  1  0.47370224  0.14618310  0.52916571  1
  C  C67  1  0.67112750  0.53877952  0.51872754  1
  C  C68  1  0.84780134  0.32431470  0.53220623  1
  C  C69  1  0.54015112  0.66753624  0.97338188  1
  C  C70  1  0.14333243  0.47308365  0.97550786  1
  C  C71  1  0.33181583  0.86028826  0.97423757  1
  C  C72  1  0.56893701  0.86904400  0.46472806  1
  C  C73  1  0.30181761  0.41364351  0.46407195  1
  C  C74  1  0.10635624  0.69284635  0.47119146  1
  C  C75  1  0.12065228  0.64231816  0.36571847  1
  C  C76  1  0.52639936  0.87841398  0.35851149  1
  C  C77  1  0.35998554  0.47294231  0.36382442  1
  C  C78  1  0.12121242  0.45692310  0.86698528  1
  C  C79  1  0.33387147  0.88162661  0.86577525  1
  C  C80  1  0.56137694  0.66486306  0.87027607  1
  C  C81  1  0.00282560  0.82538832  0.40408615  1
  C  C82  1  0.81373087  0.98565814  0.40433412  1
  C  C83  1  0.19023561  0.18511924  0.39989966  1
  C  C84  1  0.00745513  0.19507631  0.92703887  1
  C  C85  1  0.15859170  0.95770674  0.92607574  1
  C  C86  1  0.80685495  0.81896647  0.92813004  1
  C  C87  1  0.97162353  0.17170035  0.57717648  1
  C  C88  1  0.19042622  0.00250322  0.57541528  1
  C  C89  1  0.83547419  0.80696221  0.57176752  1
  C  C90  1  0.00727367  0.82195873  0.09739068  1
  C  C91  1  0.82233527  0.01052993  0.09783044  1
  C  C92  1  0.17927061  0.17072223  0.09751521  1
  C  C93  1  0.67992789  0.16514078  0.75041702  1
  C  C94  1  0.47504042  0.31381576  0.75293872  1
  C  C95  1  0.85476193  0.51275073  0.75377286  1
  C  C96  1  0.67416128  0.52455114  0.24317645  1
  C  C97  1  0.83212128  0.30443336  0.24404648  1
  C  C98  1  0.47061273  0.14883347  0.24625724  1
  C  C99  1  0.66256569  0.52120274  0.92361037  1
  C  C100  1  0.87075829  0.37481285  0.92339854  1
  C  C101  1  0.47663815  0.14044598  0.92257186  1
  C  C102  1  0.65736586  0.14736274  0.41531757  1
  C  C103  1  0.49185940  0.34936871  0.41396505  1
  C  C104  1  0.84062659  0.51360944  0.41503355  1
  C  C105  1  0.33008653  0.48206646  0.08359249  1
  C  C106  1  0.15298444  0.65834611  0.08240357  1
  C  C107  1  0.50319028  0.85747573  0.08325782  1
  C  C108  1  0.35986219  0.86119394  0.57483736  1
  C  C109  1  0.52373791  0.67284357  0.57235198  1
  C  C110  1  0.13439704  0.49399484  0.57633197  1
  C  C111  1  0.32024578  0.85016684  0.25450648  1
  C  C112  1  0.52198197  0.69241774  0.25702577  1
  C  C113  1  0.15124787  0.47330219  0.25754784  1
  C  C114  1  0.31661708  0.47588045  0.74935699  1
  C  C115  1  0.16517693  0.68214579  0.75057998  1
  C  C116  1  0.51261761  0.85423003  0.74688470  1
