# generated using pymatgen
data_Cu3NiC33
_symmetry_space_group_name_H-M   'P 1'
_cell_length_a   8.71998650
_cell_length_b   8.77466427
_cell_length_c   22.37501192
_cell_angle_alpha   89.92259651
_cell_angle_beta   90.13716623
_cell_angle_gamma   120.10091922
_symmetry_Int_Tables_number   1
_chemical_formula_structural   Cu3NiC33
_chemical_formula_sum   'Cu9 Ni3 C99'
_cell_volume   1481.14109446
_cell_formula_units_Z   3
loop_
 _symmetry_equiv_pos_site_id
 _symmetry_equiv_pos_as_xyz
  1  'x, y, z'
loop_
 _atom_site_type_symbol
 _atom_site_label
 _atom_site_symmetry_multiplicity
 _atom_site_fract_x
 _atom_site_fract_y
 _atom_site_fract_z
 _atom_site_occupancy
  C  C0  1  0.35985360  0.36105349  0.24497594  1
  C  C1  1  0.63659554  0.63100162  0.75135507  1
  C  C2  1  0.96945654  0.29467796  0.41529736  1
  C  C3  1  0.99677665  0.99754937  0.49889438  1
  C  C4  1  0.99823949  0.99352061  0.00035462  1
  C  C5  1  0.66640492  0.33043715  0.83271584  1
  C  C6  1  0.66888136  0.32767244  0.33033060  1
  C  C7  1  0.31813811  0.66653046  0.16486118  1
  C  C8  1  0.31185698  0.65935498  0.66530975  1
  C  C9  1  0.00487835  0.98609138  0.85243796  1
  C  C10  1  0.01494880  0.01723230  0.64680693  1
  C  C11  1  0.01468523  0.01536783  0.14241208  1
  C  C12  1  0.66464497  0.35795203  0.98099805  1
  C  C13  1  0.66125010  0.31363276  0.47794188  1
  C  C14  1  0.34015977  0.65943745  0.02494709  1
  C  C15  1  0.33190491  0.64946088  0.51865242  1
  C  C16  1  0.33803508  0.66075524  0.31448157  1
  C  C17  1  0.32361196  0.64910100  0.81138067  1
  Ni  Ni18  1  0.99190875  0.01418246  0.35363242  1
  Ni  Ni19  1  0.68148863  0.34483681  0.68862592  1
  Ni  Ni20  1  0.69138728  0.34589419  0.18058061  1
  Cu  Cu21  1  0.98884917  0.29055816  0.24995733  1
  Cu  Cu22  1  0.29312858  0.28341468  0.75062582  1
  Cu  Cu23  1  0.00645185  0.71297343  0.74737871  1
  Cu  Cu24  1  0.95423595  0.33374841  0.58484530  1
  Cu  Cu25  1  0.96102062  0.63033556  0.08394499  1
  Cu  Cu26  1  0.38830615  0.33676880  0.08723762  1
  Cu  Cu27  1  0.62421457  0.67373200  0.91593244  1
  Cu  Cu28  1  0.61803710  0.94455579  0.41684482  1
  Cu  Cu29  1  0.33918499  0.37149408  0.41580524  1
  C  C30  1  0.28525432  0.99589176  0.25080863  1
  C  C31  1  0.71612702  0.71581183  0.25135478  1
  C  C32  1  0.71268855  0.00248515  0.75054773  1
  C  C33  1  0.37928471  0.04309477  0.58434350  1
  C  C34  1  0.66743062  0.62284037  0.58335411  1
  C  C35  1  0.66609787  0.04642979  0.08257450  1
  C  C36  1  0.04293512  0.37492113  0.91743285  1
  C  C37  1  0.33758648  0.95408139  0.91677615  1
  C  C38  1  0.04633452  0.67124779  0.41646036  1
  C  C39  1  0.20080472  0.02312279  0.30443803  1
  C  C40  1  0.82231460  0.79478543  0.30620354  1
  C  C41  1  0.96659318  0.18315021  0.31183743  1
  C  C42  1  0.19155136  0.16341991  0.80852850  1
  C  C43  1  0.96647716  0.80328270  0.80660590  1
  C  C44  1  0.82125116  0.02799505  0.80467538  1
  C  C45  1  0.79190170  0.96969488  0.69654836  1
  C  C46  1  0.16582834  0.20133209  0.69125000  1
  C  C47  1  0.02802958  0.83943847  0.69046795  1
  C  C48  1  0.79711783  0.81886513  0.19743291  1
  C  C49  1  0.03083050  0.19191926  0.19410267  1
  C  C50  1  0.17711156  0.96978835  0.19580732  1
  C  C51  1  0.86335982  0.36456195  0.64233792  1
  C  C52  1  0.48481892  0.12594296  0.63817428  1
  C  C53  1  0.63408830  0.52062498  0.63979983  1
  C  C54  1  0.88923517  0.50711566  0.14186797  1
  C  C55  1  0.63284169  0.11953031  0.13733651  1
  C  C56  1  0.49769630  0.36185608  0.14844423  1
  C  C57  1  0.47394266  0.30334036  0.02709028  1
  C  C58  1  0.83237795  0.53180757  0.02507942  1
  C  C59  1  0.69466900  0.15403844  0.02875382  1
  C  C60  1  0.46087800  0.15339912  0.52949376  1
  C  C61  1  0.68790374  0.53326929  0.53107515  1
  C  C62  1  0.83520329  0.30790698  0.52353550  1
  C  C63  1  0.52164288  0.69335291  0.97347790  1
  C  C64  1  0.15300814  0.46216259  0.97055578  1
  C  C65  1  0.30727548  0.84787460  0.97084934  1
  C  C66  1  0.51593864  0.82778565  0.47546250  1
  C  C67  1  0.29483973  0.46549179  0.47222924  1
  C  C68  1  0.15319965  0.69716072  0.47102593  1
  C  C69  1  0.12505835  0.63330290  0.36304884  1
  C  C70  1  0.49232600  0.85746609  0.35788287  1
  C  C71  1  0.36426592  0.49557879  0.35655231  1
  C  C72  1  0.12465564  0.48624384  0.86246104  1
  C  C73  1  0.35476695  0.86757243  0.86240585  1
  C  C74  1  0.50246872  0.64421916  0.85594422  1
  C  C75  1  0.02746331  0.82643055  0.40846787  1
  C  C76  1  0.81489782  0.97029367  0.41272680  1
  C  C77  1  0.16291869  0.17986889  0.41019574  1
  C  C78  1  0.03012176  0.20197977  0.91078129  1
  C  C79  1  0.17636906  0.97583939  0.91105288  1
  C  C80  1  0.82069320  0.84908577  0.90935829  1
  C  C81  1  0.97211301  0.15496369  0.59028736  1
  C  C82  1  0.19992799  0.02731660  0.58740719  1
  C  C83  1  0.82602938  0.80054000  0.58804799  1
  C  C84  1  0.97201511  0.82071553  0.09273535  1
  C  C85  1  0.82430838  0.02437518  0.08957052  1
  C  C86  1  0.18727287  0.16348039  0.09052775  1
  C  C87  1  0.69026515  0.15714723  0.74503356  1
  C  C88  1  0.48905786  0.31098572  0.74118414  1
  C  C89  1  0.82694556  0.52213837  0.74543563  1
  C  C90  1  0.68291228  0.53209504  0.24844469  1
  C  C91  1  0.81158139  0.30548981  0.24295299  1
  C  C92  1  0.46082867  0.15700200  0.24565676  1
  C  C93  1  0.64072976  0.49431349  0.92156064  1
  C  C94  1  0.86445459  0.35442342  0.92217856  1
  C  C95  1  0.49795290  0.13113350  0.92127996  1
  C  C96  1  0.64585765  0.14667182  0.42375272  1
  C  C97  1  0.51917895  0.36596153  0.42635293  1
  C  C98  1  0.86890607  0.50740728  0.42242230  1
  C  C99  1  0.36122427  0.50773266  0.07726584  1
  C  C100  1  0.15738352  0.65696953  0.06983619  1
  C  C101  1  0.50697714  0.86720315  0.07666503  1
  C  C102  1  0.35793031  0.86669843  0.57735014  1
  C  C103  1  0.50624194  0.64269005  0.57706125  1
  C  C104  1  0.15140163  0.50983316  0.57515858  1
  C  C105  1  0.30291962  0.83683784  0.25565572  1
  C  C106  1  0.53351141  0.69831143  0.25555887  1
  C  C107  1  0.17527396  0.48655074  0.25638166  1
  C  C108  1  0.31554545  0.48256030  0.75779349  1
  C  C109  1  0.18270494  0.69868623  0.75869691  1
  C  C110  1  0.53556958  0.83910811  0.75582970  1
