# generated using pymatgen
data_Cu2Ni2C9
_symmetry_space_group_name_H-M   'P 1'
_cell_length_a   6.11494838
_cell_length_b   6.09602963
_cell_length_c   6.19107850
_cell_angle_alpha   59.71679327
_cell_angle_beta   59.41903008
_cell_angle_gamma   88.75259949
_symmetry_Int_Tables_number   1
_chemical_formula_structural   Cu2Ni2C9
_chemical_formula_sum   'Cu2 Ni2 C9'
_cell_volume   162.79226887
_cell_formula_units_Z   1
loop_
 _symmetry_equiv_pos_site_id
 _symmetry_equiv_pos_as_xyz
  1  'x, y, z'
loop_
 _atom_site_type_symbol
 _atom_site_label
 _atom_site_symmetry_multiplicity
 _atom_site_fract_x
 _atom_site_fract_y
 _atom_site_fract_z
 _atom_site_occupancy
  C  C0  1  0.50000000  0.50000000  0.50000000  1
  Ni  Ni1  1  0.00000000  0.50000000  0.50000000  1
  Ni  Ni2  1  0.50000000  0.00000000  0.00000000  1
  Cu  Cu3  1  0.00000000  0.00000000  0.50000000  1
  Cu  Cu4  1  0.00000000  0.00000000  0.00000000  1
  C  C5  1  0.77195000  0.77018000  0.98543400  1
  C  C6  1  0.23338100  0.76696600  0.47362500  1
  C  C7  1  0.77303200  0.22732100  0.96727100  1
  C  C8  1  0.77002500  0.77187600  0.47203200  1
  C  C9  1  0.22997500  0.22812400  0.52796800  1
  C  C10  1  0.22696800  0.77267900  0.03272900  1
  C  C11  1  0.76661900  0.23303400  0.52637500  1
  C  C12  1  0.22805000  0.22982000  0.01456600  1
