# generated using pymatgen
data_CuNi5C32
_symmetry_space_group_name_H-M   'P 1'
_cell_length_a   8.98601577
_cell_length_b   8.98435093
_cell_length_c   22.65914338
_cell_angle_alpha   90.00074083
_cell_angle_beta   90.16781040
_cell_angle_gamma   120.07885274
_symmetry_Int_Tables_number   1
_chemical_formula_structural   CuNi5C32
_chemical_formula_sum   'Cu3 Ni15 C96'
_cell_volume   1582.99621693
_cell_formula_units_Z   3
loop_
 _symmetry_equiv_pos_site_id
 _symmetry_equiv_pos_as_xyz
  1  'x, y, z'
loop_
 _atom_site_type_symbol
 _atom_site_label
 _atom_site_symmetry_multiplicity
 _atom_site_fract_x
 _atom_site_fract_y
 _atom_site_fract_z
 _atom_site_occupancy
  C  C0  1  0.37546008  0.36439775  0.24213140  1
  C  C1  1  0.98587988  0.61678386  0.23995503  1
  C  C2  1  0.63461855  0.62380245  0.74229757  1
  C  C3  1  0.38223423  0.01379194  0.73984196  1
  C  C4  1  0.02281578  0.68201747  0.58486171  1
  C  C5  1  0.65833330  0.97761721  0.58451235  1
  C  C6  1  0.00978900  0.01021015  0.49704802  1
  C  C7  1  0.00353615  0.99865307  0.99949923  1
  C  C8  1  0.69009842  0.33366896  0.82877156  1
  C  C9  1  0.66569072  0.31115537  0.33010098  1
  C  C10  1  0.33086009  0.66720696  0.16212590  1
  C  C11  1  0.32139601  0.64942543  0.66410440  1
  C  C12  1  0.00948053  0.01398699  0.35804138  1
  C  C13  1  0.98712279  0.98931360  0.85878613  1
  C  C14  1  0.99289348  0.99084570  0.64326069  1
  C  C15  1  0.01940087  0.00894673  0.14264212  1
  C  C16  1  0.66580324  0.34514234  0.97701928  1
  C  C17  1  0.66584104  0.32991486  0.47822558  1
  C  C18  1  0.32081417  0.65732636  0.01964282  1
  C  C19  1  0.33497709  0.66726024  0.51850056  1
  C  C20  1  0.32546082  0.66630012  0.31434396  1
  C  C21  1  0.33068255  0.67429508  0.81490474  1
  C  C22  1  0.68743589  0.33619351  0.68186108  1
  C  C23  1  0.66873151  0.32620936  0.18273432  1
  Ni  Ni24  1  0.29414681  0.00113889  0.25124966  1
  Ni  Ni25  1  0.99413325  0.28698158  0.24988526  1
  Ni  Ni26  1  0.99863186  0.70665793  0.75089567  1
  Ni  Ni27  1  0.70981063  0.00303282  0.75119665  1
  Ni  Ni28  1  0.96061894  0.33633757  0.58384576  1
  Ni  Ni29  1  0.37818482  0.04766014  0.58583879  1
  Ni  Ni30  1  0.65510207  0.61019621  0.58667694  1
  Ni  Ni31  1  0.95449142  0.62197247  0.08726040  1
  Ni  Ni32  1  0.38771200  0.34321414  0.08648769  1
  Ni  Ni33  1  0.61369339  0.66501158  0.91692038  1
  Ni  Ni34  1  0.04117301  0.37481719  0.91570629  1
  Ni  Ni35  1  0.33599316  0.96018091  0.91808756  1
  Ni  Ni36  1  0.62369269  0.95664870  0.41602496  1
  Ni  Ni37  1  0.34141613  0.38342836  0.41545637  1
  Ni  Ni38  1  0.03929377  0.66599732  0.41712423  1
  Cu  Cu39  1  0.71252447  0.72233900  0.25111974  1
  Cu  Cu40  1  0.27756206  0.28681136  0.75165319  1
  Cu  Cu41  1  0.66610594  0.03968307  0.08291304  1
  C  C42  1  0.18107593  0.01273371  0.30642330  1
  C  C43  1  0.81774969  0.80886531  0.30420287  1
  C  C44  1  0.98188528  0.16916424  0.30736094  1
  C  C45  1  0.19244151  0.18335254  0.80437204  1
  C  C46  1  0.99306290  0.82340631  0.80617948  1
  C  C47  1  0.83239476  0.01658290  0.80708671  1
  C  C48  1  0.80539214  0.97448372  0.69242294  1
  C  C49  1  0.17538955  0.20456170  0.69726532  1
  C  C50  1  0.03391988  0.83275547  0.69169773  1
  C  C51  1  0.79271775  0.82333644  0.19713652  1
  C  C52  1  0.02284300  0.18630860  0.19323155  1
  C  C53  1  0.16471030  0.96560677  0.19232569  1
  C  C54  1  0.90154343  0.39804995  0.64072542  1
  C  C55  1  0.48999726  0.10866897  0.64548789  1
  C  C56  1  0.62451020  0.51448855  0.64836753  1
  C  C57  1  0.89020167  0.51984642  0.14811853  1
  C  C58  1  0.63544635  0.10808342  0.13724470  1
  C  C59  1  0.48341480  0.36779114  0.14817546  1
  C  C60  1  0.47860952  0.30885520  0.02878512  1
  C  C61  1  0.83251184  0.51953783  0.02929189  1
  C  C62  1  0.69400786  0.14828396  0.03013805  1
  C  C63  1  0.47445252  0.16921842  0.52820999  1
  C  C64  1  0.70080879  0.52516482  0.53010100  1
  C  C65  1  0.83015058  0.29285469  0.52665883  1
  C  C66  1  0.52202046  0.69328447  0.97318215  1
  C  C67  1  0.16237686  0.46752554  0.97351767  1
  C  C68  1  0.30472774  0.83282797  0.97304673  1
  C  C69  1  0.53575717  0.84355178  0.47526888  1
  C  C70  1  0.31187953  0.47851368  0.47131789  1
  C  C71  1  0.16104828  0.69699444  0.47458827  1
  C  C72  1  0.13408845  0.63767459  0.35844622  1
  C  C73  1  0.49735430  0.85522163  0.35942752  1
  C  C74  1  0.36126068  0.49497930  0.35568729  1
  C  C75  1  0.13883896  0.50162083  0.85894377  1
  C  C76  1  0.36438177  0.86892148  0.85794178  1
  C  C77  1  0.50206597  0.63822797  0.85652235  1
  C  C78  1  0.02028809  0.83515912  0.40758904  1
  C  C79  1  0.81164540  0.97259277  0.40800544  1
  C  C80  1  0.16731635  0.19172394  0.41087084  1
  C  C81  1  0.02810350  0.18877655  0.90780790  1
  C  C82  1  0.16787763  0.98150374  0.90804764  1
  C  C83  1  0.80862463  0.83321954  0.91107893  1
  C  C84  1  0.97206839  0.15860559  0.59152836  1
  C  C85  1  0.18163305  0.02011546  0.59022826  1
  C  C86  1  0.83642804  0.80952297  0.59066762  1
  C  C87  1  0.96568757  0.81385290  0.09022348  1
  C  C88  1  0.82317527  0.02072875  0.08856125  1
  C  C89  1  0.18757814  0.16591102  0.08913131  1
  C  C90  1  0.67242103  0.15870232  0.75131801  1
  C  C91  1  0.45017368  0.30490876  0.74883054  1
  C  C92  1  0.82224792  0.52826414  0.75177426  1
  C  C93  1  0.69351644  0.54954777  0.24963688  1
  C  C94  1  0.83756318  0.32331139  0.24953745  1
  C  C95  1  0.47391834  0.17555319  0.24902010  1
  C  C96  1  0.63771713  0.49603523  0.92352340  1
  C  C97  1  0.85283871  0.35468233  0.92534066  1
  C  C98  1  0.50904273  0.14592921  0.92609623  1
  C  C99  1  0.63995178  0.14470660  0.42239255  1
  C  C100  1  0.50872677  0.36197073  0.42347825  1
  C  C101  1  0.85353502  0.49290740  0.42406770  1
  C  C102  1  0.35658841  0.50685008  0.07467169  1
  C  C103  1  0.15205855  0.65802241  0.07440930  1
  C  C104  1  0.51384144  0.86359570  0.07455343  1
  C  C105  1  0.34686510  0.85089368  0.57378715  1
  C  C106  1  0.50484445  0.66039927  0.57482736  1
  C  C107  1  0.15290342  0.50148095  0.57138722  1
  C  C108  1  0.29800030  0.81894741  0.25551135  1
  C  C109  1  0.53673504  0.70254894  0.25522881  1
  C  C110  1  0.18164715  0.47488128  0.25499835  1
  C  C111  1  0.29681456  0.46197603  0.75491359  1
  C  C112  1  0.18010946  0.70059528  0.75550127  1
  C  C113  1  0.52276711  0.81502400  0.75566506  1
