# generated using pymatgen
data_CuNiC16
_symmetry_space_group_name_H-M   'P 1'
_cell_length_a   9.05564456
_cell_length_b   9.05553901
_cell_length_c   23.53191634
_cell_angle_alpha   90.96894932
_cell_angle_beta   90.00000000
_cell_angle_gamma   120.00038558
_symmetry_Int_Tables_number   1
_chemical_formula_structural   CuNiC16
_chemical_formula_sum   'Cu6 Ni6 C96'
_cell_volume   1670.84860879
_cell_formula_units_Z   6
loop_
 _symmetry_equiv_pos_site_id
 _symmetry_equiv_pos_as_xyz
  1  'x, y, z'
loop_
 _atom_site_type_symbol
 _atom_site_label
 _atom_site_symmetry_multiplicity
 _atom_site_fract_x
 _atom_site_fract_y
 _atom_site_fract_z
 _atom_site_occupancy
  C  C0  1  0.04538825  0.02028114  0.49971951  1
  C  C1  1  0.97489289  0.02028114  -0.00028049  1
  C  C2  1  0.70421494  0.32863926  0.83211097  1
  C  C3  1  0.62442533  0.32863926  0.33211097  1
  C  C4  1  0.34235349  0.71219701  0.16531420  1
  C  C5  1  0.36984252  0.71219701  0.66531420  1
  C  C6  1  0.99882177  -0.00035164  0.64524671  1
  C  C7  1  0.00082659  -0.00035164  0.14524671  1
  C  C8  1  0.67384762  0.32219704  0.97765638  1
  C  C9  1  0.64835042  0.32219704  0.47765638  1
  C  C10  1  0.33561217  0.66947250  0.31158480  1
  C  C11  1  0.33385934  0.66947250  0.81158480  1
  Ni  Ni12  1  0.30169569  0.00872461  0.24783506  1
  Ni  Ni13  1  0.70702892  0.00872461  0.74783506  1
  Ni  Ni14  1  0.36899712  0.02427480  0.57965417  1
  Ni  Ni15  1  0.65527868  0.02427480  0.07965417  1
  Ni  Ni16  1  0.04994516  0.37262087  0.91538708  1
  Ni  Ni17  1  0.32267470  0.37262087  0.41538708  1
  Cu  Cu18  1  0.02228081  0.01463404  0.35081530  1
  Cu  Cu19  1  0.99235323  0.01463404  0.85081530  1
  Cu  Cu20  1  0.65713486  0.30735399  0.68341415  1
  Cu  Cu21  1  0.65022013  0.30735399  0.18341415  1
  Cu  Cu22  1  0.33119875  0.66448047  0.01704748  1
  Cu  Cu23  1  0.33328072  0.66448047  0.51704748  1
  C  C24  1  0.71828316  0.70080552  0.25017033  1
  C  C25  1  0.98316142  0.28778956  0.25051813  1
  C  C26  1  0.30462814  0.28778956  0.75051813  1
  C  C27  1  0.98252236  0.70080552  0.75017033  1
  C  C28  1  0.96639164  0.34770780  0.58320558  1
  C  C29  1  0.65232239  0.61248344  0.58588107  1
  C  C30  1  0.96016205  0.61248344  0.08588107  1
  C  C31  1  0.38131717  0.34770780  0.08320558  1
  C  C32  1  0.63597388  0.67938441  0.91656256  1
  C  C33  1  0.31191474  0.95579507  0.91556572  1
  C  C34  1  0.64387933  0.95579507  0.41556572  1
  C  C35  1  0.04340952  0.67938441  0.41656256  1
  C  C36  1  0.21544957  0.03151851  0.30783429  1
  C  C37  1  0.81883160  0.78431448  0.30407509  1
  C  C38  1  0.95480528  0.18256337  0.30280026  1
  C  C39  1  0.22775809  0.18256337  0.80280026  1
  C  C40  1  0.96548289  0.78431448  0.80407509  1
  C  C41  1  0.81606895  0.03151851  0.80783429  1
  C  C42  1  0.80109803  0.99403651  0.69274850  1
  C  C43  1  0.20610656  0.20297664  0.69916135  1
  C  C44  1  0.00942932  0.80483081  0.70021433  1
  C  C45  1  0.79540149  0.80483081  0.20021433  1
  C  C46  1  0.99687008  0.20297664  0.19916135  1
  C  C47  1  0.19293848  0.99403651  0.19274850  1
  C  C48  1  0.88871828  0.37405108  0.63681734  1
  C  C49  1  0.48068572  0.10895196  0.63983184  1
  C  C50  1  0.63720094  0.51239232  0.63845071  1
  C  C51  1  0.87519238  0.51239232  0.13845071  1
  C  C52  1  0.62826724  0.10895196  0.13983184  1
  C  C53  1  0.48533380  0.37405108  0.13681734  1
  C  C54  1  0.46601974  0.33275757  0.03260331  1
  C  C55  1  0.86006050  0.53370394  0.03422943  1
  C  C56  1  0.67262884  0.13546141  0.02569156  1
  C  C57  1  0.46283358  0.13546141  0.52569156  1
  C  C58  1  0.67364444  0.53370394  0.53422943  1
  C  C59  1  0.86673883  0.33275757  0.53260331  1
  C  C60  1  0.55890605  0.71030739  0.96928670  1
  C  C61  1  0.15955409  0.46146794  0.97584222  1
  C  C62  1  0.29335559  0.85724185  0.96842183  1
  C  C63  1  0.56388526  0.85724185  0.46842183  1
  C  C64  1  0.30191286  0.46146794  0.47584222  1
  C  C65  1  0.15140035  0.71030739  0.46928670  1
  C  C66  1  0.12679552  0.66565936  0.36524096  1
  C  C67  1  0.53480350  0.88096116  0.36526527  1
  C  C68  1  0.33228404  0.47869909  0.36105592  1
  C  C69  1  0.14641404  0.47869909  0.86105592  1
  C  C70  1  0.34615666  0.88096116  0.86526527  1
  C  C71  1  0.53886284  0.66565936  0.86524096  1
  C  C72  1  0.02004281  0.83265718  0.41343009  1
  C  C73  1  0.80748160  0.95307586  0.40886040  1
  C  C74  1  0.14419070  0.18150740  0.41517101  1
  C  C75  1  0.03731670  0.18150740  0.91517101  1
  C  C76  1  0.14559427  0.95307586  0.90886040  1
  C  C77  1  0.81261437  0.83265718  0.91343009  1
  C  C78  1  0.98452806  0.19534716  0.58752103  1
  C  C79  1  0.17830677  0.99480180  0.58433314  1
  C  C80  1  0.79885553  0.78581921  0.59079206  1
  C  C81  1  0.98696368  0.78581921  0.09079206  1
  C  C82  1  0.81649504  0.99480180  0.08433314  1
  C  C83  1  0.21081910  0.19534716  0.08752103  1
  C  C84  1  0.70188308  0.19118274  0.74733073  1
  C  C85  1  0.48038232  0.31029834  0.74694896  1
  C  C86  1  0.81943925  0.53271797  0.74444850  1
  C  C87  1  0.71327972  0.53271797  0.24444850  1
  C  C88  1  0.82991702  0.31029834  0.24694896  1
  C  C89  1  0.48930066  0.19118274  0.24733073  1
  C  C90  1  0.64934132  0.52565859  0.92252992  1
  C  C91  1  0.85958949  0.34686501  0.91753929  1
  C  C92  1  0.45097313  0.13376559  0.92180195  1
  C  C93  1  0.68279347  0.13376559  0.42180195  1
  C  C94  1  0.48727652  0.34686501  0.41753929  1
  C  C95  1  0.87631826  0.52565859  0.42252992  1
  C  C96  1  0.36265544  0.50306542  0.08085913  1
  C  C97  1  0.13014633  0.62109907  0.08301341  1
  C  C98  1  0.47243735  0.83585589  0.07577346  1
  C  C99  1  0.36341754  0.83585589  0.57577346  1
  C  C100  1  0.49095174  0.62109907  0.58301341  1
  C  C101  1  0.14040898  0.50306542  0.58085913  1
  C  C102  1  0.33202021  0.84769026  0.25125320  1
  C  C103  1  0.54371357  0.67154979  0.25545846  1
  C  C104  1  0.13609840  0.45665741  0.25567516  1
  C  C105  1  0.32055802  0.45665741  0.75567516  1
  C  C106  1  0.12783522  0.67154979  0.75545846  1
  C  C107  1  0.51566905  0.84769026  0.75125320  1
