# generated using pymatgen
data_Cu(NiC11)3
_symmetry_space_group_name_H-M   'P 1'
_cell_length_a   17.91043535
_cell_length_b   9.01307640
_cell_length_c   23.04590894
_cell_angle_alpha   89.87583674
_cell_angle_beta   90.07693652
_cell_angle_gamma   120.17930838
_symmetry_Int_Tables_number   1
_chemical_formula_structural   Cu(NiC11)3
_chemical_formula_sum   'Cu6 Ni18 C198'
_cell_volume   3215.99299768
_cell_formula_units_Z   6
loop_
 _symmetry_equiv_pos_site_id
 _symmetry_equiv_pos_as_xyz
  1  'x, y, z'
loop_
 _atom_site_type_symbol
 _atom_site_label
 _atom_site_symmetry_multiplicity
 _atom_site_fract_x
 _atom_site_fract_y
 _atom_site_fract_z
 _atom_site_occupancy
  Ni  Ni0  1  0.66439125  0.35823724  0.58171433  1
  Ni  Ni1  1  0.51306690  0.67016180  0.58884064  1
  Ni  Ni2  1  0.82372438  0.97801962  0.58506971  1
  Ni  Ni3  1  0.16325633  0.97012171  0.08903217  1
  Ni  Ni4  1  0.31947916  0.66846096  0.09507034  1
  Ni  Ni5  1  0.01234207  0.35775577  0.09797325  1
  Ni  Ni6  1  0.01146325  0.97894159  0.49734836  1
  Ni  Ni7  1  0.48112229  0.01581704  0.50074608  1
  Ni  Ni8  1  0.98456903  0.95380006  0.00535287  1
  Ni  Ni9  1  0.50882810  0.01690160  0.00262515  1
  Ni  Ni10  1  0.32016550  0.30566800  0.82308845  1
  Ni  Ni11  1  0.82326492  0.33302645  0.83612925  1
  Ni  Ni12  1  0.31763222  0.31094714  0.33769258  1
  Ni  Ni13  1  0.83239099  0.34724067  0.32738812  1
  Ni  Ni14  1  0.16125671  0.66486426  0.15766537  1
  Ni  Ni15  1  0.68374132  0.70243619  0.17586084  1
  Ni  Ni16  1  0.18006723  0.66113137  0.66726828  1
  Ni  Ni17  1  0.66543688  0.66359521  0.64923248  1
  Cu  Cu18  1  0.32723178  0.31984774  0.68991600  1
  Cu  Cu19  1  0.83669636  0.33727237  0.68612047  1
  Cu  Cu20  1  0.33515276  0.33588547  0.18715624  1
  Cu  Cu21  1  0.82890206  0.33972385  0.19258696  1
  Cu  Cu22  1  0.16626351  0.66751220  0.01429806  1
  Cu  Cu23  1  0.66739427  0.66686347  0.51279297  1
  C  C24  1  0.64077160  0.98792822  0.25344367  1
  C  C25  1  0.85514189  0.72134877  0.25658760  1
  C  C26  1  0.14056385  0.29324101  0.75357392  1
  C  C27  1  0.35752315  -0.00715595  0.75743676  1
  C  C28  1  0.47543417  0.33144485  0.58283868  1
  C  C29  1  0.68444997  0.04678800  0.58391226  1
  C  C30  1  0.84024173  0.64668952  0.58765293  1
  C  C31  1  0.97471217  0.62131533  0.08239136  1
  C  C32  1  0.34279698  0.03981723  0.08397620  1
  C  C33  1  0.18231871  0.32293653  0.08390582  1
  C  C34  1  0.81443326  0.66896848  0.91302786  1
  C  C35  1  0.66723380  0.96758550  0.91649530  1
  C  C36  1  0.31366773  0.95692634  0.41251014  1
  C  C37  1  0.16858365  0.36938596  0.41647376  1
  C  C38  1  0.01453760  0.65546911  0.41768675  1
  C  C39  1  0.00365802  0.99339491  0.35792299  1
  C  C40  1  0.49570430  0.99586562  0.35264776  1
  C  C41  1  0.99623162  0.99531734  0.85270864  1
  C  C42  1  0.50466545  0.00098324  0.85426312  1
  C  C43  1  0.00662812  0.00519397  0.64831866  1
  C  C44  1  0.49347863  0.00717554  0.64630593  1
  C  C45  1  0.99524951  0.98127294  0.15052012  1
  C  C46  1  0.50378512  0.00981236  0.15209577  1
  C  C47  1  0.32935104  0.31014340  0.98755410  1
  C  C48  1  0.83041490  0.34819554  0.97725160  1
  C  C49  1  0.32974515  0.30954638  0.47645032  1
  C  C50  1  0.83371056  0.35848340  0.48555915  1
  C  C51  1  0.67163618  0.68109013  0.01085910  1
  C  C52  1  0.16789984  0.66464724  0.50787709  1
  C  C53  1  0.16244987  0.65500079  0.32102063  1
  C  C54  1  0.67099129  0.68431512  0.31428844  1
  C  C55  1  0.17070759  0.65748100  0.81273895  1
  C  C56  1  0.67021240  0.68071791  0.81673064  1
  C  C57  1  0.14670796  0.97889649  0.25312986  1
  C  C58  1  0.34434207  0.71000991  0.25000482  1
  C  C59  1  0.01323576  0.29815065  0.25127220  1
  C  C60  1  0.50481489  0.30175352  0.25603758  1
  C  C61  1  0.64646383  0.31357382  0.75545559  1
  C  C62  1  0.00499606  0.70973244  0.75685261  1
  C  C63  1  0.51160851  0.71714451  0.75160607  1
  C  C64  1  0.84650265  0.98519005  0.75083633  1
  C  C65  1  0.99136663  0.34174337  0.58250424  1
  C  C66  1  0.18210970  0.01502981  0.58033589  1
  C  C67  1  0.32689573  0.62272039  0.58107983  1
  C  C68  1  0.48832412  0.63339148  0.07848569  1
  C  C69  1  0.82735100  0.03604558  0.08075523  1
  C  C70  1  0.68090154  0.34728618  0.07834747  1
  C  C71  1  0.32147756  0.64698870  0.91905723  1
  C  C72  1  0.01334823  0.36698564  0.91378077  1
  C  C73  1  0.51584821  0.37433666  0.91745506  1
  C  C74  1  0.17282031  0.97838941  0.91426941  1
  C  C75  1  0.81908953  0.98798406  0.41765933  1
  C  C76  1  0.66799708  0.36535481  0.41335408  1
  C  C77  1  0.51278884  0.65863838  0.41406155  1
  C  C78  1  0.09971680  -0.01394973  0.30434237  1
  C  C79  1  0.58727385  0.00657429  0.30715867  1
  C  C80  1  0.39317719  0.81597965  0.30068229  1
  C  C81  1  0.90514204  0.83654247  0.31277328  1
  C  C82  1  0.49235714  0.19396955  0.30761741  1
  C  C83  1  0.02144399  0.20535215  0.30152835  1
  C  C84  1  0.08913593  0.17306382  0.80934191  1
  C  C85  1  0.60238328  0.21386617  0.80915121  1
  C  C86  1  0.51793950  0.81860829  0.80472065  1
  C  C87  1  0.99234688  0.78827102  0.81006405  1
  C  C88  1  0.40657668  -0.00812618  0.81807570  1
  C  C89  1  0.89039192  -0.03086175  0.80353634  1
  C  C90  1  0.40115963  0.95183988  0.70100253  1
  C  C91  1  0.89151092  0.98468569  0.69633512  1
  C  C92  1  0.08920891  0.19956812  0.69213171  1
  C  C93  1  0.59953367  0.22343424  0.70164431  1
  C  C94  1  0.00706966  0.80572318  0.70348484  1
  C  C95  1  0.52211679  0.81690233  0.69735018  1
  C  C96  1  0.38759187  0.80108078  0.19385921  1
  C  C97  1  0.89280672  0.83500923  0.19570122  1
  C  C98  1  0.02107740  0.22142670  0.19448505  1
  C  C99  1  0.50859222  0.21488111  0.20127142  1
  C  C100  1  0.10211226  0.97720229  0.19727672  1
  C  C101  1  0.58977968  0.97663111  0.19029524  1
  C  C102  1  0.43682537  0.39362294  0.63342750  1
  C  C103  1  0.95712187  0.36305343  0.63693026  1
  C  C104  1  0.23039421  0.09401943  0.63234531  1
  C  C105  1  0.75138355  0.11342958  0.63670765  1
  C  C106  1  0.31002164  0.52665464  0.63451958  1
  C  C107  1  0.82658470  0.53394857  0.64383195  1
  C  C108  1  0.45368996  0.54283174  0.13236646  1
  C  C109  1  0.93391895  0.47322039  0.13012986  1
  C  C110  1  0.32866212  0.13395362  0.13695097  1
  C  C111  1  0.81074419  0.10112244  0.13314505  1
  C  C112  1  0.25599960  0.39389094  0.13249718  1
  C  C113  1  0.73307171  0.37857522  0.12931582  1
  C  C114  1  0.22046389  0.26290534  0.02591297  1
  C  C115  1  0.71751007  0.32033112  0.02356144  1
  C  C116  1  0.43109321  0.54674170  0.02654558  1
  C  C117  1  0.92386544  0.54052310  0.01837238  1
  C  C118  1  0.36592669  0.15596473  0.02214825  1
  C  C119  1  0.82961442  0.12959225  0.02654556  1
  C  C120  1  0.21981344  0.11473018  0.52579303  1
  C  C121  1  0.72680502  0.18757850  0.52787832  1
  C  C122  1  0.33264222  0.53394763  0.52835265  1
  C  C123  1  0.85992198  0.56983282  0.52803880  1
  C  C124  1  0.42504442  0.31965883  0.51992496  1
  C  C125  1  0.93354805  0.31444756  0.53173466  1
  C  C126  1  0.28723873  0.66880102  0.97334965  1
  C  C127  1  0.77100777  0.69339461  0.97157722  1
  C  C128  1  0.05576008  0.43270189  0.96866806  1
  C  C129  1  0.56917895  0.45595770  0.96992251  1
  C  C130  1  0.16873497  0.90066260  0.97007372  1
  C  C131  1  0.64299155  0.83929332  0.97164102  1
  C  C132  1  0.27359420  0.85151173  0.47249953  1
  C  C133  1  0.78837092  0.89266740  0.47192468  1
  C  C134  1  0.15097632  0.45005817  0.47402826  1
  C  C135  1  0.66279637  0.43376407  0.46932975  1
  C  C136  1  0.07328972  0.68852645  0.47548329  1
  C  C137  1  0.55468859  0.67627979  0.46931932  1
  C  C138  1  0.05730428  0.62719454  0.35887513  1
  C  C139  1  0.56270512  0.64310122  0.36462326  1
  C  C140  1  0.25732065  0.86793956  0.35458296  1
  C  C141  1  0.76120474  0.88890131  0.36751251  1
  C  C142  1  0.18827477  0.48786429  0.35868971  1
  C  C143  1  0.66984227  0.47437857  0.36367986  1
  C  C144  1  0.06307336  0.48328376  0.86400488  1
  C  C145  1  0.55636286  0.47558376  0.86399388  1
  C  C146  1  0.17622284  0.87642804  0.86423554  1
  C  C147  1  0.68046024  0.88212026  0.85799444  1
  C  C148  1  0.26501645  0.62667321  0.86803543  1
  C  C149  1  0.75549599  0.64213060  0.85583119  1
  C  C150  1  -0.00012088  0.82126413  0.41426344  1
  C  C151  1  0.50409400  0.81424502  0.40700541  1
  C  C152  1  0.41244059  0.98175196  0.41060094  1
  C  C153  1  0.90875077  0.02595758  0.40789579  1
  C  C154  1  0.08591259  0.17365610  0.41074088  1
  C  C155  1  0.58948349  0.19041427  0.40893552  1
  C  C156  1  0.00355901  0.19330635  0.90659146  1
  C  C157  1  0.50504445  0.19955019  0.91473510  1
  C  C158  1  0.09579523  0.00069127  0.90954847  1
  C  C159  1  0.58591802  0.00702234  0.91249827  1
  C  C160  1  0.41043702  0.79803354  0.91148224  1
  C  C161  1  0.91284437  0.84090236  0.91118692  1
  C  C162  1  0.46766504  0.13983880  0.58820497  1
  C  C163  1  0.99853808  0.18143957  0.58369109  1
  C  C164  1  0.09306404  -0.00580088  0.58376099  1
  C  C165  1  0.59083127  0.04632439  0.59464895  1
  C  C166  1  0.41419633  0.78906093  0.58417543  1
  C  C167  1  0.92482876  0.84941004  0.59159366  1
  C  C168  1  0.49848425  0.80918384  0.07964906  1
  C  C169  1  0.96977244  0.79942675  0.09054420  1
  C  C170  1  0.42632590  0.00225705  0.09085473  1
  C  C171  1  0.91279946  0.04056301  0.08306987  1
  C  C172  1  0.08947259  0.13881518  0.09588542  1
  C  C173  1  0.59335832  0.18807671  0.08431525  1
  C  C174  1  0.34896876  0.15902638  0.75294731  1
  C  C175  1  0.83821729  0.13680267  0.75611444  1
  C  C176  1  0.23796818  0.33732035  0.75370680  1
  C  C177  1  0.73473798  0.34612814  0.75625531  1
  C  C178  1  0.43370560  0.55219733  0.75339039  1
  C  C179  1  0.93585441  0.53172558  0.75603191  1
  C  C180  1  0.33869037  0.54348463  0.25372292  1
  C  C181  1  0.84968433  0.53994214  0.25464386  1
  C  C182  1  0.43472991  0.33839866  0.25476986  1
  C  C183  1  0.93490945  0.30639507  0.25297900  1
  C  C184  1  0.23413023  0.12628266  0.25417863  1
  C  C185  1  0.73811039  0.13856862  0.25371448  1
  C  C186  1  0.32977465  0.48879858  0.92052505  1
  C  C187  1  0.82438716  0.49969560  0.91559803  1
  C  C188  1  0.43051932  0.36248968  0.92242937  1
  C  C189  1  0.92577038  0.34709291  0.91113698  1
  C  C190  1  0.25394755  0.15296725  0.91131872  1
  C  C191  1  0.75379479  0.15428461  0.92491447  1
  C  C192  1  0.32665326  0.14919452  0.41543094  1
  C  C193  1  0.81873071  0.15226101  0.41987630  1
  C  C194  1  0.25372298  0.34719836  0.42403863  1
  C  C195  1  0.74723694  0.35130910  0.41016184  1
  C  C196  1  0.42533894  0.50437196  0.41110866  1
  C  C197  1  0.91888165  0.48255620  0.42362574  1
  C  C198  1  0.15613834  0.46594225  0.07176156  1
  C  C199  1  0.66503522  0.49472098  0.07029258  1
  C  C200  1  0.07637500  0.68304960  0.07556816  1
  C  C201  1  0.57452289  0.64758118  0.07056077  1
  C  C202  1  0.26153158  0.84888042  0.07607409  1
  C  C203  1  0.75539478  0.85020146  0.07555595  1
  C  C204  1  0.17160073  0.84000771  0.57538596  1
  C  C205  1  0.65812115  0.85316524  0.56886493  1
  C  C206  1  0.25716527  0.66766050  0.57434278  1
  C  C207  1  0.75966543  0.67735684  0.57828963  1
  C  C208  1  0.07942074  0.49371686  0.57495406  1
  C  C209  1  0.57664811  0.47239094  0.57514032  1
  C  C210  1  0.14688114  0.81217589  0.25266251  1
  C  C211  1  0.63018621  0.79414976  0.25692724  1
  C  C212  1  0.25801450  0.69641934  0.24891949  1
  C  C213  1  0.75790186  0.70327828  0.25850142  1
  C  C214  1  0.09261379  0.47613024  0.25078629  1
  C  C215  1  0.59077473  0.46172593  0.25918790  1
  C  C216  1  0.13032963  0.46692162  0.75601773  1
  C  C217  1  0.64326092  0.47713694  0.75659992  1
  C  C218  1  0.09193159  0.72442864  0.75978558  1
  C  C219  1  0.59053395  0.69617287  0.75257232  1
  C  C220  1  0.26182769  0.81285181  0.75977224  1
  C  C221  1  0.75937972  0.82367782  0.74795920  1
