# generated using pymatgen
data_Cu2Ni5C4
_symmetry_space_group_name_H-M   'P 1'
_cell_length_a   9.56520400
_cell_length_b   11.20718600
_cell_length_c   12.05958000
_cell_angle_alpha   90.00000000
_cell_angle_beta   90.00000000
_cell_angle_gamma   90.00000000
_symmetry_Int_Tables_number   1
_chemical_formula_structural   Cu2Ni5C4
_chemical_formula_sum   'Cu8 Ni20 C16'
_cell_volume   1292.77516190
_cell_formula_units_Z   4
loop_
 _symmetry_equiv_pos_site_id
 _symmetry_equiv_pos_as_xyz
  1  'x, y, z'
loop_
 _atom_site_type_symbol
 _atom_site_label
 _atom_site_symmetry_multiplicity
 _atom_site_fract_x
 _atom_site_fract_y
 _atom_site_fract_z
 _atom_site_occupancy
  C  C0  1  0.75000000  0.95531100  0.99547100  1
  C  C1  1  0.25000000  0.04468900  0.00452900  1
  C  C2  1  0.75000000  0.45531100  0.50452900  1
  C  C3  1  0.25000000  0.54468900  0.49547100  1
  C  C4  1  0.25000000  0.93998000  0.45499100  1
  C  C5  1  0.75000000  0.06002000  0.54500900  1
  C  C6  1  0.25000000  0.43998000  0.04500900  1
  C  C7  1  0.75000000  0.56002000  0.95499100  1
  C  C8  1  0.53155200  0.22154500  0.15769600  1
  C  C9  1  0.03155200  0.77845500  0.84230400  1
  C  C10  1  0.96844800  0.72154500  0.34230400  1
  C  C11  1  0.46844800  0.27845500  0.65769600  1
  C  C12  1  0.46844800  0.77845500  0.84230400  1
  C  C13  1  0.96844800  0.22154500  0.15769600  1
  C  C14  1  0.03155200  0.27845500  0.65769600  1
  C  C15  1  0.53155200  0.72154500  0.34230400  1
  Ni  Ni16  1  0.94195800  0.98439400  0.85604300  1
  Ni  Ni17  1  0.55364200  0.18900400  0.48257800  1
  Ni  Ni18  1  0.44635800  0.31099600  0.98257800  1
  Ni  Ni19  1  0.94635800  0.68900400  0.01742200  1
  Ni  Ni20  1  0.44195800  0.01560600  0.14395700  1
  Ni  Ni21  1  0.05364200  0.81099600  0.51742200  1
  Ni  Ni22  1  0.05804200  0.51560600  0.35604300  1
  Ni  Ni23  1  0.55804200  0.48439400  0.64395700  1
  Ni  Ni24  1  0.25000000  0.82152000  0.96957900  1
  Ni  Ni25  1  0.75000000  0.17848000  0.03042100  1
  Ni  Ni26  1  0.25000000  0.32152000  0.53042100  1
  Ni  Ni27  1  0.75000000  0.67848000  0.46957900  1
  Ni  Ni28  1  0.94635800  0.18900400  0.48257800  1
  Ni  Ni29  1  0.44635800  0.81099600  0.51742200  1
  Ni  Ni30  1  0.55364200  0.68900400  0.01742200  1
  Ni  Ni31  1  0.05364200  0.31099600  0.98257800  1
  Ni  Ni32  1  0.44195800  0.51560600  0.35604300  1
  Ni  Ni33  1  0.94195800  0.48439400  0.64395700  1
  Ni  Ni34  1  0.05804200  0.01560600  0.14395700  1
  Ni  Ni35  1  0.55804200  0.98439400  0.85604300  1
  Cu  Cu36  1  0.75000000  0.98422700  0.34574900  1
  Cu  Cu37  1  0.25000000  0.01577300  0.65425100  1
  Cu  Cu38  1  0.25000000  0.78579000  0.27112200  1
  Cu  Cu39  1  0.25000000  0.51577300  0.84574900  1
  Cu  Cu40  1  0.75000000  0.71421000  0.77112200  1
  Cu  Cu41  1  0.25000000  0.28579000  0.22887800  1
  Cu  Cu42  1  0.75000000  0.21421000  0.72887800  1
  Cu  Cu43  1  0.75000000  0.48422700  0.15425100  1
