# generated using pymatgen
data_Cu(NiC4)2
_symmetry_space_group_name_H-M   'P 1'
_cell_length_a   6.65124251
_cell_length_b   6.31183029
_cell_length_c   6.65124251
_cell_angle_alpha   118.32621128
_cell_angle_beta   83.41086694
_cell_angle_gamma   61.67378872
_symmetry_Int_Tables_number   1
_chemical_formula_structural   Cu(NiC4)2
_chemical_formula_sum   'Cu1 Ni2 C8'
_cell_volume   194.43658818
_cell_formula_units_Z   1
loop_
 _symmetry_equiv_pos_site_id
 _symmetry_equiv_pos_as_xyz
  1  'x, y, z'
loop_
 _atom_site_type_symbol
 _atom_site_label
 _atom_site_symmetry_multiplicity
 _atom_site_fract_x
 _atom_site_fract_y
 _atom_site_fract_z
 _atom_site_occupancy
  Ni  Ni0  1  0.30784300  0.50000000  0.30784300  1
  Ni  Ni1  1  0.69215700  0.50000000  0.69215700  1
  Cu  Cu2  1  0.50000000  0.00000000  0.50000000  1
  C  C3  1  0.00000000  0.50000000  0.00000000  1
  C  C4  1  0.00000000  0.00000000  0.00000000  1
  C  C5  1  0.76953300  0.96286400  0.23046700  1
  C  C6  1  0.74508200  0.00000000  0.74508200  1
  C  C7  1  0.23046700  0.03713600  0.76953300  1
  C  C8  1  0.25491800  0.00000000  0.25491800  1
  C  C9  1  0.76953100  0.49808100  0.23046900  1
  C  C10  1  0.23046900  0.50191900  0.76953100  1
