# generated using pymatgen
data_CuNiC9
_symmetry_space_group_name_H-M   'P 1'
_cell_length_a   6.51154387
_cell_length_b   6.51154307
_cell_length_c   6.51154334
_cell_angle_alpha   54.65673400
_cell_angle_beta   54.65673393
_cell_angle_gamma   54.65673793
_symmetry_Int_Tables_number   1
_chemical_formula_structural   CuNiC9
_chemical_formula_sum   'Cu1 Ni1 C9'
_cell_volume   170.92132414
_cell_formula_units_Z   1
loop_
 _symmetry_equiv_pos_site_id
 _symmetry_equiv_pos_as_xyz
  1  'x, y, z'
loop_
 _atom_site_type_symbol
 _atom_site_label
 _atom_site_symmetry_multiplicity
 _atom_site_fract_x
 _atom_site_fract_y
 _atom_site_fract_z
 _atom_site_occupancy
  C  C0  1  0.78492987  0.78492987  0.78492987  1
  C  C1  1  0.18242377  0.18242377  0.18242377  1
  Ni  Ni2  1  0.39586151  0.39586151  0.39586151  1
  Cu  Cu3  1  0.98182950  0.98182950  0.98182950  1
  C  C4  1  0.56651374  0.56651374  0.56651374  1
  C  C5  1  0.35077345  0.77081178  0.09420730  1
  C  C6  1  0.77081178  0.09420730  0.35077345  1
  C  C7  1  0.09420730  0.35077345  0.77081178  1
  C  C8  1  0.63201976  0.12507915  0.99650217  1
  C  C9  1  0.99650217  0.63201976  0.12507915  1
  C  C10  1  0.12507915  0.99650217  0.63201976  1
