# generated using pymatgen
data_Cu(NiC9)2
_symmetry_space_group_name_H-M   'P 1'
_cell_length_a   9.18642340
_cell_length_b   9.18642307
_cell_length_c   22.52997524
_cell_angle_alpha   90.31654771
_cell_angle_beta   89.68345230
_cell_angle_gamma   119.97107306
_symmetry_Int_Tables_number   1
_chemical_formula_structural   Cu(NiC9)2
_chemical_formula_sum   'Cu6 Ni12 C108'
_cell_volume   1647.03157049
_cell_formula_units_Z   6
loop_
 _symmetry_equiv_pos_site_id
 _symmetry_equiv_pos_as_xyz
  1  'x, y, z'
loop_
 _atom_site_type_symbol
 _atom_site_label
 _atom_site_symmetry_multiplicity
 _atom_site_fract_x
 _atom_site_fract_y
 _atom_site_fract_z
 _atom_site_occupancy
  C  C0  1  0.64077306  0.00535615  0.25105977  1
  C  C1  1  0.37035678  0.36807964  0.24536970  1
  C  C2  1  0.98919117  0.62453534  0.24987140  1
  C  C3  1  0.63192036  0.62964322  0.74536970  1
  C  C4  1  0.99464385  0.35922694  0.75105977  1
  C  C5  1  0.37546466  0.01080883  0.74987140  1
  C  C6  1  0.30744006  0.33868915  0.58439277  1
  C  C7  1  0.03702378  0.70141264  0.57870270  1
  C  C8  1  0.65585817  0.95786834  0.58320440  1
  C  C9  1  0.29858736  0.96297622  0.07870270  1
  C  C10  1  0.66131085  0.69255994  0.08439277  1
  C  C11  1  0.04213166  0.34414183  0.08320440  1
  C  C12  1  0.97410606  0.67202315  0.91772677  1
  C  C13  1  0.70368978  0.03474664  0.91203670  1
  C  C14  1  0.32252417  0.29120234  0.91653840  1
  C  C15  1  0.96525336  0.29631022  0.41203670  1
  C  C16  1  0.32797685  0.02589394  0.41772677  1
  C  C17  1  0.70879766  0.67747583  0.41653840  1
  C  C18  1  0.99505542  0.99196007  0.49782477  1
  C  C19  1  0.00803993  0.00494458  0.99782477  1
  C  C20  1  0.66172242  0.32529307  0.83115777  1
  C  C21  1  0.67470693  0.33827758  0.33115777  1
  C  C22  1  0.32838842  0.65862707  0.16449177  1
  C  C23  1  0.34137293  0.67161158  0.66449177  1
  C  C24  1  0.99434659  0.99609110  0.34996181  1
  C  C25  1  0.00390890  0.00565341  0.84996181  1
  C  C26  1  0.66101359  0.32942410  0.68329481  1
  C  C27  1  0.67057590  0.33898641  0.18329481  1
  C  C28  1  0.32767959  0.66275810  0.01662881  1
  C  C29  1  0.33724190  0.67232041  0.51662881  1
  Ni  Ni30  1  0.70123425  0.70365994  0.25086614  1
  Ni  Ni31  1  0.00202426  0.29705192  0.25100572  1
  Ni  Ni32  1  0.29634006  0.29876575  0.75086614  1
  Ni  Ni33  1  0.70294808  0.99797574  0.75100572  1
  Ni  Ni34  1  0.36790125  0.03699294  0.58419914  1
  Ni  Ni35  1  0.66869126  0.63038492  0.58433872  1
  Ni  Ni36  1  0.96300706  0.63209875  0.08419914  1
  Ni  Ni37  1  0.36961508  0.33130874  0.08433872  1
  Ni  Ni38  1  0.03456725  0.37032694  0.91753314  1
  Ni  Ni39  1  0.33535726  0.96371892  0.91767272  1
  Ni  Ni40  1  0.62967306  0.96543275  0.41753314  1
  Ni  Ni41  1  0.03628108  0.66464274  0.41767272  1
  Cu  Cu42  1  0.99892599  0.00021817  0.64912480  1
  Cu  Cu43  1  0.99978183  0.00107401  0.14912480  1
  Cu  Cu44  1  0.66559299  0.33355117  0.98245780  1
  Cu  Cu45  1  0.66644883  0.33440701  0.48245780  1
  Cu  Cu46  1  0.33225899  0.66688517  0.31579180  1
  Cu  Cu47  1  0.33311483  0.66774101  0.81579180  1
  C  C48  1  0.29385527  0.99689300  0.25030143  1
  C  C49  1  0.00310700  0.70614473  0.75030143  1
  C  C50  1  0.96052227  0.33022600  0.58363443  1
  C  C51  1  0.66977400  0.03947773  0.08363443  1
  C  C52  1  0.62718827  0.66356000  0.91696843  1
  C  C53  1  0.33644000  0.37281173  0.41696843  1
  C  C54  1  0.21909077  0.03103138  0.30644481  1
  C  C55  1  0.81753764  0.77853311  0.30915044  1
  C  C56  1  0.97194596  0.18657289  0.31015124  1
  C  C57  1  0.22146689  0.18246236  0.80915044  1
  C  C58  1  0.96896862  0.78090923  0.80644481  1
  C  C59  1  0.81342711  0.02805404  0.81015124  1
  C  C60  1  0.78590903  0.95869341  0.69151525  1
  C  C61  1  0.17368698  0.21433933  0.69172940  1
  C  C62  1  0.03506883  0.81948198  0.69455361  1
  C  C63  1  0.78566067  0.82631302  0.19172940  1
  C  C64  1  0.04130659  0.21409097  0.19151525  1
  C  C65  1  0.18051802  0.96493117  0.19455361  1
  C  C66  1  0.88575777  0.36436438  0.63977781  1
  C  C67  1  0.48420464  0.11186611  0.64248344  1
  C  C68  1  0.63861296  0.51990589  0.64348424  1
  C  C69  1  0.88813389  0.51579536  0.14248344  1
  C  C70  1  0.63563562  0.11424223  0.13977781  1
  C  C71  1  0.48009411  0.36138704  0.14348424  1
  C  C72  1  0.45257603  0.29202641  0.02484825  1
  C  C73  1  0.84035398  0.54767233  0.02506240  1
  C  C74  1  0.70173583  0.15281498  0.02788661  1
  C  C75  1  0.45232767  0.15964602  0.52506240  1
  C  C76  1  0.70797359  0.54742397  0.52484825  1
  C  C77  1  0.84718502  0.29826417  0.52788661  1
  C  C78  1  0.55242377  0.69769838  0.97311181  1
  C  C79  1  0.15087064  0.44520011  0.97581744  1
  C  C80  1  0.30527896  0.85323989  0.97681824  1
  C  C81  1  0.55479989  0.84912936  0.47581744  1
  C  C82  1  0.30230162  0.44757623  0.47311181  1
  C  C83  1  0.14676011  0.69472104  0.47681824  1
  C  C84  1  0.11924203  0.62536041  0.35818225  1
  C  C85  1  0.50701998  0.88100633  0.35839640  1
  C  C86  1  0.36840183  0.48614898  0.36122061  1
  C  C87  1  0.11899367  0.49298002  0.85839640  1
  C  C88  1  0.37463959  0.88075797  0.85818225  1
  C  C89  1  0.51385102  0.63159817  0.86122061  1
  C  C90  1  0.02172509  0.83454544  0.41296126  1
  C  C91  1  0.81920337  0.99307800  0.41361076  1
  C  C92  1  0.18307145  0.19503611  0.41085035  1
  C  C93  1  0.00692200  0.18079663  0.91361076  1
  C  C94  1  0.16545456  0.97827491  0.91296126  1
  C  C95  1  0.80496389  0.81692855  0.91085035  1
  C  C96  1  0.97093400  0.16583690  0.58754497  1
  C  C97  1  0.18221823  0.02795613  0.58855127  1
  C  C98  1  0.84188894  0.81909307  0.58755111  1
  C  C99  1  0.97204387  0.81778177  0.08855127  1
  C  C100  1  0.83416310  0.02906600  0.08754497  1
  C  C101  1  0.18090693  0.15811106  0.08755111  1
  C  C102  1  0.68839209  0.16787844  0.74629426  1
  C  C103  1  0.48587037  0.32641100  0.74694376  1
  C  C104  1  0.84973845  0.52836911  0.74418335  1
  C  C105  1  0.67358900  0.51412963  0.24694376  1
  C  C106  1  0.83212156  0.31160791  0.24629426  1
  C  C107  1  0.47163089  0.15026155  0.24418335  1
  C  C108  1  0.63760100  0.49916990  0.92087797  1
  C  C109  1  0.84888523  0.36128913  0.92188427  1
  C  C110  1  0.50855594  0.15242607  0.92088411  1
  C  C111  1  0.63871087  0.15111477  0.42188427  1
  C  C112  1  0.50083010  0.36239900  0.42087797  1
  C  C113  1  0.84757393  0.49144406  0.42088411  1
  C  C114  1  0.35505809  0.50121244  0.07962826  1
  C  C115  1  0.15253637  0.65974500  0.08027776  1
  C  C116  1  0.51640445  0.86170311  0.07751735  1
  C  C117  1  0.34025500  0.84746363  0.58027776  1
  C  C118  1  0.49878756  0.64494191  0.57962826  1
  C  C119  1  0.13829689  0.48359555  0.57751735  1
  C  C120  1  0.30426700  0.83250390  0.25421197  1
  C  C121  1  0.51555123  0.69462313  0.25521827  1
  C  C122  1  0.17522194  0.48576007  0.25421811  1
  C  C123  1  0.30537687  0.48444877  0.75521827  1
  C  C124  1  0.16749610  0.69573300  0.75421197  1
  C  C125  1  0.51423993  0.82477806  0.75421811  1
