# generated using pymatgen
data_Cu3NiC9
_symmetry_space_group_name_H-M   'P 1'
_cell_length_a   5.87453824
_cell_length_b   6.11175366
_cell_length_c   6.12701016
_cell_angle_alpha   59.18909788
_cell_angle_beta   118.78075262
_cell_angle_gamma   122.33682708
_symmetry_Int_Tables_number   1
_chemical_formula_structural   Cu3NiC9
_chemical_formula_sum   'Cu3 Ni1 C9'
_cell_volume   152.97026046
_cell_formula_units_Z   1
loop_
 _symmetry_equiv_pos_site_id
 _symmetry_equiv_pos_as_xyz
  1  'x, y, z'
loop_
 _atom_site_type_symbol
 _atom_site_label
 _atom_site_symmetry_multiplicity
 _atom_site_fract_x
 _atom_site_fract_y
 _atom_site_fract_z
 _atom_site_occupancy
  Ni  Ni0  1  0.50000000  0.00000000  0.50000000  1
  Cu  Cu1  1  0.50000000  0.50000000  0.00000000  1
  Cu  Cu2  1  0.50000000  0.00000000  0.00000000  1
  Cu  Cu3  1  0.00000000  0.50000000  0.00000000  1
  C  C4  1  0.50000000  0.50000000  0.50000000  1
  C  C5  1  0.72365000  0.73155300  0.72267000  1
  C  C6  1  0.74201600  0.28829900  0.71583000  1
  C  C7  1  0.27510700  0.75365300  0.80555000  1
  C  C8  1  0.29483100  0.24288300  0.76760800  1
  C  C9  1  0.70516900  0.75711700  0.23239200  1
  C  C10  1  0.72489300  0.24634700  0.19445000  1
  C  C11  1  0.25798400  0.71170100  0.28417000  1
  C  C12  1  0.27635000  0.26844700  0.27733000  1
