# generated using pymatgen
data_Cu(NiC9)2
_symmetry_space_group_name_H-M   'P 1'
_cell_length_a   9.33668454
_cell_length_b   9.33917794
_cell_length_c   22.84546247
_cell_angle_alpha   90.00174404
_cell_angle_beta   89.91226885
_cell_angle_gamma   120.06428408
_symmetry_Int_Tables_number   1
_chemical_formula_structural   Cu(NiC9)2
_chemical_formula_sum   'Cu6 Ni12 C108'
_cell_volume   1724.04885181
_cell_formula_units_Z   6
loop_
 _symmetry_equiv_pos_site_id
 _symmetry_equiv_pos_as_xyz
  1  'x, y, z'
loop_
 _atom_site_type_symbol
 _atom_site_label
 _atom_site_symmetry_multiplicity
 _atom_site_fract_x
 _atom_site_fract_y
 _atom_site_fract_z
 _atom_site_occupancy
  C  C0  1  0.63840226  0.01312127  0.24072396  1
  C  C1  1  0.37516035  0.35985078  0.24174032  1
  C  C2  1  0.98584376  0.62652122  0.24179595  1
  C  C3  1  0.63598586  0.62261957  0.74605929  1
  C  C4  1  0.98231736  0.36712661  0.75080825  1
  C  C5  1  0.38320575  0.00974861  0.74458131  1
  C  C6  1  0.31375883  0.33511489  0.58567819  1
  C  C7  1  0.02965014  0.69816103  0.58374479  1
  C  C8  1  0.65963119  0.97133472  0.58970051  1
  C  C9  1  0.31362083  0.97149550  0.08269072  1
  C  C10  1  0.65795853  0.68652273  0.08262635  1
  C  C11  1  0.02826931  0.34170010  0.08262686  1
  C  C12  1  0.96584654  0.66430678  0.91720679  1
  C  C13  1  0.69917645  0.03578393  0.91733784  1
  C  C14  1  0.33487156  0.30077642  0.91858712  1
  C  C15  1  0.97101344  0.29296170  0.41398979  1
  C  C16  1  0.31515990  0.03248466  0.41603890  1
  C  C17  1  0.71349249  0.67621957  0.41326538  1
  C  C18  1  0.00842684  0.99848902  0.49658047  1
  C  C19  1  0.00077460  0.00095925  0.99869148  1
  C  C20  1  0.67299980  0.33374669  0.82958135  1
  C  C21  1  0.66796889  0.33706060  0.32979871  1
  C  C22  1  0.33416167  0.66753748  0.15973107  1
  C  C23  1  0.34121615  0.67700401  0.66981154  1
  C  C24  1  0.00170992  -0.00005926  0.35260059  1
  C  C25  1  0.66434657  0.33237819  0.68303121  1
  C  C26  1  0.66654930  0.33345898  0.17684314  1
  C  C27  1  0.99596150  0.99658974  0.85352162  1
  C  C28  1  0.99776181  0.99205689  0.64874020  1
  C  C29  1  0.00022361  0.99969594  0.14673149  1
  C  C30  1  0.66731502  0.33367602  0.98346143  1
  C  C31  1  0.66387044  0.33890064  0.48289004  1
  C  C32  1  0.33322634  0.66704862  0.01460151  1
  C  C33  1  0.33193538  0.66676447  0.51733347  1
  C  C34  1  0.32967562  0.66160183  0.31650540  1
  C  C35  1  0.33526033  0.67090133  0.81575860  1
  Ni  Ni36  1  0.00537860  0.70659355  0.75186434  1
  Ni  Ni37  1  0.70370615  0.99551437  0.75124071  1
  Ni  Ni38  1  0.36636474  0.03285279  0.58385058  1
  Ni  Ni39  1  0.66604365  0.63595114  0.58436199  1
  Ni  Ni40  1  0.97002689  0.63481320  0.08447372  1
  Ni  Ni41  1  0.66508336  0.03015969  0.08443761  1
  Ni  Ni42  1  0.36543729  0.33544776  0.08436377  1
  Ni  Ni43  1  0.62806386  0.66409061  0.91596669  1
  Ni  Ni44  1  0.03730813  0.37185146  0.91579891  1
  Ni  Ni45  1  0.33560442  0.96518766  0.91642015  1
  Ni  Ni46  1  0.33825469  0.37374559  0.41790881  1
  Ni  Ni47  1  0.03308330  0.65883177  0.41771648  1
  Cu  Cu48  1  0.29812936  0.99556896  0.25206491  1
  Cu  Cu49  1  0.69808065  0.70371235  0.25217838  1
  Cu  Cu50  1  0.00429873  0.30106649  0.25223389  1
  Cu  Cu51  1  0.28586407  0.29259126  0.75114007  1
  Cu  Cu52  1  0.96592115  0.33340047  0.58255603  1
  Cu  Cu53  1  0.62106374  0.96151571  0.41710243  1
  C  C54  1  0.21976552  0.01548536  0.30752027  1
  C  C55  1  0.79522757  0.78136266  0.30774590  1
  C  C56  1  0.98398646  0.20355330  0.30778554  1
  C  C57  1  0.19463698  0.18676483  0.80560698  1
  C  C58  1  0.99375127  0.80941523  0.80817103  1
  C  C59  1  0.81902869  0.01151160  0.80795148  1
  C  C60  1  0.79849928  0.97648933  0.69235605  1
  C  C61  1  0.18116407  0.20652667  0.69519251  1
  C  C62  1  0.02902864  0.82226471  0.69267504  1
  C  C63  1  0.79204517  0.81506701  0.19748529  1
  C  C64  1  0.02356331  0.20898220  0.19757838  1
  C  C65  1  0.18621730  0.97554998  0.19736804  1
  C  C66  1  0.89938056  0.37015112  0.63761864  1
  C  C67  1  0.47603601  0.09568383  0.64213654  1
  C  C68  1  0.62180945  0.52580032  0.64240646  1
  C  C69  1  0.90717110  0.52976973  0.14376824  1
  C  C70  1  0.62250578  0.09301422  0.14361050  1
  C  C71  1  0.47065944  0.37790867  0.14354245  1
  C  C72  1  0.45856688  0.30200115  0.02835583  1
  C  C73  1  0.84369897  0.54171025  0.02850508  1
  C  C74  1  0.69834048  0.15678277  0.02849478  1
  C  C75  1  0.46414962  0.15618339  0.52693162  1
  C  C76  1  0.69734266  0.54107493  0.52750683  1
  C  C77  1  0.85164343  0.30735274  0.52868334  1
  C  C78  1  0.54164501  0.69530785  0.97274844  1
  C  C79  1  0.15389180  0.45892177  0.97275818  1
  C  C80  1  0.30332688  0.84686391  0.97307310  1
  C  C81  1  0.53160614  0.85447370  0.47129614  1
  C  C82  1  0.32501769  0.47397188  0.47405224  1
  C  C83  1  0.14960418  0.67907342  0.47375156  1
  C  C84  1  0.13087500  0.63882227  0.35979061  1
  C  C85  1  0.51246685  0.87443268  0.36203730  1
  C  C86  1  0.36487330  0.49271948  0.35978216  1
  C  C87  1  0.12715666  0.49014647  0.85852920  1
  C  C88  1  0.36438651  0.87362770  0.85950578  1
  C  C89  1  0.50975556  0.63558341  0.85894823  1
  C  C90  1  0.00878442  0.81810022  0.41783836  1
  C  C91  1  0.79227584  0.97879145  0.41477416  1
  C  C92  1  0.17396412  0.19347871  0.41823467  1
  C  C93  1  0.01996161  0.18800831  0.91183251  1
  C  C94  1  0.17209498  0.98689341  0.91188676  1
  C  C95  1  0.81332940  0.83042132  0.91219145  1
  C  C96  1  0.98297608  0.17591038  0.58645682  1
  C  C97  1  0.18493791  0.02485410  0.58615002  1
  C  C98  1  0.83629012  0.82050930  0.58658514  1
  C  C99  1  0.98349559  0.81926681  0.08966475  1
  C  C100  1  0.83608166  0.01670938  0.08974875  1
  C  C101  1  0.18085331  0.16420954  0.08968199  1
  C  C102  1  0.68298626  0.15699642  0.75230088  1
  C  C103  1  0.45731351  0.30964126  0.74967309  1
  C  C104  1  0.84032626  0.52669354  0.75215942  1
  C  C105  1  0.67233697  0.52776059  0.24705545  1
  C  C106  1  0.85502963  0.32776836  0.24696391  1
  C  C107  1  0.47376525  0.14666905  0.24696781  1
  C  C108  1  0.64555203  0.49861025  0.92223228  1
  C  C109  1  0.85405450  0.35462083  0.92207583  1
  C  C110  1  0.50284258  0.14723004  0.92231384  1
  C  C111  1  0.63287635  0.13314165  0.42173793  1
  C  C112  1  0.50978628  0.36246236  0.42118719  1
  C  C113  1  0.85519057  0.48253847  0.42099289  1
  C  C114  1  0.33539132  0.49202945  0.07338710  1
  C  C115  1  0.15673151  0.66475736  0.07360112  1
  C  C116  1  0.50808563  0.84345453  0.07354412  1
  C  C117  1  0.33145027  0.84304541  0.57386182  1
  C  C118  1  0.50956725  0.66761407  0.57384710  1
  C  C119  1  0.14364924  0.48421243  0.57318856  1
  C  C120  1  0.30831919  0.83163481  0.25361286  1
  C  C121  1  0.52524777  0.69665011  0.25294920  1
  C  C122  1  0.17077458  0.47506442  0.25346292  1
  C  C123  1  0.29607515  0.46395492  0.75443096  1
  C  C124  1  0.17636973  0.69524756  0.75368036  1
  C  C125  1  0.52394778  0.82014329  0.75336315  1
