# generated using pymatgen
data_Cu2NiC6
_symmetry_space_group_name_H-M   'P 1'
_cell_length_a   5.43962550
_cell_length_b   5.46700242
_cell_length_c   6.62628657
_cell_angle_alpha   114.52058084
_cell_angle_beta   114.39188268
_cell_angle_gamma   89.68889272
_symmetry_Int_Tables_number   1
_chemical_formula_structural   Cu2NiC6
_chemical_formula_sum   'Cu2 Ni1 C6'
_cell_volume   159.97231922
_cell_formula_units_Z   1
loop_
 _symmetry_equiv_pos_site_id
 _symmetry_equiv_pos_as_xyz
  1  'x, y, z'
loop_
 _atom_site_type_symbol
 _atom_site_label
 _atom_site_symmetry_multiplicity
 _atom_site_fract_x
 _atom_site_fract_y
 _atom_site_fract_z
 _atom_site_occupancy
  Ni  Ni0  1  0.74180000  0.74205800  0.48300700  1
  C  C1  1  0.99975100  0.00000500  0.99966200  1
  C  C2  1  0.25122900  0.75066900  0.50157200  1
  Cu  Cu3  1  0.75256800  0.25245000  0.50366000  1
  Cu  Cu4  1  0.49306100  0.49333900  0.98564300  1
  C  C5  1  0.88867400  0.87609600  0.24302500  1
  C  C6  1  0.62193700  0.12314400  0.75475700  1
  C  C7  1  0.35502200  0.36713400  0.24251800  1
  C  C8  1  0.13345700  0.63260500  0.75490500  1
