# generated using pymatgen
data_CuNiC33
_symmetry_space_group_name_H-M   'P 1'
_cell_length_a   8.99450011
_cell_length_b   8.96999714
_cell_length_c   23.27598049
_cell_angle_alpha   90.09500315
_cell_angle_beta   89.66165245
_cell_angle_gamma   120.19949837
_symmetry_Int_Tables_number   1
_chemical_formula_structural   CuNiC33
_chemical_formula_sum   'Cu3 Ni3 C99'
_cell_volume   1623.01790633
_cell_formula_units_Z   3
loop_
 _symmetry_equiv_pos_site_id
 _symmetry_equiv_pos_as_xyz
  1  'x, y, z'
loop_
 _atom_site_type_symbol
 _atom_site_label
 _atom_site_symmetry_multiplicity
 _atom_site_fract_x
 _atom_site_fract_y
 _atom_site_fract_z
 _atom_site_occupancy
  Ni  Ni0  1  0.99495066  0.00012617  0.99270363  1
  Ni  Ni1  1  0.69260629  0.34329841  0.84080851  1
  Ni  Ni2  1  0.65093477  0.33247262  0.33830925  1
  Cu  Cu3  1  0.99344174  0.00023191  0.85483670  1
  Cu  Cu4  1  0.68172896  0.34311113  0.97775030  1
  Cu  Cu5  1  0.65473230  0.33101175  0.47764124  1
  C  C6  1  0.01041092  0.01149404  0.35369777  1
  C  C7  1  0.99512480  0.98432695  0.65072831  1
  C  C8  1  0.00142620  0.99284816  0.15178916  1
  C  C9  1  0.66124707  0.31454477  0.68530676  1
  C  C10  1  0.68027725  0.34188586  0.19030947  1
  C  C11  1  0.31667846  0.65330316  0.02299406  1
  C  C12  1  0.33107062  0.66336860  0.52171072  1
  C  C13  1  0.33411543  0.65765088  0.30421686  1
  C  C14  1  0.32155506  0.66322969  0.80738832  1
  C  C15  1  0.29207983  0.00528906  0.25163588  1
  C  C16  1  0.72064384  0.71435517  0.25326316  1
  C  C17  1  0.99554702  0.28089053  0.24991705  1
  C  C18  1  0.98597366  0.69641801  0.75235456  1
  C  C19  1  0.71096638  0.99772957  0.75316368  1
  C  C20  1  0.36715244  0.04112557  0.57987120  1
  C  C21  1  0.95714377  0.63140750  0.08251401  1
  C  C22  1  0.04504717  0.37135328  0.91480345  1
  C  C23  1  0.33252854  0.38222436  0.41376827  1
  C  C24  1  0.29678737  0.29328086  0.74795477  1
  C  C25  1  0.96157729  0.33033998  0.58339129  1
  C  C26  1  0.66573959  0.62999948  0.58290273  1
  C  C27  1  0.67031946  0.03969560  0.08540937  1
  C  C28  1  0.37246724  0.33115340  0.08447860  1
  C  C29  1  0.60726086  0.66504158  0.91701748  1
  C  C30  1  0.33306649  0.94251632  0.91700140  1
  C  C31  1  0.61843040  0.94162090  0.41377353  1
  C  C32  1  0.05843589  0.67594381  0.41461979  1
  C  C33  1  0.20112794  0.04164370  0.30805529  1
  C  C34  1  0.84184516  0.80140485  0.30861544  1
  C  C35  1  0.96163365  0.15891979  0.30680072  1
  C  C36  1  0.23958244  0.19188867  0.80002686  1
  C  C37  1  0.94239521  0.76197065  0.80851138  1
  C  C38  1  0.82702138  0.06730107  0.80761180  1
  C  C39  1  0.81106738  0.97736032  0.69589053  1
  C  C40  1  0.18309046  0.20793296  0.69794869  1
  C  C41  1  0.01962517  0.82751903  0.69598628  1
  C  C42  1  0.80788117  0.83243724  0.19598297  1
  C  C43  1  0.02856658  0.19558740  0.19415616  1
  C  C44  1  0.16678677  0.97249347  0.19679247  1
  C  C45  1  0.87792053  0.36558875  0.63362877  1
  C  C46  1  0.49974016  0.13954195  0.63500562  1
  C  C47  1  0.63101626  0.51802410  0.63323642  1
  C  C48  1  0.85744847  0.50097269  0.13938762  1
  C  C49  1  0.64252843  0.12558142  0.13683708  1
  C  C50  1  0.48248551  0.35650365  0.13533416  1
  C  C51  1  0.43594946  0.29312076  0.03246032  1
  C  C52  1  0.84612051  0.56701378  0.02700125  1
  C  C53  1  0.70451990  0.14280215  0.03390343  1
  C  C54  1  0.43629550  0.15037375  0.52389793  1
  C  C55  1  0.70681997  0.56922326  0.53126731  1
  C  C56  1  0.86196087  0.29691284  0.53171492  1
  C  C57  1  0.51388187  0.66966403  0.97119535  1
  C  C58  1  0.15889085  0.49390586  0.97421313  1
  C  C59  1  0.33617775  0.84660069  0.97037347  1
  C  C60  1  0.52936737  0.84073987  0.46771659  1
  C  C61  1  0.31300459  0.48098909  0.47247790  1
  C  C62  1  0.16062505  0.69423979  0.46873454  1
  C  C63  1  0.14890583  0.66271937  0.36365297  1
  C  C64  1  0.51052607  0.85663203  0.36307559  1
  C  C65  1  0.33581258  0.50255196  0.35957996  1
  C  C66  1  0.16640679  0.49254629  0.85890872  1
  C  C67  1  0.34119828  0.85310293  0.86313396  1
  C  C68  1  0.51559707  0.67075416  0.86489768  1
  C  C69  1  0.04568261  0.83456274  0.41053527  1
  C  C70  1  0.78410992  0.94316306  0.40953303  1
  C  C71  1  0.15001903  0.19406089  0.40552826  1
  C  C72  1  0.05258946  0.20052488  0.92404177  1
  C  C73  1  0.17289926  0.94519843  0.91879754  1
  C  C74  1  0.77815934  0.81832683  0.92030475  1
  C  C75  1  0.99499052  0.19021184  0.59794061  1
  C  C76  1  0.18010850  0.01235305  0.60200295  1
  C  C77  1  0.81281771  0.80868643  0.59533871  1
  C  C78  1  0.99683167  0.82817971  0.09786162  1
  C  C79  1  0.82296612  0.01764091  0.09592204  1
  C  C80  1  0.19308982  0.18690005  0.09556770  1
  C  C81  1  0.67011834  0.15545277  0.73275013  1
  C  C82  1  0.47546686  0.32564357  0.73433530  1
  C  C83  1  0.83044515  0.50912891  0.72916835  1
  C  C84  1  0.69261131  0.52092191  0.24038664  1
  C  C85  1  0.82509884  0.30093685  0.24057455  1
  C  C86  1  0.47843174  0.17310701  0.23733002  1
  C  C87  1  0.60794642  0.50185385  0.91578727  1
  C  C88  1  0.86987738  0.37242017  0.91099533  1
  C  C89  1  0.48799451  0.11260339  0.91712909  1
  C  C90  1  0.64612504  0.11593763  0.41697064  1
  C  C91  1  0.49992767  0.36691170  0.41018796  1
  C  C92  1  0.89013725  0.52120231  0.41859414  1
  C  C93  1  0.36036964  0.49285194  0.07785009  1
  C  C94  1  0.15216340  0.65201196  0.07519065  1
  C  C95  1  0.51613312  0.86560960  0.07909118  1
  C  C96  1  0.34712679  0.84581732  0.56888432  1
  C  C97  1  0.51032866  0.65166179  0.57410699  1
  C  C98  1  0.13564847  0.49386040  0.57565616  1
  C  C99  1  0.31038177  0.83875494  0.26559323  1
  C  C100  1  0.53040614  0.69327594  0.26190408  1
  C  C101  1  0.15888953  0.47410232  0.26056080  1
  C  C102  1  0.31538782  0.46664272  0.75377571  1
  C  C103  1  0.16210368  0.68044409  0.75894045  1
  C  C104  1  0.52065977  0.82585069  0.76148413  1
