# generated using pymatgen
data_Cu2NiC6
_symmetry_space_group_name_H-M   'P 1'
_cell_length_a   5.64869400
_cell_length_b   7.13887900
_cell_length_c   12.12921800
_cell_angle_alpha   90.00000000
_cell_angle_beta   90.00000000
_cell_angle_gamma   90.00000000
_symmetry_Int_Tables_number   1
_chemical_formula_structural   Cu2NiC6
_chemical_formula_sum   'Cu8 Ni4 C24'
_cell_volume   489.11487586
_cell_formula_units_Z   4
loop_
 _symmetry_equiv_pos_site_id
 _symmetry_equiv_pos_as_xyz
  1  'x, y, z'
loop_
 _atom_site_type_symbol
 _atom_site_label
 _atom_site_symmetry_multiplicity
 _atom_site_fract_x
 _atom_site_fract_y
 _atom_site_fract_z
 _atom_site_occupancy
  Ni  Ni0  1  0.25000000  0.56914200  0.40387600  1
  Ni  Ni1  1  0.75000000  0.43085800  0.59612400  1
  Ni  Ni2  1  0.75000000  0.06914200  0.09612400  1
  Ni  Ni3  1  0.25000000  0.93085800  0.90387600  1
  Cu  Cu4  1  0.25000000  0.10283900  0.57389700  1
  Cu  Cu5  1  0.75000000  0.89716100  0.42610300  1
  Cu  Cu6  1  0.75000000  0.60283900  0.92610300  1
  Cu  Cu7  1  0.25000000  0.39716100  0.07389700  1
  Cu  Cu8  1  0.25000000  0.38663400  0.78695000  1
  Cu  Cu9  1  0.75000000  0.61336600  0.21305000  1
  Cu  Cu10  1  0.75000000  0.88663400  0.71305000  1
  Cu  Cu11  1  0.25000000  0.11336600  0.28695000  1
  C  C12  1  0.25000000  0.78179800  0.16076800  1
  C  C13  1  0.75000000  0.21820200  0.83923200  1
  C  C14  1  0.75000000  0.28179800  0.33923200  1
  C  C15  1  0.25000000  0.71820200  0.66076800  1
  C  C16  1  0.25000000  0.41306300  0.60108300  1
  C  C17  1  0.75000000  0.58693700  0.39891700  1
  C  C18  1  0.75000000  0.91306300  0.89891700  1
  C  C19  1  0.25000000  0.08693700  0.10108400  1
  C  C20  1  0.00213900  0.85741800  0.27225000  1
  C  C21  1  0.50213900  0.14258200  0.72775000  1
  C  C22  1  0.99786100  0.35741800  0.22775000  1
  C  C23  1  0.49786100  0.64258200  0.77225000  1
  C  C24  1  0.99786100  0.14258200  0.72775000  1
  C  C25  1  0.49786100  0.85741800  0.27225000  1
  C  C26  1  0.00213900  0.64258200  0.77225000  1
  C  C27  1  0.50213900  0.35741800  0.22775000  1
  C  C28  1  0.49656100  0.65920100  0.06820600  1
  C  C29  1  0.99656100  0.34079900  0.93179400  1
  C  C30  1  0.50343900  0.15920100  0.43179400  1
  C  C31  1  0.00343900  0.84079900  0.56820600  1
  C  C32  1  0.99656100  0.15920100  0.43179400  1
  C  C33  1  0.49656100  0.84079900  0.56820600  1
  C  C34  1  0.00343900  0.65920100  0.06820600  1
  C  C35  1  0.50343900  0.34079900  0.93179400  1
