# generated using pymatgen
data_Cu6NiC5
_symmetry_space_group_name_H-M   'P 1'
_cell_length_a   18.56454100
_cell_length_b   5.01494200
_cell_length_c   6.09658869
_cell_angle_alpha   57.29704075
_cell_angle_beta   90.00000000
_cell_angle_gamma   90.00000000
_symmetry_Int_Tables_number   1
_chemical_formula_structural   Cu6NiC5
_chemical_formula_sum   'Cu24 Ni4 C20'
_cell_volume   477.61978690
_cell_formula_units_Z   4
loop_
 _symmetry_equiv_pos_site_id
 _symmetry_equiv_pos_as_xyz
  1  'x, y, z'
loop_
 _atom_site_type_symbol
 _atom_site_label
 _atom_site_symmetry_multiplicity
 _atom_site_fract_x
 _atom_site_fract_y
 _atom_site_fract_z
 _atom_site_occupancy
  C  C0  1  0.94070400  0.16528500  0.82875100  1
  C  C1  1  0.44070400  0.83471500  0.67124900  1
  C  C2  1  0.05929600  0.83471500  0.17124900  1
  C  C3  1  0.55929600  0.16528500  0.32875100  1
  C  C4  1  0.81134800  0.54148800  0.54801000  1
  C  C5  1  0.31134800  0.45851200  0.95199000  1
  C  C6  1  0.18865200  0.45851200  0.45199000  1
  C  C7  1  0.68865200  0.54148800  0.04801000  1
  C  C8  1  0.86850500  0.40787000  0.12370600  1
  C  C9  1  0.36850500  0.59213000  0.37629400  1
  C  C10  1  0.13149500  0.59213000  0.87629400  1
  C  C11  1  0.63149500  0.40787000  0.62370600  1
  C  C12  1  0.00062100  0.66909200  0.65696600  1
  C  C13  1  0.50062100  0.33090800  0.84303400  1
  C  C14  1  0.99937900  0.33090800  0.34303400  1
  C  C15  1  0.49937900  0.66909200  0.15696600  1
  C  C16  1  0.76234400  0.00677300  0.78204900  1
  C  C17  1  0.26234400  0.99322700  0.71795100  1
  C  C18  1  0.23765600  0.99322700  0.21795100  1
  C  C19  1  0.73765600  0.00677300  0.28204900  1
  Ni  Ni20  1  0.87902500  0.86928000  0.67018100  1
  Ni  Ni21  1  0.62097500  0.86928000  0.17018100  1
  Ni  Ni22  1  0.12097500  0.13072000  0.32981900  1
  Ni  Ni23  1  0.37902500  0.13072000  0.82981900  1
  Cu  Cu24  1  0.68249100  0.77626600  0.96219200  1
  Cu  Cu25  1  0.95014500  0.57354900  0.69303200  1
  Cu  Cu26  1  0.18249100  0.22373400  0.53780800  1
  Cu  Cu27  1  0.31750900  0.22373400  0.03780800  1
  Cu  Cu28  1  0.06385100  0.06720000  0.09945900  1
  Cu  Cu29  1  0.45014500  0.42645100  0.80696800  1
  Cu  Cu30  1  0.04985500  0.42645100  0.30696800  1
  Cu  Cu31  1  0.54985500  0.57354900  0.19303200  1
  Cu  Cu32  1  0.91660000  0.21290800  0.37544500  1
  Cu  Cu33  1  0.41660000  0.78709200  0.12455500  1
  Cu  Cu34  1  0.08340000  0.78709200  0.62455500  1
  Cu  Cu35  1  0.58340000  0.21290800  0.87544500  1
  Cu  Cu36  1  0.93614900  0.93280000  0.90054100  1
  Cu  Cu37  1  0.43614900  0.06720000  0.59945900  1
  Cu  Cu38  1  0.66605400  0.51865600  0.46699000  1
  Cu  Cu39  1  0.56385100  0.93280000  0.40054100  1
  Cu  Cu40  1  0.80194100  0.13931900  0.66019800  1
  Cu  Cu41  1  0.30194100  0.86068100  0.83980200  1
  Cu  Cu42  1  0.19805900  0.86068100  0.33980200  1
  Cu  Cu43  1  0.69805900  0.13931900  0.16019800  1
  Cu  Cu44  1  0.83394600  0.51865600  0.96699000  1
  Cu  Cu45  1  0.33394600  0.48134400  0.53301000  1
  Cu  Cu46  1  0.16605400  0.48134400  0.03301000  1
  Cu  Cu47  1  0.81750900  0.77626600  0.46219200  1
