# generated using pymatgen
data_CuNiC4
_symmetry_space_group_name_H-M   'P 1'
_cell_length_a   5.40454197
_cell_length_b   5.55277256
_cell_length_c   5.55277233
_cell_angle_alpha   113.05113409
_cell_angle_beta   92.77674596
_cell_angle_gamma   92.77674234
_symmetry_Int_Tables_number   1
_chemical_formula_structural   CuNiC4
_chemical_formula_sum   'Cu2 Ni2 C8'
_cell_volume   152.74196783
_cell_formula_units_Z   2
loop_
 _symmetry_equiv_pos_site_id
 _symmetry_equiv_pos_as_xyz
  1  'x, y, z'
loop_
 _atom_site_type_symbol
 _atom_site_label
 _atom_site_symmetry_multiplicity
 _atom_site_fract_x
 _atom_site_fract_y
 _atom_site_fract_z
 _atom_site_occupancy
  C  C0  1  0.61563978  0.89877508  0.89877508  1
  Ni  Ni1  1  0.88939453  0.28279391  0.28279391  1
  Ni  Ni2  1  0.11895573  0.73254926  0.73254926  1
  Cu  Cu3  1  0.49041338  0.29486153  0.66457018  1
  Cu  Cu4  1  0.49041338  0.66457018  0.29486153  1
  C  C5  1  0.20827971  0.41954619  0.41954619  1
  C  C6  1  0.77744930  0.59832082  0.59832082  1
  C  C7  1  0.34206091  0.93218614  0.63183651  1
  C  C8  1  0.67487175  0.35624767  0.05323516  1
  C  C9  1  0.98808887  0.99757755  0.99757755  1
  C  C10  1  0.34206091  0.63183651  0.93218614  1
  C  C11  1  0.67487175  0.05323516  0.35624767  1
