# generated using pymatgen
data_Cu6Ni5C71
_symmetry_space_group_name_H-M   'P 1'
_cell_length_a   18.42881247
_cell_length_b   9.15628846
_cell_length_c   22.22788622
_cell_angle_alpha   89.94369787
_cell_angle_beta   90.53559926
_cell_angle_gamma   119.81645947
_symmetry_Int_Tables_number   1
_chemical_formula_structural   Cu6Ni5C71
_chemical_formula_sum   'Cu18 Ni15 C213'
_cell_volume   3254.04093873
_cell_formula_units_Z   3
loop_
 _symmetry_equiv_pos_site_id
 _symmetry_equiv_pos_as_xyz
  1  'x, y, z'
loop_
 _atom_site_type_symbol
 _atom_site_label
 _atom_site_symmetry_multiplicity
 _atom_site_fract_x
 _atom_site_fract_y
 _atom_site_fract_z
 _atom_site_occupancy
  C  C0  1  0.19539327  0.36276179  0.24737674  1
  C  C1  1  0.68853064  0.35770654  0.24771519  1
  C  C2  1  0.99575412  0.64406943  0.24955376  1
  C  C3  1  0.49265455  0.63105046  0.23759688  1
  C  C4  1  0.32021905  0.63339338  0.74408820  1
  C  C5  1  0.81782736  0.62647257  0.73280579  1
  C  C6  1  0.18943749  0.02262219  0.74786462  1
  C  C7  1  0.69344819  0.02672077  0.74584279  1
  C  C8  1  0.15381131  0.32851725  0.57345578  1
  C  C9  1  0.66400015  0.34705340  0.57627295  1
  C  C10  1  0.00947613  0.68811189  0.57319291  1
  C  C11  1  0.51953781  0.69102770  0.57540320  1
  C  C12  1  0.32020140  0.96774498  0.59148420  1
  C  C13  1  0.82023227  0.95631249  0.58942187  1
  C  C14  1  0.15674759  0.97744975  0.07647480  1
  C  C15  1  0.64653685  0.96094429  0.07214848  1
  C  C16  1  0.81927353  0.67292995  0.09017707  1
  C  C17  1  0.01912028  0.34834731  0.07568446  1
  C  C18  1  0.52148302  0.35562397  0.08829808  1
  C  C19  1  0.49369989  0.68526768  0.92360480  1
  C  C20  1  0.98482205  0.67847843  0.91905405  1
  C  C21  1  0.84938452  0.03625348  0.90503507  1
  C  C22  1  0.15992624  0.27700364  0.90578592  1
  C  C23  1  0.66539010  0.28117502  0.91462569  1
  C  C24  1  0.48814860  0.29880450  0.41917159  1
  C  C25  1  0.98311240  0.29115001  0.42327627  1
  C  C26  1  0.16486914  0.05221322  0.41381138  1
  C  C27  1  0.66740087  0.05145819  0.41440514  1
  C  C28  1  0.35260793  0.65992271  0.40385119  1
  C  C29  1  0.85237861  0.65773278  0.41480886  1
  C  C30  1  0.00352029  0.99521441  0.49653925  1
  C  C31  1  0.51413788  0.01343945  0.49348721  1
  C  C32  1  0.00779461  0.00842824  0.99295447  1
  C  C33  1  0.50007751  0.99644150  0.99595791  1
  C  C34  1  0.33341069  0.30123955  0.82856681  1
  C  C35  1  0.83002028  0.31776883  0.82628799  1
  C  C36  1  0.32532937  0.31886093  0.32484920  1
  C  C37  1  0.82051068  0.31933197  0.33018988  1
  C  C38  1  0.19557893  0.68328520  0.16010896  1
  C  C39  1  0.66800557  0.67625126  0.16079833  1
  C  C40  1  0.16089200  0.66214428  0.66232621  1
  C  C41  1  0.67115981  0.66610036  0.65955656  1
  C  C42  1  0.00041756  0.00576261  0.64966217  1
  C  C43  1  0.50365981  0.01380063  0.65270383  1
  C  C44  1  0.00364791  0.99893444  0.15152256  1
  C  C45  1  0.49917472  0.98426381  0.14772071  1
  C  C46  1  0.32573167  0.32679297  0.98463371  1
  C  C47  1  0.17592937  0.67498636  0.31146172  1
  C  C48  1  0.67377634  0.67066806  0.31098785  1
  C  C49  1  0.17226332  0.67745892  0.81188547  1
  C  C50  1  0.67131942  0.67606244  0.81128478  1
  Ni  Ni51  1  0.01189535  0.00537886  0.34249480  1
  Ni  Ni52  1  0.51168291  0.00507365  0.34194366  1
  Ni  Ni53  1  0.00912583  0.02176866  0.83915577  1
  Ni  Ni54  1  0.50988007  0.02267245  0.84428114  1
  Ni  Ni55  1  0.32041355  0.28968924  0.68580305  1
  Ni  Ni56  1  0.81863852  0.30932253  0.68008016  1
  Ni  Ni57  1  0.32496117  0.35573668  0.18202858  1
  Ni  Ni58  1  0.81583864  0.33387798  0.18607687  1
  Ni  Ni59  1  0.80651609  0.28832768  0.98712266  1
  Ni  Ni60  1  0.31013215  0.32158420  0.48534277  1
  Ni  Ni61  1  0.80292833  0.34227145  0.49423548  1
  Ni  Ni62  1  0.17250188  0.67393137  0.01419084  1
  Ni  Ni63  1  0.65331091  0.66286438  0.01967564  1
  Ni  Ni64  1  0.16460601  0.66310799  0.51307060  1
  Ni  Ni65  1  0.67565779  0.66316712  0.51797877  1
  Cu  Cu66  1  0.15674190  0.00634776  0.25161633  1
  Cu  Cu67  1  0.65225119  -0.00041337  0.25159221  1
  Cu  Cu68  1  0.35729991  0.71309552  0.25651848  1
  Cu  Cu69  1  0.85594411  0.70814611  0.25326607  1
  Cu  Cu70  1  0.15399357  0.30405033  0.75010090  1
  Cu  Cu71  1  0.65338906  0.30477379  0.75473200  1
  Cu  Cu72  1  0.35684183  0.00146445  0.75303501  1
  Cu  Cu73  1  0.85647814  0.01103923  0.75435605  1
  Cu  Cu74  1  0.17930017  0.01675628  0.58118280  1
  Cu  Cu75  1  0.67665233  0.01802722  0.58193016  1
  Cu  Cu76  1  0.83705799  0.63384841  0.58418314  1
  Cu  Cu77  1  0.47712768  0.62416601  0.08520433  1
  Cu  Cu78  1  0.17977878  0.34347167  0.08498672  1
  Cu  Cu79  1  0.67889378  0.33792548  0.08188874  1
  Cu  Cu80  1  0.16413244  0.95925416  0.92042361  1
  Cu  Cu81  1  0.66430704  0.96206377  0.91857506  1
  Cu  Cu82  1  0.16354508  0.36978629  0.42003103  1
  Cu  Cu83  1  0.66178358  0.36525189  0.41835236  1
  C  C84  1  0.00185053  0.30044507  0.25190214  1
  C  C85  1  0.50051348  0.29682904  0.25298024  1
  C  C86  1  0.00255360  0.70589234  0.75316911  1
  C  C87  1  0.50126948  0.70292920  0.75165411  1
  C  C88  1  0.47444292  0.32581595  0.58336130  1
  C  C89  1  0.98001854  0.33086959  0.58310756  1
  C  C90  1  0.33816675  0.63349534  0.58452784  1
  C  C91  1  0.97880397  0.63082776  0.08422643  1
  C  C92  1  0.33402460  0.04300327  0.08604873  1
  C  C93  1  0.84033961  0.05040572  0.08381661  1
  C  C94  1  0.31408125  0.66144077  0.91792431  1
  C  C95  1  0.81416033  0.66568652  0.91979077  1
  C  C96  1  0.01963159  0.37789270  0.91859661  1
  C  C97  1  0.51588771  0.37169296  0.91758960  1
  C  C98  1  0.31526683  0.96598369  0.42061302  1
  C  C99  1  0.81573733  0.96447363  0.41827419  1
  C  C100  1  0.01910917  0.66268402  0.41530929  1
  C  C101  1  0.51887986  0.65901935  0.41926935  1
  C  C102  1  0.11823911  0.04292263  0.31178697  1
  C  C103  1  0.61691158  0.03755801  0.31270105  1
  C  C104  1  0.40698271  0.80624869  0.31794663  1
  C  C105  1  0.91132616  0.80382121  0.31246250  1
  C  C106  1  0.49563858  0.20647563  0.30903725  1
  C  C107  1  0.99083133  0.20530764  0.30731983  1
  C  C108  1  0.11732231  0.18812081  0.81008012  1
  C  C109  1  0.61616919  0.19290847  0.81456985  1
  C  C110  1  0.49108106  0.77350390  0.80803295  1
  C  C111  1  0.99403038  0.78252893  0.80910190  1
  C  C112  1  0.40763105  0.98943352  0.80960750  1
  C  C113  1  0.90474775  0.01242353  0.81625734  1
  C  C114  1  0.39511107  0.96709092  0.68973070  1
  C  C115  1  0.90142845  0.97289287  0.69693301  1
  C  C116  1  0.09515171  0.20479485  0.69118292  1
  C  C117  1  0.59195296  0.20113141  0.69554053  1
  C  C118  1  0.01474297  0.81919619  0.70020281  1
  C  C119  1  0.51343070  0.82092372  0.69933173  1
  C  C120  1  0.40341289  0.83087985  0.19776513  1
  C  C121  1  0.90083444  0.82059003  0.19140506  1
  C  C122  1  0.01301941  0.20857503  0.19866981  1
  C  C123  1  0.51042845  0.21080807  0.19897366  1
  C  C124  1  0.08940460  0.97756311  0.19441224  1
  C  C125  1  0.58906749  0.97901599  0.19395385  1
  C  C126  1  0.42996828  0.34277220  0.63476761  1
  C  C127  1  0.93447725  0.34350299  0.63443291  1
  C  C128  1  0.24085104  0.09371930  0.63969544  1
  C  C129  1  0.73501869  0.09583966  0.64145857  1
  C  C130  1  0.33365942  0.53555313  0.63821774  1
  C  C131  1  0.82834620  0.51669522  0.64162563  1
  C  C132  1  0.43352757  0.50640751  0.14320787  1
  C  C133  1  0.93718184  0.53312591  0.13832224  1
  C  C134  1  0.32264611  0.12323915  0.13877535  1
  C  C135  1  0.83628755  0.14755071  0.13432619  1
  C  C136  1  0.22636392  0.36091070  0.14764282  1
  C  C137  1  0.74127571  0.38180208  0.13980386  1
  C  C138  1  0.23018213  0.30830988  0.02893082  1
  C  C139  1  0.71275196  0.28327823  0.02284920  1
  C  C140  1  0.42344490  0.52833591  0.02254676  1
  C  C141  1  0.93226720  0.54990203  0.02810472  1
  C  C142  1  0.34029660  0.14452113  0.03005605  1
  C  C143  1  0.85394014  0.14425036  0.02529583  1
  C  C144  1  0.21637919  0.13652779  0.52189212  1
  C  C145  1  0.71191122  0.13572902  0.52160264  1
  C  C146  1  0.35002476  0.55786179  0.52853129  1
  C  C147  1  0.86117907  0.56905864  0.52192825  1
  C  C148  1  0.42924651  0.30676597  0.52563054  1
  C  C149  1  0.93721551  0.31282243  0.52494564  1
  C  C150  1  0.27212885  0.67496504  0.97113436  1
  C  C151  1  0.77290257  0.67713549  0.97435995  1
  C  C152  1  0.06461370  0.45308476  0.97583464  1
  C  C153  1  0.55991473  0.44514815  0.97522248  1
  C  C154  1  0.15391182  0.85023118  0.98132429  1
  C  C155  1  0.65607181  0.85385860  0.97904469  1
  C  C156  1  0.27426629  0.87350861  0.47601374  1
  C  C157  1  0.77589437  0.87433438  0.47418664  1
  C  C158  1  0.15481267  0.45713756  0.48191799  1
  C  C159  1  0.64912280  0.44789698  0.47984859  1
  C  C160  1  0.06602603  0.67778439  0.47174949  1
  C  C161  1  0.56691876  0.67098701  0.47442946  1
  C  C162  1  0.06998001  0.66611247  0.36207778  1
  C  C163  1  0.56588924  0.65499559  0.36463399  1
  C  C164  1  0.25996747  0.86860857  0.36734799  1
  C  C165  1  0.75919557  0.86439093  0.36572750  1
  C  C166  1  0.17016863  0.49191809  0.36254947  1
  C  C167  1  0.66911011  0.48748591  0.36062814  1
  C  C168  1  0.07157851  0.48251345  0.86706371  1
  C  C169  1  0.56435181  0.48294401  0.86653124  1
  C  C170  1  0.17200813  0.85771149  0.86144085  1
  C  C171  1  0.67027443  0.85587218  0.86004569  1
  C  C172  1  0.26296332  0.64544121  0.86230847  1
  C  C173  1  0.76062502  0.65337006  0.86524609  1
  C  C174  1  0.00648083  0.81106840  0.41449837  1
  C  C175  1  0.50726443  0.80863899  0.41819855  1
  C  C176  1  0.39830599  0.98093765  0.41710479  1
  C  C177  1  0.89846291  0.97625051  0.41393145  1
  C  C178  1  0.07872948  0.18192826  0.41546059  1
  C  C179  1  0.57746650  0.17750324  0.41307963  1
  C  C180  1  0.00786283  0.20474035  0.91553528  1
  C  C181  1  0.50528775  0.20226922  0.91280470  1
  C  C182  1  0.07979104  0.97805740  0.91523332  1
  C  C183  1  0.57944785  0.97971843  0.91529127  1
  C  C184  1  0.40044380  0.79791453  0.91462440  1
  C  C185  1  0.89842801  0.81723585  0.91600570  1
  C  C186  1  0.48093198  0.16432524  0.58797413  1
  C  C187  1  0.98881674  0.17274669  0.58780946  1
  C  C188  1  0.08684189  0.00362888  0.58987752  1
  C  C189  1  0.58099020  0.00030302  0.58953666  1
  C  C190  1  0.41474120  0.80767671  0.58732828  1
  C  C191  1  0.91850818  0.82691791  0.59070977  1
  C  C192  1  0.48648009  0.81530330  0.08502183  1
  C  C193  1  0.98303991  0.80405832  0.08588930  1
  C  C194  1  0.41448155  0.04094387  0.08692096  1
  C  C195  1  0.91701316  0.02986131  0.08845118  1
  C  C196  1  0.08536675  0.16293097  0.08509386  1
  C  C197  1  0.58338780  0.17422668  0.09129064  1
  C  C198  1  0.34109900  0.16004935  0.74999288  1
  C  C199  1  0.83993581  0.16723378  0.74733414  1
  C  C200  1  0.25026659  0.33938215  0.74389898  1
  C  C201  1  0.74713181  0.33365418  0.74733723  1
  C  C202  1  0.42864118  0.53843891  0.73992657  1
  C  C203  1  0.93074319  0.53902760  0.74517924  1
  C  C204  1  0.34701360  0.52584969  0.25379186  1
  C  C205  1  0.84752927  0.52142578  0.25025986  1
  C  C206  1  0.42991221  0.32624113  0.24847980  1
  C  C207  1  0.93326132  0.33339497  0.24132049  1
  C  C208  1  0.24773541  0.16624028  0.24120060  1
  C  C209  1  0.74537009  0.15841145  0.24315126  1
  C  C210  1  0.31501815  0.49514011  0.91825710  1
  C  C211  1  0.82255641  0.51200818  0.91720146  1
  C  C212  1  0.43205006  0.36544630  0.91676129  1
  C  C213  1  0.93779184  0.37214487  0.91574156  1
  C  C214  1  0.24883256  0.15176971  0.92165437  1
  C  C215  1  0.75374846  0.14401008  0.91543255  1
  C  C216  1  0.32240345  0.13472839  0.41717440  1
  C  C217  1  0.82396102  0.13292638  0.41487584  1
  C  C218  1  0.25219741  0.36384051  0.41683521  1
  C  C219  1  0.74993968  0.35885946  0.41541298  1
  C  C220  1  0.43588938  0.50178059  0.41793385  1
  C  C221  1  0.93870511  0.50360641  0.41189939  1
  C  C222  1  0.16374060  0.50215186  0.07419816  1
  C  C223  1  0.67263343  0.51003520  0.07423258  1
  C  C224  1  0.06598421  0.66319943  0.08437620  1
  C  C225  1  0.57324194  0.65787600  0.08454150  1
  C  C226  1  0.26137619  0.87156301  0.07942584  1
  C  C227  1  0.76564507  0.88038769  0.08205678  1
  C  C228  1  0.16591149  0.82455232  0.57452649  1
  C  C229  1  0.66332602  0.82799141  0.57476824  1
  C  C230  1  0.26259473  0.65231233  0.58230065  1
  C  C231  1  0.75217859  0.65010306  0.58217031  1
  C  C232  1  0.06685130  0.47833020  0.58456279  1
  C  C233  1  0.56078737  0.46999809  0.58405586  1
  C  C234  1  0.14952395  0.81837216  0.25462607  1
  C  C235  1  0.64649161  0.81331040  0.25446180  1
  C  C236  1  0.25941550  0.68173525  0.25554916  1
  C  C237  1  0.75863997  0.67821828  0.25454635  1
  C  C238  1  0.08292175  0.46697786  0.25335999  1
  C  C239  1  0.58106563  0.46844697  0.25333245  1
  C  C240  1  0.15919765  0.48868957  0.75648335  1
  C  C241  1  0.65723537  0.48822049  0.75581628  1
  C  C242  1  0.08308061  0.69919888  0.75385485  1
  C  C243  1  0.58108127  0.69569985  0.75191314  1
  C  C244  1  0.25912370  0.82997232  0.75471578  1
  C  C245  1  0.76013398  0.83325635  0.75574789  1
