# generated using pymatgen
data_CuNiC4
_symmetry_space_group_name_H-M   'P 1'
_cell_length_a   5.02200309
_cell_length_b   3.92867970
_cell_length_c   5.02200309
_cell_angle_alpha   83.66884971
_cell_angle_beta   75.13708805
_cell_angle_gamma   83.66884971
_symmetry_Int_Tables_number   1
_chemical_formula_structural   CuNiC4
_chemical_formula_sum   'Cu1 Ni1 C4'
_cell_volume   94.83685127
_cell_formula_units_Z   1
loop_
 _symmetry_equiv_pos_site_id
 _symmetry_equiv_pos_as_xyz
  1  'x, y, z'
loop_
 _atom_site_type_symbol
 _atom_site_label
 _atom_site_symmetry_multiplicity
 _atom_site_fract_x
 _atom_site_fract_y
 _atom_site_fract_z
 _atom_site_occupancy
  C  C0  1  0.64220832  0.56067556  0.64220832  1
  Ni  Ni1  1  0.21976044  0.27125487  0.21976044  1
  Cu  Cu2  1  0.94088534  0.96308337  0.94088534  1
  C  C3  1  0.50192100  0.99855433  0.98300186  1
  C  C4  1  0.97889203  0.45787954  0.97889203  1
  C  C5  1  0.98300186  0.99855433  0.50192100  1
