# generated using pymatgen
data_Cu4Ni4C19
_symmetry_space_group_name_H-M   'P 1'
_cell_length_a   10.68904600
_cell_length_b   10.68904600
_cell_length_c   10.68904600
_cell_angle_alpha   90.00000000
_cell_angle_beta   90.00000000
_cell_angle_gamma   90.00000000
_symmetry_Int_Tables_number   1
_chemical_formula_structural   Cu4Ni4C19
_chemical_formula_sum   'Cu8 Ni8 C38'
_cell_volume   1221.28447999
_cell_formula_units_Z   2
loop_
 _symmetry_equiv_pos_site_id
 _symmetry_equiv_pos_as_xyz
  1  'x, y, z'
loop_
 _atom_site_type_symbol
 _atom_site_label
 _atom_site_symmetry_multiplicity
 _atom_site_fract_x
 _atom_site_fract_y
 _atom_site_fract_z
 _atom_site_occupancy
  C  C0  1  0.99833600  0.11897400  0.30605400  1
  C  C1  1  0.50166400  0.80605400  0.38102600  1
  C  C2  1  0.50166400  0.19394600  0.61897400  1
  C  C3  1  0.19394600  0.38102600  0.49833600  1
  C  C4  1  0.80605400  0.38102600  0.50166400  1
  C  C5  1  0.61897400  0.50166400  0.19394600  1
  C  C6  1  0.38102600  0.49833600  0.19394600  1
  C  C7  1  0.30605400  0.99833600  0.11897400  1
  C  C8  1  0.11897400  0.30605400  0.99833600  1
  C  C9  1  0.88102600  0.69394600  0.99833600  1
  C  C10  1  0.30605400  0.00166400  0.88102600  1
  C  C11  1  0.88102600  0.30605400  0.00166400  1
  C  C12  1  0.69394600  0.00166400  0.11897400  1
  C  C13  1  0.69394600  0.99833600  0.88102600  1
  C  C14  1  0.11897400  0.69394600  0.00166400  1
  C  C15  1  0.99833600  0.88102600  0.69394600  1
  C  C16  1  0.00166400  0.11897400  0.69394600  1
  C  C17  1  0.00166400  0.88102600  0.30605400  1
  C  C18  1  0.38102600  0.50166400  0.80605400  1
  C  C19  1  0.61897400  0.49833600  0.80605400  1
  C  C20  1  0.19394600  0.61897400  0.50166400  1
  C  C21  1  0.80605400  0.61897400  0.49833600  1
  C  C22  1  0.49833600  0.19394600  0.38102600  1
  C  C23  1  0.49833600  0.80605400  0.61897400  1
  C  C24  1  0.18584100  0.18584100  0.18584100  1
  C  C25  1  0.31415900  0.68584100  0.31415900  1
  C  C26  1  0.31415900  0.31415900  0.68584100  1
  C  C27  1  0.68584100  0.31415900  0.31415900  1
  C  C28  1  0.81415900  0.81415900  0.18584100  1
  C  C29  1  0.18584100  0.81415900  0.81415900  1
  C  C30  1  0.81415900  0.18584100  0.81415900  1
  C  C31  1  0.68584100  0.68584100  0.68584100  1
  C  C32  1  0.00000000  0.25000000  0.50000000  1
  C  C33  1  0.50000000  0.00000000  0.25000000  1
  C  C34  1  0.50000000  0.00000000  0.75000000  1
  C  C35  1  0.75000000  0.50000000  0.00000000  1
  C  C36  1  0.25000000  0.50000000  0.00000000  1
  C  C37  1  0.00000000  0.75000000  0.50000000  1
  Ni  Ni38  1  0.81583600  0.81583600  0.81583600  1
  Ni  Ni39  1  0.68416400  0.31583600  0.68416400  1
  Ni  Ni40  1  0.68416400  0.68416400  0.31583600  1
  Ni  Ni41  1  0.31583600  0.68416400  0.68416400  1
  Ni  Ni42  1  0.18416400  0.18416400  0.81583600  1
  Ni  Ni43  1  0.81583600  0.18416400  0.18416400  1
  Ni  Ni44  1  0.18416400  0.81583600  0.18416400  1
  Ni  Ni45  1  0.31583600  0.31583600  0.31583600  1
  Cu  Cu46  1  0.00000000  0.50000000  0.25000000  1
  Cu  Cu47  1  0.50000000  0.75000000  0.00000000  1
  Cu  Cu48  1  0.50000000  0.25000000  0.00000000  1
  Cu  Cu49  1  0.25000000  0.00000000  0.50000000  1
  Cu  Cu50  1  0.75000000  0.00000000  0.50000000  1
  Cu  Cu51  1  0.00000000  0.50000000  0.75000000  1
  Cu  Cu52  1  0.00000000  0.00000000  0.00000000  1
  Cu  Cu53  1  0.50000000  0.50000000  0.50000000  1
