# generated using pymatgen
data_Cu4NiC
_symmetry_space_group_name_H-M   'P 1'
_cell_length_a   8.80674606
_cell_length_b   8.80674578
_cell_length_c   22.27951562
_cell_angle_alpha   90.00000000
_cell_angle_beta   90.00000000
_cell_angle_gamma   120.00000105
_symmetry_Int_Tables_number   1
_chemical_formula_structural   Cu4NiC
_chemical_formula_sum   'Cu72 Ni18 C18'
_cell_volume   1496.46755545
_cell_formula_units_Z   18
loop_
 _symmetry_equiv_pos_site_id
 _symmetry_equiv_pos_as_xyz
  1  'x, y, z'
loop_
 _atom_site_type_symbol
 _atom_site_label
 _atom_site_symmetry_multiplicity
 _atom_site_fract_x
 _atom_site_fract_y
 _atom_site_fract_z
 _atom_site_occupancy
  C  C0  1  -0.00000000  -0.00000000  0.50212449  1
  C  C1  1  -0.00000000  -0.00000000  0.00212449  1
  C  C2  1  0.66666700  0.33333300  0.83545749  1
  C  C3  1  0.66666700  0.33333300  0.33545749  1
  C  C4  1  0.33333300  0.66666700  0.16879149  1
  C  C5  1  0.33333300  0.66666700  0.66879149  1
  C  C6  1  -0.00000000  -0.00000000  0.35819260  1
  C  C7  1  -0.00000000  -0.00000000  0.85819260  1
  C  C8  1  0.66666700  0.33333300  0.69152560  1
  C  C9  1  0.66666700  0.33333300  0.19152560  1
  C  C10  1  0.33333300  0.66666700  0.02485960  1
  C  C11  1  0.33333300  0.66666700  0.52485960  1
  C  C12  1  -0.00000000  -0.00000000  0.64827498  1
  C  C13  1  -0.00000000  -0.00000000  0.14827498  1
  C  C14  1  0.66666700  0.33333300  0.98160798  1
  C  C15  1  0.66666700  0.33333300  0.48160798  1
  C  C16  1  0.33333300  0.66666700  0.31494198  1
  C  C17  1  0.33333300  0.66666700  0.81494198  1
  Ni  Ni18  1  0.27442571  0.96765953  0.24967485  1
  Ni  Ni19  1  0.69323381  0.72557429  0.24967485  1
  Ni  Ni20  1  0.03234047  0.30676619  0.24967485  1
  Ni  Ni21  1  0.27442571  0.30676619  0.74967485  1
  Ni  Ni22  1  0.03234047  0.72557429  0.74967485  1
  Ni  Ni23  1  0.69323381  0.96765953  0.74967485  1
  Ni  Ni24  1  0.94109271  0.30099253  0.58300785  1
  Ni  Ni25  1  0.35990081  0.05890729  0.58300785  1
  Ni  Ni26  1  0.69900747  0.64009919  0.58300785  1
  Ni  Ni27  1  0.94109271  0.64009919  0.08300785  1
  Ni  Ni28  1  0.69900747  0.05890729  0.08300785  1
  Ni  Ni29  1  0.35990081  0.30099253  0.08300785  1
  Ni  Ni30  1  0.60775871  0.63432653  0.91634185  1
  Ni  Ni31  1  0.02656681  0.39224129  0.91634185  1
  Ni  Ni32  1  0.36567347  0.97343319  0.91634185  1
  Ni  Ni33  1  0.60775871  0.97343319  0.41634185  1
  Ni  Ni34  1  0.36567347  0.39224129  0.41634185  1
  Ni  Ni35  1  0.02656681  0.63432653  0.41634185  1
  Cu  Cu36  1  0.20320843  0.99618849  0.30424722  1
  Cu  Cu37  1  0.79298006  0.79679157  0.30424722  1
  Cu  Cu38  1  0.00381151  0.20701994  0.30424722  1
  Cu  Cu39  1  0.20320843  0.20701994  0.80424722  1
  Cu  Cu40  1  0.00381151  0.79679157  0.80424722  1
  Cu  Cu41  1  0.79298006  0.99618849  0.80424722  1
  Cu  Cu42  1  0.78797775  0.95351218  0.69533936  1
  Cu  Cu43  1  0.16553443  0.21202225  0.69533936  1
  Cu  Cu44  1  0.04648782  0.83446557  0.69533936  1
  Cu  Cu45  1  0.78797775  0.83446557  0.19533936  1
  Cu  Cu46  1  0.04648782  0.21202225  0.19533936  1
  Cu  Cu47  1  0.16553443  0.95351218  0.19533936  1
  Cu  Cu48  1  0.86987543  0.32952149  0.63758022  1
  Cu  Cu49  1  0.45964706  0.13012457  0.63758022  1
  Cu  Cu50  1  0.67047851  0.54035294  0.63758022  1
  Cu  Cu51  1  0.86987543  0.54035294  0.13758022  1
  Cu  Cu52  1  0.67047851  0.13012457  0.13758022  1
  Cu  Cu53  1  0.45964706  0.32952149  0.13758022  1
  Cu  Cu54  1  0.45464475  0.28684518  0.02867236  1
  Cu  Cu55  1  0.83220143  0.54535525  0.02867236  1
  Cu  Cu56  1  0.71315482  0.16779857  0.02867236  1
  Cu  Cu57  1  0.45464475  0.16779857  0.52867236  1
  Cu  Cu58  1  0.71315482  0.54535525  0.52867236  1
  Cu  Cu59  1  0.83220143  0.28684518  0.52867236  1
  Cu  Cu60  1  0.53654143  0.66285549  0.97091422  1
  Cu  Cu61  1  0.12631306  0.46345857  0.97091422  1
  Cu  Cu62  1  0.33714451  0.87368694  0.97091422  1
  Cu  Cu63  1  0.53654143  0.87368694  0.47091422  1
  Cu  Cu64  1  0.33714451  0.46345857  0.47091422  1
  Cu  Cu65  1  0.12631306  0.66285549  0.47091422  1
  Cu  Cu66  1  0.12131075  0.62017918  0.36200636  1
  Cu  Cu67  1  0.49886743  0.87868925  0.36200636  1
  Cu  Cu68  1  0.37982082  0.50113257  0.36200636  1
  Cu  Cu69  1  0.12131075  0.50113257  0.86200636  1
  Cu  Cu70  1  0.37982082  0.87868925  0.86200636  1
  Cu  Cu71  1  0.49886743  0.62017918  0.86200636  1
  Cu  Cu72  1  0.98515409  0.77565270  0.41014608  1
  Cu  Cu73  1  0.79049860  0.01484591  0.41014608  1
  Cu  Cu74  1  0.22434730  0.20950140  0.41014608  1
  Cu  Cu75  1  0.98515409  0.20950140  0.91014608  1
  Cu  Cu76  1  0.22434730  0.01484591  0.91014608  1
  Cu  Cu77  1  0.79049860  0.77565270  0.91014608  1
  Cu  Cu78  1  0.93934064  0.12847963  0.58772846  1
  Cu  Cu79  1  0.18913899  0.06065936  0.58772846  1
  Cu  Cu80  1  0.87152037  0.81086101  0.58772846  1
  Cu  Cu81  1  0.93934064  0.81086101  0.08772846  1
  Cu  Cu82  1  0.87152037  0.06065936  0.08772846  1
  Cu  Cu83  1  0.18913899  0.12847963  0.08772846  1
  Cu  Cu84  1  0.65182109  0.10898570  0.74347908  1
  Cu  Cu85  1  0.45716560  0.34817891  0.74347908  1
  Cu  Cu86  1  0.89101430  0.54283440  0.74347908  1
  Cu  Cu87  1  0.65182109  0.54283440  0.24347908  1
  Cu  Cu88  1  0.89101430  0.34817891  0.24347908  1
  Cu  Cu89  1  0.45716560  0.10898570  0.24347908  1
  Cu  Cu90  1  0.60600764  0.46181263  0.92106146  1
  Cu  Cu91  1  0.85580599  0.39399236  0.92106146  1
  Cu  Cu92  1  0.53818737  0.14419401  0.92106146  1
  Cu  Cu93  1  0.60600764  0.14419401  0.42106146  1
  Cu  Cu94  1  0.53818737  0.39399236  0.42106146  1
  Cu  Cu95  1  0.85580599  0.46181263  0.42106146  1
  Cu  Cu96  1  0.31848709  0.44231970  0.07681308  1
  Cu  Cu97  1  0.12383160  0.68151291  0.07681308  1
  Cu  Cu98  1  0.55768030  0.87616840  0.07681308  1
  Cu  Cu99  1  0.31848709  0.87616840  0.57681308  1
  Cu  Cu100  1  0.55768030  0.68151291  0.57681308  1
  Cu  Cu101  1  0.12383160  0.44231970  0.57681308  1
  Cu  Cu102  1  0.27267364  0.79514663  0.25439546  1
  Cu  Cu103  1  0.52247199  0.72732636  0.25439546  1
  Cu  Cu104  1  0.20485337  0.47752801  0.25439546  1
  Cu  Cu105  1  0.27267364  0.47752801  0.75439546  1
  Cu  Cu106  1  0.20485337  0.72732636  0.75439546  1
  Cu  Cu107  1  0.52247199  0.79514663  0.75439546  1
