# generated using pymatgen
data_Cu6NiC12
_symmetry_space_group_name_H-M   'P 1'
_cell_length_a   11.44409115
_cell_length_b   6.83849581
_cell_length_c   2.93304305
_cell_angle_alpha   90.00184812
_cell_angle_beta   90.00200621
_cell_angle_gamma   71.43659548
_symmetry_Int_Tables_number   1
_chemical_formula_structural   Cu6NiC12
_chemical_formula_sum   'Cu6 Ni1 C12'
_cell_volume   217.59845721
_cell_formula_units_Z   1
loop_
 _symmetry_equiv_pos_site_id
 _symmetry_equiv_pos_as_xyz
  1  'x, y, z'
loop_
 _atom_site_type_symbol
 _atom_site_label
 _atom_site_symmetry_multiplicity
 _atom_site_fract_x
 _atom_site_fract_y
 _atom_site_fract_z
 _atom_site_occupancy
  Ni  Ni0  1  0.84219900  0.81935100  0.48812200  1
  Cu  Cu1  1  0.02501900  0.00190300  0.98884100  1
  Cu  Cu2  1  0.04209000  0.45912000  0.48870100  1
  Cu  Cu3  1  0.33266000  0.33768600  0.98906900  1
  Cu  Cu4  1  0.62740300  0.17771200  0.48932600  1
  Cu  Cu5  1  0.32977100  0.83973700  0.48927100  1
  Cu  Cu6  1  0.63721000  0.69143500  0.98929200  1
  C  C7  1  0.02713600  0.28711000  0.98878700  1
  C  C8  1  0.32538200  0.02848400  0.98917400  1
  C  C9  1  0.97071700  0.68194700  0.98848200  1
  C  C10  1  0.21599000  0.41346700  0.48905400  1
  C  C11  1  0.45811600  0.26124500  0.48914900  1
  C  C12  1  0.13970100  0.91113000  0.48914000  1
  C  C13  1  0.33925600  0.64929100  0.98937800  1
  C  C14  1  0.90882800  0.05378400  0.48864900  1
  C  C15  1  0.52281000  0.75855500  0.48930300  1
  C  C16  1  0.75063800  0.61472900  0.48928700  1
  C  C17  1  0.69480500  0.97437800  0.98925200  1
  C  C18  1  0.64776500  0.36893400  0.98939000  1
