# generated using pymatgen
data_Cu4Ni4C9
_symmetry_space_group_name_H-M   'P 1'
_cell_length_a   3.05057558
_cell_length_b   3.05057558
_cell_length_c   26.90207873
_cell_angle_alpha   90.43714165
_cell_angle_beta   89.56285835
_cell_angle_gamma   119.43740253
_symmetry_Int_Tables_number   1
_chemical_formula_structural   Cu4Ni4C9
_chemical_formula_sum   'Cu4 Ni4 C9'
_cell_volume   218.02050919
_cell_formula_units_Z   1
loop_
 _symmetry_equiv_pos_site_id
 _symmetry_equiv_pos_as_xyz
  1  'x, y, z'
loop_
 _atom_site_type_symbol
 _atom_site_label
 _atom_site_symmetry_multiplicity
 _atom_site_fract_x
 _atom_site_fract_y
 _atom_site_fract_z
 _atom_site_occupancy
  C  C0  1  0.33059898  0.66940102  0.06180727  1
  Ni  Ni1  1  0.33543332  0.66456668  0.16164022  1
  Ni  Ni2  1  0.66810972  0.33189028  0.85060967  1
  Ni  Ni3  1  0.66685447  0.33314553  0.61770870  1
  Ni  Ni4  1  0.33187208  0.66812792  0.38606049  1
  Cu  Cu5  1  0.00348326  0.99651674  0.97036396  1
  Cu  Cu6  1  0.99936865  0.00063135  0.50181247  1
  Cu  Cu7  1  0.66319037  0.33680963  0.27041466  1
  Cu  Cu8  1  0.34073207  0.65926793  0.73414633  1
  C  C9  1  0.99464414  0.00535586  0.09577564  1
  C  C10  1  0.99068226  0.00931774  0.88779028  1
  C  C11  1  0.99770621  0.00229379  0.57999966  1
  C  C12  1  0.00154795  0.99845205  0.42353410  1
  C  C13  1  0.66954706  0.33045294  0.19148692  1
  C  C14  1  0.34065999  0.65934001  0.81248492  1
  C  C15  1  0.33653428  0.66346572  0.65535972  1
  C  C16  1  0.66236821  0.33763179  0.34848400  1
