# generated using pymatgen
data_CuNiC9
_symmetry_space_group_name_H-M   'P 1'
_cell_length_a   6.41398287
_cell_length_b   6.41398274
_cell_length_c   6.41398298
_cell_angle_alpha   55.50233064
_cell_angle_beta   55.50233124
_cell_angle_gamma   55.50232744
_symmetry_Int_Tables_number   1
_chemical_formula_structural   CuNiC9
_chemical_formula_sum   'Cu1 Ni1 C9'
_cell_volume   167.09732160
_cell_formula_units_Z   1
loop_
 _symmetry_equiv_pos_site_id
 _symmetry_equiv_pos_as_xyz
  1  'x, y, z'
loop_
 _atom_site_type_symbol
 _atom_site_label
 _atom_site_symmetry_multiplicity
 _atom_site_fract_x
 _atom_site_fract_y
 _atom_site_fract_z
 _atom_site_occupancy
  C  C0  1  0.21869218  0.21869218  0.21869218  1
  C  C1  1  0.80764547  0.80764547  0.80764547  1
  Ni  Ni2  1  0.58567837  0.58567837  0.58567837  1
  Cu  Cu3  1  0.41488874  0.41488874  0.41488874  1
  C  C4  1  0.01259331  0.01259331  0.01259331  1
  C  C5  1  0.23892611  0.77833597  0.77833597  1
  C  C6  1  0.25247256  0.79091076  0.25247256  1
  C  C7  1  0.77833597  0.23892611  0.77833597  1
  C  C8  1  0.25247256  0.25247256  0.79091076  1
  C  C9  1  0.79091076  0.25247256  0.25247256  1
  C  C10  1  0.77833597  0.77833597  0.23892611  1
