# generated using pymatgen
data_Cu2Ni10C7
_symmetry_space_group_name_H-M   'P 1'
_cell_length_a   8.26764775
_cell_length_b   5.92837206
_cell_length_c   5.71463028
_cell_angle_alpha   66.81300822
_cell_angle_beta   64.99175633
_cell_angle_gamma   63.09725355
_symmetry_Int_Tables_number   1
_chemical_formula_structural   Cu2Ni10C7
_chemical_formula_sum   'Cu2 Ni10 C7'
_cell_volume   219.14679194
_cell_formula_units_Z   1
loop_
 _symmetry_equiv_pos_site_id
 _symmetry_equiv_pos_as_xyz
  1  'x, y, z'
loop_
 _atom_site_type_symbol
 _atom_site_label
 _atom_site_symmetry_multiplicity
 _atom_site_fract_x
 _atom_site_fract_y
 _atom_site_fract_z
 _atom_site_occupancy
  C  C0  1  0.83320119  0.19081531  0.65588878  1
  C  C1  1  0.85636767  0.68000404  0.69552506  1
  C  C2  1  0.65121268  0.33493753  0.30262217  1
  C  C3  1  0.30646572  0.66441070  0.65690418  1
  C  C4  1  0.19955774  0.34701438  0.34454141  1
  C  C5  1  0.47083279  0.99577979  0.99533183  1
  C  C6  1  0.99438826  -0.00090834  0.03817632  1
  Ni  Ni7  1  0.66362494  0.03618116  0.64327495  1
  Ni  Ni8  1  0.32469324  0.36396232  0.96859884  1
  Ni  Ni9  1  0.92122711  0.22175145  0.25360657  1
  Ni  Ni10  1  0.72905961  0.12197924  0.08076389  1
  Ni  Ni11  1  0.01860243  0.82662896  0.78852743  1
  Ni  Ni12  1  0.38215775  0.44582915  0.42183318  1
  Ni  Ni13  1  0.33459882  0.97500848  0.36887360  1
  Ni  Ni14  1  0.65417095  0.64075755  0.02218050  1
  Ni  Ni15  1  0.00507725  0.31009063  0.70629995  1
  Ni  Ni16  1  0.00264499  0.69608796  0.32384958  1
  Cu  Cu17  1  0.27443385  0.88701222  0.91852336  1
  Cu  Cu18  1  0.62768502  0.52456548  0.55277539  1
