# generated using pymatgen
data_CuNiC19
_symmetry_space_group_name_H-M   'P 1'
_cell_length_a   9.13651767
_cell_length_b   9.13651736
_cell_length_c   22.28175633
_cell_angle_alpha   90.00000000
_cell_angle_beta   90.00000000
_cell_angle_gamma   120.00000117
_symmetry_Int_Tables_number   1
_chemical_formula_structural   CuNiC19
_chemical_formula_sum   'Cu6 Ni6 C114'
_cell_volume   1610.79928886
_cell_formula_units_Z   6
loop_
 _symmetry_equiv_pos_site_id
 _symmetry_equiv_pos_as_xyz
  1  'x, y, z'
loop_
 _atom_site_type_symbol
 _atom_site_label
 _atom_site_symmetry_multiplicity
 _atom_site_fract_x
 _atom_site_fract_y
 _atom_site_fract_z
 _atom_site_occupancy
  C  C0  1  0.63283183  0.00033858  0.24958440  1
  C  C1  1  0.36750675  0.36716817  0.24958440  1
  C  C2  1  0.99966142  0.63249325  0.24958440  1
  C  C3  1  0.62793424  0.63344274  0.75222359  1
  C  C4  1  0.00550850  0.37206576  0.75222359  1
  C  C5  1  0.36655726  0.99449150  0.75222359  1
  C  C6  1  0.30007266  0.33350940  0.58342026  1
  C  C7  1  0.03343774  0.69992734  0.58342026  1
  C  C8  1  0.66649060  0.96656226  0.58342026  1
  C  C9  1  0.29740569  0.96001659  0.08221392  1
  C  C10  1  0.66261190  0.70259431  0.08221392  1
  C  C11  1  0.03998341  0.33738810  0.08221392  1
  C  C12  1  0.96106447  0.66597659  0.91695274  1
  C  C13  1  0.70491112  0.03893553  0.91695274  1
  C  C14  1  0.33402341  0.29508888  0.91695274  1
  C  C15  1  0.96656919  0.29805951  0.41556865  1
  C  C16  1  0.33148932  0.03343081  0.41556865  1
  C  C17  1  0.70194049  0.66851068  0.41556865  1
  C  C18  1  0.00000000  0.00000000  0.49991429  1
  C  C19  1  0.00000000  0.00000000  0.99733854  1
  C  C20  1  0.66666700  0.33333300  0.83688752  1
  C  C21  1  0.66666700  0.33333300  0.32957428  1
  C  C22  1  0.33333300  0.66666700  0.16643468  1
  C  C23  1  0.33333300  0.66666700  0.66937738  1
  Ni  Ni24  1  0.00000000  0.00000000  0.34888637  1
  Ni  Ni25  1  0.00000000  0.00000000  0.64992832  1
  Ni  Ni26  1  0.00000000  0.00000000  0.14673248  1
  Ni  Ni27  1  0.66666700  0.33333300  0.68866706  1
  Ni  Ni28  1  0.66666700  0.33333300  0.47899658  1
  Ni  Ni29  1  0.33333300  0.66666700  0.51887916  1
  Cu  Cu30  1  0.00000000  0.00000000  0.85326791  1
  Cu  Cu31  1  0.66666700  0.33333300  0.18388227  1
  Cu  Cu32  1  0.66666700  0.33333300  0.98092475  1
  Cu  Cu33  1  0.33333300  0.66666700  0.01800889  1
  Cu  Cu34  1  0.33333300  0.66666700  0.31364330  1
  Cu  Cu35  1  0.33333300  0.66666700  0.81736505  1
  C  C36  1  0.30222424  0.00037016  0.24881668  1
  C  C37  1  0.69814592  0.69777576  0.24881668  1
  C  C38  1  0.99962984  0.30185408  0.24881668  1
  C  C39  1  0.29005045  0.29542107  0.75412354  1
  C  C40  1  0.00537062  0.70994955  0.75412354  1
  C  C41  1  0.70457893  0.99462938  0.75412354  1
  C  C42  1  0.96143566  0.33264864  0.58379375  1
  C  C43  1  0.37121398  0.03856434  0.58379375  1
  C  C44  1  0.66735136  0.62878602  0.58379375  1
  C  C45  1  0.95515570  0.61745292  0.08162546  1
  C  C46  1  0.66229823  0.04484430  0.08162546  1
  C  C47  1  0.38254708  0.33770177  0.08162546  1
  C  C48  1  0.62282797  0.66685823  0.91729824  1
  C  C49  1  0.04402925  0.37717203  0.91729824  1
  C  C50  1  0.33314177  0.95597075  0.91729824  1
  C  C51  1  0.62455566  0.95709828  0.41430974  1
  C  C52  1  0.33254163  0.37544434  0.41430974  1
  C  C53  1  0.04290172  0.66745837  0.41430974  1
  C  C54  1  0.21710955  0.03814509  0.30725130  1
  C  C55  1  0.82103553  0.78289045  0.30725130  1
  C  C56  1  0.96185491  0.17896447  0.30725130  1
  C  C57  1  0.19029942  0.16694224  0.81054844  1
  C  C58  1  0.97664282  0.80970058  0.81054844  1
  C  C59  1  0.83305776  0.02335718  0.81054844  1
  C  C60  1  0.78401588  0.96177087  0.69307076  1
  C  C61  1  0.17775499  0.21598412  0.69307076  1
  C  C62  1  0.03822913  0.82224501  0.69307076  1
  C  C63  1  0.78741224  0.82399757  0.19130609  1
  C  C64  1  0.03658533  0.21258776  0.19130609  1
  C  C65  1  0.17600243  0.96341467  0.19130609  1
  C  C66  1  0.87270440  0.36138685  0.64286565  1
  C  C67  1  0.48868345  0.12729560  0.64286565  1
  C  C68  1  0.63861315  0.51131655  0.64286565  1
  C  C69  1  0.86301437  0.49939470  0.14096944  1
  C  C70  1  0.63638133  0.13698563  0.14096944  1
  C  C71  1  0.50060530  0.36361867  0.14096944  1
  C  C72  1  0.47487281  0.30821692  0.02296568  1
  C  C73  1  0.83334511  0.52512719  0.02296568  1
  C  C74  1  0.69178308  0.16665489  0.02296568  1
  C  C75  1  0.45853452  0.15489439  0.52427845  1
  C  C76  1  0.69636087  0.54146548  0.52427845  1
  C  C77  1  0.84510561  0.30363913  0.52427845  1
  C  C78  1  0.52925186  0.69778015  0.97571864  1
  C  C79  1  0.16852729  0.47074814  0.97571864  1
  C  C80  1  0.30221985  0.83147271  0.97571864  1
  C  C81  1  0.54460250  0.84681799  0.47542678  1
  C  C82  1  0.30221449  0.45539750  0.47542678  1
  C  C83  1  0.15318201  0.69778551  0.47542678  1
  C  C84  1  0.14235803  0.64402376  0.35701248  1
  C  C85  1  0.50166473  0.85764197  0.35701248  1
  C  C86  1  0.35597624  0.49833527  0.35701248  1
  C  C87  1  0.13636795  0.50031773  0.85893800  1
  C  C88  1  0.36394878  0.86363205  0.85893800  1
  C  C89  1  0.49968227  0.63605122  0.85893800  1
  C  C90  1  0.02292354  0.83480702  0.41101124  1
  C  C91  1  0.81188348  0.97707646  0.41101124  1
  C  C92  1  0.16519298  0.18811652  0.41101124  1
  C  C93  1  0.02700488  0.18941665  0.91241546  1
  C  C94  1  0.16241177  0.97299512  0.91241546  1
  C  C95  1  0.81058335  0.83758823  0.91241546  1
  C  C96  1  0.97872199  0.16415865  0.58709898  1
  C  C97  1  0.18543666  0.02127801  0.58709898  1
  C  C98  1  0.83584135  0.81456334  0.58709898  1
  C  C99  1  0.97181529  0.80465641  0.08501510  1
  C  C100  1  0.83284112  0.02818471  0.08501510  1
  C  C101  1  0.19534359  0.16715888  0.08501510  1
  C  C102  1  0.68994221  0.16578174  0.75138239  1
  C  C103  1  0.47584053  0.31005779  0.75138239  1
  C  C104  1  0.83421826  0.52415947  0.75138239  1
  C  C105  1  0.68154572  0.51179106  0.24217033  1
  C  C106  1  0.83024634  0.31845428  0.24217033  1
  C  C107  1  0.48820894  0.16975366  0.24217033  1
  C  C108  1  0.64044378  0.49650972  0.92178445  1
  C  C109  1  0.85606693  0.35955622  0.92178445  1
  C  C110  1  0.50349028  0.14393307  0.92178445  1
  C  C111  1  0.63904636  0.14260572  0.41617011  1
  C  C112  1  0.50356037  0.36095364  0.41617011  1
  C  C113  1  0.85739428  0.49643963  0.41617011  1
  C  C114  1  0.36438304  0.50742277  0.07699857  1
  C  C115  1  0.14303873  0.63561696  0.07699857  1
  C  C116  1  0.49257723  0.85696127  0.07699857  1
  C  C117  1  0.35321605  0.85244703  0.58123046  1
  C  C118  1  0.49922998  0.64678395  0.58123046  1
  C  C119  1  0.14755297  0.50077002  0.58123046  1
  C  C120  1  0.31871395  0.83094440  0.25537078  1
  C  C121  1  0.51222945  0.68128605  0.25537078  1
  C  C122  1  0.16905560  0.48777055  0.25537078  1
  C  C123  1  0.30947444  0.48275319  0.75949984  1
  C  C124  1  0.17327775  0.69052556  0.75949984  1
  C  C125  1  0.51724681  0.82672225  0.75949984  1
