# generated using pymatgen
data_Cu8Ni8C25
_symmetry_space_group_name_H-M   'P 1'
_cell_length_a   5.58664585
_cell_length_b   11.22097672
_cell_length_c   11.17004454
_cell_angle_alpha   53.98551604
_cell_angle_beta   54.03068763
_cell_angle_gamma   53.94643164
_symmetry_Int_Tables_number   1
_chemical_formula_structural   Cu8Ni8C25
_chemical_formula_sum   'Cu8 Ni8 C25'
_cell_volume   425.59452876
_cell_formula_units_Z   1
loop_
 _symmetry_equiv_pos_site_id
 _symmetry_equiv_pos_as_xyz
  1  'x, y, z'
loop_
 _atom_site_type_symbol
 _atom_site_label
 _atom_site_symmetry_multiplicity
 _atom_site_fract_x
 _atom_site_fract_y
 _atom_site_fract_z
 _atom_site_occupancy
  C  C0  1  0.49942100  0.74842700  0.74875200  1
  Ni  Ni1  1  0.35812700  0.17680800  0.17240700  1
  Ni  Ni2  1  0.13892000  0.07834500  0.57084700  1
  Ni  Ni3  1  0.12898300  0.57529000  0.07956500  1
  Ni  Ni4  1  0.15288700  0.55906100  0.56619800  1
  Ni  Ni5  1  0.86270300  0.42425100  0.41988200  1
  Ni  Ni6  1  0.85355500  0.41486200  0.93638600  1
  Ni  Ni7  1  0.87728100  0.93056400  0.40728400  1
  Ni  Ni8  1  0.82629000  0.94320100  0.93304800  1
  Cu  Cu9  1  0.14674000  0.07260100  0.07349400  1
  Cu  Cu10  1  0.34197400  0.67934600  0.17165000  1
  Cu  Cu11  1  0.35691700  0.16698800  0.67778500  1
  Cu  Cu12  1  0.64188500  0.32357600  0.32644000  1
  Cu  Cu13  1  0.32058300  0.66342800  0.66588000  1
  Cu  Cu14  1  0.64735000  0.33097300  0.81934100  1
  Cu  Cu15  1  0.65376800  0.81960000  0.32914200  1
  Cu  Cu16  1  0.67531700  0.83271900  0.83300800  1
  C  C17  1  0.05355800  0.37643500  0.21772000  1
  C  C18  1  0.43599800  0.03650200  0.37480600  1
  C  C19  1  0.73263100  0.22763000  0.02956700  1
  C  C20  1  0.23050900  0.27692800  0.47304800  1
  C  C21  1  0.55729400  0.47117400  0.11480500  1
  C  C22  1  0.05197800  0.37861400  0.71997700  1
  C  C23  1  0.04470300  0.87268500  0.23256200  1
  C  C24  1  0.95182200  0.11755200  0.28423500  1
  C  C25  1  0.47205000  0.02860000  0.87350500  1
  C  C26  1  0.43729600  0.52199000  0.37951300  1
  C  C27  1  0.76701100  0.21570800  0.52733000  1
  C  C28  1  0.75752900  0.72345700  0.03455600  1
  C  C29  1  0.22778300  0.28822300  0.97588100  1
  C  C30  1  0.23159200  0.77586000  0.46694600  1
  C  C31  1  0.54565700  0.46869200  0.61377100  1
  C  C32  1  0.56965400  0.97975600  0.12030200  1
  C  C33  1  0.08546900  0.87553800  0.71248800  1
  C  C34  1  0.95291000  0.11647100  0.78027600  1
  C  C35  1  0.94454300  0.61566200  0.28038500  1
  C  C36  1  0.42759700  0.53931100  0.87581300  1
  C  C37  1  0.74894600  0.70948000  0.53999500  1
  C  C38  1  0.24161400  0.78408900  0.96037100  1
  C  C39  1  0.57231900  0.95671200  0.61807700  1
  C  C40  1  0.91734100  0.61718200  0.78321100  1
