# generated using pymatgen
data_Cu24Ni6C5
_symmetry_space_group_name_H-M   'P 1'
_cell_length_a   17.50096641
_cell_length_b   8.74982548
_cell_length_c   22.72531967
_cell_angle_alpha   90.03537183
_cell_angle_beta   89.96518582
_cell_angle_gamma   120.01627848
_symmetry_Int_Tables_number   1
_chemical_formula_structural   Cu24Ni6C5
_chemical_formula_sum   'Cu144 Ni36 C30'
_cell_volume   3013.21891027
_cell_formula_units_Z   6
loop_
 _symmetry_equiv_pos_site_id
 _symmetry_equiv_pos_as_xyz
  1  'x, y, z'
loop_
 _atom_site_type_symbol
 _atom_site_label
 _atom_site_symmetry_multiplicity
 _atom_site_fract_x
 _atom_site_fract_y
 _atom_site_fract_z
 _atom_site_occupancy
  C  C0  1  0.00029714  0.00031288  0.50120866  1
  C  C1  1  0.50272669  0.00400016  0.99763079  1
  C  C2  1  0.33480447  0.33553558  0.83030836  1
  C  C3  1  0.83176017  0.33095752  0.83073265  1
  C  C4  1  0.33155724  0.33273067  0.33926867  1
  C  C5  1  0.83504455  0.33346142  0.33340237  1
  C  C6  1  0.50223320  0.00011395  0.35630730  1
  C  C7  1  0.99934766  0.99956746  0.85129344  1
  C  C8  1  0.49985223  -0.00003799  0.64829909  1
  C  C9  1  0.99528073  0.99695884  0.14751203  1
  C  C10  1  0.33427187  0.33344336  0.18724122  1
  C  C11  1  0.16604694  0.66755398  0.01947045  1
  C  C12  1  0.66701725  0.66469500  0.02011904  1
  C  C13  1  0.16412722  0.66437554  0.52340479  1
  C  C14  1  0.66939249  0.66930534  0.52390760  1
  C  C15  1  0.99856613  0.00038892  0.35323793  1
  C  C16  1  0.50064405  0.00052704  0.84970908  1
  C  C17  1  0.00027351  0.00032789  0.64895114  1
  C  C18  1  0.50455375  0.00400744  0.14859986  1
  C  C19  1  0.33224974  0.33097913  0.68596849  1
  C  C20  1  0.83434627  0.33569839  0.68582695  1
  C  C21  1  0.83221087  0.33346991  0.18583670  1
  C  C22  1  0.33511841  0.33561326  0.97870316  1
  C  C23  1  0.83124392  0.33123297  0.98164530  1
  C  C24  1  0.33113527  0.33180238  0.48383255  1
  C  C25  1  0.83564881  0.33478760  0.48312673  1
  C  C26  1  0.16308203  0.65933027  0.31356174  1
  C  C27  1  0.67034013  0.67404914  0.31182074  1
  C  C28  1  0.16806950  0.66726270  0.80858878  1
  C  C29  1  0.66521116  0.66618644  0.80929458  1
  Ni  Ni30  1  0.14362491  0.99511424  0.25160634  1
  Ni  Ni31  1  0.64635439  0.99889770  0.24895921  1
  Ni  Ni32  1  0.35383489  0.71414482  0.24917400  1
  Ni  Ni33  1  0.85316558  0.70460228  0.25256883  1
  Ni  Ni34  1  0.99942390  0.29293702  0.25195028  1
  Ni  Ni35  1  0.50323221  0.29279137  0.24960959  1
  Ni  Ni36  1  0.14699488  0.29432260  0.74873794  1
  Ni  Ni37  1  0.64743674  0.29320414  0.75197040  1
  Ni  Ni38  1  0.00044397  0.70586845  0.74865323  1
  Ni  Ni39  1  0.49892825  0.70527798  0.75196841  1
  Ni  Ni40  1  0.35364418  0.00176449  0.75211277  1
  Ni  Ni41  1  0.85248790  0.99944259  0.74849258  1
  Ni  Ni42  1  0.47534874  0.33191005  0.58313203  1
  Ni  Ni43  1  0.97497306  0.32548962  0.58369786  1
  Ni  Ni44  1  0.18788800  0.04888035  0.58341018  1
  Ni  Ni45  1  0.69057251  0.05049485  0.58343831  1
  Ni  Ni46  1  0.33403445  0.61914273  0.58345159  1
  Ni  Ni47  1  0.83720965  0.62378162  0.58340222  1
  Ni  Ni48  1  0.47728114  0.62665658  0.08175834  1
  Ni  Ni49  1  0.97578637  0.61876052  0.08335722  1
  Ni  Ni50  1  0.33610670  0.04523045  0.08171373  1
  Ni  Ni51  1  0.83269524  0.04881283  0.08316844  1
  Ni  Ni52  1  0.18881136  0.33166701  0.08190540  1
  Ni  Ni53  1  0.68798794  0.32808282  0.08330199  1
  Ni  Ni54  1  0.31304863  0.66634363  0.91520413  1
  Ni  Ni55  1  0.81092606  0.66184850  0.91491020  1
  Ni  Ni56  1  0.02012095  0.37840312  0.91500333  1
  Ni  Ni57  1  0.51991003  0.37340053  0.91507564  1
  Ni  Ni58  1  0.16887418  0.96006132  0.91492409  1
  Ni  Ni59  1  0.66693865  0.95963499  0.91532060  1
  Ni  Ni60  1  0.30969333  0.95846987  0.41511148  1
  Ni  Ni61  1  0.81255137  0.96023159  0.41544170  1
  Ni  Ni62  1  0.16740172  0.37474158  0.41537318  1
  Ni  Ni63  1  0.67021460  0.38230307  0.41538264  1
  Ni  Ni64  1  0.01986311  0.66607929  0.41519060  1
  Ni  Ni65  1  0.52078522  0.65881816  0.41559984  1
  Cu  Cu66  1  0.10653106  0.03389294  0.30270855  1
  Cu  Cu67  1  0.60152436  0.02841376  0.30282281  1
  Cu  Cu68  1  0.41112667  0.79092084  0.30266348  1
  Cu  Cu69  1  0.91111524  0.79064929  0.30285871  1
  Cu  Cu70  1  0.48366098  0.17679096  0.30279545  1
  Cu  Cu71  1  0.98484558  0.17854208  0.30268664  1
  Cu  Cu72  1  0.10313252  0.17693924  0.80323960  1
  Cu  Cu73  1  0.60553249  0.17934090  0.80313387  1
  Cu  Cu74  1  0.48396195  0.78895026  0.80322944  1
  Cu  Cu75  1  0.98551680  0.79377696  0.80321175  1
  Cu  Cu76  1  0.41041153  0.03146819  0.80333894  1
  Cu  Cu77  1  0.91136542  0.02935301  0.80311778  1
  Cu  Cu78  1  0.39734319  0.97577633  0.69770253  1
  Cu  Cu79  1  0.89560949  0.97369029  0.69745408  1
  Cu  Cu80  1  0.09126867  0.20871905  0.69751628  1
  Cu  Cu81  1  0.59056324  0.20505745  0.69759857  1
  Cu  Cu82  1  0.01319365  0.81729773  0.69746890  1
  Cu  Cu83  1  0.51193373  0.81903231  0.69763455  1
  Cu  Cu84  1  0.39581458  0.81740213  0.19684212  1
  Cu  Cu85  1  0.89720598  0.81842060  0.19765273  1
  Cu  Cu86  1  0.01248598  0.20436753  0.19727581  1
  Cu  Cu87  1  0.51206341  0.20885161  0.19697418  1
  Cu  Cu88  1  0.09165387  0.97592869  0.19686281  1
  Cu  Cu89  1  0.59079921  0.97254296  0.19760233  1
  Cu  Cu90  1  0.43879106  0.36484092  0.63578068  1
  Cu  Cu91  1  0.93855655  0.36168055  0.63604952  1
  Cu  Cu92  1  0.24227037  0.12244932  0.63568886  1
  Cu  Cu93  1  0.74359964  0.12276122  0.63608328  1
  Cu  Cu94  1  0.31783120  0.51293074  0.63598218  1
  Cu  Cu95  1  0.81874441  0.51505736  0.63576765  1
  Cu  Cu96  1  0.43636851  0.51342365  0.13589679  1
  Cu  Cu97  1  0.93908019  0.51348190  0.13615358  1
  Cu  Cu98  1  0.31994785  0.12630691  0.13584519  1
  Cu  Cu99  1  0.81802544  0.12280283  0.13632220  1
  Cu  Cu100  1  0.24425441  0.36241630  0.13590485  1
  Cu  Cu101  1  0.74162522  0.36161027  0.13602425  1
  Cu  Cu102  1  0.22919199  0.30335236  0.03054046  1
  Cu  Cu103  1  0.72775300  0.30280250  0.03013768  1
  Cu  Cu104  1  0.42254794  0.54197636  0.03068982  1
  Cu  Cu105  1  0.92383228  0.54496738  0.03023263  1
  Cu  Cu106  1  0.34795745  0.15365560  0.03047415  1
  Cu  Cu107  1  0.84918896  0.15424107  0.03034538  1
  Cu  Cu108  1  0.22767180  0.15238457  0.52983773  1
  Cu  Cu109  1  0.72764010  0.15302416  0.53003030  1
  Cu  Cu110  1  0.34950184  0.54558393  0.53021424  1
  Cu  Cu111  1  0.84802187  0.54388973  0.52962462  1
  Cu  Cu112  1  0.42362707  0.30274382  0.52980623  1
  Cu  Cu113  1  0.92364315  0.30226097  0.53012194  1
  Cu  Cu114  1  0.26880642  0.69145855  0.97035043  1
  Cu  Cu115  1  0.77086442  0.69317078  0.96944512  1
  Cu  Cu116  1  0.07623592  0.45973675  0.96977141  1
  Cu  Cu117  1  0.57606219  0.46091030  0.97000871  1
  Cu  Cu118  1  0.15368825  0.84810781  0.96958426  1
  Cu  Cu119  1  0.65431290  0.84668444  0.97023049  1
  Cu  Cu120  1  0.27134963  0.84835089  0.46873053  1
  Cu  Cu121  1  0.76879791  0.84624653  0.46947157  1
  Cu  Cu122  1  0.15474697  0.46158878  0.46933102  1
  Cu  Cu123  1  0.65277238  0.45910726  0.46900897  1
  Cu  Cu124  1  0.07651777  0.69222678  0.46918028  1
  Cu  Cu125  1  0.57603898  0.69298796  0.46916775  1
  Cu  Cu126  1  0.06167261  0.63981015  0.36336985  1
  Cu  Cu127  1  0.56187709  0.63622090  0.36320342  1
  Cu  Cu128  1  0.25677486  0.87634591  0.36272525  1
  Cu  Cu129  1  0.75761890  0.87635421  0.36388459  1
  Cu  Cu130  1  0.18123277  0.48464233  0.36343135  1
  Cu  Cu131  1  0.68085551  0.48646981  0.36311622  1
  Cu  Cu132  1  0.06272046  0.48837290  0.86420043  1
  Cu  Cu133  1  0.56204373  0.48486732  0.86405410  1
  Cu  Cu134  1  0.18157869  0.87520296  0.86389987  1
  Cu  Cu135  1  0.68026963  0.87511528  0.86422904  1
  Cu  Cu136  1  0.25710979  0.63923947  0.86446774  1
  Cu  Cu137  1  0.75627769  0.63691942  0.86377512  1
  Cu  Cu138  1  0.01288991  0.82691015  0.41064652  1
  Cu  Cu139  1  0.51236982  0.82189676  0.40832258  1
  Cu  Cu140  1  0.39931527  0.97486610  0.40706981  1
  Cu  Cu141  1  0.89998639  0.97431854  0.41123820  1
  Cu  Cu142  1  0.08730436  0.19944318  0.41067603  1
  Cu  Cu143  1  0.58817392  0.20287452  0.40834838  1
  Cu  Cu144  1  0.01306820  0.20177294  0.90929037  1
  Cu  Cu145  1  0.51250516  0.19841807  0.91163894  1
  Cu  Cu146  1  0.08790613  0.97443160  0.90927931  1
  Cu  Cu147  1  0.58663098  0.97421130  0.91178901  1
  Cu  Cu148  1  0.40041868  0.82666481  0.91193291  1
  Cu  Cu149  1  0.89950887  0.82427129  0.90888662  1
  Cu  Cu150  1  0.48887292  0.17741086  0.59195224  1
  Cu  Cu151  1  0.98905301  0.17379661  0.58992011  1
  Cu  Cu152  1  0.09801464  0.02133493  0.58977814  1
  Cu  Cu153  1  0.59968857  0.02279618  0.59208002  1
  Cu  Cu154  1  0.41168135  0.80062303  0.59223165  1
  Cu  Cu155  1  0.91278018  0.80382557  0.58974088  1
  Cu  Cu156  1  0.48761856  0.80165803  0.09081534  1
  Cu  Cu157  1  0.98971026  0.80123963  0.09268548  1
  Cu  Cu158  1  0.41250732  0.02248507  0.09104983  1
  Cu  Cu159  1  0.91115072  0.02292995  0.09180722  1
  Cu  Cu160  1  0.10080726  0.17685473  0.09261499  1
  Cu  Cu161  1  0.59776755  0.17477777  0.08980008  1
  Cu  Cu162  1  0.34582623  0.16018073  0.74284426  1
  Cu  Cu163  1  0.84637418  0.16118817  0.74433193  1
  Cu  Cu164  1  0.23416198  0.30737201  0.74453343  1
  Cu  Cu165  1  0.73443144  0.30858088  0.74261173  1
  Cu  Cu166  1  0.41978130  0.53115140  0.74261260  1
  Cu  Cu167  1  0.91953528  0.53175165  0.74453989  1
  Cu  Cu168  1  0.34608423  0.53220472  0.24275098  1
  Cu  Cu169  1  0.84575325  0.53137247  0.24266582  1
  Cu  Cu170  1  0.41988018  0.30809599  0.24318484  1
  Cu  Cu171  1  0.92029514  0.30831283  0.24222901  1
  Cu  Cu172  1  0.23455213  0.15987963  0.24145042  1
  Cu  Cu173  1  0.73336612  0.16023451  0.24446680  1
  Cu  Cu174  1  0.32072376  0.50790966  0.92474680  1
  Cu  Cu175  1  0.82222228  0.50855785  0.92418017  1
  Cu  Cu176  1  0.43267573  0.35706559  0.92431024  1
  Cu  Cu177  1  0.93247129  0.35693380  0.92462267  1
  Cu  Cu178  1  0.24580840  0.13486184  0.92457232  1
  Cu  Cu179  1  0.74606620  0.13440708  0.92436627  1
  Cu  Cu180  1  0.32285082  0.13658676  0.42317283  1
  Cu  Cu181  1  0.82078362  0.13487364  0.42400075  1
  Cu  Cu182  1  0.24668231  0.35730256  0.42338374  1
  Cu  Cu183  1  0.74574342  0.35594039  0.42370987  1
  Cu  Cu184  1  0.43170738  0.50722790  0.42354991  1
  Cu  Cu185  1  0.93235508  0.50798485  0.42353168  1
  Cu  Cu186  1  0.17914011  0.48988552  0.07548195  1
  Cu  Cu187  1  0.67824408  0.48963457  0.07380366  1
  Cu  Cu188  1  0.06690116  0.64425148  0.07387088  1
  Cu  Cu189  1  0.56542356  0.64118632  0.07575249  1
  Cu  Cu190  1  0.25466319  0.86835113  0.07536512  1
  Cu  Cu191  1  0.75544273  0.86694778  0.07430728  1
  Cu  Cu192  1  0.17892079  0.86801794  0.57349725  1
  Cu  Cu193  1  0.67767825  0.86778100  0.57415644  1
  Cu  Cu194  1  0.25587307  0.64429191  0.57381998  1
  Cu  Cu195  1  0.75547573  0.64266189  0.57392791  1
  Cu  Cu196  1  0.06582965  0.48849114  0.57420452  1
  Cu  Cu197  1  0.56627778  0.48902458  0.57338123  1
  Cu  Cu198  1  0.15612453  0.84440606  0.25752575  1
  Cu  Cu199  1  0.65323692  0.84273996  0.25956447  1
  Cu  Cu200  1  0.26665272  0.68925358  0.25889420  1
  Cu  Cu201  1  0.76740759  0.69198624  0.25762142  1
  Cu  Cu202  1  0.07910979  0.46489303  0.25712930  1
  Cu  Cu203  1  0.57762232  0.46658048  0.25929257  1
  Cu  Cu204  1  0.15402321  0.46387543  0.75971307  1
  Cu  Cu205  1  0.65374575  0.46470055  0.75777920  1
  Cu  Cu206  1  0.07802915  0.69160451  0.75982997  1
  Cu  Cu207  1  0.57848092  0.69283604  0.75754517  1
  Cu  Cu208  1  0.26784821  0.84312447  0.75774668  1
  Cu  Cu209  1  0.76771344  0.84386094  0.75968568  1
