# generated using pymatgen
data_CuNiC
_symmetry_space_group_name_H-M   'P 1'
_cell_length_a   3.99441300
_cell_length_b   6.65993300
_cell_length_c   7.72627200
_cell_angle_alpha   90.00000000
_cell_angle_beta   90.00000000
_cell_angle_gamma   90.00000000
_symmetry_Int_Tables_number   1
_chemical_formula_structural   CuNiC
_chemical_formula_sum   'Cu4 Ni4 C4'
_cell_volume   205.53832823
_cell_formula_units_Z   4
loop_
 _symmetry_equiv_pos_site_id
 _symmetry_equiv_pos_as_xyz
  1  'x, y, z'
loop_
 _atom_site_type_symbol
 _atom_site_label
 _atom_site_symmetry_multiplicity
 _atom_site_fract_x
 _atom_site_fract_y
 _atom_site_fract_z
 _atom_site_occupancy
  C  C0  1  0.75000000  0.47036100  0.31649400  1
  C  C1  1  0.25000000  0.02963900  0.81649400  1
  C  C2  1  0.75000000  0.97036100  0.18350600  1
  C  C3  1  0.25000000  0.52963900  0.68350600  1
  Ni  Ni4  1  0.25000000  0.24960700  0.12114100  1
  Ni  Ni5  1  0.25000000  0.74960700  0.37885900  1
  Ni  Ni6  1  0.75000000  0.75039300  0.87885900  1
  Ni  Ni7  1  0.75000000  0.25039300  0.62114100  1
  Cu  Cu8  1  0.25000000  0.64437700  0.06461400  1
  Cu  Cu9  1  0.25000000  0.14437700  0.43538600  1
  Cu  Cu10  1  0.75000000  0.85562300  0.56461400  1
  Cu  Cu11  1  0.75000000  0.35562300  0.93538600  1
