# generated using pymatgen
data_Cu2NiC8
_symmetry_space_group_name_H-M   'P 1'
_cell_length_a   3.92649414
_cell_length_b   7.88434270
_cell_length_c   12.11333969
_cell_angle_alpha   82.76794884
_cell_angle_beta   80.58177174
_cell_angle_gamma   75.60156421
_symmetry_Int_Tables_number   1
_chemical_formula_structural   Cu2NiC8
_chemical_formula_sum   'Cu2 Ni1 C8'
_cell_volume   356.90044190
_cell_formula_units_Z   1
loop_
 _symmetry_equiv_pos_site_id
 _symmetry_equiv_pos_as_xyz
  1  'x, y, z'
loop_
 _atom_site_type_symbol
 _atom_site_label
 _atom_site_symmetry_multiplicity
 _atom_site_fract_x
 _atom_site_fract_y
 _atom_site_fract_z
 _atom_site_occupancy
  Ni  Ni0  1  0.27160800  0.36000300  0.11955500  1
  Cu  Cu1  1  0.90510800  0.03168500  0.18167200  1
  Cu  Cu2  1  0.13951300  0.94363900  0.80462800  1
  C  C3  1  0.68072600  0.36763300  0.29241300  1
  C  C4  1  0.89340700  0.28418800  0.95430200  1
  C  C5  1  0.11991900  0.16694500  0.61837700  1
  C  C6  1  0.11841400  0.74383300  0.04430700  1
  C  C7  1  0.33958100  0.64247500  0.70661000  1
  C  C8  1  0.90892200  0.83043800  0.37669700  1
  C  C9  1  0.62068900  0.95704500  0.82877900  1
  C  C10  1  0.39131400  0.08044800  0.16154900  1
