# generated using pymatgen
data_Cu2NiC16
_symmetry_space_group_name_H-M   'P 1'
_cell_length_a   5.14637588
_cell_length_b   5.72222225
_cell_length_c   9.49488708
_cell_angle_alpha   89.48640705
_cell_angle_beta   110.23321019
_cell_angle_gamma   90.39705954
_symmetry_Int_Tables_number   1
_chemical_formula_structural   Cu2NiC16
_chemical_formula_sum   'Cu2 Ni1 C16'
_cell_volume   262.34531263
_cell_formula_units_Z   1
loop_
 _symmetry_equiv_pos_site_id
 _symmetry_equiv_pos_as_xyz
  1  'x, y, z'
loop_
 _atom_site_type_symbol
 _atom_site_label
 _atom_site_symmetry_multiplicity
 _atom_site_fract_x
 _atom_site_fract_y
 _atom_site_fract_z
 _atom_site_occupancy
  Ni  Ni0  1  0.47988600  0.80232300  0.87018500  1
  C  C1  1  0.40474000  0.16429300  0.37259100  1
  C  C2  1  0.12799800  0.34394600  0.67191900  1
  C  C3  1  0.60636200  0.85541000  0.60992700  1
  C  C4  1  0.87696400  0.65115000  0.33278600  1
  Cu  Cu5  1  0.80457200  0.28014800  0.97699500  1
  Cu  Cu6  1  0.19535200  0.81224000  0.05492200  1
  C  C7  1  0.75464100  0.17788600  0.56654200  1
  C  C8  1  0.16464100  0.35226400  0.44225000  1
  C  C9  1  0.24873300  0.83736500  0.43094200  1
  C  C10  1  0.85662300  0.65055900  0.56227000  1
  C  C11  1  0.60136900  0.41456500  0.29113700  1
  C  C12  1  0.33775000  0.06261400  0.71139800  1
  C  C13  1  0.94449700  0.62220800  0.14074400  1
  C  C14  1  0.83630800  0.91043300  0.86064000  1
  C  C15  1  0.06907400  0.39383300  0.85345500  1
  C  C16  1  0.13293500  0.11743400  0.15040000  1
  C  C17  1  0.63598100  0.90717700  0.29561000  1
  C  C18  1  0.42157400  0.58462700  0.70528600  1
