# generated using pymatgen
data_Cu2NiC16
_symmetry_space_group_name_H-M   'P 1'
_cell_length_a   9.17522697
_cell_length_b   9.17522665
_cell_length_c   23.30045834
_cell_angle_alpha   90.00000000
_cell_angle_beta   90.00000000
_cell_angle_gamma   120.00000119
_symmetry_Int_Tables_number   1
_chemical_formula_structural   Cu2NiC16
_chemical_formula_sum   'Cu12 Ni6 C96'
_cell_volume   1698.74702073
_cell_formula_units_Z   6
loop_
 _symmetry_equiv_pos_site_id
 _symmetry_equiv_pos_as_xyz
  1  'x, y, z'
loop_
 _atom_site_type_symbol
 _atom_site_label
 _atom_site_symmetry_multiplicity
 _atom_site_fract_x
 _atom_site_fract_y
 _atom_site_fract_z
 _atom_site_occupancy
  C  C0  1  0.00239337  0.69908720  0.91987262  1
  C  C1  1  0.69669284  0.99760663  0.91987262  1
  C  C2  1  0.30091280  0.30330716  0.91987262  1
  C  C3  1  0.00239337  0.30330716  0.41987262  1
  C  C4  1  0.30091280  0.99760663  0.41987262  1
  C  C5  1  0.69669284  0.69908720  0.41987262  1
  C  C6  1  0.00000000  0.00000000  0.49510008  1
  C  C7  1  0.00000000  0.00000000  0.99510008  1
  C  C8  1  0.66666700  0.33333300  0.82405962  1
  C  C9  1  0.66666700  0.33333300  0.32405962  1
  C  C10  1  0.33333300  0.66666700  0.16653063  1
  C  C11  1  0.33333300  0.66666700  0.66653063  1
  C  C12  1  0.00000000  0.00000000  0.34417687  1
  C  C13  1  0.00000000  0.00000000  0.84417687  1
  C  C14  1  0.00000000  0.00000000  0.64742808  1
  C  C15  1  0.00000000  0.00000000  0.14742808  1
  C  C16  1  0.66666700  0.33333300  0.68733970  1
  C  C17  1  0.66666700  0.33333300  0.18733970  1
  C  C18  1  0.33333300  0.66666700  0.01764754  1
  C  C19  1  0.33333300  0.66666700  0.51764754  1
  C  C20  1  0.66666700  0.33333300  0.97586217  1
  C  C21  1  0.66666700  0.33333300  0.47586217  1
  C  C22  1  0.33333300  0.66666700  0.32347843  1
  C  C23  1  0.33333300  0.66666700  0.82347843  1
  Ni  Ni24  1  0.62934722  0.66418996  0.91888565  1
  Ni  Ni25  1  0.03484174  0.37065278  0.91888565  1
  Ni  Ni26  1  0.33581004  0.96515826  0.91888565  1
  Ni  Ni27  1  0.62934722  0.96515826  0.41888565  1
  Ni  Ni28  1  0.33581004  0.37065278  0.41888565  1
  Ni  Ni29  1  0.03484174  0.66418996  0.41888565  1
  Cu  Cu30  1  0.30780552  0.98178945  0.25449684  1
  Cu  Cu31  1  0.67398393  0.69219448  0.25449684  1
  Cu  Cu32  1  0.01821055  0.32601607  0.25449684  1
  Cu  Cu33  1  0.30780552  0.32601607  0.75449684  1
  Cu  Cu34  1  0.01821055  0.69219448  0.75449684  1
  Cu  Cu35  1  0.67398393  0.98178945  0.75449684  1
  Cu  Cu36  1  0.94771493  0.32231278  0.58026288  1
  Cu  Cu37  1  0.37459884  0.05228507  0.58026288  1
  Cu  Cu38  1  0.67768722  0.62540116  0.58026288  1
  Cu  Cu39  1  0.94771493  0.62540116  0.08026288  1
  Cu  Cu40  1  0.67768722  0.05228507  0.08026288  1
  Cu  Cu41  1  0.37459884  0.32231278  0.08026288  1
  C  C42  1  0.23340117  0.99699836  0.30864674  1
  C  C43  1  0.76359719  0.76659883  0.30864674  1
  C  C44  1  0.00300164  0.23640281  0.30864674  1
  C  C45  1  0.23340117  0.23640281  0.80864674  1
  C  C46  1  0.00300164  0.76659883  0.80864674  1
  C  C47  1  0.76359719  0.99699836  0.80864674  1
  C  C48  1  0.76325602  0.96749121  0.70404492  1
  C  C49  1  0.20423519  0.23674398  0.70404492  1
  C  C50  1  0.03250879  0.79576481  0.70404492  1
  C  C51  1  0.76325602  0.79576481  0.20404492  1
  C  C52  1  0.03250879  0.23674398  0.20404492  1
  C  C53  1  0.20423519  0.96749121  0.20404492  1
  C  C54  1  0.85520279  0.31816064  0.63162396  1
  C  C55  1  0.46295884  0.14479721  0.63162396  1
  C  C56  1  0.68183936  0.53704116  0.63162396  1
  C  C57  1  0.85520279  0.53704116  0.13162396  1
  C  C58  1  0.68183936  0.14479721  0.13162396  1
  C  C59  1  0.46295884  0.31816064  0.13162396  1
  C  C60  1  0.47734914  0.32332438  0.02694421  1
  C  C61  1  0.84597624  0.52265086  0.02694421  1
  C  C62  1  0.67667562  0.15402376  0.02694421  1
  C  C63  1  0.47734914  0.15402376  0.52694421  1
  C  C64  1  0.67667562  0.52265086  0.52694421  1
  C  C65  1  0.84597624  0.32332438  0.52694421  1
  C  C66  1  0.56588852  0.72834475  0.97110008  1
  C  C67  1  0.16245523  0.43411148  0.97110008  1
  C  C68  1  0.27165525  0.83754477  0.97110008  1
  C  C69  1  0.56588852  0.83754477  0.47110008  1
  C  C70  1  0.27165525  0.43411148  0.47110008  1
  C  C71  1  0.16245523  0.72834475  0.47110008  1
  C  C72  1  0.13523426  0.62572146  0.36337225  1
  C  C73  1  0.49048620  0.86476574  0.36337225  1
  C  C74  1  0.37427854  0.50951380  0.36337225  1
  C  C75  1  0.13523426  0.50951380  0.86337225  1
  C  C76  1  0.37427854  0.86476574  0.86337225  1
  C  C77  1  0.49048620  0.62572146  0.86337225  1
  C  C78  1  0.97651095  0.79767442  0.40428231  1
  C  C79  1  0.82116348  0.02348905  0.40428231  1
  C  C80  1  0.20232558  0.17883652  0.40428231  1
  C  C81  1  0.97651095  0.17883652  0.90428231  1
  C  C82  1  0.20232558  0.02348905  0.90428231  1
  C  C83  1  0.82116348  0.79767442  0.90428231  1
  C  C84  1  0.95818536  0.16693480  0.57479232  1
  C  C85  1  0.20874944  0.04181464  0.57479232  1
  C  C86  1  0.83306520  0.79125056  0.57479232  1
  C  C87  1  0.95818536  0.79125056  0.07479232  1
  C  C88  1  0.83306520  0.04181464  0.07479232  1
  C  C89  1  0.20874944  0.16693480  0.07479232  1
  C  C90  1  0.64185101  0.12454460  0.75022175  1
  C  C91  1  0.48269459  0.35814899  0.75022175  1
  C  C92  1  0.87545540  0.51730541  0.75022175  1
  C  C93  1  0.64185101  0.51730541  0.25022175  1
  C  C94  1  0.87545540  0.35814899  0.25022175  1
  C  C95  1  0.48269459  0.12454460  0.25022175  1
  C  C96  1  0.61500885  0.47367418  0.92708659  1
  C  C97  1  0.85866633  0.38499115  0.92708659  1
  C  C98  1  0.52632582  0.14133367  0.92708659  1
  C  C99  1  0.61500885  0.14133367  0.42708659  1
  C  C100  1  0.52632582  0.38499115  0.42708659  1
  C  C101  1  0.85866633  0.47367418  0.42708659  1
  C  C102  1  0.36175542  0.47545136  0.08004479  1
  C  C103  1  0.11369493  0.63824458  0.08004479  1
  C  C104  1  0.52454864  0.88630507  0.08004479  1
  C  C105  1  0.36175542  0.88630507  0.58004479  1
  C  C106  1  0.52454864  0.63824458  0.58004479  1
  C  C107  1  0.11369493  0.47545136  0.58004479  1
  C  C108  1  0.31594444  0.82017025  0.25711472  1
  C  C109  1  0.50422482  0.68405556  0.25711472  1
  C  C110  1  0.17982975  0.49577518  0.25711472  1
  C  C111  1  0.31594444  0.49577518  0.75711472  1
  C  C112  1  0.17982975  0.68405556  0.75711472  1
  C  C113  1  0.50422482  0.82017025  0.75711472  1
