# generated using pymatgen
data_Cu2Ni6C7
_symmetry_space_group_name_H-M   'P 1'
_cell_length_a   7.24041800
_cell_length_b   8.81754900
_cell_length_c   9.37525061
_cell_angle_alpha   82.49953006
_cell_angle_beta   90.00000000
_cell_angle_gamma   90.00000000
_symmetry_Int_Tables_number   1
_chemical_formula_structural   Cu2Ni6C7
_chemical_formula_sum   'Cu8 Ni24 C28'
_cell_volume   593.42044356
_cell_formula_units_Z   4
loop_
 _symmetry_equiv_pos_site_id
 _symmetry_equiv_pos_as_xyz
  1  'x, y, z'
loop_
 _atom_site_type_symbol
 _atom_site_label
 _atom_site_symmetry_multiplicity
 _atom_site_fract_x
 _atom_site_fract_y
 _atom_site_fract_z
 _atom_site_occupancy
  C  C0  1  0.00000000  0.50000000  0.50000000  1
  C  C1  1  0.50000000  0.50000000  0.00000000  1
  C  C2  1  0.50000000  0.00000000  0.50000000  1
  C  C3  1  0.00000000  0.00000000  0.00000000  1
  Ni  Ni4  1  0.09874700  0.30455100  0.73537000  1
  Ni  Ni5  1  0.59874700  0.69544900  0.76463000  1
  Ni  Ni6  1  0.90125300  0.69544900  0.26463000  1
  Ni  Ni7  1  0.40125300  0.30455100  0.23537000  1
  Ni  Ni8  1  0.15107600  0.47048900  0.77712400  1
  Ni  Ni9  1  0.65107600  0.52951100  0.72287600  1
  Ni  Ni10  1  0.84892400  0.52951100  0.22287600  1
  Ni  Ni11  1  0.34892400  0.47048900  0.27712400  1
  Ni  Ni12  1  0.10272100  0.76251300  0.54812800  1
  Ni  Ni13  1  0.60272100  0.23748700  0.95187200  1
  Ni  Ni14  1  0.89727900  0.23748700  0.45187200  1
  Ni  Ni15  1  0.39727900  0.76251300  0.04812800  1
  Ni  Ni16  1  0.88762200  0.78448700  0.51046800  1
  Ni  Ni17  1  0.38762200  0.21551300  0.98953200  1
  Ni  Ni18  1  0.11237800  0.21551300  0.48953200  1
  Ni  Ni19  1  0.61237800  0.78448700  0.01046800  1
  Ni  Ni20  1  0.19940900  0.94256700  0.27934200  1
  Ni  Ni21  1  0.69940900  0.05743300  0.22065800  1
  Ni  Ni22  1  0.80059100  0.05743300  0.72065800  1
  Ni  Ni23  1  0.30059100  0.94256700  0.77934200  1
  Ni  Ni24  1  0.47580100  0.32011800  0.61007800  1
  Ni  Ni25  1  0.97580100  0.67988200  0.88992200  1
  Ni  Ni26  1  0.52419900  0.67988200  0.38992200  1
  Ni  Ni27  1  0.02419900  0.32011800  0.11007800  1
  Cu  Cu28  1  0.27335500  0.04350200  0.22566000  1
  Cu  Cu29  1  0.77335500  0.95649800  0.27434000  1
  Cu  Cu30  1  0.72664500  0.95649800  0.77434000  1
  Cu  Cu31  1  0.22664500  0.04350200  0.72566000  1
  Cu  Cu32  1  0.88225800  0.32018400  0.06659400  1
  Cu  Cu33  1  0.38225800  0.67981600  0.43340600  1
  Cu  Cu34  1  0.11774200  0.67981600  0.93340600  1
  Cu  Cu35  1  0.61774200  0.32018400  0.56659400  1
  C  C36  1  0.12011000  0.41263500  0.69567700  1
  C  C37  1  0.62011000  0.58736500  0.80432300  1
  C  C38  1  0.87989000  0.58736500  0.30432300  1
  C  C39  1  0.37989000  0.41263500  0.19567700  1
  C  C40  1  0.97710000  0.71872400  0.57057700  1
  C  C41  1  0.47710000  0.28127600  0.92942300  1
  C  C42  1  0.02290000  0.28127600  0.42942300  1
  C  C43  1  0.52290000  0.71872400  0.07057700  1
  C  C44  1  0.22737100  0.09444700  0.09716100  1
  C  C45  1  0.72737100  0.90555300  0.40283900  1
  C  C46  1  0.77262900  0.90555300  0.90283900  1
  C  C47  1  0.27262900  0.09444700  0.59716100  1
  C  C48  1  0.39907500  0.10314500  0.29475200  1
  C  C49  1  0.89907500  0.89685500  0.20524800  1
  C  C50  1  0.60092500  0.89685500  0.70524800  1
  C  C51  1  0.10092500  0.10314500  0.79475200  1
  C  C52  1  0.72006500  0.43298900  0.58421000  1
  C  C53  1  0.22006500  0.56701100  0.91579000  1
  C  C54  1  0.27993500  0.56701100  0.41579000  1
  C  C55  1  0.77993500  0.43298900  0.08421000  1
  C  C56  1  0.66698800  0.20637500  0.50352700  1
  C  C57  1  0.16698800  0.79362500  0.99647300  1
  C  C58  1  0.33301200  0.79362500  0.49647300  1
  C  C59  1  0.83301200  0.20637500  0.00352700  1
