# generated using pymatgen
data_Cu2Ni2C9
_symmetry_space_group_name_H-M   'P 1'
_cell_length_a   3.33796100
_cell_length_b   3.33793562
_cell_length_c   44.87575904
_cell_angle_alpha   89.99553882
_cell_angle_beta   89.99999745
_cell_angle_gamma   120.00022446
_symmetry_Int_Tables_number   1
_chemical_formula_structural   Cu2Ni2C9
_chemical_formula_sum   'Cu2 Ni2 C9'
_cell_volume   433.01273479
_cell_formula_units_Z   1
loop_
 _symmetry_equiv_pos_site_id
 _symmetry_equiv_pos_as_xyz
  1  'x, y, z'
loop_
 _atom_site_type_symbol
 _atom_site_label
 _atom_site_symmetry_multiplicity
 _atom_site_fract_x
 _atom_site_fract_y
 _atom_site_fract_z
 _atom_site_occupancy
  C  C0  1  0.99997100  0.99994200  0.18804300  1
  C  C1  1  0.33331900  0.66663800  0.70020200  1
  C  C2  1  0.33337600  0.66675300  0.61513500  1
  Ni  Ni3  1  0.33331200  0.66662300  0.08700000  1
  Ni  Ni4  1  0.66672100  0.33344500  0.28846900  1
  Cu  Cu5  1  0.33329200  0.66658100  0.46959000  1
  Cu  Cu6  1  0.66668200  0.33336600  0.65767100  1
  C  C7  1  0.33335300  0.66670800  0.32552100  1
  C  C8  1  0.66667500  0.33334900  0.04997200  1
  C  C9  1  0.66662400  0.33324700  0.12461100  1
  C  C10  1  0.33341100  0.66682300  0.25086300  1
  C  C11  1  0.66665500  0.33330900  0.43566500  1
  C  C12  1  0.66660800  0.33321700  0.50350900  1
