# generated using pymatgen
data_Cu4Ni4C3
_symmetry_space_group_name_H-M   'P 1'
_cell_length_a   3.83840127
_cell_length_b   7.95181597
_cell_length_c   7.73397240
_cell_angle_alpha   90.00000000
_cell_angle_beta   90.07850322
_cell_angle_gamma   90.00000000
_symmetry_Int_Tables_number   1
_chemical_formula_structural   Cu4Ni4C3
_chemical_formula_sum   'Cu4 Ni4 C3'
_cell_volume   236.05809905
_cell_formula_units_Z   1
loop_
 _symmetry_equiv_pos_site_id
 _symmetry_equiv_pos_as_xyz
  1  'x, y, z'
loop_
 _atom_site_type_symbol
 _atom_site_label
 _atom_site_symmetry_multiplicity
 _atom_site_fract_x
 _atom_site_fract_y
 _atom_site_fract_z
 _atom_site_occupancy
  C  C0  1  0.49593624  0.50000000  0.70224891  1
  C  C1  1  0.00136069  0.00000000  0.46751704  1
  C  C2  1  0.99938907  0.00000000  0.96372976  1
  Ni  Ni3  1  0.00229878  0.68372340  0.49998659  1
  Ni  Ni4  1  0.00229878  0.31627760  0.49998659  1
  Ni  Ni5  1  0.99860974  0.68576650  0.93683148  1
  Ni  Ni6  1  0.99860974  0.31423450  0.93683148  1
  Cu  Cu7  1  0.50126564  0.00000000  0.46368051  1
  Cu  Cu8  1  0.49945808  0.00000000  0.96462933  1
  Cu  Cu9  1  0.00033281  0.00000000  0.72129660  1
  Cu  Cu10  1  0.00044443  0.00000000  0.20759469  1
