# generated using pymatgen
data_Cu2NiC14
_symmetry_space_group_name_H-M   'P 1'
_cell_length_a   4.04889066
_cell_length_b   4.02987247
_cell_length_c   17.03281276
_cell_angle_alpha   90.00000000
_cell_angle_beta   90.00000000
_cell_angle_gamma   90.00000000
_symmetry_Int_Tables_number   1
_chemical_formula_structural   Cu2NiC14
_chemical_formula_sum   'Cu2 Ni1 C14'
_cell_volume   277.91611091
_cell_formula_units_Z   1
loop_
 _symmetry_equiv_pos_site_id
 _symmetry_equiv_pos_as_xyz
  1  'x, y, z'
loop_
 _atom_site_type_symbol
 _atom_site_label
 _atom_site_symmetry_multiplicity
 _atom_site_fract_x
 _atom_site_fract_y
 _atom_site_fract_z
 _atom_site_occupancy
  Ni  Ni0  1  0.50000000  0.50000000  0.40396451  1
  Cu  Cu1  1  0.50000000  0.50000000  0.13347748  1
  Cu  Cu2  1  0.50000000  0.50000000  0.87871026  1
  C  C3  1  0.50000000  0.00000000  0.62619121  1
  C  C4  1  -0.00000000  -0.00000000  0.00271542  1
  C  C5  1  -0.00000000  0.00000000  0.25442837  1
  C  C6  1  0.00000000  0.00000000  0.75784531  1
  C  C7  1  -0.00000000  0.00000000  0.64118282  1
  C  C8  1  0.00000000  0.00000000  0.36188119  1
  C  C9  1  0.50000000  0.00000000  0.75307204  1
  C  C10  1  -0.00000000  0.50000000  0.77642700  1
  C  C11  1  0.50000000  -0.00000000  0.23556134  1
  C  C12  1  0.00000000  0.50000000  0.23426825  1
  C  C13  1  -0.00000000  0.50000000  0.99800776  1
  C  C14  1  0.50000000  0.00000000  0.99984455  1
  C  C15  1  0.00000000  0.00000000  0.11836832  1
  C  C16  1  0.00000000  0.00000000  0.88238717  1
