# generated using pymatgen
data_Cu6Ni6C7
_symmetry_space_group_name_H-M   'P 1'
_cell_length_a   5.08224881
_cell_length_b   4.91919126
_cell_length_c   9.29724518
_cell_angle_alpha   89.08354136
_cell_angle_beta   92.85201089
_cell_angle_gamma   90.44636325
_symmetry_Int_Tables_number   1
_chemical_formula_structural   Cu6Ni6C7
_chemical_formula_sum   'Cu6 Ni6 C7'
_cell_volume   232.11298931
_cell_formula_units_Z   1
loop_
 _symmetry_equiv_pos_site_id
 _symmetry_equiv_pos_as_xyz
  1  'x, y, z'
loop_
 _atom_site_type_symbol
 _atom_site_label
 _atom_site_symmetry_multiplicity
 _atom_site_fract_x
 _atom_site_fract_y
 _atom_site_fract_z
 _atom_site_occupancy
  C  C0  1  0.48348900  0.99385100  0.99944800  1
  C  C1  1  0.97311800  0.92710600  0.99536800  1
  C  C2  1  0.02170100  0.03640700  0.33117900  1
  C  C3  1  0.06265800  0.00929600  0.65350900  1
  C  C4  1  0.47377700  0.52166300  0.81757800  1
  C  C5  1  0.54430600  0.46191600  0.17688200  1
  C  C6  1  0.46903800  0.52636000  0.49344900  1
  Ni  Ni7  1  0.22007600  0.83518300  0.48275400  1
  Ni  Ni8  1  0.22219900  0.83155700  0.84240300  1
  Ni  Ni9  1  0.31524700  0.33021900  0.33259600  1
  Ni  Ni10  1  0.30114000  0.35397100  0.65388900  1
  Ni  Ni11  1  0.67706300  0.64932300  0.99194100  1
  Ni  Ni12  1  0.77637900  0.13115900  0.14832600  1
  Cu  Cu13  1  0.26354000  0.81888200  0.15335900  1
  Cu  Cu14  1  0.25366200  0.30089700  0.00000700  1
  Cu  Cu15  1  0.72100500  0.69361200  0.34428700  1
  Cu  Cu16  1  0.70614500  0.70059100  0.65386300  1
  Cu  Cu17  1  0.80571500  0.21007400  0.50049500  1
  Cu  Cu18  1  0.70974100  0.16793700  0.84533900  1
