# generated using pymatgen
data_Cu2NiC5
_symmetry_space_group_name_H-M   'P 1'
_cell_length_a   3.22778428
_cell_length_b   5.61947892
_cell_length_c   5.51337803
_cell_angle_alpha   106.11885442
_cell_angle_beta   93.06423108
_cell_angle_gamma   92.86077418
_symmetry_Int_Tables_number   1
_chemical_formula_structural   Cu2NiC5
_chemical_formula_sum   'Cu2 Ni1 C5'
_cell_volume   95.71669798
_cell_formula_units_Z   1
loop_
 _symmetry_equiv_pos_site_id
 _symmetry_equiv_pos_as_xyz
  1  'x, y, z'
loop_
 _atom_site_type_symbol
 _atom_site_label
 _atom_site_symmetry_multiplicity
 _atom_site_fract_x
 _atom_site_fract_y
 _atom_site_fract_z
 _atom_site_occupancy
  C  C0  1  0.50006800  0.99997800  0.49984900  1
  Ni  Ni1  1  0.00021400  0.49993300  0.49985700  1
  Cu  Cu2  1  0.99977800  0.00009300  0.99999800  1
  Cu  Cu3  1  0.50012800  0.50006300  0.00009500  1
  C  C4  1  0.50545100  0.71447500  0.76631800  1
  C  C5  1  0.03997600  0.29352000  0.78630600  1
  C  C6  1  0.96003700  0.70633000  0.21377600  1
  C  C7  1  0.49434700  0.28562100  0.23381800  1
