# generated using pymatgen
data_Cu4NiC14
_symmetry_space_group_name_H-M   'P 1'
_cell_length_a   5.59581198
_cell_length_b   5.60630187
_cell_length_c   9.39467581
_cell_angle_alpha   106.79700938
_cell_angle_beta   106.76962403
_cell_angle_gamma   91.80314805
_symmetry_Int_Tables_number   1
_chemical_formula_structural   Cu4NiC14
_chemical_formula_sum   'Cu4 Ni1 C14'
_cell_volume   268.02526953
_cell_formula_units_Z   1
loop_
 _symmetry_equiv_pos_site_id
 _symmetry_equiv_pos_as_xyz
  1  'x, y, z'
loop_
 _atom_site_type_symbol
 _atom_site_label
 _atom_site_symmetry_multiplicity
 _atom_site_fract_x
 _atom_site_fract_y
 _atom_site_fract_z
 _atom_site_occupancy
  C  C0  1  0.62696500  0.11999700  0.20858000  1
  C  C1  1  0.41691600  0.90412500  0.79839200  1
  C  C2  1  0.11854800  0.60574600  0.20162100  1
  C  C3  1  0.91817700  0.41165600  0.79140300  1
  Ni  Ni4  1  0.98437500  0.57696000  0.50008600  1
  Cu  Cu5  1  0.03014800  0.00873700  0.01462000  1
  Cu  Cu6  1  0.51535300  0.49398300  0.98513300  1
  Cu  Cu7  1  0.20293400  0.14137300  0.50006200  1
  Cu  Cu8  1  0.65866200  0.88831500  0.50004500  1
  C  C9  1  0.27533900  0.25693100  0.00748200  1
  C  C10  1  0.27767800  0.75384800  0.00546900  1
  C  C11  1  0.77216100  0.24851200  0.99442400  1
  C  C12  1  0.76787000  0.74962000  0.99242500  1
  C  C13  1  0.15303000  0.11924700  0.27771200  1
  C  C14  1  0.91514600  0.80947700  0.68626700  1
  C  C15  1  0.72892800  0.62328300  0.31390400  1
  C  C16  1  0.37549600  0.34239100  0.72224800  1
  C  C17  1  0.85336300  0.23029100  0.50005800  1
  C  C18  1  0.29643400  0.78693600  0.50007100  1
