# generated using pymatgen
data_CuNi4C
_symmetry_space_group_name_H-M   'P 1'
_cell_length_a   8.95915244
_cell_length_b   8.95915244
_cell_length_c   7.62327500
_cell_angle_alpha   90.00000000
_cell_angle_beta   90.00000000
_cell_angle_gamma   150.16974120
_symmetry_Int_Tables_number   1
_chemical_formula_structural   CuNi4C
_chemical_formula_sum   'Cu2 Ni8 C2'
_cell_volume   304.37523202
_cell_formula_units_Z   2
loop_
 _symmetry_equiv_pos_site_id
 _symmetry_equiv_pos_as_xyz
  1  'x, y, z'
loop_
 _atom_site_type_symbol
 _atom_site_label
 _atom_site_symmetry_multiplicity
 _atom_site_fract_x
 _atom_site_fract_y
 _atom_site_fract_z
 _atom_site_occupancy
  C  C0  1  0.12571700  0.87428300  0.75000000  1
  C  C1  1  0.87428300  0.12571700  0.25000000  1
  Ni  Ni2  1  0.31537900  0.68462100  0.95035300  1
  Ni  Ni3  1  0.50000000  0.50000000  0.50000000  1
  Ni  Ni4  1  0.68462100  0.31537900  0.45035300  1
  Ni  Ni5  1  0.68462100  0.31537900  0.04964700  1
  Ni  Ni6  1  0.31537900  0.68462100  0.54964700  1
  Ni  Ni7  1  0.06744000  0.93256000  0.25000000  1
  Ni  Ni8  1  0.93256000  0.06744000  0.75000000  1
  Ni  Ni9  1  0.50000000  0.50000000  0.00000000  1
  Cu  Cu10  1  0.77527300  0.22472700  0.75000000  1
  Cu  Cu11  1  0.22472700  0.77527300  0.25000000  1
