# generated using pymatgen
data_Cu(NiC4)2
_symmetry_space_group_name_H-M   'P 1'
_cell_length_a   6.63832915
_cell_length_b   6.29053527
_cell_length_c   6.63832960
_cell_angle_alpha   61.71847844
_cell_angle_beta   55.39909893
_cell_angle_gamma   61.71847473
_symmetry_Int_Tables_number   1
_chemical_formula_structural   Cu(NiC4)2
_chemical_formula_sum   'Cu1 Ni2 C8'
_cell_volume   192.75694049
_cell_formula_units_Z   1
loop_
 _symmetry_equiv_pos_site_id
 _symmetry_equiv_pos_as_xyz
  1  'x, y, z'
loop_
 _atom_site_type_symbol
 _atom_site_label
 _atom_site_symmetry_multiplicity
 _atom_site_fract_x
 _atom_site_fract_y
 _atom_site_fract_z
 _atom_site_occupancy
  Ni  Ni0  1  0.80717000  0.69283000  0.80717000  1
  Ni  Ni1  1  0.19283000  0.30717000  0.19283000  1
  Cu  Cu2  1  0.00000000  0.00000000  0.00000000  1
  C  C3  1  0.50000000  0.00000000  0.50000000  1
  C  C4  1  0.50000000  0.50000000  0.50000000  1
  C  C5  1  0.26761500  0.76749300  0.73238500  1
  C  C6  1  0.24282200  0.75717800  0.24282200  1
  C  C7  1  0.75717800  0.24282200  0.75717800  1
  C  C8  1  0.26761500  0.23250700  0.73238500  1
  C  C9  1  0.73238500  0.23250700  0.26761500  1
  C  C10  1  0.73238500  0.76749300  0.26761500  1
