# generated using pymatgen
data_Cu5Ni2C19
_symmetry_space_group_name_H-M   'P 1'
_cell_length_a   7.01837200
_cell_length_b   5.10343300
_cell_length_c   17.52236888
_cell_angle_alpha   88.89038045
_cell_angle_beta   90.00000000
_cell_angle_gamma   90.00000000
_symmetry_Int_Tables_number   1
_chemical_formula_structural   Cu5Ni2C19
_chemical_formula_sum   'Cu10 Ni4 C38'
_cell_volume   627.49485815
_cell_formula_units_Z   2
loop_
 _symmetry_equiv_pos_site_id
 _symmetry_equiv_pos_as_xyz
  1  'x, y, z'
loop_
 _atom_site_type_symbol
 _atom_site_label
 _atom_site_symmetry_multiplicity
 _atom_site_fract_x
 _atom_site_fract_y
 _atom_site_fract_z
 _atom_site_occupancy
  C  C0  1  0.32761000  0.26816400  0.96267600  1
  C  C1  1  0.67239000  0.73183600  0.03732400  1
  C  C2  1  0.02436900  0.50000000  0.25000000  1
  C  C3  1  0.67239000  0.26816400  0.46267600  1
  C  C4  1  0.32761000  0.73183600  0.53732400  1
  C  C5  1  0.97563100  0.50000000  0.75000000  1
  Ni  Ni6  1  0.16957300  0.74259100  0.08798300  1
  Ni  Ni7  1  0.16957300  0.25740900  0.41201700  1
  Ni  Ni8  1  0.83042700  0.74259100  0.58798300  1
  Ni  Ni9  1  0.83042700  0.25740900  0.91201700  1
  Cu  Cu10  1  0.87384400  0.78130900  0.41048400  1
  Cu  Cu11  1  0.46671800  0.72384000  0.37627000  1
  Cu  Cu12  1  0.24708600  0.00000000  0.25000000  1
  Cu  Cu13  1  0.46671800  0.27616000  0.12373000  1
  Cu  Cu14  1  0.12615600  0.78130900  0.91048400  1
  Cu  Cu15  1  0.53328200  0.72384000  0.87627000  1
  Cu  Cu16  1  0.75291400  0.00000000  0.75000000  1
  Cu  Cu17  1  0.87384400  0.21869100  0.08951600  1
  Cu  Cu18  1  0.12615600  0.21869100  0.58951600  1
  Cu  Cu19  1  0.53328200  0.27616000  0.62373000  1
  C  C20  1  0.80579700  0.62665700  0.48257500  1
  C  C21  1  0.91193500  0.92907900  0.07245900  1
  C  C22  1  0.38755900  0.10311200  0.06317400  1
  C  C23  1  0.80579700  0.37334300  0.01742500  1
  C  C24  1  0.19420300  0.62665700  0.98257500  1
  C  C25  1  0.61244100  0.89688800  0.93682600  1
  C  C26  1  0.08806500  0.07092100  0.92754100  1
  C  C27  1  0.55473800  0.42972700  0.88969100  1
  C  C28  1  0.98122000  0.63872600  0.86289700  1
  C  C29  1  0.31666000  0.78867500  0.85550300  1
  C  C30  1  0.86577900  0.17108700  0.80290500  1
  C  C31  1  0.61537800  0.80062100  0.79316000  1
  C  C32  1  0.61537800  0.19937900  0.70684000  1
  C  C33  1  0.86577900  0.82891300  0.69709500  1
  C  C34  1  0.31666000  0.21132500  0.64449700  1
  C  C35  1  0.98122000  0.36127400  0.63710300  1
  C  C36  1  0.55473800  0.57027300  0.61030900  1
  C  C37  1  0.01878000  0.36127400  0.13710300  1
  C  C38  1  0.61244100  0.10311200  0.56317400  1
  C  C39  1  0.19420300  0.37334300  0.51742500  1
  C  C40  1  0.08806500  0.92907900  0.57245900  1
  C  C41  1  0.38755900  0.89688800  0.43682600  1
  C  C42  1  0.91193500  0.07092100  0.42754100  1
  C  C43  1  0.44526200  0.42972700  0.38969100  1
  C  C44  1  0.01878000  0.63872600  0.36289700  1
  C  C45  1  0.68334000  0.78867500  0.35550300  1
  C  C46  1  0.13422100  0.17108700  0.30290500  1
  C  C47  1  0.38462200  0.80062100  0.29316000  1
  C  C48  1  0.38462200  0.19937900  0.20684000  1
  C  C49  1  0.13422100  0.82891300  0.19709500  1
  C  C50  1  0.68334000  0.21132500  0.14449700  1
  C  C51  1  0.44526200  0.57027300  0.11030900  1
