# generated using pymatgen
data_Cu5Ni2C33
_symmetry_space_group_name_H-M   'P 1'
_cell_length_a   8.99190604
_cell_length_b   8.98666865
_cell_length_c   22.40851884
_cell_angle_alpha   90.40670803
_cell_angle_beta   89.50887439
_cell_angle_gamma   120.11603953
_symmetry_Int_Tables_number   1
_chemical_formula_structural   Cu5Ni2C33
_chemical_formula_sum   'Cu15 Ni6 C99'
_cell_volume   1566.27148270
_cell_formula_units_Z   3
loop_
 _symmetry_equiv_pos_site_id
 _symmetry_equiv_pos_as_xyz
  1  'x, y, z'
loop_
 _atom_site_type_symbol
 _atom_site_label
 _atom_site_symmetry_multiplicity
 _atom_site_fract_x
 _atom_site_fract_y
 _atom_site_fract_z
 _atom_site_occupancy
  C  C0  1  0.63833873  0.01066838  0.24815095  1
  C  C1  1  0.36764572  0.35828398  0.25080527  1
  C  C2  1  0.99333891  0.62949295  0.24829659  1
  C  C3  1  0.99546370  0.36133222  0.74984259  1
  C  C4  1  0.29916271  0.34044089  0.58066433  1
  C  C5  1  0.66274388  0.96247791  0.58093474  1
  C  C6  1  0.66439700  0.70020701  0.07795685  1
  C  C7  1  0.02675001  0.33604827  0.08107489  1
  C  C8  1  0.95901991  0.66528771  0.91438024  1
  C  C9  1  0.70929379  0.03557867  0.91809872  1
  C  C10  1  0.33025483  0.30132001  0.91491763  1
  C  C11  1  0.70021791  0.67259333  0.41660780  1
  C  C12  1  0.00644196  0.00763186  0.49494372  1
  C  C13  1  0.99525750  0.99692036  0.99678706  1
  C  C14  1  0.66457908  0.33761041  0.83271290  1
  C  C15  1  0.66228080  0.32335849  0.33182244  1
  C  C16  1  0.33029341  0.68039465  0.16191943  1
  C  C17  1  0.33136645  0.67371627  0.66216226  1
  C  C18  1  0.99758686  0.99314141  0.64635766  1
  C  C19  1  0.99415235  0.99228506  0.14781043  1
  C  C20  1  0.66482876  0.33436455  0.68729203  1
  C  C21  1  0.65578681  0.32058295  0.47987868  1
  C  C22  1  0.34336012  0.67048131  0.31370130  1
  C  C23  1  0.33533493  0.65446932  0.80967819  1
  Ni  Ni24  1  0.00398348  0.02007332  0.35069025  1
  Ni  Ni25  1  0.98614677  0.00018528  0.84747412  1
  Ni  Ni26  1  0.67998596  0.32791294  0.18629332  1
  Ni  Ni27  1  0.69776307  0.35122952  0.98273751  1
  Ni  Ni28  1  0.33468248  0.67491303  0.01766613  1
  Ni  Ni29  1  0.34112739  0.66242860  0.52105780  1
  Cu  Cu30  1  0.29055557  0.00528132  0.25207054  1
  Cu  Cu31  1  0.71482279  0.70580989  0.25315978  1
  Cu  Cu32  1  0.99756888  0.28974065  0.25056363  1
  Cu  Cu33  1  0.28656711  0.27623083  0.75249238  1
  Cu  Cu34  1  0.00086182  0.71508365  0.75385158  1
  Cu  Cu35  1  0.70818790  0.99938343  0.75143727  1
  Cu  Cu36  1  0.96361061  0.34260730  0.58228162  1
  Cu  Cu37  1  0.37098058  0.03189969  0.58362226  1
  Cu  Cu38  1  0.66796442  0.62349511  0.58163719  1
  Cu  Cu39  1  0.96292506  0.62298851  0.08318616  1
  Cu  Cu40  1  0.65611928  0.04221125  0.08199778  1
  Cu  Cu41  1  0.62598021  0.66463218  0.92021646  1
  Cu  Cu42  1  0.04450316  0.37338312  0.91923204  1
  Cu  Cu43  1  0.63105081  0.95769257  0.41909792  1
  Cu  Cu44  1  0.32360729  0.36748964  0.41915447  1
  C  C45  1  0.37840174  0.33095476  0.08297559  1
  C  C46  1  0.33366834  0.95684918  0.91754572  1
  C  C47  1  0.04572589  0.66899191  0.41783178  1
  C  C48  1  0.19823709  0.03721960  0.30783790  1
  C  C49  1  0.83436606  0.79236867  0.31018961  1
  C  C50  1  0.95471359  0.16326284  0.30567578  1
  C  C51  1  0.20258400  0.16997798  0.81264196  1
  C  C52  1  0.97001734  0.79759796  0.81324089  1
  C  C53  1  0.82719038  0.04442063  0.80990403  1
  C  C54  1  0.79751000  0.96859741  0.69173586  1
  C  C55  1  0.16562637  0.20016795  0.69272877  1
  C  C56  1  0.02939834  0.83542960  0.69439557  1
  C  C57  1  0.79609298  0.83306419  0.19306247  1
  C  C58  1  0.03974492  0.20696470  0.19027028  1
  C  C59  1  0.16151510  0.96615129  0.19307587  1
  C  C60  1  0.86740090  0.36181013  0.64214639  1
  C  C61  1  0.50118389  0.13401595  0.63935699  1
  C  C62  1  0.63708998  0.49690232  0.63861416  1
  C  C63  1  0.87412161  0.50666481  0.14250256  1
  C  C64  1  0.63407986  0.12666578  0.14332331  1
  C  C65  1  0.48193085  0.35880994  0.13726688  1
  C  C66  1  0.45458442  0.30386458  0.02834044  1
  C  C67  1  0.83764502  0.55299616  0.02459107  1
  C  C68  1  0.70028385  0.16560220  0.02289867  1
  C  C69  1  0.46423346  0.16715064  0.52652536  1
  C  C70  1  0.69943832  0.53441543  0.52256310  1
  C  C71  1  0.82703530  0.30061158  0.52695063  1
  C  C72  1  0.53735606  0.70360490  0.97731734  1
  C  C73  1  0.16759102  0.46534879  0.97668911  1
  C  C74  1  0.30150486  0.84777746  0.97094632  1
  C  C75  1  0.53650191  0.83589712  0.47609509  1
  C  C76  1  0.30384593  0.46322432  0.47725782  1
  C  C77  1  0.15202829  0.69119570  0.47042873  1
  C  C78  1  0.12531610  0.64101641  0.36189082  1
  C  C79  1  0.50360321  0.86635185  0.35896265  1
  C  C80  1  0.36122975  0.49965711  0.35966347  1
  C  C81  1  0.13495685  0.50067807  0.86001579  1
  C  C82  1  0.36384282  0.87662523  0.86381265  1
  C  C83  1  0.49667623  0.63689383  0.86199812  1
  C  C84  1  0.02186252  0.81729620  0.41186994  1
  C  C85  1  0.81292639  0.96401695  0.40966216  1
  C  C86  1  0.16109179  0.17868312  0.41049380  1
  C  C87  1  0.02741498  0.18342234  0.91190661  1
  C  C88  1  0.17903686  0.97467750  0.91262752  1
  C  C89  1  0.81711538  0.83535530  0.91169992  1
  C  C90  1  0.97344061  0.16390458  0.58939684  1
  C  C91  1  0.19090783  0.03328705  0.58968099  1
  C  C92  1  0.83691437  0.81573429  0.58875471  1
  C  C93  1  0.97671014  0.81557804  0.09037302  1
  C  C94  1  0.83853287  0.02749858  0.08937638  1
  C  C95  1  0.19985223  0.17688511  0.08774242  1
  C  C96  1  0.69406786  0.17243170  0.74257992  1
  C  C97  1  0.48034131  0.31012211  0.74370648  1
  C  C98  1  0.83611553  0.52000134  0.74362375  1
  C  C99  1  0.68169466  0.51386333  0.24086108  1
  C  C100  1  0.83160968  0.31510510  0.24462986  1
  C  C101  1  0.48089067  0.17184176  0.24220271  1
  C  C102  1  0.63238136  0.48374814  0.92376161  1
  C  C103  1  0.85233889  0.35620678  0.92068724  1
  C  C104  1  0.48910988  0.13025657  0.92284119  1
  C  C105  1  0.64590710  0.14853003  0.42230785  1
  C  C106  1  0.51156335  0.36928187  0.42180110  1
  C  C107  1  0.87076206  0.50978664  0.42079094  1
  C  C108  1  0.35733813  0.48565028  0.07921918  1
  C  C109  1  0.15002724  0.63615916  0.07542904  1
  C  C110  1  0.49848862  0.84252325  0.07669321  1
  C  C111  1  0.36273860  0.85108202  0.57531964  1
  C  C112  1  0.49809546  0.64225703  0.57951391  1
  C  C113  1  0.15414931  0.50608201  0.57664020  1
  C  C114  1  0.30480679  0.82783231  0.25686294  1
  C  C115  1  0.52277402  0.69367473  0.25619457  1
  C  C116  1  0.17157634  0.48227439  0.25727243  1
  C  C117  1  0.30161776  0.47028305  0.75660687  1
  C  C118  1  0.16880346  0.68678677  0.75826686  1
  C  C119  1  0.51713260  0.83002172  0.75861668  1
