# generated using pymatgen
data_CuNiC9
_symmetry_space_group_name_H-M   'P 1'
_cell_length_a   6.00567784
_cell_length_b   6.00567784
_cell_length_c   6.16475678
_cell_angle_alpha   66.82849004
_cell_angle_beta   66.82849004
_cell_angle_gamma   60.02477484
_symmetry_Int_Tables_number   1
_chemical_formula_structural   CuNiC9
_chemical_formula_sum   'Cu1 Ni1 C9'
_cell_volume   171.57526287
_cell_formula_units_Z   1
loop_
 _symmetry_equiv_pos_site_id
 _symmetry_equiv_pos_as_xyz
  1  'x, y, z'
loop_
 _atom_site_type_symbol
 _atom_site_label
 _atom_site_symmetry_multiplicity
 _atom_site_fract_x
 _atom_site_fract_y
 _atom_site_fract_z
 _atom_site_occupancy
  C  C0  1  0.17868482  0.17868482  0.46225582  1
  C  C1  1  0.80493431  0.80493431  0.69843328  1
  Ni  Ni2  1  0.41278025  0.41278025  0.78619704  1
  Cu  Cu3  1  0.00935981  0.00935981  -0.00288645  1
  C  C4  1  0.56713377  0.56713377  0.26666055  1
  C  C5  1  0.74215607  0.21726542  0.27403106  1
  C  C6  1  0.77322482  0.20588504  0.77273523  1
  C  C7  1  0.73187535  0.73187535  0.29311477  1
  C  C8  1  0.20588504  0.77322482  0.77273523  1
  C  C9  1  0.21726542  0.74215607  0.27403106  1
  C  C10  1  0.22574834  0.22574834  0.80745441  1
