# generated using pymatgen
data_Cu2NiC18
_symmetry_space_group_name_H-M   'P 1'
_cell_length_a   9.16446527
_cell_length_b   9.20487608
_cell_length_c   22.37372290
_cell_angle_alpha   89.60078520
_cell_angle_beta   90.00000000
_cell_angle_gamma   119.85488092
_symmetry_Int_Tables_number   1
_chemical_formula_structural   Cu2NiC18
_chemical_formula_sum   'Cu12 Ni6 C108'
_cell_volume   1636.86614940
_cell_formula_units_Z   6
loop_
 _symmetry_equiv_pos_site_id
 _symmetry_equiv_pos_as_xyz
  1  'x, y, z'
loop_
 _atom_site_type_symbol
 _atom_site_label
 _atom_site_symmetry_multiplicity
 _atom_site_fract_x
 _atom_site_fract_y
 _atom_site_fract_z
 _atom_site_occupancy
  C  C0  1  0.63890552  0.01987289  0.24707252  1
  C  C1  1  0.37454676  0.35453520  0.24834183  1
  C  C2  1  0.98532961  0.62395647  0.24242524  1
  C  C3  1  0.63862686  0.62395647  0.74242524  1
  C  C4  1  0.97998844  0.35453520  0.74834183  1
  C  C5  1  0.38096737  0.01987289  0.74707252  1
  C  C6  1  0.31191221  0.35344607  0.58185563  1
  C  C7  1  0.03808267  0.69186612  0.57862364  1
  C  C8  1  0.64577631  0.94862161  0.57761030  1
  C  C9  1  0.30284630  0.94862161  0.07761030  1
  C  C10  1  0.65378446  0.69186612  0.07862364  1
  C  C11  1  0.04153486  0.35344607  0.08185563  1
  C  C12  1  0.97995852  0.68915204  0.91620643  1
  C  C13  1  0.70705235  0.02728092  0.90962485  1
  C  C14  1  0.31493998  0.28505789  0.91217451  1
  C  C15  1  0.97011691  0.28505789  0.41217451  1
  C  C16  1  0.32022758  0.02728092  0.40962485  1
  C  C17  1  0.70919253  0.68915204  0.41620643  1
  C  C18  1  0.99252685  0.99554034  0.49210021  1
  C  C19  1  0.00301350  0.99554034  0.99210021  1
  C  C20  1  0.66328827  0.32498967  0.82564225  1
  C  C21  1  0.66170240  0.32498967  0.32564225  1
  C  C22  1  0.32663239  0.66758351  0.15930371  1
  C  C23  1  0.34095013  0.66758351  0.65930371  1
  C  C24  1  0.99245228  0.99515057  0.64903401  1
  C  C25  1  0.00269829  0.99515057  0.14903401  1
  C  C26  1  0.66689699  0.33413102  0.98262407  1
  C  C27  1  0.66723503  0.33413102  0.48262407  1
  C  C28  1  0.33657207  0.67520003  0.31600009  1
  C  C29  1  0.33862695  0.67520003  0.81600009  1
  C  C30  1  0.99966724  0.00090769  0.34553252  1
  C  C31  1  0.00124044  0.00090769  0.84553252  1
  C  C32  1  0.66451479  0.32955746  0.67917826  1
  C  C33  1  0.66504367  0.32955746  0.17917826  1
  C  C34  1  0.32018938  0.66948695  0.01244623  1
  C  C35  1  0.34929657  0.66948695  0.51244623  1
  Ni  Ni36  1  0.30037141  0.00475739  0.25316328  1
  Ni  Ni37  1  0.70438598  0.00475739  0.75316328  1
  Ni  Ni38  1  0.66418785  0.62705471  0.58641354  1
  Ni  Ni39  1  0.96286786  0.62705471  0.08641354  1
  Ni  Ni40  1  0.32943246  0.96712904  0.91855292  1
  Ni  Ni41  1  0.63769558  0.96712904  0.41855292  1
  Cu  Cu42  1  0.70369213  0.70322486  0.25268405  1
  Cu  Cu43  1  0.00054056  0.29519772  0.25183872  1
  Cu  Cu44  1  0.29465716  0.29519772  0.75183872  1
  Cu  Cu45  1  0.99953272  0.70322486  0.75268405  1
  Cu  Cu46  1  0.96480282  0.33574847  0.58537189  1
  Cu  Cu47  1  0.36954724  0.03653625  0.58576004  1
  Cu  Cu48  1  0.66699001  0.03653625  0.08576004  1
  Cu  Cu49  1  0.37094665  0.33574847  0.08537189  1
  Cu  Cu50  1  0.62599897  0.66561876  0.92006223  1
  Cu  Cu51  1  0.03919235  0.37126354  0.91906094  1
  Cu  Cu52  1  0.33207019  0.37126354  0.41906094  1
  Cu  Cu53  1  0.03961879  0.66561876  0.42006223  1
  C  C54  1  0.21455441  0.03247816  0.31163089  1
  C  C55  1  0.80889474  0.78516059  0.30815995  1
  C  C56  1  0.97444179  0.18903758  0.30788968  1
  C  C57  1  0.21459578  0.18903758  0.80788968  1
  C  C58  1  0.97626585  0.78516059  0.80815995  1
  C  C59  1  0.81792375  0.03247816  0.81163089  1
  C  C60  1  0.79484217  0.97206051  0.69398783  1
  C  C61  1  0.18353718  0.20832576  0.69568313  1
  C  C62  1  0.03070292  0.81795097  0.69624145  1
  C  C63  1  0.78724805  0.81795097  0.19624145  1
  C  C64  1  0.02478857  0.20832576  0.19568313  1
  C  C65  1  0.17721834  0.97206051  0.19398783  1
  C  C66  1  0.88329433  0.35823088  0.64141927  1
  C  C67  1  0.47676966  0.11411755  0.64130267  1
  C  C68  1  0.63911639  0.51406208  0.64493568  1
  C  C69  1  0.87494669  0.51406208  0.14493568  1
  C  C70  1  0.63734890  0.11411755  0.14130267  1
  C  C71  1  0.47493754  0.35823088  0.14141927  1
  C  C72  1  0.45500762  0.30384106  0.02962000  1
  C  C73  1  0.84292292  0.53891631  0.02669908  1
  C  C74  1  0.69138966  0.14993313  0.02958243  1
  C  C75  1  0.45854447  0.14993313  0.52958243  1
  C  C76  1  0.69599439  0.53891631  0.52669908  1
  C  C77  1  0.84883443  0.30384106  0.52962000  1
  C  C78  1  0.54092182  0.68597929  0.97547818  1
  C  C79  1  0.14590563  0.45072199  0.97466042  1
  C  C80  1  0.29938207  0.85433564  0.97754903  1
  C  C81  1  0.55495256  0.85433564  0.47754903  1
  C  C82  1  0.30481537  0.45072199  0.47466042  1
  C  C83  1  0.14505647  0.68597929  0.47547818  1
  C  C84  1  0.12418636  0.63812042  0.36340570  1
  C  C85  1  0.51185501  0.87474755  0.36001518  1
  C  C86  1  0.35874475  0.48308693  0.36259420  1
  C  C87  1  0.12434119  0.48308693  0.86259420  1
  C  C88  1  0.36289154  0.87474755  0.86001518  1
  C  C89  1  0.51393306  0.63812042  0.86340570  1
  C  C90  1  0.01574668  0.81845696  0.41367314  1
  C  C91  1  0.82451209  0.98928315  0.41122214  1
  C  C92  1  0.18101626  0.19370407  0.41408121  1
  C  C93  1  0.01268781  0.19370407  0.91408121  1
  C  C94  1  0.16477105  0.98928315  0.91122214  1
  C  C95  1  0.80271028  0.81845696  0.91367314  1
  C  C96  1  0.98236339  0.17443284  0.58848873  1
  C  C97  1  0.19618534  0.03125435  0.58834005  1
  C  C98  1  0.84084550  0.81477908  0.58772789  1
  C  C99  1  0.97393358  0.81477908  0.08772789  1
  C  C100  1  0.83506902  0.03125435  0.08834005  1
  C  C101  1  0.19206945  0.17443284  0.08848873  1
  C  C102  1  0.67802515  0.16627152  0.74570907  1
  C  C103  1  0.47275575  0.32006599  0.74670573  1
  C  C104  1  0.84605551  0.52763758  0.74658095  1
  C  C105  1  0.68158307  0.52763758  0.24658095  1
  C  C106  1  0.84731124  0.32006599  0.24670573  1
  C  C107  1  0.48824737  0.16627152  0.24570907  1
  C  C108  1  0.63947468  0.50194078  0.92189655  1
  C  C109  1  0.86287121  0.36131001  0.92224141  1
  C  C110  1  0.50506022  0.15304726  0.92058757  1
  C  C111  1  0.64798804  0.15304726  0.42058757  1
  C  C112  1  0.49843980  0.36131001  0.42224141  1
  C  C113  1  0.86246710  0.50194078  0.42189655  1
  C  C114  1  0.35127308  0.49077314  0.07767338  1
  C  C115  1  0.15078975  0.65062502  0.08166053  1
  C  C116  1  0.51822685  0.85790562  0.07943337  1
  C  C117  1  0.33967777  0.85790562  0.57943337  1
  C  C118  1  0.49983427  0.65062502  0.58166053  1
  C  C119  1  0.13949906  0.49077314  0.57767338  1
  C  C120  1  0.30837583  0.82696412  0.25426683  1
  C  C121  1  0.52502459  0.68742179  0.25532879  1
  C  C122  1  0.16624559  0.47015312  0.25482400  1
  C  C123  1  0.30390653  0.47015312  0.75482400  1
  C  C124  1  0.16239620  0.68742179  0.75532879  1
  C  C125  1  0.51858729  0.82696412  0.75426683  1
