# generated using pymatgen
data_Cu12NiC6
_symmetry_space_group_name_H-M   'P 1'
_cell_length_a   8.93699903
_cell_length_b   8.92856650
_cell_length_c   22.51944186
_cell_angle_alpha   89.69286950
_cell_angle_beta   90.00000000
_cell_angle_gamma   120.03124690
_symmetry_Int_Tables_number   1
_chemical_formula_structural   Cu12NiC6
_chemical_formula_sum   'Cu72 Ni6 C36'
_cell_volume   1555.66667277
_cell_formula_units_Z   6
loop_
 _symmetry_equiv_pos_site_id
 _symmetry_equiv_pos_as_xyz
  1  'x, y, z'
loop_
 _atom_site_type_symbol
 _atom_site_label
 _atom_site_symmetry_multiplicity
 _atom_site_fract_x
 _atom_site_fract_y
 _atom_site_fract_z
 _atom_site_occupancy
  C  C0  1  0.99309249  0.62948892  0.24121779  1
  C  C1  1  0.63639643  0.62948892  0.74121779  1
  C  C2  1  0.65975949  0.96282192  0.57455079  1
  C  C3  1  0.30306343  0.96282192  0.07455079  1
  C  C4  1  0.32642549  0.29615592  0.90788479  1
  C  C5  1  0.96972943  0.29615592  0.40788479  1
  C  C6  1  0.99657632  0.96818978  0.49050281  1
  C  C7  1  0.97161346  0.96818978  0.99050281  1
  C  C8  1  0.66324332  0.30152278  0.82383581  1
  C  C9  1  0.63828046  0.30152278  0.32383581  1
  C  C10  1  0.32990932  0.63485678  0.15716981  1
  C  C11  1  0.30494646  0.63485678  0.65716981  1
  C  C12  1  0.00250736  0.01099567  0.64747525  1
  C  C13  1  0.00848831  0.01099567  0.14747525  1
  C  C14  1  0.66917436  0.34432867  0.98080825  1
  C  C15  1  0.67515531  0.34432867  0.48080825  1
  C  C16  1  0.33584036  0.67766267  0.31414225  1
  C  C17  1  0.34182131  0.67766267  0.81414225  1
  C  C18  1  0.00020735  0.99652752  0.34900687  1
  C  C19  1  0.99632017  0.99652752  0.84900687  1
  C  C20  1  0.66687435  0.32986052  0.68233987  1
  C  C21  1  0.66298717  0.32986052  0.18233987  1
  C  C22  1  0.33354035  0.66319452  0.01567387  1
  C  C23  1  0.32965317  0.66319452  0.51567387  1
  C  C24  1  0.29740520  0.00852112  0.25098199  1
  C  C25  1  0.99734095  0.29469959  0.25482383  1
  C  C26  1  0.29735864  0.29469959  0.75482383  1
  C  C27  1  0.71111592  0.00852112  0.75098199  1
  C  C28  1  0.96407220  0.34185412  0.58431499  1
  C  C29  1  0.66400795  0.62803259  0.58815683  1
  C  C30  1  0.96402564  0.62803259  0.08815683  1
  C  C31  1  0.37778292  0.34185412  0.08431499  1
  C  C32  1  0.63073820  0.67518812  0.91764899  1
  C  C33  1  0.33067395  0.96136659  0.92149083  1
  C  C34  1  0.63069164  0.96136659  0.42149083  1
  C  C35  1  0.04444892  0.67518812  0.41764899  1
  Ni  Ni36  1  0.70453293  0.70750352  0.25096090  1
  Ni  Ni37  1  0.00297059  0.70750352  0.75096090  1
  Ni  Ni38  1  0.37119993  0.04083652  0.58429390  1
  Ni  Ni39  1  0.66963759  0.04083652  0.08429390  1
  Ni  Ni40  1  0.03786593  0.37417052  0.91762790  1
  Ni  Ni41  1  0.33630359  0.37417052  0.41762790  1
  Cu  Cu42  1  0.20664004  0.02322614  0.30504263  1
  Cu  Cu43  1  0.80647756  0.78750400  0.30424385  1
  Cu  Cu44  1  0.97882425  0.19666536  0.31257964  1
  Cu  Cu45  1  0.21784111  0.19666536  0.81257964  1
  Cu  Cu46  1  0.98102644  0.78750400  0.80424385  1
  Cu  Cu47  1  0.81658609  0.02322614  0.80504263  1
  Cu  Cu48  1  0.79256181  0.97237321  0.69413704  1
  Cu  Cu49  1  0.18053840  0.19647931  0.70025603  1
  Cu  Cu50  1  0.02440862  0.81456001  0.69681093  1
  Cu  Cu51  1  0.79015139  0.81456001  0.19681093  1
  Cu  Cu52  1  0.01594091  0.19647931  0.20025603  1
  Cu  Cu53  1  0.17981140  0.97237321  0.19413704  1
  Cu  Cu54  1  0.87330704  0.35655914  0.63837563  1
  Cu  Cu55  1  0.47314456  0.12083700  0.63757685  1
  Cu  Cu56  1  0.64549125  0.52999836  0.64591264  1
  Cu  Cu57  1  0.88450811  0.52999836  0.14591264  1
  Cu  Cu58  1  0.64769344  0.12083700  0.13757685  1
  Cu  Cu59  1  0.48325309  0.35655914  0.13837563  1
  Cu  Cu60  1  0.45922881  0.30570621  0.02747004  1
  Cu  Cu61  1  0.84720540  0.52981231  0.03358903  1
  Cu  Cu62  1  0.69107562  0.14789301  0.03014393  1
  Cu  Cu63  1  0.45681839  0.14789301  0.53014393  1
  Cu  Cu64  1  0.68260791  0.52981231  0.53358903  1
  Cu  Cu65  1  0.84647840  0.30570621  0.52747004  1
  Cu  Cu66  1  0.53997304  0.68989314  0.97170963  1
  Cu  Cu67  1  0.13981056  0.45417100  0.97091085  1
  Cu  Cu68  1  0.31215725  0.86333236  0.97924664  1
  Cu  Cu69  1  0.55117411  0.86333236  0.47924664  1
  Cu  Cu70  1  0.31435944  0.45417100  0.47091085  1
  Cu  Cu71  1  0.14991909  0.68989314  0.47170963  1
  Cu  Cu72  1  0.12589481  0.63904021  0.36080404  1
  Cu  Cu73  1  0.51387140  0.86314631  0.36692303  1
  Cu  Cu74  1  0.35774162  0.48122701  0.36347793  1
  Cu  Cu75  1  0.12348439  0.48122701  0.86347793  1
  Cu  Cu76  1  0.34927391  0.86314631  0.86692303  1
  Cu  Cu77  1  0.51314440  0.63904021  0.86080404  1
  Cu  Cu78  1  0.01528566  0.82693530  0.40948935  1
  Cu  Cu79  1  0.81573097  0.99509495  0.41425749  1
  Cu  Cu80  1  0.18301112  0.20130239  0.41233413  1
  Cu  Cu81  1  0.01829127  0.20130239  0.91233413  1
  Cu  Cu82  1  0.17936398  0.99509495  0.91425749  1
  Cu  Cu83  1  0.81164964  0.82693530  0.90948935  1
  Cu  Cu84  1  0.97156815  0.16768945  0.58880978  1
  Cu  Cu85  1  0.19713296  0.02587405  0.58766360  1
  Cu  Cu86  1  0.83500593  0.81106970  0.58940610  1
  Cu  Cu87  1  0.97606377  0.81106970  0.08940610  1
  Cu  Cu88  1  0.82874109  0.02587405  0.08766360  1
  Cu  Cu89  1  0.19612130  0.16768945  0.08880978  1
  Cu  Cu90  1  0.68195266  0.16026830  0.74282235  1
  Cu  Cu91  1  0.48239797  0.32842795  0.74759049  1
  Cu  Cu92  1  0.84967812  0.53463539  0.74566713  1
  Cu  Cu93  1  0.68495827  0.53463539  0.24566713  1
  Cu  Cu94  1  0.84603098  0.32842795  0.24759049  1
  Cu  Cu95  1  0.47831664  0.16026830  0.24282235  1
  Cu  Cu96  1  0.63823515  0.50102245  0.92214278  1
  Cu  Cu97  1  0.86379996  0.35920705  0.92099660  1
  Cu  Cu98  1  0.50167293  0.14440270  0.92273910  1
  Cu  Cu99  1  0.64273077  0.14440270  0.42273910  1
  Cu  Cu100  1  0.49540809  0.35920705  0.42099660  1
  Cu  Cu101  1  0.86278830  0.50102245  0.42214278  1
  Cu  Cu102  1  0.34861866  0.49360230  0.07615635  1
  Cu  Cu103  1  0.14906397  0.66176195  0.08092449  1
  Cu  Cu104  1  0.51634412  0.86796939  0.07900113  1
  Cu  Cu105  1  0.35162427  0.86796939  0.57900113  1
  Cu  Cu106  1  0.51269698  0.66176195  0.58092449  1
  Cu  Cu107  1  0.14498264  0.49360230  0.57615635  1
  Cu  Cu108  1  0.30490115  0.83435645  0.25547678  1
  Cu  Cu109  1  0.53046596  0.69254105  0.25433060  1
  Cu  Cu110  1  0.16833893  0.47773670  0.25607310  1
  Cu  Cu111  1  0.30939677  0.47773670  0.75607310  1
  Cu  Cu112  1  0.16207409  0.69254105  0.75433060  1
  Cu  Cu113  1  0.52945430  0.83435645  0.75547678  1
