# generated using pymatgen
data_Cu2NiC10
_symmetry_space_group_name_H-M   'P 1'
_cell_length_a   5.58471888
_cell_length_b   5.58121465
_cell_length_c   6.45405600
_cell_angle_alpha   90.00000000
_cell_angle_beta   90.00000000
_cell_angle_gamma   66.75046043
_symmetry_Int_Tables_number   1
_chemical_formula_structural   Cu2NiC10
_chemical_formula_sum   'Cu2 Ni1 C10'
_cell_volume   184.83367695
_cell_formula_units_Z   1
loop_
 _symmetry_equiv_pos_site_id
 _symmetry_equiv_pos_as_xyz
  1  'x, y, z'
loop_
 _atom_site_type_symbol
 _atom_site_label
 _atom_site_symmetry_multiplicity
 _atom_site_fract_x
 _atom_site_fract_y
 _atom_site_fract_z
 _atom_site_occupancy
  C  C0  1  0.99870000  0.99952100  0.99522200  1
  C  C1  1  0.99870000  0.99952100  0.50477800  1
  Ni  Ni2  1  0.64922100  0.65126600  0.25000000  1
  Cu  Cu3  1  0.63985700  0.64043200  0.75000000  1
  Cu  Cu4  1  0.35730500  0.35834600  0.25000000  1
  C  C5  1  0.26990900  0.69293400  0.25000000  1
  C  C6  1  0.32193400  0.76344800  0.75000000  1
  C  C7  1  0.74222400  0.74313900  0.53047800  1
  C  C8  1  0.26292300  0.26346000  0.04067200  1
  C  C9  1  0.26292300  0.26346000  0.45932800  1
  C  C10  1  0.74222400  0.74313900  0.96952200  1
  C  C11  1  0.69156400  0.27146800  0.25000000  1
  C  C12  1  0.76251700  0.32236600  0.75000000  1
