# generated using pymatgen
data_CuNiC5
_symmetry_space_group_name_H-M   'P 1'
_cell_length_a   8.47732300
_cell_length_b   10.02338100
_cell_length_c   19.38196200
_cell_angle_alpha   90.00000000
_cell_angle_beta   90.00000000
_cell_angle_gamma   90.00000000
_symmetry_Int_Tables_number   1
_chemical_formula_structural   CuNiC5
_chemical_formula_sum   'Cu16 Ni16 C80'
_cell_volume   1646.91318800
_cell_formula_units_Z   16
loop_
 _symmetry_equiv_pos_site_id
 _symmetry_equiv_pos_as_xyz
  1  'x, y, z'
loop_
 _atom_site_type_symbol
 _atom_site_label
 _atom_site_symmetry_multiplicity
 _atom_site_fract_x
 _atom_site_fract_y
 _atom_site_fract_z
 _atom_site_occupancy
  C  C0  1  0.12343500  0.31801200  0.38109300  1
  C  C1  1  0.62343500  0.18198800  0.61890700  1
  C  C2  1  0.87656500  0.81801200  0.11890700  1
  C  C3  1  0.37656500  0.68198800  0.88109300  1
  C  C4  1  0.87656500  0.68198800  0.61890700  1
  C  C5  1  0.37656500  0.81801200  0.38109300  1
  C  C6  1  0.12343500  0.18198800  0.88109300  1
  C  C7  1  0.62343500  0.31801200  0.11890700  1
  C  C8  1  0.61646200  0.18025400  0.37535900  1
  C  C9  1  0.11646200  0.31974600  0.62464100  1
  C  C10  1  0.38353800  0.68025400  0.12464100  1
  C  C11  1  0.88353800  0.81974600  0.87535900  1
  C  C12  1  0.38353800  0.81974600  0.62464100  1
  C  C13  1  0.88353800  0.68025400  0.37535900  1
  C  C14  1  0.61646200  0.31974600  0.87535900  1
  C  C15  1  0.11646200  0.18025400  0.12464100  1
  Ni  Ni16  1  0.76969300  0.06337500  0.22466300  1
  Ni  Ni17  1  0.26969300  0.43662500  0.77533700  1
  Ni  Ni18  1  0.23030700  0.56337500  0.27533700  1
  Ni  Ni19  1  0.73030700  0.93662500  0.72466300  1
  Ni  Ni20  1  0.23030700  0.93662500  0.77533700  1
  Ni  Ni21  1  0.73030700  0.56337500  0.22466300  1
  Ni  Ni22  1  0.76969300  0.43662500  0.72466300  1
  Ni  Ni23  1  0.26969300  0.06337500  0.27533700  1
  Ni  Ni24  1  0.91017600  0.09791800  0.49868500  1
  Ni  Ni25  1  0.41017600  0.40208200  0.50131500  1
  Ni  Ni26  1  0.08982400  0.59791800  0.00131500  1
  Ni  Ni27  1  0.58982400  0.90208200  0.99868500  1
  Ni  Ni28  1  0.08982400  0.90208200  0.50131500  1
  Ni  Ni29  1  0.58982400  0.59791800  0.49868500  1
  Ni  Ni30  1  0.91017600  0.40208200  0.99868500  1
  Ni  Ni31  1  0.41017600  0.09791800  0.00131500  1
  Cu  Cu32  1  0.51667400  0.01891100  0.20648300  1
  Cu  Cu33  1  0.01667400  0.48108900  0.79351700  1
  Cu  Cu34  1  0.48332600  0.51891100  0.29351700  1
  Cu  Cu35  1  0.98332600  0.98108900  0.70648300  1
  Cu  Cu36  1  0.48332600  0.98108900  0.79351700  1
  Cu  Cu37  1  0.98332600  0.51891100  0.20648300  1
  Cu  Cu38  1  0.51667400  0.48108900  0.70648300  1
  Cu  Cu39  1  0.01667400  0.01891100  0.29351700  1
  Cu  Cu40  1  0.75621100  0.92223000  0.49715500  1
  Cu  Cu41  1  0.25621100  0.57777000  0.50284500  1
  Cu  Cu42  1  0.24378900  0.42223000  0.00284500  1
  Cu  Cu43  1  0.74378900  0.07777000  0.99715500  1
  Cu  Cu44  1  0.24378900  0.07777000  0.50284500  1
  Cu  Cu45  1  0.74378900  0.42223000  0.49715500  1
  Cu  Cu46  1  0.75621100  0.57777000  0.99715500  1
  Cu  Cu47  1  0.25621100  0.92223000  0.00284500  1
  C  C48  1  0.57811000  0.89286100  0.17999700  1
  C  C49  1  0.07811000  0.60713900  0.82000300  1
  C  C50  1  0.42189000  0.39286100  0.32000300  1
  C  C51  1  0.92189000  0.10713900  0.67999700  1
  C  C52  1  0.42189000  0.10713900  0.82000300  1
  C  C53  1  0.92189000  0.39286100  0.17999700  1
  C  C54  1  0.57811000  0.60713900  0.67999700  1
  C  C55  1  0.07811000  0.89286100  0.32000300  1
  C  C56  1  0.42119200  0.09656000  0.15847500  1
  C  C57  1  0.92119200  0.40344000  0.84152500  1
  C  C58  1  0.57880800  0.59656000  0.34152500  1
  C  C59  1  0.07880800  0.90344000  0.65847500  1
  C  C60  1  0.57880800  0.90344000  0.84152500  1
  C  C61  1  0.07880800  0.59656000  0.15847500  1
  C  C62  1  0.42119200  0.40344000  0.65847500  1
  C  C63  1  0.92119200  0.09656000  0.34152500  1
  C  C64  1  0.43487800  0.00172000  0.27422600  1
  C  C65  1  0.93487800  0.49827900  0.72577400  1
  C  C66  1  0.56512200  0.50172100  0.22577400  1
  C  C67  1  0.06512200  0.99827900  0.77422600  1
  C  C68  1  0.56512200  0.99827900  0.72577400  1
  C  C69  1  0.06512200  0.50172100  0.27422600  1
  C  C70  1  0.43487800  0.49827900  0.77422600  1
  C  C71  1  0.93487800  0.00172000  0.22577400  1
  C  C72  1  0.66318900  0.11348500  0.22321100  1
  C  C73  1  0.16318900  0.38651500  0.77678900  1
  C  C74  1  0.33681100  0.61348500  0.27678900  1
  C  C75  1  0.83681100  0.88651500  0.72321100  1
  C  C76  1  0.33681100  0.88651500  0.77678900  1
  C  C77  1  0.83681100  0.61348500  0.22321100  1
  C  C78  1  0.66318900  0.38651500  0.72321100  1
  C  C79  1  0.16318900  0.11348500  0.27678900  1
  C  C80  1  0.66679200  0.89914200  0.43379400  1
  C  C81  1  0.16679200  0.60085800  0.56620600  1
  C  C82  1  0.33320800  0.39914200  0.06620600  1
  C  C83  1  0.83320800  0.10085800  0.93379400  1
  C  C84  1  0.33320800  0.10085800  0.56620600  1
  C  C85  1  0.83320800  0.39914200  0.43379400  1
  C  C86  1  0.66679200  0.60085800  0.93379400  1
  C  C87  1  0.16679200  0.89914200  0.06620600  1
  C  C88  1  0.66773300  0.89533800  0.56043000  1
  C  C89  1  0.16773300  0.60466200  0.43957000  1
  C  C90  1  0.33226700  0.39533800  0.93957000  1
  C  C91  1  0.83226700  0.10466200  0.06043000  1
  C  C92  1  0.33226700  0.10466200  0.43957000  1
  C  C93  1  0.83226700  0.39533800  0.56043000  1
  C  C94  1  0.66773300  0.60466200  0.06043000  1
  C  C95  1  0.16773300  0.89533800  0.93957000  1
  C  C96  1  0.91125100  0.85393200  0.49623300  1
  C  C97  1  0.41125100  0.64606800  0.50376700  1
  C  C98  1  0.08874900  0.35393200  0.00376700  1
  C  C99  1  0.58874900  0.14606800  0.99623300  1
  C  C100  1  0.08874900  0.14606800  0.50376700  1
  C  C101  1  0.58874900  0.35393200  0.49623300  1
  C  C102  1  0.91125100  0.64606800  0.99623300  1
  C  C103  1  0.41125100  0.85393200  0.00376700  1
  C  C104  1  0.79220300  0.07911400  0.49879200  1
  C  C105  1  0.29220300  0.42088600  0.50120800  1
  C  C106  1  0.20779700  0.57911400  0.00120800  1
  C  C107  1  0.70779700  0.92088600  0.99879200  1
  C  C108  1  0.20779700  0.92088600  0.50120800  1
  C  C109  1  0.70779700  0.57911400  0.49879200  1
  C  C110  1  0.79220300  0.42088600  0.99879200  1
  C  C111  1  0.29220300  0.07911400  0.00120800  1
