# generated using pymatgen
data_Cu12Ni12C13
_symmetry_space_group_name_H-M   'P 1'
_cell_length_a   9.67205222
_cell_length_b   14.85565023
_cell_length_c   3.11571400
_cell_angle_alpha   90.00000000
_cell_angle_beta   90.00000000
_cell_angle_gamma   92.17798979
_symmetry_Int_Tables_number   1
_chemical_formula_structural   Cu12Ni12C13
_chemical_formula_sum   'Cu12 Ni12 C13'
_cell_volume   447.35678819
_cell_formula_units_Z   1
loop_
 _symmetry_equiv_pos_site_id
 _symmetry_equiv_pos_as_xyz
  1  'x, y, z'
loop_
 _atom_site_type_symbol
 _atom_site_label
 _atom_site_symmetry_multiplicity
 _atom_site_fract_x
 _atom_site_fract_y
 _atom_site_fract_z
 _atom_site_occupancy
  C  C0  1  0.27238700  0.67441100  0.00000000  1
  C  C1  1  0.99179500  0.01666500  0.00000000  1
  C  C2  1  0.01663100  0.31849400  0.00000000  1
  C  C3  1  0.97035400  0.67457200  0.00000000  1
  C  C4  1  0.23000500  0.16366800  0.50000000  1
  C  C5  1  0.25496300  0.45626000  0.50000000  1
  C  C6  1  0.23459000  0.88551300  0.50000000  1
  C  C7  1  0.50843300  0.33387200  0.00000000  1
  C  C8  1  0.50542300  0.00477700  0.00000000  1
  C  C9  1  0.61084500  0.65583800  0.00000000  1
  C  C10  1  0.74288900  0.14827900  0.50000000  1
  C  C11  1  0.74560400  0.47819300  0.50000000  1
  C  C12  1  0.71291500  0.85143800  0.50000000  1
  Ni  Ni13  1  0.10241200  0.26639700  0.50000000  1
  Ni  Ni14  1  0.07271700  0.94553400  0.50000000  1
  Ni  Ni15  1  0.15386400  0.10538900  0.00000000  1
  Ni  Ni16  1  0.14702100  0.42643900  0.00000000  1
  Ni  Ni17  1  0.34049500  0.91364800  0.00000000  1
  Ni  Ni18  1  0.41463900  0.38735900  0.50000000  1
  Ni  Ni19  1  0.58934200  0.94901000  0.50000000  1
  Ni  Ni20  1  0.63746800  0.58219200  0.50000000  1
  Ni  Ni21  1  0.63909600  0.10909300  0.00000000  1
  Ni  Ni22  1  0.66976000  0.41725200  0.00000000  1
  Ni  Ni23  1  0.64525900  0.78475900  0.00000000  1
  Ni  Ni24  1  0.89558400  0.07187300  0.50000000  1
  Cu  Cu25  1  0.12365800  0.62956500  0.50000000  1
  Cu  Cu26  1  0.14614900  0.77696800  0.00000000  1
  Cu  Cu27  1  0.35463100  0.23042200  0.00000000  1
  Cu  Cu28  1  0.33167100  0.55009500  0.00000000  1
  Cu  Cu29  1  0.39507800  0.07314400  0.50000000  1
  Cu  Cu30  1  0.37287200  0.71689200  0.50000000  1
  Cu  Cu31  1  0.59811600  0.26426100  0.50000000  1
  Cu  Cu32  1  0.84364900  0.23408800  0.00000000  1
  Cu  Cu33  1  0.83576200  0.90691600  0.00000000  1
  Cu  Cu34  1  0.87938000  0.54907000  0.00000000  1
  Cu  Cu35  1  0.90952900  0.38823300  0.50000000  1
  Cu  Cu36  1  0.88358200  0.73997200  0.50000000  1
