# generated using pymatgen
data_Cu4NiC
_symmetry_space_group_name_H-M   'P 1'
_cell_length_a   8.47326316
_cell_length_b   8.47326290
_cell_length_c   22.14983246
_cell_angle_alpha   90.00000000
_cell_angle_beta   90.00000000
_cell_angle_gamma   120.00000101
_symmetry_Int_Tables_number   1
_chemical_formula_structural   Cu4NiC
_chemical_formula_sum   'Cu72 Ni18 C18'
_cell_volume   1377.21723557
_cell_formula_units_Z   18
loop_
 _symmetry_equiv_pos_site_id
 _symmetry_equiv_pos_as_xyz
  1  'x, y, z'
loop_
 _atom_site_type_symbol
 _atom_site_label
 _atom_site_symmetry_multiplicity
 _atom_site_fract_x
 _atom_site_fract_y
 _atom_site_fract_z
 _atom_site_occupancy
  C  C0  1  0.00000000  -0.00000000  0.49822586  1
  C  C1  1  0.00000000  -0.00000000  0.99822586  1
  C  C2  1  0.66666700  0.33333300  0.83155886  1
  C  C3  1  0.66666700  0.33333300  0.33155886  1
  C  C4  1  0.33333300  0.66666700  0.16489286  1
  C  C5  1  0.33333300  0.66666700  0.66489286  1
  C  C6  1  0.00000000  -0.00000000  0.64860747  1
  C  C7  1  0.00000000  -0.00000000  0.14860747  1
  C  C8  1  0.66666700  0.33333300  0.98194047  1
  C  C9  1  0.66666700  0.33333300  0.48194047  1
  C  C10  1  0.33333300  0.66666700  0.31527447  1
  C  C11  1  0.33333300  0.66666700  0.81527447  1
  C  C12  1  0.00000000  -0.00000000  0.35104797  1
  C  C13  1  0.00000000  -0.00000000  0.85104797  1
  C  C14  1  0.66666700  0.33333300  0.68438097  1
  C  C15  1  0.66666700  0.33333300  0.18438097  1
  C  C16  1  0.33333300  0.66666700  0.01771497  1
  C  C17  1  0.33333300  0.66666700  0.51771497  1
  Ni  Ni18  1  0.28899009  0.99477728  0.25032350  1
  Ni  Ni19  1  0.70578719  0.71100991  0.25032350  1
  Ni  Ni20  1  0.00522272  0.29421281  0.25032350  1
  Ni  Ni21  1  0.28899009  0.29421281  0.75032350  1
  Ni  Ni22  1  0.00522272  0.71100991  0.75032350  1
  Ni  Ni23  1  0.70578719  0.99477728  0.75032350  1
  Ni  Ni24  1  0.95565709  0.32811028  0.58365650  1
  Ni  Ni25  1  0.37245419  0.04434291  0.58365650  1
  Ni  Ni26  1  0.67188972  0.62754581  0.58365650  1
  Ni  Ni27  1  0.95565709  0.62754581  0.08365650  1
  Ni  Ni28  1  0.67188972  0.04434291  0.08365650  1
  Ni  Ni29  1  0.37245419  0.32811028  0.08365650  1
  Ni  Ni30  1  0.62232309  0.66144428  0.91699050  1
  Ni  Ni31  1  0.03912019  0.37767691  0.91699050  1
  Ni  Ni32  1  0.33855572  0.96087981  0.91699050  1
  Ni  Ni33  1  0.62232309  0.96087981  0.41699050  1
  Ni  Ni34  1  0.33855572  0.37767691  0.41699050  1
  Ni  Ni35  1  0.03912019  0.66144428  0.41699050  1
  Cu  Cu36  1  0.21332452  0.02675043  0.30494610  1
  Cu  Cu37  1  0.81342591  0.78667548  0.30494610  1
  Cu  Cu38  1  0.97324957  0.18657409  0.30494610  1
  Cu  Cu39  1  0.21332452  0.18657409  0.80494610  1
  Cu  Cu40  1  0.97324957  0.78667548  0.80494610  1
  Cu  Cu41  1  0.81342591  0.02675043  0.80494610  1
  Cu  Cu42  1  0.79108556  0.96418922  0.69533567  1
  Cu  Cu43  1  0.17310366  0.20891444  0.69533567  1
  Cu  Cu44  1  0.03581078  0.82689634  0.69533567  1
  Cu  Cu45  1  0.79108556  0.82689634  0.19533567  1
  Cu  Cu46  1  0.03581078  0.20891444  0.19533567  1
  Cu  Cu47  1  0.17310366  0.96418922  0.19533567  1
  Cu  Cu48  1  0.87999152  0.36008343  0.63827910  1
  Cu  Cu49  1  0.48009291  0.12000848  0.63827910  1
  Cu  Cu50  1  0.63991657  0.51990709  0.63827910  1
  Cu  Cu51  1  0.87999152  0.51990709  0.13827910  1
  Cu  Cu52  1  0.63991657  0.12000848  0.13827910  1
  Cu  Cu53  1  0.48009291  0.36008343  0.13827910  1
  Cu  Cu54  1  0.45775256  0.29752222  0.02866867  1
  Cu  Cu55  1  0.83977066  0.54224744  0.02866867  1
  Cu  Cu56  1  0.70247778  0.16022934  0.02866867  1
  Cu  Cu57  1  0.45775256  0.16022934  0.52866867  1
  Cu  Cu58  1  0.70247778  0.54224744  0.52866867  1
  Cu  Cu59  1  0.83977066  0.29752222  0.52866867  1
  Cu  Cu60  1  0.54665752  0.69341743  0.97161310  1
  Cu  Cu61  1  0.14675891  0.45334248  0.97161310  1
  Cu  Cu62  1  0.30658257  0.85324109  0.97161310  1
  Cu  Cu63  1  0.54665752  0.85324109  0.47161310  1
  Cu  Cu64  1  0.30658257  0.45334248  0.47161310  1
  Cu  Cu65  1  0.14675891  0.69341743  0.47161310  1
  Cu  Cu66  1  0.12441856  0.63085622  0.36200267  1
  Cu  Cu67  1  0.50643666  0.87558144  0.36200267  1
  Cu  Cu68  1  0.36914378  0.49356334  0.36200267  1
  Cu  Cu69  1  0.12441856  0.49356334  0.86200267  1
  Cu  Cu70  1  0.36914378  0.87558144  0.86200267  1
  Cu  Cu71  1  0.50643666  0.63085622  0.86200267  1
  Cu  Cu72  1  0.01505634  0.82040020  0.41002723  1
  Cu  Cu73  1  0.80534386  0.98494366  0.41002723  1
  Cu  Cu74  1  0.17959980  0.19465614  0.41002723  1
  Cu  Cu75  1  0.01505634  0.19465614  0.91002723  1
  Cu  Cu76  1  0.17959980  0.98494366  0.91002723  1
  Cu  Cu77  1  0.80534386  0.82040020  0.91002723  1
  Cu  Cu78  1  0.96843280  0.15780349  0.59007374  1
  Cu  Cu79  1  0.18937069  0.03156720  0.59007374  1
  Cu  Cu80  1  0.84219651  0.81062931  0.59007374  1
  Cu  Cu81  1  0.96843280  0.81062931  0.09007374  1
  Cu  Cu82  1  0.84219651  0.03156720  0.09007374  1
  Cu  Cu83  1  0.18937069  0.15780349  0.09007374  1
  Cu  Cu84  1  0.68172334  0.15373320  0.74336023  1
  Cu  Cu85  1  0.47201086  0.31827666  0.74336023  1
  Cu  Cu86  1  0.84626680  0.52798914  0.74336023  1
  Cu  Cu87  1  0.68172334  0.52798914  0.24336023  1
  Cu  Cu88  1  0.84626680  0.31827666  0.24336023  1
  Cu  Cu89  1  0.47201086  0.15373320  0.24336023  1
  Cu  Cu90  1  0.63509980  0.49113649  0.92340674  1
  Cu  Cu91  1  0.85603769  0.36490020  0.92340674  1
  Cu  Cu92  1  0.50886351  0.14396231  0.92340674  1
  Cu  Cu93  1  0.63509980  0.14396231  0.42340674  1
  Cu  Cu94  1  0.50886351  0.36490020  0.42340674  1
  Cu  Cu95  1  0.85603769  0.49113649  0.42340674  1
  Cu  Cu96  1  0.34838934  0.48706720  0.07669423  1
  Cu  Cu97  1  0.13867686  0.65161066  0.07669423  1
  Cu  Cu98  1  0.51293280  0.86132314  0.07669423  1
  Cu  Cu99  1  0.34838934  0.86132314  0.57669423  1
  Cu  Cu100  1  0.51293280  0.65161066  0.57669423  1
  Cu  Cu101  1  0.13867686  0.48706720  0.57669423  1
  Cu  Cu102  1  0.30176580  0.82447049  0.25674074  1
  Cu  Cu103  1  0.52270369  0.69823420  0.25674074  1
  Cu  Cu104  1  0.17552951  0.47729631  0.25674074  1
  Cu  Cu105  1  0.30176580  0.47729631  0.75674074  1
  Cu  Cu106  1  0.17552951  0.69823420  0.75674074  1
  Cu  Cu107  1  0.52270369  0.82447049  0.75674074  1
