# generated using pymatgen
data_Cu2Ni2C11
_symmetry_space_group_name_H-M   'P 1'
_cell_length_a   3.64686210
_cell_length_b   3.64686210
_cell_length_c   17.08061818
_cell_angle_alpha   90.00000000
_cell_angle_beta   90.00000000
_cell_angle_gamma   90.00000000
_symmetry_Int_Tables_number   1
_chemical_formula_structural   Cu2Ni2C11
_chemical_formula_sum   'Cu2 Ni2 C11'
_cell_volume   227.16544380
_cell_formula_units_Z   1
loop_
 _symmetry_equiv_pos_site_id
 _symmetry_equiv_pos_as_xyz
  1  'x, y, z'
loop_
 _atom_site_type_symbol
 _atom_site_label
 _atom_site_symmetry_multiplicity
 _atom_site_fract_x
 _atom_site_fract_y
 _atom_site_fract_z
 _atom_site_occupancy
  Ni  Ni0  1  0.25000000  0.25000000  0.56105024  1
  Ni  Ni1  1  0.75000000  0.75000000  0.43894976  1
  Cu  Cu2  1  0.75000000  0.75000000  0.18752348  1
  Cu  Cu3  1  0.25000000  0.25000000  0.81247652  1
  C  C4  1  0.75000000  0.25000000  0.00000000  1
  C  C5  1  0.25000000  0.25000000  0.31995606  1
  C  C6  1  0.75000000  0.75000000  0.68004394  1
  C  C7  1  0.75000000  0.75000000  0.84216111  1
  C  C8  1  0.25000000  0.25000000  0.15783889  1
  C  C9  1  0.75000000  0.75000000  0.57548607  1
  C  C10  1  0.25000000  0.25000000  0.42451393  1
  C  C11  1  0.75000000  0.25000000  0.28653256  1
  C  C12  1  0.25000000  0.75000000  0.28668527  1
  C  C13  1  0.75000000  0.25000000  0.71346744  1
  C  C14  1  0.25000000  0.75000000  0.71331473  1
