# generated using pymatgen
data_CuNi2C17
_symmetry_space_group_name_H-M   'P 1'
_cell_length_a   9.27072105
_cell_length_b   9.22983796
_cell_length_c   22.99694008
_cell_angle_alpha   90.36016386
_cell_angle_beta   90.00000000
_cell_angle_gamma   120.14663342
_symmetry_Int_Tables_number   1
_chemical_formula_structural   CuNi2C17
_chemical_formula_sum   'Cu6 Ni12 C102'
_cell_volume   1701.58324165
_cell_formula_units_Z   6
loop_
 _symmetry_equiv_pos_site_id
 _symmetry_equiv_pos_as_xyz
  1  'x, y, z'
loop_
 _atom_site_type_symbol
 _atom_site_label
 _atom_site_symmetry_multiplicity
 _atom_site_fract_x
 _atom_site_fract_y
 _atom_site_fract_z
 _atom_site_occupancy
  C  C0  1  0.35956173  0.35507326  0.24707410  1
  C  C1  1  0.99943810  0.63298717  0.24492980  1
  C  C2  1  0.63354907  0.63298717  0.74492980  1
  C  C3  1  0.99551153  0.35507326  0.74707410  1
  C  C4  1  0.02622873  0.68840626  0.58040710  1
  C  C5  1  0.66610510  0.96632017  0.57826280  1
  C  C6  1  0.30021607  0.96632017  0.07826280  1
  C  C7  1  0.66217853  0.68840626  0.08040710  1
  C  C8  1  0.69289473  0.02174026  0.91374110  1
  C  C9  1  0.33277110  0.29965417  0.91159680  1
  C  C10  1  0.96688207  0.29965417  0.41159680  1
  C  C11  1  0.32884453  0.02174026  0.41374110  1
  C  C12  1  0.98165164  0.98507072  0.49796794  1
  C  C13  1  0.00341908  0.98507072  0.99796794  1
  C  C14  1  0.64831864  0.31840372  0.83130094  1
  C  C15  1  0.67008608  0.31840372  0.33130094  1
  C  C16  1  0.31498464  0.65173772  0.16463494  1
  C  C17  1  0.33675208  0.65173772  0.66463494  1
  C  C18  1  0.98829814  0.99340322  0.34985374  1
  C  C19  1  0.00510508  0.99340322  0.84985374  1
  C  C20  1  0.65496514  0.32673622  0.68318674  1
  C  C21  1  0.67177208  0.32673622  0.18318674  1
  C  C22  1  0.32163114  0.66007022  0.01652074  1
  C  C23  1  0.33843808  0.66007022  0.51652074  1
  C  C24  1  0.00030393  0.01544307  0.65046181  1
  C  C25  1  0.01513914  0.01544307  0.15046181  1
  C  C26  1  0.66697093  0.34877607  0.98379481  1
  C  C27  1  0.68180614  0.34877607  0.48379481  1
  C  C28  1  0.33363693  0.68211007  0.31712881  1
  C  C29  1  0.34847214  0.68211007  0.81712881  1
  Ni  Ni30  1  0.29403990  0.99655235  0.25165490  1
  Ni  Ni31  1  0.01039076  0.30539395  0.25342583  1
  Ni  Ni32  1  0.29500319  0.30539395  0.75342583  1
  Ni  Ni33  1  0.70251245  0.99655235  0.75165490  1
  Ni  Ni34  1  0.96070690  0.32988535  0.58498790  1
  Ni  Ni35  1  0.67705776  0.63872695  0.58675883  1
  Ni  Ni36  1  0.96167019  0.63872695  0.08675883  1
  Ni  Ni37  1  0.36917945  0.32988535  0.08498790  1
  Ni  Ni38  1  0.62737290  0.66321935  0.91832190  1
  Ni  Ni39  1  0.34372376  0.97206095  0.92009283  1
  Ni  Ni40  1  0.62833619  0.97206095  0.42009283  1
  Ni  Ni41  1  0.03584545  0.66321935  0.41832190  1
  Cu  Cu42  1  0.69615921  0.70381960  0.24771050  1
  Cu  Cu43  1  0.00766039  0.70381960  0.74771050  1
  Cu  Cu44  1  0.36282621  0.03715260  0.58104350  1
  Cu  Cu45  1  0.67432739  0.03715260  0.08104350  1
  Cu  Cu46  1  0.02949221  0.37048660  0.91437750  1
  Cu  Cu47  1  0.34099339  0.37048660  0.41437750  1
  C  C48  1  0.21459644  0.01763067  0.30671502  1
  C  C49  1  0.79925117  0.78188845  0.29892887  1
  C  C50  1  0.98950707  0.21257196  0.30996874  1
  C  C51  1  0.22306490  0.21257196  0.80996874  1
  C  C52  1  0.98263728  0.78188845  0.79892887  1
  C  C53  1  0.80303423  0.01763067  0.80671502  1
  C  C54  1  0.79233895  0.97127882  0.69702827  1
  C  C55  1  0.17630741  0.20475047  0.70089072  1
  C  C56  1  0.02676057  0.80358901  0.69438010  1
  C  C57  1  0.77682844  0.80358901  0.19438010  1
  C  C58  1  0.02844306  0.20475047  0.20089072  1
  C  C59  1  0.17893987  0.97127882  0.19702827  1
  C  C60  1  0.88126344  0.35096367  0.64004802  1
  C  C61  1  0.46591817  0.11522145  0.63226187  1
  C  C62  1  0.65617407  0.54590496  0.64330174  1
  C  C63  1  0.88973190  0.54590496  0.14330174  1
  C  C64  1  0.64930428  0.11522145  0.13226187  1
  C  C65  1  0.46970123  0.35096367  0.14004802  1
  C  C66  1  0.45900595  0.30461182  0.03036127  1
  C  C67  1  0.84297441  0.53808347  0.03422372  1
  C  C68  1  0.69342757  0.13692201  0.02771310  1
  C  C69  1  0.44349544  0.13692201  0.52771310  1
  C  C70  1  0.69511006  0.53808347  0.53422372  1
  C  C71  1  0.84560687  0.30461182  0.53036127  1
  C  C72  1  0.54792944  0.68429767  0.97338202  1
  C  C73  1  0.13258417  0.44855545  0.96559587  1
  C  C74  1  0.32284007  0.87923896  0.97663574  1
  C  C75  1  0.55639790  0.87923896  0.47663574  1
  C  C76  1  0.31597028  0.44855545  0.46559587  1
  C  C77  1  0.13636723  0.68429767  0.47338202  1
  C  C78  1  0.12567195  0.63794582  0.36369527  1
  C  C79  1  0.50964041  0.87141747  0.36755772  1
  C  C80  1  0.36009357  0.47025601  0.36104710  1
  C  C81  1  0.11016144  0.47025601  0.86104710  1
  C  C82  1  0.36177606  0.87141747  0.86755772  1
  C  C83  1  0.51227287  0.63794582  0.86369527  1
  C  C84  1  0.02045299  0.82020243  0.41217330  1
  C  C85  1  0.80850996  0.00798808  0.41346618  1
  C  C86  1  0.19114166  0.19903437  0.41040598  1
  C  C87  1  0.00789271  0.19903437  0.91040598  1
  C  C88  1  0.19947813  0.00798808  0.91346618  1
  C  C89  1  0.79974944  0.82020243  0.91217330  1
  C  C90  1  0.96807265  0.16269823  0.58817313  1
  C  C91  1  0.19232356  0.01698996  0.58684115  1
  C  C92  1  0.84671399  0.81363420  0.58794991  1
  C  C93  1  0.96692021  0.81363420  0.08794991  1
  C  C94  1  0.82466640  0.01698996  0.08684115  1
  C  C95  1  0.19462558  0.16269823  0.08817313  1
  C  C96  1  0.68711999  0.15353543  0.74550630  1
  C  C97  1  0.47517696  0.34132108  0.74679918  1
  C  C98  1  0.85780866  0.53236737  0.74373898  1
  C  C99  1  0.67455971  0.53236737  0.24373898  1
  C  C100  1  0.86614513  0.34132108  0.24679918  1
  C  C101  1  0.46641644  0.15353543  0.24550630  1
  C  C102  1  0.63473965  0.49603123  0.92150613  1
  C  C103  1  0.85899056  0.35032296  0.92017415  1
  C  C104  1  0.51338099  0.14696720  0.92128291  1
  C  C105  1  0.63358721  0.14696720  0.42128291  1
  C  C106  1  0.49133340  0.35032296  0.42017415  1
  C  C107  1  0.86129258  0.49603123  0.42150613  1
  C  C108  1  0.35378599  0.48686943  0.07884030  1
  C  C109  1  0.14184296  0.67465508  0.08013318  1
  C  C110  1  0.52447466  0.86570137  0.07707298  1
  C  C111  1  0.34122571  0.86570137  0.57707298  1
  C  C112  1  0.53281113  0.67465508  0.58013318  1
  C  C113  1  0.13308244  0.48686943  0.57884030  1
  C  C114  1  0.30140565  0.82936523  0.25484013  1
  C  C115  1  0.52565656  0.68365696  0.25350815  1
  C  C116  1  0.18004699  0.48030120  0.25461691  1
  C  C117  1  0.30025321  0.48030120  0.75461691  1
  C  C118  1  0.15799940  0.68365696  0.75350815  1
  C  C119  1  0.52795858  0.82936523  0.75484013  1
