# generated using pymatgen
data_Cu4Ni2C57
_symmetry_space_group_name_H-M   'P 1'
_cell_length_a   9.13401257
_cell_length_b   9.13401226
_cell_length_c   22.32974576
_cell_angle_alpha   90.00000000
_cell_angle_beta   90.00000000
_cell_angle_gamma   120.00000117
_symmetry_Int_Tables_number   1
_chemical_formula_structural   Cu4Ni2C57
_chemical_formula_sum   'Cu8 Ni4 C114'
_cell_volume   1613.38345842
_cell_formula_units_Z   2
loop_
 _symmetry_equiv_pos_site_id
 _symmetry_equiv_pos_as_xyz
  1  'x, y, z'
loop_
 _atom_site_type_symbol
 _atom_site_label
 _atom_site_symmetry_multiplicity
 _atom_site_fract_x
 _atom_site_fract_y
 _atom_site_fract_z
 _atom_site_occupancy
  C  C0  1  0.64177340  0.02163135  0.24599665  1
  C  C1  1  0.37985794  0.35822660  0.24599665  1
  C  C2  1  0.97836865  0.62014206  0.24599665  1
  C  C3  1  0.64177340  0.62014206  0.74599665  1
  C  C4  1  0.97836865  0.35822660  0.74599665  1
  C  C5  1  0.37985794  0.02163135  0.74599665  1
  C  C6  1  0.31080006  0.33459710  0.58800532  1
  C  C7  1  0.02379803  0.68919994  0.58800532  1
  C  C8  1  0.66540290  0.97620197  0.58800532  1
  C  C9  1  0.31080006  0.97620197  0.08800532  1
  C  C10  1  0.66540290  0.68919994  0.08800532  1
  C  C11  1  0.02379803  0.33459710  0.08800532  1
  C  C12  1  0.96484046  0.68427326  0.90744623  1
  C  C13  1  0.71943180  0.03515954  0.90744623  1
  C  C14  1  0.31572674  0.28056820  0.90744623  1
  C  C15  1  0.96484046  0.28056820  0.40744623  1
  C  C16  1  0.31572674  0.03515954  0.40744623  1
  C  C17  1  0.71943180  0.68427326  0.40744623  1
  C  C18  1  0.00000000  0.00000000  0.49326826  1
  C  C19  1  0.00000000  0.00000000  0.99326826  1
  C  C20  1  0.66666700  0.33333300  0.82218738  1
  C  C21  1  0.66666700  0.33333300  0.32218738  1
  C  C22  1  0.33333300  0.66666700  0.16797165  1
  C  C23  1  0.33333300  0.66666700  0.66797165  1
  Ni  Ni24  1  0.00000000  -0.00000000  0.35216085  1
  Ni  Ni25  1  0.00000000  -0.00000000  0.85216085  1
  Ni  Ni26  1  0.66666700  0.33333300  0.68526379  1
  Ni  Ni27  1  0.66666700  0.33333300  0.18526379  1
  Cu  Cu28  1  0.00000000  0.00000000  0.64933357  1
  Cu  Cu29  1  0.00000000  0.00000000  0.14933357  1
  Cu  Cu30  1  0.66666700  0.33333300  0.97983029  1
  Cu  Cu31  1  0.66666700  0.33333300  0.47983029  1
  Cu  Cu32  1  0.33333300  0.66666700  0.01939692  1
  Cu  Cu33  1  0.33333300  0.66666700  0.51939692  1
  Cu  Cu34  1  0.33333300  0.66666700  0.31069057  1
  Cu  Cu35  1  0.33333300  0.66666700  0.81069057  1
  C  C36  1  0.29262809  0.00164732  0.25397567  1
  C  C37  1  0.70901923  0.70737191  0.25397567  1
  C  C38  1  0.99835268  0.29098077  0.25397567  1
  C  C39  1  0.29262809  0.29098077  0.75397567  1
  C  C40  1  0.99835268  0.70737191  0.75397567  1
  C  C41  1  0.70901923  0.00164732  0.75397567  1
  C  C42  1  0.95846805  0.33287278  0.58533106  1
  C  C43  1  0.37440573  0.04153195  0.58533106  1
  C  C44  1  0.66712722  0.62559427  0.58533106  1
  C  C45  1  0.95846805  0.62559427  0.08533106  1
  C  C46  1  0.66712722  0.04153195  0.08533106  1
  C  C47  1  0.37440573  0.33287278  0.08533106  1
  C  C48  1  0.62397028  0.66440227  0.91648196  1
  C  C49  1  0.04043099  0.37602972  0.91648196  1
  C  C50  1  0.33559773  0.95956901  0.91648196  1
  C  C51  1  0.62397028  0.95956901  0.41648196  1
  C  C52  1  0.33559773  0.37602972  0.41648196  1
  C  C53  1  0.04043099  0.66440227  0.41648196  1
  C  C54  1  0.20720109  0.02743682  0.31214628  1
  C  C55  1  0.82023572  0.79279891  0.31214628  1
  C  C56  1  0.97256318  0.17976428  0.31214628  1
  C  C57  1  0.20720109  0.17976428  0.81214628  1
  C  C58  1  0.97256318  0.79279891  0.81214628  1
  C  C59  1  0.82023572  0.02743682  0.81214628  1
  C  C60  1  0.80311250  0.96962928  0.69296866  1
  C  C61  1  0.16651678  0.19688750  0.69296866  1
  C  C62  1  0.03037072  0.83348322  0.69296866  1
  C  C63  1  0.80311250  0.83348322  0.19296866  1
  C  C64  1  0.03037072  0.19688750  0.19296866  1
  C  C65  1  0.16651678  0.96962928  0.19296866  1
  C  C66  1  0.88525961  0.37753848  0.64255862  1
  C  C67  1  0.49227988  0.11474039  0.64255862  1
  C  C68  1  0.62246152  0.50772012  0.64255862  1
  C  C69  1  0.88525961  0.50772012  0.14255862  1
  C  C70  1  0.62246152  0.11474039  0.14255862  1
  C  C71  1  0.49227988  0.37753848  0.14255862  1
  C  C72  1  0.46902009  0.30333686  0.02563348  1
  C  C73  1  0.83431777  0.53097991  0.02563348  1
  C  C74  1  0.69666314  0.16568223  0.02563348  1
  C  C75  1  0.46902009  0.16568223  0.52563348  1
  C  C76  1  0.69666314  0.53097991  0.52563348  1
  C  C77  1  0.83431777  0.30333686  0.52563348  1
  C  C78  1  0.52021440  0.67872620  0.97466411  1
  C  C79  1  0.15851080  0.47978560  0.97466411  1
  C  C80  1  0.32127380  0.84148920  0.97466411  1
  C  C81  1  0.52021440  0.84148920  0.47466411  1
  C  C82  1  0.32127380  0.47978560  0.47466411  1
  C  C83  1  0.15851080  0.67872620  0.47466411  1
  C  C84  1  0.13546921  0.63233639  0.35873370  1
  C  C85  1  0.49686617  0.86453079  0.35873370  1
  C  C86  1  0.36766361  0.50313383  0.35873370  1
  C  C87  1  0.13546921  0.50313383  0.85873370  1
  C  C88  1  0.36766361  0.86453079  0.85873370  1
  C  C89  1  0.49686617  0.63233639  0.85873370  1
  C  C90  1  0.02215750  0.82904992  0.41672569  1
  C  C91  1  0.80689242  0.97784250  0.41672569  1
  C  C92  1  0.17095008  0.19310758  0.41672569  1
  C  C93  1  0.02215750  0.19310758  0.91672569  1
  C  C94  1  0.17095008  0.97784250  0.91672569  1
  C  C95  1  0.80689242  0.82904992  0.91672569  1
  C  C96  1  0.97576995  0.16083005  0.58835536  1
  C  C97  1  0.18506011  0.02423005  0.58835536  1
  C  C98  1  0.83916995  0.81493989  0.58835536  1
  C  C99  1  0.97576995  0.81493989  0.08835536  1
  C  C100  1  0.83916995  0.02423005  0.08835536  1
  C  C101  1  0.18506011  0.16083005  0.08835536  1
  C  C102  1  0.67962112  0.15983077  0.74493164  1
  C  C103  1  0.48021065  0.32037888  0.74493164  1
  C  C104  1  0.84016923  0.51978935  0.74493164  1
  C  C105  1  0.67962112  0.51978935  0.24493164  1
  C  C106  1  0.84016923  0.32037888  0.24493164  1
  C  C107  1  0.48021065  0.15983077  0.24493164  1
  C  C108  1  0.63155707  0.48720250  0.92274686  1
  C  C109  1  0.85564643  0.36844293  0.92274686  1
  C  C110  1  0.51279750  0.14435357  0.92274686  1
  C  C111  1  0.63155707  0.14435357  0.42274686  1
  C  C112  1  0.51279750  0.36844293  0.42274686  1
  C  C113  1  0.85564643  0.48720250  0.42274686  1
  C  C114  1  0.34317773  0.49568189  0.07494852  1
  C  C115  1  0.15250316  0.65682227  0.07494852  1
  C  C116  1  0.50431811  0.84749684  0.07494852  1
  C  C117  1  0.34317773  0.84749684  0.57494852  1
  C  C118  1  0.50431811  0.65682227  0.57494852  1
  C  C119  1  0.15250316  0.49568189  0.57494852  1
  C  C120  1  0.29803530  0.81991538  0.25498241  1
  C  C121  1  0.52187908  0.70196470  0.25498241  1
  C  C122  1  0.18008462  0.47812092  0.25498241  1
  C  C123  1  0.29803530  0.47812092  0.75498241  1
  C  C124  1  0.18008462  0.70196470  0.75498241  1
  C  C125  1  0.52187908  0.81991538  0.75498241  1
