# generated using pymatgen
data_Cu7(NiC)5
_symmetry_space_group_name_H-M   'P 1'
_cell_length_a   5.30503694
_cell_length_b   5.44742218
_cell_length_c   8.88279491
_cell_angle_alpha   76.25408029
_cell_angle_beta   90.32898953
_cell_angle_gamma   60.49735384
_symmetry_Int_Tables_number   1
_chemical_formula_structural   Cu7(NiC)5
_chemical_formula_sum   'Cu7 Ni5 C5'
_cell_volume   214.71713131
_cell_formula_units_Z   1
loop_
 _symmetry_equiv_pos_site_id
 _symmetry_equiv_pos_as_xyz
  1  'x, y, z'
loop_
 _atom_site_type_symbol
 _atom_site_label
 _atom_site_symmetry_multiplicity
 _atom_site_fract_x
 _atom_site_fract_y
 _atom_site_fract_z
 _atom_site_occupancy
  C  C0  1  0.05488700  0.90585100  0.34895700  1
  C  C1  1  0.71340700  0.53613400  0.23480700  1
  C  C2  1  0.49946000  0.97515400  0.51509500  1
  C  C3  1  0.29596600  0.48460400  0.74960100  1
  C  C4  1  0.04037100  0.00869200  0.00247800  1
  Ni  Ni5  1  0.95863600  0.22889700  0.14024600  1
  Ni  Ni6  1  0.49255500  0.76477900  0.37626500  1
  Ni  Ni7  1  0.41381100  0.76178900  0.06268900  1
  Ni  Ni8  1  0.42958400  0.70686200  0.67436400  1
  Ni  Ni9  1  0.46576300  0.20543400  0.63013100  1
  Cu  Cu10  1  0.95003000  0.73155300  0.55264700  1
  Cu  Cu11  1  0.95654000  0.74023900  0.19470300  1
  Cu  Cu12  1  0.59885600  0.21274100  0.33546900  1
  Cu  Cu13  1  0.59276900  0.22463200  0.92755600  1
  Cu  Cu14  1  0.03454300  0.75387700  0.86898500  1
  Cu  Cu15  1  0.06755500  0.28259400  0.82496800  1
  Cu  Cu16  1  0.06026600  0.22617000  0.43246600  1
