# generated using pymatgen
data_CuNiC15
_symmetry_space_group_name_H-M   'P 1'
_cell_length_a   8.59939534
_cell_length_b   8.59939508
_cell_length_c   22.18902567
_cell_angle_alpha   90.00000000
_cell_angle_beta   90.00000000
_cell_angle_gamma   120.00000100
_symmetry_Int_Tables_number   1
_chemical_formula_structural   CuNiC15
_chemical_formula_sum   'Cu6 Ni6 C90'
_cell_volume   1421.03468079
_cell_formula_units_Z   6
loop_
 _symmetry_equiv_pos_site_id
 _symmetry_equiv_pos_as_xyz
  1  'x, y, z'
loop_
 _atom_site_type_symbol
 _atom_site_label
 _atom_site_symmetry_multiplicity
 _atom_site_fract_x
 _atom_site_fract_y
 _atom_site_fract_z
 _atom_site_occupancy
  Ni  Ni0  1  0.00000000  -0.00000000  0.35454618  1
  Ni  Ni1  1  0.00000000  -0.00000000  0.85454618  1
  Ni  Ni2  1  0.66666700  0.33333300  0.68787918  1
  Ni  Ni3  1  0.66666700  0.33333300  0.18787918  1
  Ni  Ni4  1  0.33333300  0.66666700  0.02121318  1
  Ni  Ni5  1  0.33333300  0.66666700  0.52121318  1
  Cu  Cu6  1  0.00000000  -0.00000000  0.64469760  1
  Cu  Cu7  1  0.00000000  -0.00000000  0.14469760  1
  Cu  Cu8  1  0.66666700  0.33333300  0.97803060  1
  Cu  Cu9  1  0.66666700  0.33333300  0.47803060  1
  Cu  Cu10  1  0.33333300  0.66666700  0.31136460  1
  Cu  Cu11  1  0.33333300  0.66666700  0.81136460  1
  C  C12  1  0.28992306  0.00217265  0.25095685  1
  C  C13  1  0.71224958  0.71007694  0.25095685  1
  C  C14  1  0.99782735  0.28775042  0.25095685  1
  C  C15  1  0.28992306  0.28775042  0.75095685  1
  C  C16  1  0.99782735  0.71007694  0.75095685  1
  C  C17  1  0.71224958  0.00217265  0.75095685  1
  C  C18  1  0.95659006  0.33550565  0.58428985  1
  C  C19  1  0.37891658  0.04340994  0.58428985  1
  C  C20  1  0.66449435  0.62108342  0.58428985  1
  C  C21  1  0.95659006  0.62108342  0.08428985  1
  C  C22  1  0.66449435  0.04340994  0.08428985  1
  C  C23  1  0.37891658  0.33550565  0.08428985  1
  C  C24  1  0.62325606  0.66883965  0.91762385  1
  C  C25  1  0.04558258  0.37674394  0.91762385  1
  C  C26  1  0.33116035  0.95441742  0.91762385  1
  C  C27  1  0.62325606  0.95441742  0.41762385  1
  C  C28  1  0.33116035  0.37674394  0.41762385  1
  C  C29  1  0.04558258  0.66883965  0.41762385  1
  C  C30  1  0.20739649  0.02857912  0.30378273  1
  C  C31  1  0.82118263  0.79260351  0.30378273  1
  C  C32  1  0.97142088  0.17881737  0.30378273  1
  C  C33  1  0.20739649  0.17881737  0.80378273  1
  C  C34  1  0.97142088  0.79260351  0.80378273  1
  C  C35  1  0.82118263  0.02857912  0.80378273  1
  C  C36  1  0.79422401  0.96600549  0.69597584  1
  C  C37  1  0.17178148  0.20577599  0.69597584  1
  C  C38  1  0.03399451  0.82821852  0.69597584  1
  C  C39  1  0.79422401  0.82821852  0.19597584  1
  C  C40  1  0.03399451  0.20577599  0.19597584  1
  C  C41  1  0.17178148  0.96600549  0.19597584  1
  C  C42  1  0.87406349  0.36191212  0.63711573  1
  C  C43  1  0.48784963  0.12593651  0.63711573  1
  C  C44  1  0.63808788  0.51215037  0.63711573  1
  C  C45  1  0.87406349  0.51215037  0.13711573  1
  C  C46  1  0.63808788  0.12593651  0.13711573  1
  C  C47  1  0.48784963  0.36191212  0.13711573  1
  C  C48  1  0.46089101  0.29933849  0.02930884  1
  C  C49  1  0.83844848  0.53910899  0.02930884  1
  C  C50  1  0.70066151  0.16155152  0.02930884  1
  C  C51  1  0.46089101  0.16155152  0.52930884  1
  C  C52  1  0.70066151  0.53910899  0.52930884  1
  C  C53  1  0.83844848  0.29933849  0.52930884  1
  C  C54  1  0.54072949  0.69524612  0.97044973  1
  C  C55  1  0.15451563  0.45927051  0.97044973  1
  C  C56  1  0.30475388  0.84548437  0.97044973  1
  C  C57  1  0.54072949  0.84548437  0.47044973  1
  C  C58  1  0.30475388  0.45927051  0.47044973  1
  C  C59  1  0.15451563  0.69524612  0.47044973  1
  C  C60  1  0.12755701  0.63267249  0.36264284  1
  C  C61  1  0.50511448  0.87244299  0.36264284  1
  C  C62  1  0.36732751  0.49488552  0.36264284  1
  C  C63  1  0.12755701  0.49488552  0.86264284  1
  C  C64  1  0.36732751  0.87244299  0.86264284  1
  C  C65  1  0.50511448  0.63267249  0.86264284  1
  C  C66  1  0.02092152  0.82091277  0.40734535  1
  C  C67  1  0.79999125  0.97907848  0.40734535  1
  C  C68  1  0.17908723  0.20000875  0.40734535  1
  C  C69  1  0.02092152  0.20000875  0.90734535  1
  C  C70  1  0.17908723  0.97907848  0.90734535  1
  C  C71  1  0.79999125  0.82091277  0.90734535  1
  C  C72  1  0.97130305  0.16819706  0.59219131  1
  C  C73  1  0.19689401  0.02869695  0.59219131  1
  C  C74  1  0.83180294  0.80310599  0.59219131  1
  C  C75  1  0.97130305  0.80310599  0.09219131  1
  C  C76  1  0.83180294  0.02869695  0.09219131  1
  C  C77  1  0.19689401  0.16819706  0.09219131  1
  C  C78  1  0.68758852  0.15424577  0.74067835  1
  C  C79  1  0.46665825  0.31241148  0.74067835  1
  C  C80  1  0.84575423  0.53334175  0.74067835  1
  C  C81  1  0.68758852  0.53334175  0.24067835  1
  C  C82  1  0.84575423  0.31241148  0.24067835  1
  C  C83  1  0.46665825  0.15424577  0.24067835  1
  C  C84  1  0.63797005  0.50153006  0.92552431  1
  C  C85  1  0.86356101  0.36202995  0.92552431  1
  C  C86  1  0.49846994  0.13643899  0.92552431  1
  C  C87  1  0.63797005  0.13643899  0.42552431  1
  C  C88  1  0.49846994  0.36202995  0.42552431  1
  C  C89  1  0.86356101  0.50153006  0.42552431  1
  C  C90  1  0.35425452  0.48757977  0.07401235  1
  C  C91  1  0.13332425  0.64574548  0.07401235  1
  C  C92  1  0.51242023  0.86667575  0.07401235  1
  C  C93  1  0.35425452  0.86667575  0.57401235  1
  C  C94  1  0.51242023  0.64574548  0.57401235  1
  C  C95  1  0.13332425  0.48757977  0.57401235  1
  C  C96  1  0.30463605  0.83486406  0.25885831  1
  C  C97  1  0.53022701  0.69536395  0.25885831  1
  C  C98  1  0.16513594  0.46977299  0.25885831  1
  C  C99  1  0.30463605  0.46977299  0.75885831  1
  C  C100  1  0.16513594  0.69536395  0.75885831  1
  C  C101  1  0.53022701  0.83486406  0.75885831  1
