# generated using pymatgen
data_Cu6Ni7C68
_symmetry_space_group_name_H-M   'P 1'
_cell_length_a   9.37431012
_cell_length_b   9.37370567
_cell_length_c   10.24415603
_cell_angle_alpha   90.00622587
_cell_angle_beta   90.00299198
_cell_angle_gamma   119.98437311
_symmetry_Int_Tables_number   1
_chemical_formula_structural   Cu6Ni7C68
_chemical_formula_sum   'Cu6 Ni7 C68'
_cell_volume   779.69689631
_cell_formula_units_Z   1
loop_
 _symmetry_equiv_pos_site_id
 _symmetry_equiv_pos_as_xyz
  1  'x, y, z'
loop_
 _atom_site_type_symbol
 _atom_site_label
 _atom_site_symmetry_multiplicity
 _atom_site_fract_x
 _atom_site_fract_y
 _atom_site_fract_z
 _atom_site_occupancy
  Ni  Ni0  1  0.66726200  0.99902700  0.50057600  1
  Ni  Ni1  1  0.33078100  0.99909200  0.49959000  1
  Ni  Ni2  1  0.66670600  0.66667200  0.50074600  1
  Ni  Ni3  1  0.66648700  0.66644600  0.16647400  1
  Ni  Ni4  1  0.00136900  0.33387500  0.16672500  1
  Ni  Ni5  1  0.66763100  0.99900300  0.83356100  1
  Ni  Ni6  1  0.99980300  0.66662300  0.83278500  1
  Cu  Cu7  1  0.00155700  0.00024400  0.16657400  1
  Cu  Cu8  1  0.66665900  0.33430200  0.49966800  1
  Cu  Cu9  1  0.00255700  0.33449300  0.50047100  1
  Cu  Cu10  1  0.66561400  0.33333000  0.16603800  1
  Cu  Cu11  1  0.33284000  0.66628400  0.16679100  1
  Cu  Cu12  1  0.33189100  0.00077900  0.83371200  1
  C  C13  1  0.33178000  0.33369100  0.50058900  1
  C  C14  1  0.33247600  0.66545700  0.49706400  1
  C  C15  1  0.66581800  0.33463900  0.83453600  1
  C  C16  1  0.66625200  0.99939500  0.16513800  1
  C  C17  1  0.33313500  0.33301600  0.16646900  1
  C  C18  1  0.00110700  0.66746900  0.16525400  1
  C  C19  1  0.00147400  0.00044600  0.49841300  1
  C  C20  1  0.00402200  0.33411600  0.83255700  1
  C  C21  1  0.00086300  0.66768900  0.50219100  1
  C  C22  1  0.33180800  0.99967000  0.16725200  1
  C  C23  1  0.00096300  0.00195200  0.83470800  1
  C  C24  1  0.66419100  0.66437500  0.83240700  1
  C  C25  1  0.33318200  0.66285100  0.83588300  1
  C  C26  1  0.33267400  0.33555100  0.83331300  1
  C  C27  1  0.77866600  0.55613700  0.99965900  1
  C  C28  1  0.44153700  0.22230700  0.33241600  1
  C  C29  1  0.11324100  0.22203100  0.33398100  1
  C  C30  1  0.77769400  0.88832000  0.99906900  1
  C  C31  1  0.44496300  0.88932200  0.99957900  1
  C  C32  1  0.11014200  0.88683400  0.00124800  1
  C  C33  1  0.11021700  0.55565900  0.00050900  1
  C  C34  1  0.44346200  0.55293900  0.00120500  1
  C  C35  1  0.11045700  0.55717300  0.33193700  1
  C  C36  1  0.77843300  0.22303100  0.99764700  1
  C  C37  1  0.44323800  0.22388400  0.00099200  1
  C  C38  1  0.11362000  0.22374100  0.00068800  1
  C  C39  1  0.77770700  0.22055400  0.33204900  1
  C  C40  1  0.88971800  0.77986200  0.66630700  1
  C  C41  1  0.55444500  0.77663400  0.66644600  1
  C  C42  1  0.78045000  0.55813100  0.33166800  1
  C  C43  1  0.88906300  0.77679200  0.99937200  1
  C  C44  1  0.22182300  0.11178400  0.33459100  1
  C  C45  1  0.55436200  0.10930800  0.33286800  1
  C  C46  1  0.88933800  0.10977800  0.33431800  1
  C  C47  1  0.22377700  0.44357600  0.33190100  1
  C  C48  1  0.55280400  0.44408100  0.33217000  1
  C  C49  1  0.89075300  0.44763100  0.33067600  1
  C  C50  1  0.22003600  0.77728000  0.33258900  1
  C  C51  1  0.55609500  0.77805600  0.33394000  1
  C  C52  1  0.89069200  0.77794600  0.33433400  1
  C  C53  1  0.22041500  0.11168000  0.66404500  1
  C  C54  1  0.55555500  0.11123900  0.66787100  1
  C  C55  1  0.89068000  0.10997400  0.66644400  1
  C  C56  1  0.22386300  0.44531800  0.66667700  1
  C  C57  1  0.55392400  0.44433100  0.66797400  1
  C  C58  1  0.88900500  0.44418100  0.66979600  1
  C  C59  1  0.22236900  0.77673000  0.66653600  1
  C  C60  1  0.55573500  0.77732400  0.99915600  1
  C  C61  1  0.22007600  0.77667700  0.00099600  1
  C  C62  1  0.88962000  0.44545700  0.99937800  1
  C  C63  1  0.44344000  0.55548300  0.66597900  1
  C  C64  1  0.10962200  0.88790500  0.33456400  1
  C  C65  1  0.44401900  0.88898900  0.33401400  1
  C  C66  1  0.77915000  0.88927000  0.33507600  1
  C  C67  1  0.11169800  0.22101900  0.66562600  1
  C  C68  1  0.44305200  0.22325800  0.66698700  1
  C  C69  1  0.77813900  0.22238400  0.66993400  1
  C  C70  1  0.11300900  0.55668000  0.66777200  1
  C  C71  1  0.77756500  0.55619700  0.66864700  1
  C  C72  1  0.55379800  0.44369200  0.99973600  1
  C  C73  1  0.10961900  0.88981300  0.66458200  1
  C  C74  1  0.44345800  0.88654500  0.66671500  1
  C  C75  1  0.77984200  0.88914300  0.66588900  1
  C  C76  1  0.22361900  0.11388000  0.00149100  1
  C  C77  1  0.55593000  0.11119300  0.99897300  1
  C  C78  1  0.88904800  0.11163700  0.99936300  1
  C  C79  1  0.22293100  0.44305200  0.00128200  1
  C  C80  1  0.44328000  0.55378000  0.33291500  1
