# generated using pymatgen
data_Cu3NiC17
_symmetry_space_group_name_H-M   'P 1'
_cell_length_a   9.23996083
_cell_length_b   9.23996049
_cell_length_c   22.48749333
_cell_angle_alpha   90.00000000
_cell_angle_beta   90.00000000
_cell_angle_gamma   120.00000118
_symmetry_Int_Tables_number   1
_chemical_formula_structural   Cu3NiC17
_chemical_formula_sum   'Cu18 Ni6 C102'
_cell_volume   1662.69242600
_cell_formula_units_Z   6
loop_
 _symmetry_equiv_pos_site_id
 _symmetry_equiv_pos_as_xyz
  1  'x, y, z'
loop_
 _atom_site_type_symbol
 _atom_site_label
 _atom_site_symmetry_multiplicity
 _atom_site_fract_x
 _atom_site_fract_y
 _atom_site_fract_z
 _atom_site_occupancy
  C  C0  1  0.63834696  0.01249285  0.24739295  1
  C  C1  1  0.37414588  0.36165304  0.24739295  1
  C  C2  1  0.98750715  0.62585412  0.24739295  1
  C  C3  1  0.63834696  0.62585412  0.74739295  1
  C  C4  1  0.98750715  0.36165304  0.74739295  1
  C  C5  1  0.37414588  0.01249285  0.74739295  1
  C  C6  1  0.30501396  0.34582585  0.58072595  1
  C  C7  1  0.04081288  0.69498604  0.58072595  1
  C  C8  1  0.65417415  0.95918712  0.58072595  1
  C  C9  1  0.30501396  0.95918712  0.08072595  1
  C  C10  1  0.65417415  0.69498604  0.08072595  1
  C  C11  1  0.04081288  0.34582585  0.08072595  1
  C  C12  1  0.97167996  0.67915985  0.91405995  1
  C  C13  1  0.70747888  0.02832004  0.91405995  1
  C  C14  1  0.32084015  0.29252112  0.91405995  1
  C  C15  1  0.97167996  0.29252112  0.41405995  1
  C  C16  1  0.32084015  0.02832004  0.41405995  1
  C  C17  1  0.70747888  0.67915985  0.41405995  1
  C  C18  1  0.00000000  -0.00000000  0.49526874  1
  C  C19  1  0.00000000  -0.00000000  0.99526874  1
  C  C20  1  0.66666700  0.33333300  0.82860174  1
  C  C21  1  0.66666700  0.33333300  0.32860174  1
  C  C22  1  0.33333300  0.66666700  0.16193574  1
  C  C23  1  0.33333300  0.66666700  0.66193574  1
  C  C24  1  0.00000000  -0.00000000  0.64680153  1
  C  C25  1  0.00000000  -0.00000000  0.14680153  1
  C  C26  1  0.66666700  0.33333300  0.98013453  1
  C  C27  1  0.66666700  0.33333300  0.48013453  1
  C  C28  1  0.33333300  0.66666700  0.31346853  1
  C  C29  1  0.33333300  0.66666700  0.81346853  1
  Ni  Ni30  1  0.00000000  -0.00000000  0.34984589  1
  Ni  Ni31  1  0.00000000  -0.00000000  0.84984589  1
  Ni  Ni32  1  0.66666700  0.33333300  0.68317889  1
  Ni  Ni33  1  0.66666700  0.33333300  0.18317889  1
  Ni  Ni34  1  0.33333300  0.66666700  0.01651289  1
  Ni  Ni35  1  0.33333300  0.66666700  0.51651289  1
  Cu  Cu36  1  0.29394348  0.99861371  0.25120829  1
  Cu  Cu37  1  0.70467024  0.70605652  0.25120829  1
  Cu  Cu38  1  0.00138629  0.29532976  0.25120829  1
  Cu  Cu39  1  0.29394348  0.29532976  0.75120829  1
  Cu  Cu40  1  0.00138629  0.70605652  0.75120829  1
  Cu  Cu41  1  0.70467024  0.99861371  0.75120829  1
  Cu  Cu42  1  0.96061048  0.33194671  0.58454129  1
  Cu  Cu43  1  0.37133724  0.03938952  0.58454129  1
  Cu  Cu44  1  0.66805329  0.62866276  0.58454129  1
  Cu  Cu45  1  0.96061048  0.62866276  0.08454129  1
  Cu  Cu46  1  0.66805329  0.03938952  0.08454129  1
  Cu  Cu47  1  0.37133724  0.33194671  0.08454129  1
  Cu  Cu48  1  0.62727648  0.66528071  0.91787529  1
  Cu  Cu49  1  0.03800324  0.37272352  0.91787529  1
  Cu  Cu50  1  0.33471929  0.96199676  0.91787529  1
  Cu  Cu51  1  0.62727648  0.96199676  0.41787529  1
  Cu  Cu52  1  0.33471929  0.37272352  0.41787529  1
  Cu  Cu53  1  0.03800324  0.66528071  0.41787529  1
  C  C54  1  0.21885094  0.03346574  0.31021864  1
  C  C55  1  0.81461481  0.78114906  0.31021864  1
  C  C56  1  0.96653426  0.18538519  0.31021864  1
  C  C57  1  0.21885094  0.18538519  0.81021864  1
  C  C58  1  0.96653426  0.78114906  0.81021864  1
  C  C59  1  0.81461481  0.03346574  0.81021864  1
  C  C60  1  0.80379819  0.96944999  0.69308778  1
  C  C61  1  0.16565180  0.19620181  0.69308778  1
  C  C62  1  0.03055001  0.83434820  0.69308778  1
  C  C63  1  0.80379819  0.83434820  0.19308778  1
  C  C64  1  0.03055001  0.19620181  0.19308778  1
  C  C65  1  0.16565180  0.96944999  0.19308778  1
  C  C66  1  0.88551794  0.36679874  0.64355164  1
  C  C67  1  0.48128181  0.11448206  0.64355164  1
  C  C68  1  0.63320126  0.51871819  0.64355164  1
  C  C69  1  0.88551794  0.51871819  0.14355164  1
  C  C70  1  0.63320126  0.11448206  0.14355164  1
  C  C71  1  0.48128181  0.36679874  0.14355164  1
  C  C72  1  0.47046519  0.30278299  0.02642078  1
  C  C73  1  0.83231880  0.52953481  0.02642078  1
  C  C74  1  0.69721701  0.16768120  0.02642078  1
  C  C75  1  0.47046519  0.16768120  0.52642078  1
  C  C76  1  0.69721701  0.52953481  0.52642078  1
  C  C77  1  0.83231880  0.30278299  0.52642078  1
  C  C78  1  0.55218394  0.70013274  0.97688564  1
  C  C79  1  0.14794781  0.44781606  0.97688564  1
  C  C80  1  0.29986726  0.85205219  0.97688564  1
  C  C81  1  0.55218394  0.85205219  0.47688564  1
  C  C82  1  0.29986726  0.44781606  0.47688564  1
  C  C83  1  0.14794781  0.70013274  0.47688564  1
  C  C84  1  0.13713119  0.63611699  0.35975478  1
  C  C85  1  0.49898480  0.86286881  0.35975478  1
  C  C86  1  0.36388301  0.50101520  0.35975478  1
  C  C87  1  0.13713119  0.50101520  0.85975478  1
  C  C88  1  0.36388301  0.86286881  0.85975478  1
  C  C89  1  0.49898480  0.63611699  0.85975478  1
  C  C90  1  0.01013809  0.82387435  0.41237955  1
  C  C91  1  0.81373626  0.98986191  0.41237955  1
  C  C92  1  0.17612565  0.18626374  0.41237955  1
  C  C93  1  0.01013809  0.18626374  0.91237955  1
  C  C94  1  0.17612565  0.98986191  0.91237955  1
  C  C95  1  0.81373626  0.82387435  0.91237955  1
  C  C96  1  0.96720993  0.15468902  0.58840741  1
  C  C97  1  0.18747909  0.03279007  0.58840741  1
  C  C98  1  0.84531098  0.81252091  0.58840741  1
  C  C99  1  0.96720993  0.81252091  0.08840741  1
  C  C100  1  0.84531098  0.03279007  0.08840741  1
  C  C101  1  0.18747909  0.15468902  0.08840741  1
  C  C102  1  0.67680509  0.15720735  0.74571255  1
  C  C103  1  0.48040326  0.32319491  0.74571255  1
  C  C104  1  0.84279265  0.51959674  0.74571255  1
  C  C105  1  0.67680509  0.51959674  0.24571255  1
  C  C106  1  0.84279265  0.32319491  0.24571255  1
  C  C107  1  0.48040326  0.15720735  0.24571255  1
  C  C108  1  0.63387693  0.48802202  0.92174041  1
  C  C109  1  0.85414609  0.36612307  0.92174041  1
  C  C110  1  0.51197798  0.14585391  0.92174041  1
  C  C111  1  0.63387693  0.14585391  0.42174041  1
  C  C112  1  0.51197798  0.36612307  0.42174041  1
  C  C113  1  0.85414609  0.48802202  0.42174041  1
  C  C114  1  0.34347109  0.49054135  0.07904655  1
  C  C115  1  0.14706926  0.65652891  0.07904655  1
  C  C116  1  0.50945865  0.85293074  0.07904655  1
  C  C117  1  0.34347109  0.85293074  0.57904655  1
  C  C118  1  0.50945865  0.65652891  0.57904655  1
  C  C119  1  0.14706926  0.49054135  0.57904655  1
  C  C120  1  0.30054293  0.82135602  0.25507441  1
  C  C121  1  0.52081209  0.69945707  0.25507441  1
  C  C122  1  0.17864398  0.47918791  0.25507441  1
  C  C123  1  0.30054293  0.47918791  0.75507441  1
  C  C124  1  0.17864398  0.69945707  0.75507441  1
  C  C125  1  0.52081209  0.82135602  0.75507441  1
