# generated using pymatgen
data_Cu4NiC14
_symmetry_space_group_name_H-M   'P 1'
_cell_length_a   3.98768627
_cell_length_b   6.57698284
_cell_length_c   10.45584167
_cell_angle_alpha   89.95945155
_cell_angle_beta   90.00485977
_cell_angle_gamma   90.04153903
_symmetry_Int_Tables_number   1
_chemical_formula_structural   Cu4NiC14
_chemical_formula_sum   'Cu4 Ni1 C14'
_cell_volume   274.22463370
_cell_formula_units_Z   1
loop_
 _symmetry_equiv_pos_site_id
 _symmetry_equiv_pos_as_xyz
  1  'x, y, z'
loop_
 _atom_site_type_symbol
 _atom_site_label
 _atom_site_symmetry_multiplicity
 _atom_site_fract_x
 _atom_site_fract_y
 _atom_site_fract_z
 _atom_site_occupancy
  C  C0  1  0.00016700  0.34431700  0.75055300  1
  C  C1  1  0.00100100  0.57478700  0.24986500  1
  Ni  Ni2  1  0.99818100  0.05674300  0.25036800  1
  Cu  Cu3  1  0.49981000  0.21596000  0.05481700  1
  Cu  Cu4  1  0.49985200  0.21683200  0.44479200  1
  Cu  Cu5  1  0.50015100  0.78328900  0.56861900  1
  Cu  Cu6  1  0.50016400  0.78402400  0.93259500  1
  C  C7  1  0.00001800  0.22730000  0.41242200  1
  C  C8  1  0.50006800  0.91296100  0.37944500  1
  C  C9  1  0.50024100  0.91153800  0.12109400  1
  C  C10  1  0.00000500  0.22630900  0.08776800  1
  C  C11  1  0.50017900  0.11030700  0.61640700  1
  C  C12  1  0.00004100  0.78861800  0.56674200  1
  C  C13  1  0.00006100  0.78916200  0.93374200  1
  C  C14  1  0.50044500  0.29803500  0.24998700  1
  C  C15  1  0.49974100  0.50671300  0.00442200  1
  C  C16  1  0.50013800  0.11119500  0.88237100  1
  C  C17  1  0.49998100  0.67564000  0.74975200  1
  C  C18  1  0.49975600  0.50793700  0.49423500  1
