# generated using pymatgen
data_Cu3NiC13
_symmetry_space_group_name_H-M   'P 1'
_cell_length_a   8.47288708
_cell_length_b   8.47288682
_cell_length_c   21.80241285
_cell_angle_alpha   90.00000000
_cell_angle_beta   90.00000000
_cell_angle_gamma   120.00000100
_symmetry_Int_Tables_number   1
_chemical_formula_structural   Cu3NiC13
_chemical_formula_sum   'Cu18 Ni6 C78'
_cell_volume   1355.49528248
_cell_formula_units_Z   6
loop_
 _symmetry_equiv_pos_site_id
 _symmetry_equiv_pos_as_xyz
  1  'x, y, z'
loop_
 _atom_site_type_symbol
 _atom_site_label
 _atom_site_symmetry_multiplicity
 _atom_site_fract_x
 _atom_site_fract_y
 _atom_site_fract_z
 _atom_site_occupancy
  C  C0  1  -0.00000000  0.00000000  0.35722754  1
  C  C1  1  -0.00000000  0.00000000  0.85722754  1
  C  C2  1  0.66666700  0.33333300  0.69056054  1
  C  C3  1  0.66666700  0.33333300  0.19056054  1
  C  C4  1  0.33333300  0.66666700  0.02389454  1
  C  C5  1  0.33333300  0.66666700  0.52389454  1
  Ni  Ni6  1  -0.00000000  0.00000000  0.64854667  1
  Ni  Ni7  1  -0.00000000  0.00000000  0.14854667  1
  Ni  Ni8  1  0.66666700  0.33333300  0.98187967  1
  Ni  Ni9  1  0.66666700  0.33333300  0.48187967  1
  Ni  Ni10  1  0.33333300  0.66666700  0.31521367  1
  Ni  Ni11  1  0.33333300  0.66666700  0.81521367  1
  Cu  Cu12  1  0.28461159  0.98872408  0.25148849  1
  Cu  Cu13  1  0.70411249  0.71538841  0.25148849  1
  Cu  Cu14  1  0.01127592  0.29588751  0.25148849  1
  Cu  Cu15  1  0.28461159  0.29588751  0.75148849  1
  Cu  Cu16  1  0.01127592  0.71538841  0.75148849  1
  Cu  Cu17  1  0.70411249  0.98872408  0.75148849  1
  Cu  Cu18  1  0.95127859  0.32205708  0.58482149  1
  Cu  Cu19  1  0.37077949  0.04872141  0.58482149  1
  Cu  Cu20  1  0.67794292  0.62922051  0.58482149  1
  Cu  Cu21  1  0.95127859  0.62922051  0.08482149  1
  Cu  Cu22  1  0.67794292  0.04872141  0.08482149  1
  Cu  Cu23  1  0.37077949  0.32205708  0.08482149  1
  Cu  Cu24  1  0.61794459  0.65539108  0.91815549  1
  Cu  Cu25  1  0.03744549  0.38205541  0.91815549  1
  Cu  Cu26  1  0.34460892  0.96255451  0.91815549  1
  Cu  Cu27  1  0.61794459  0.96255451  0.41815549  1
  Cu  Cu28  1  0.34460892  0.38205541  0.41815549  1
  Cu  Cu29  1  0.03744549  0.65539108  0.41815549  1
  C  C30  1  0.19988563  0.01623921  0.30465556  1
  C  C31  1  0.81635357  0.80011437  0.30465556  1
  C  C32  1  0.98376079  0.18364643  0.30465556  1
  C  C33  1  0.19988563  0.18364643  0.80465556  1
  C  C34  1  0.98376079  0.80011437  0.80465556  1
  C  C35  1  0.81635357  0.01623921  0.80465556  1
  C  C36  1  0.78148377  0.94569652  0.69379604  1
  C  C37  1  0.16421275  0.21851623  0.69379604  1
  C  C38  1  0.05430348  0.83578725  0.69379604  1
  C  C39  1  0.78148377  0.83578725  0.19379604  1
  C  C40  1  0.05430348  0.21851623  0.19379604  1
  C  C41  1  0.16421275  0.94569652  0.19379604  1
  C  C42  1  0.86655263  0.34957221  0.63798856  1
  C  C43  1  0.48302057  0.13344737  0.63798856  1
  C  C44  1  0.65042779  0.51697943  0.63798856  1
  C  C45  1  0.86655263  0.51697943  0.13798856  1
  C  C46  1  0.65042779  0.13344737  0.13798856  1
  C  C47  1  0.48302057  0.34957221  0.13798856  1
  C  C48  1  0.44815077  0.27902952  0.02712904  1
  C  C49  1  0.83087975  0.55184923  0.02712904  1
  C  C50  1  0.72097048  0.16912025  0.02712904  1
  C  C51  1  0.44815077  0.16912025  0.52712904  1
  C  C52  1  0.72097048  0.55184923  0.52712904  1
  C  C53  1  0.83087975  0.27902952  0.52712904  1
  C  C54  1  0.53321863  0.68290621  0.97132256  1
  C  C55  1  0.14968657  0.46678137  0.97132256  1
  C  C56  1  0.31709379  0.85031343  0.97132256  1
  C  C57  1  0.53321863  0.85031343  0.47132256  1
  C  C58  1  0.31709379  0.46678137  0.47132256  1
  C  C59  1  0.14968657  0.68290621  0.47132256  1
  C  C60  1  0.11481677  0.61236352  0.36046304  1
  C  C61  1  0.49754575  0.88518323  0.36046304  1
  C  C62  1  0.38763648  0.50245425  0.36046304  1
  C  C63  1  0.11481677  0.50245425  0.86046304  1
  C  C64  1  0.38763648  0.88518323  0.86046304  1
  C  C65  1  0.49754575  0.61236352  0.86046304  1
  C  C66  1  0.01212032  0.80939107  0.40768190  1
  C  C67  1  0.79727075  0.98787968  0.40768190  1
  C  C68  1  0.19060893  0.20272925  0.40768190  1
  C  C69  1  0.01212032  0.20272925  0.90768190  1
  C  C70  1  0.19060893  0.98787968  0.90768190  1
  C  C71  1  0.79727075  0.80939107  0.90768190  1
  C  C72  1  0.96133286  0.14919255  0.59045327  1
  C  C73  1  0.18785969  0.03866714  0.59045327  1
  C  C74  1  0.85080745  0.81214031  0.59045327  1
  C  C75  1  0.96133286  0.81214031  0.09045327  1
  C  C76  1  0.85080745  0.03866714  0.09045327  1
  C  C77  1  0.18785969  0.14919255  0.09045327  1
  C  C78  1  0.67878732  0.14272407  0.74101490  1
  C  C79  1  0.46393775  0.32121268  0.74101490  1
  C  C80  1  0.85727593  0.53606225  0.74101490  1
  C  C81  1  0.67878732  0.53606225  0.24101490  1
  C  C82  1  0.85727593  0.32121268  0.24101490  1
  C  C83  1  0.46393775  0.14272407  0.24101490  1
  C  C84  1  0.62799986  0.48252555  0.92378627  1
  C  C85  1  0.85452669  0.37200014  0.92378627  1
  C  C86  1  0.51747445  0.14547331  0.92378627  1
  C  C87  1  0.62799986  0.14547331  0.42378627  1
  C  C88  1  0.51747445  0.37200014  0.42378627  1
  C  C89  1  0.85452669  0.48252555  0.42378627  1
  C  C90  1  0.34545332  0.47605807  0.07434890  1
  C  C91  1  0.13060375  0.65454668  0.07434890  1
  C  C92  1  0.52394193  0.86939625  0.07434890  1
  C  C93  1  0.34545332  0.86939625  0.57434890  1
  C  C94  1  0.52394193  0.65454668  0.57434890  1
  C  C95  1  0.13060375  0.47605807  0.57434890  1
  C  C96  1  0.29466586  0.81585955  0.25712027  1
  C  C97  1  0.52119269  0.70533414  0.25712027  1
  C  C98  1  0.18414045  0.47880731  0.25712027  1
  C  C99  1  0.29466586  0.47880731  0.75712027  1
  C  C100  1  0.18414045  0.70533414  0.75712027  1
  C  C101  1  0.52119269  0.81585955  0.75712027  1
