# generated using pymatgen
data_Cu(NiC4)2
_symmetry_space_group_name_H-M   'P 1'
_cell_length_a   7.01479892
_cell_length_b   6.20932208
_cell_length_c   6.06086804
_cell_angle_alpha   59.18638819
_cell_angle_beta   68.90339248
_cell_angle_gamma   63.73091610
_symmetry_Int_Tables_number   1
_chemical_formula_structural   Cu(NiC4)2
_chemical_formula_sum   'Cu1 Ni2 C8'
_cell_volume   200.24769974
_cell_formula_units_Z   1
loop_
 _symmetry_equiv_pos_site_id
 _symmetry_equiv_pos_as_xyz
  1  'x, y, z'
loop_
 _atom_site_type_symbol
 _atom_site_label
 _atom_site_symmetry_multiplicity
 _atom_site_fract_x
 _atom_site_fract_y
 _atom_site_fract_z
 _atom_site_occupancy
  Ni  Ni0  1  0.28740020  0.20662744  0.29934493  1
  Ni  Ni1  1  0.53983087  0.77953690  0.90109532  1
  Cu  Cu2  1  0.64470911  0.43252711  0.49023667  1
  C  C3  1  0.14132740  0.60943772  0.63979616  1
  C  C4  1  0.91322398  0.00777612  0.07122379  1
  C  C5  1  0.12299378  0.80960988  0.25778647  1
  C  C6  1  0.35179246  0.26986119  0.67168253  1
  C  C7  1  0.35179246  0.70666382  0.67168253  1
  C  C8  1  0.68123729  0.26112165  0.21194087  1
  C  C9  1  0.68123729  0.84570019  0.21194087  1
  C  C10  1  0.93028617  0.18572299  0.69826785  1
