# generated using pymatgen
data_Cu2Ni2C5
_symmetry_space_group_name_H-M   'P 1'
_cell_length_a   8.58112900
_cell_length_b   6.67058000
_cell_length_c   7.49747554
_cell_angle_alpha   80.51964431
_cell_angle_beta   90.00000000
_cell_angle_gamma   90.00000000
_symmetry_Int_Tables_number   1
_chemical_formula_structural   Cu2Ni2C5
_chemical_formula_sum   'Cu8 Ni8 C20'
_cell_volume   423.30234017
_cell_formula_units_Z   4
loop_
 _symmetry_equiv_pos_site_id
 _symmetry_equiv_pos_as_xyz
  1  'x, y, z'
loop_
 _atom_site_type_symbol
 _atom_site_label
 _atom_site_symmetry_multiplicity
 _atom_site_fract_x
 _atom_site_fract_y
 _atom_site_fract_z
 _atom_site_occupancy
  C  C0  1  0.13638600  0.75000000  0.00000000  1
  C  C1  1  0.86361400  0.25000000  0.00000000  1
  C  C2  1  0.40099100  0.75000000  0.50000000  1
  C  C3  1  0.59900900  0.25000000  0.50000000  1
  Ni  Ni4  1  0.15090300  0.08916100  0.41425600  1
  Ni  Ni5  1  0.15090300  0.41083900  0.58574400  1
  Ni  Ni6  1  0.84909700  0.91083900  0.58574400  1
  Ni  Ni7  1  0.84909700  0.58916100  0.41425600  1
  Ni  Ni8  1  0.56213800  0.76559500  0.83625200  1
  Ni  Ni9  1  0.56213800  0.73440500  0.16374800  1
  Ni  Ni10  1  0.43786200  0.23440500  0.16374800  1
  Ni  Ni11  1  0.43786200  0.26559500  0.83625200  1
  Cu  Cu12  1  0.60284500  0.87976900  0.20006900  1
  Cu  Cu13  1  0.14267600  0.99110800  0.30878400  1
  Cu  Cu14  1  0.14267600  0.50889200  0.69121600  1
  Cu  Cu15  1  0.85732400  0.00889200  0.69121600  1
  Cu  Cu16  1  0.85732400  0.49110800  0.30878400  1
  Cu  Cu17  1  0.39715500  0.37976900  0.20006900  1
  Cu  Cu18  1  0.39715500  0.12023100  0.79993200  1
  Cu  Cu19  1  0.60284500  0.62023100  0.79993200  1
  C  C20  1  0.31500000  0.49521600  0.08995300  1
  C  C21  1  0.68500000  0.50478400  0.91004700  1
  C  C22  1  0.31500000  0.00478400  0.91004700  1
  C  C23  1  0.68500000  0.99521600  0.08995300  1
  C  C24  1  0.95804800  0.52796400  0.18525900  1
  C  C25  1  0.43880100  0.41794400  0.35611800  1
  C  C26  1  0.23687500  0.65846100  0.68398200  1
  C  C27  1  0.76312500  0.15846100  0.68398200  1
  C  C28  1  0.76312500  0.34153900  0.31601800  1
  C  C29  1  0.04195200  0.02796400  0.18525900  1
  C  C30  1  0.04195200  0.47203600  0.81474100  1
  C  C31  1  0.95804800  0.97203600  0.81474100  1
  C  C32  1  0.56119900  0.58205600  0.64388200  1
  C  C33  1  0.56119900  0.91794400  0.35611800  1
  C  C34  1  0.23687500  0.84153900  0.31601800  1
  C  C35  1  0.43880100  0.08205600  0.64388200  1
