# generated using pymatgen
data_Cu8Ni4C5
_symmetry_space_group_name_H-M   'P 1'
_cell_length_a   3.82750000
_cell_length_b   4.09698998
_cell_length_c   21.90499421
_cell_angle_alpha   90.13666672
_cell_angle_beta   90.00000000
_cell_angle_gamma   90.00000000
_symmetry_Int_Tables_number   1
_chemical_formula_structural   Cu8Ni4C5
_chemical_formula_sum   'Cu8 Ni4 C5'
_cell_volume   343.49625682
_cell_formula_units_Z   1
loop_
 _symmetry_equiv_pos_site_id
 _symmetry_equiv_pos_as_xyz
  1  'x, y, z'
loop_
 _atom_site_type_symbol
 _atom_site_label
 _atom_site_symmetry_multiplicity
 _atom_site_fract_x
 _atom_site_fract_y
 _atom_site_fract_z
 _atom_site_occupancy
  C  C0  1  0.75000000  0.49866000  0.47419400  1
  C  C1  1  0.25000000  0.55599800  0.93579900  1
  C  C2  1  0.75000000  0.00187000  0.57187200  1
  C  C3  1  0.75000000  0.44437500  0.06392900  1
  C  C4  1  0.25000000  0.99793600  0.42848600  1
  Ni  Ni5  1  0.25000000  0.00378300  0.67276800  1
  Ni  Ni6  1  0.75000000  0.99659500  0.32667900  1
  Ni  Ni7  1  0.25000000  0.50947600  0.16831500  1
  Ni  Ni8  1  0.75000000  0.49048200  0.83180700  1
  Cu  Cu9  1  0.25000000  0.49762100  0.43326300  1
  Cu  Cu10  1  0.75000000  0.50250900  0.56630500  1
  Cu  Cu11  1  0.25000000  0.99448600  0.93027700  1
  Cu  Cu12  1  0.75000000  0.99856300  0.46695500  1
  Cu  Cu13  1  0.25000000  0.00237900  0.53174500  1
  Cu  Cu14  1  0.25000000  0.50429100  0.03108900  1
  Cu  Cu15  1  0.75000000  0.00572600  0.06986900  1
  Cu  Cu16  1  0.75000000  0.49525200  0.96887000  1
