# generated using pymatgen
data_CuNi11C7
_symmetry_space_group_name_H-M   'P 1'
_cell_length_a   7.07604119
_cell_length_b   5.66206174
_cell_length_c   5.87624313
_cell_angle_alpha   81.67818207
_cell_angle_beta   70.36585719
_cell_angle_gamma   73.94085131
_symmetry_Int_Tables_number   1
_chemical_formula_structural   CuNi11C7
_chemical_formula_sum   'Cu1 Ni11 C7'
_cell_volume   212.74079340
_cell_formula_units_Z   1
loop_
 _symmetry_equiv_pos_site_id
 _symmetry_equiv_pos_as_xyz
  1  'x, y, z'
loop_
 _atom_site_type_symbol
 _atom_site_label
 _atom_site_symmetry_multiplicity
 _atom_site_fract_x
 _atom_site_fract_y
 _atom_site_fract_z
 _atom_site_occupancy
  C  C0  1  0.98535620  0.01039490  0.51352464  1
  C  C1  1  0.81837085  0.63727748  0.68446634  1
  C  C2  1  0.66226752  0.37891516  0.28660058  1
  C  C3  1  0.33618117  0.66226191  0.68148039  1
  C  C4  1  0.16964801  0.36871412  0.33367824  1
  C  C5  1  0.50038969  0.98759229  0.00843106  1
  C  C6  1  0.99661031  0.98555198  0.02100125  1
  Ni  Ni7  1  0.68404270  0.97657258  0.68299508  1
  Ni  Ni8  1  0.29533327  0.91313826  0.89374198  1
  Ni  Ni9  1  0.63048460  0.54357807  0.57258109  1
  Ni  Ni10  1  0.95747683  0.24836624  0.22770487  1
  Ni  Ni11  1  0.69880167  0.10026014  0.10970525  1
  Ni  Ni12  1  0.03596903  0.75974089  0.78035290  1
  Ni  Ni13  1  0.36734152  0.45088173  0.43386968  1
  Ni  Ni14  1  0.30070365  0.02266965  0.33166101  1
  Ni  Ni15  1  0.64980577  0.64793318  0.01999544  1
  Ni  Ni16  1  0.00103509  0.31220481  0.65299243  1
  Ni  Ni17  1  0.99555413  0.70016381  0.35142247  1
  Cu  Cu18  1  0.34055600  0.36878279  0.98879329  1
