# generated using pymatgen
data_Cu12Ni12C13
_symmetry_space_group_name_H-M   'P 1'
_cell_length_a   9.70970753
_cell_length_b   14.46644343
_cell_length_c   3.09991100
_cell_angle_alpha   90.00000000
_cell_angle_beta   90.00000000
_cell_angle_gamma   92.09718897
_symmetry_Int_Tables_number   1
_chemical_formula_structural   Cu12Ni12C13
_chemical_formula_sum   'Cu12 Ni12 C13'
_cell_volume   435.13714181
_cell_formula_units_Z   1
loop_
 _symmetry_equiv_pos_site_id
 _symmetry_equiv_pos_as_xyz
  1  'x, y, z'
loop_
 _atom_site_type_symbol
 _atom_site_label
 _atom_site_symmetry_multiplicity
 _atom_site_fract_x
 _atom_site_fract_y
 _atom_site_fract_z
 _atom_site_occupancy
  C  C0  1  0.47424000  0.81918200  0.00000000  1
  C  C1  1  0.98913200  0.02224800  0.00000000  1
  C  C2  1  0.02219400  0.32877700  0.00000000  1
  C  C3  1  0.00763800  0.66123200  0.00000000  1
  C  C4  1  0.22747700  0.16829200  0.50000000  1
  C  C5  1  0.25214100  0.48280100  0.50000000  1
  C  C6  1  0.21008700  0.87248200  0.50000000  1
  C  C7  1  0.49854200  0.34456600  0.00000000  1
  C  C8  1  0.50413000  0.00534600  0.00000000  1
  C  C9  1  0.54711500  0.63157200  0.00000000  1
  C  C10  1  0.74067900  0.15715400  0.50000000  1
  C  C11  1  0.74567600  0.48219200  0.50000000  1
  C  C12  1  0.74348400  0.82789900  0.50000000  1
  Ni  Ni13  1  0.09644900  0.26680500  0.50000000  1
  Ni  Ni14  1  0.06077300  0.94475800  0.50000000  1
  Ni  Ni15  1  0.15796500  0.10319500  0.00000000  1
  Ni  Ni16  1  0.15369400  0.43457400  0.00000000  1
  Ni  Ni17  1  0.32730300  0.91033100  0.00000000  1
  Ni  Ni18  1  0.40720800  0.39807600  0.50000000  1
  Ni  Ni19  1  0.56775200  0.91781600  0.50000000  1
  Ni  Ni20  1  0.63819700  0.58604300  0.50000000  1
  Ni  Ni21  1  0.64438600  0.10016400  0.00000000  1
  Ni  Ni22  1  0.66891600  0.41740300  0.00000000  1
  Ni  Ni23  1  0.65735500  0.76525400  0.00000000  1
  Ni  Ni24  1  0.89365500  0.07817100  0.50000000  1
  Cu  Cu25  1  0.12251300  0.60171700  0.50000000  1
  Cu  Cu26  1  0.14444200  0.77845300  0.00000000  1
  Cu  Cu27  1  0.34956900  0.23170600  0.00000000  1
  Cu  Cu28  1  0.35336800  0.56233600  0.00000000  1
  Cu  Cu29  1  0.40391000  0.06993700  0.50000000  1
  Cu  Cu30  1  0.40512100  0.74646900  0.50000000  1
  Cu  Cu31  1  0.58676000  0.26176900  0.50000000  1
  Cu  Cu32  1  0.83423900  0.23847600  0.00000000  1
  Cu  Cu33  1  0.82905900  0.90384400  0.00000000  1
  Cu  Cu34  1  0.87398300  0.54934200  0.00000000  1
  Cu  Cu35  1  0.91354000  0.39215800  0.50000000  1
  Cu  Cu36  1  0.90445300  0.73838300  0.50000000  1
