# generated using pymatgen
data_CuNiC18
_symmetry_space_group_name_H-M   'P 1'
_cell_length_a   15.43917606
_cell_length_b   8.92680659
_cell_length_c   8.80772956
_cell_angle_alpha   89.99997338
_cell_angle_beta   125.06187051
_cell_angle_gamma   90.00000193
_symmetry_Int_Tables_number   1
_chemical_formula_structural   CuNiC18
_chemical_formula_sum   'Cu4 Ni4 C72'
_cell_volume   993.61921574
_cell_formula_units_Z   4
loop_
 _symmetry_equiv_pos_site_id
 _symmetry_equiv_pos_as_xyz
  1  'x, y, z'
loop_
 _atom_site_type_symbol
 _atom_site_label
 _atom_site_symmetry_multiplicity
 _atom_site_fract_x
 _atom_site_fract_y
 _atom_site_fract_z
 _atom_site_occupancy
  C  C0  1  0.25054965  0.72694214  0.98507846  1
  C  C1  1  0.75054968  0.77305790  0.48507838  1
  C  C2  1  0.75054966  0.22694223  0.98507866  1
  C  C3  1  0.25054975  0.27305783  0.48507859  1
  C  C4  1  0.50241080  0.10959281  0.74613681  1
  C  C5  1  0.50241086  0.89040715  0.24613696  1
  C  C6  1  0.00241080  0.60959285  0.74613673  1
  C  C7  1  0.00241088  0.39040718  0.24613684  1
  C  C8  1  0.18449301  0.94103421  0.28484573  1
  C  C9  1  0.18449291  0.05896579  0.78484542  1
  C  C10  1  0.68449299  0.44103416  0.28484555  1
  C  C11  1  0.68449303  0.55896588  0.78484556  1
  Ni  Ni12  1  0.89491895  0.75728766  0.94143508  1
  Ni  Ni13  1  0.89491872  0.24271289  0.44143499  1
  Ni  Ni14  1  0.39491918  0.25728738  0.94143577  1
  Ni  Ni15  1  0.39491880  0.74271300  0.44143480  1
  Cu  Cu16  1  0.09894128  0.74872389  0.55122166  1
  Cu  Cu17  1  0.09894130  0.25127605  0.05122178  1
  Cu  Cu18  1  0.59894125  0.24872389  0.55122159  1
  Cu  Cu19  1  0.59894132  0.75127605  0.05122177  1
  C  C20  1  0.99825426  0.95586515  0.76042376  1
  C  C21  1  0.99825450  0.04413538  0.26042452  1
  C  C22  1  0.49825435  0.45586518  0.76042397  1
  C  C23  1  0.49825445  0.54413546  0.26042439  1
  C  C24  1  0.35403669  0.90082751  0.75916399  1
  C  C25  1  0.64696956  0.88985473  0.74739456  1
  C  C26  1  0.64696991  0.11014501  0.24739499  1
  C  C27  1  0.35403675  0.09917192  0.25916466  1
  C  C28  1  0.85403667  0.40082768  0.75916403  1
  C  C29  1  0.14696951  0.38985506  0.74739462  1
  C  C30  1  0.14696967  0.61014521  0.24739470  1
  C  C31  1  0.85403649  0.59917213  0.25916406  1
  C  C32  1  0.15369144  0.55989294  0.73883147  1
  C  C33  1  0.84943280  0.57852120  0.75360987  1
  C  C34  1  0.84943282  0.42147877  0.25360960  1
  C  C35  1  0.15369140  0.44010718  0.23883132  1
  C  C36  1  0.65369136  0.05989306  0.73883152  1
  C  C37  1  0.34943276  0.07852131  0.75360964  1
  C  C38  1  0.34943268  0.92147865  0.25360960  1
  C  C39  1  0.65369154  0.94010672  0.23883145  1
  C  C40  1  0.43735811  0.56900516  0.58998825  1
  C  C41  1  0.56625275  0.54411668  0.93838802  1
  C  C42  1  0.56625290  0.45588343  0.43838792  1
  C  C43  1  0.43735765  0.43099331  0.08998672  1
  C  C44  1  0.93735811  0.06900536  0.58998782  1
  C  C45  1  0.06625297  0.04411664  0.93838810  1
  C  C46  1  0.06625278  0.95588370  0.43838791  1
  C  C47  1  0.93735778  0.93099388  0.08998702  1
  C  C48  1  0.25721635  0.84305587  0.74708875  1
  C  C49  1  0.73961455  0.80910899  0.75275942  1
  C  C50  1  0.73961425  0.19089074  0.25275919  1
  C  C51  1  0.25721659  0.15694393  0.24708916  1
  C  C52  1  0.75721672  0.34305591  0.74708898  1
  C  C53  1  0.23961450  0.30910920  0.75275960  1
  C  C54  1  0.23961415  0.69089072  0.25275912  1
  C  C55  1  0.75721652  0.65694414  0.24708896  1
  C  C56  1  0.35514915  0.85774002  0.58417210  1
  C  C57  1  0.65162475  0.84417152  0.91702163  1
  C  C58  1  0.65162493  0.15582856  0.41702249  1
  C  C59  1  0.35514922  0.14226041  0.08417105  1
  C  C60  1  0.85514919  0.35773999  0.58417197  1
  C  C61  1  0.15162497  0.34417154  0.91702181  1
  C  C62  1  0.15162473  0.65582860  0.41702216  1
  C  C63  1  0.85514924  0.64226014  0.08417159  1
  C  C64  1  0.45567334  0.85007424  0.93630652  1
  C  C65  1  0.54031396  0.82641703  0.56723478  1
  C  C66  1  0.54031335  0.17358318  0.06723419  1
  C  C67  1  0.45567328  0.14992618  0.43630674  1
  C  C68  1  0.95567318  0.35007417  0.93630636  1
  C  C69  1  0.04031414  0.32641702  0.56723506  1
  C  C70  1  0.04031370  0.67358311  0.06723457  1
  C  C71  1  0.95567349  0.64992626  0.43630686  1
  C  C72  1  0.07105855  0.85035877  0.74376648  1
  C  C73  1  0.91203992  0.85896655  0.75513271  1
  C  C74  1  0.91204001  0.14103312  0.25513251  1
  C  C75  1  0.07105863  0.14964160  0.24376685  1
  C  C76  1  0.57105859  0.35035847  0.74376678  1
  C  C77  1  0.41203998  0.35896654  0.75513274  1
  C  C78  1  0.41204008  0.64103306  0.25513250  1
  C  C79  1  0.57105853  0.64964108  0.24376676  1
