# generated using pymatgen
data_CuNiC9
_symmetry_space_group_name_H-M   'P 1'
_cell_length_a   5.18747457
_cell_length_b   5.79507694
_cell_length_c   5.79934824
_cell_angle_alpha   73.77670160
_cell_angle_beta   88.72379296
_cell_angle_gamma   91.58740293
_symmetry_Int_Tables_number   1
_chemical_formula_structural   CuNiC9
_chemical_formula_sum   'Cu1 Ni1 C9'
_cell_volume   167.25071885
_cell_formula_units_Z   1
loop_
 _symmetry_equiv_pos_site_id
 _symmetry_equiv_pos_as_xyz
  1  'x, y, z'
loop_
 _atom_site_type_symbol
 _atom_site_label
 _atom_site_symmetry_multiplicity
 _atom_site_fract_x
 _atom_site_fract_y
 _atom_site_fract_z
 _atom_site_occupancy
  Ni  Ni0  1  0.22271520  0.88946103  0.49696290  1
  Cu  Cu1  1  0.72379433  0.06221678  0.67269416  1
  C  C2  1  0.16660192  0.78963839  0.99340956  1
  C  C3  1  0.28057403  0.38533769  0.39858672  1
  C  C4  1  0.22335565  0.50985240  0.11834656  1
  C  C5  1  0.41558061  0.89915156  0.85105325  1
  C  C6  1  0.03170388  0.24238819  0.50739467  1
  C  C7  1  0.07265441  0.90590415  0.18093030  1
  C  C8  1  0.48137122  0.19137623  0.39610953  1
  C  C9  1  0.37430408  0.57436882  0.51378224  1
  C  C10  1  0.96553667  0.78660277  0.79845011  1
