# generated using pymatgen
data_Cu3NiC31
_symmetry_space_group_name_H-M   'P 1'
_cell_length_a   8.60906215
_cell_length_b   8.60823566
_cell_length_c   22.36554759
_cell_angle_alpha   90.03768374
_cell_angle_beta   90.11105796
_cell_angle_gamma   120.07036952
_symmetry_Int_Tables_number   1
_chemical_formula_structural   Cu3NiC31
_chemical_formula_sum   'Cu9 Ni3 C93'
_cell_volume   1434.39968788
_cell_formula_units_Z   3
loop_
 _symmetry_equiv_pos_site_id
 _symmetry_equiv_pos_as_xyz
  1  'x, y, z'
loop_
 _atom_site_type_symbol
 _atom_site_label
 _atom_site_symmetry_multiplicity
 _atom_site_fract_x
 _atom_site_fract_y
 _atom_site_fract_z
 _atom_site_occupancy
  C  C0  1  0.66086561  0.33288911  0.83158731  1
  C  C1  1  0.66922930  0.32982500  0.33108066  1
  C  C2  1  0.33088927  0.66950103  0.16755297  1
  Ni  Ni3  1  0.66106068  0.33612444  0.68746592  1
  Ni  Ni4  1  0.66940890  0.33043230  0.18623009  1
  Ni  Ni5  1  0.33005458  0.66982393  0.31354621  1
  Cu  Cu6  1  0.99337875  0.99277803  0.35930795  1
  Cu  Cu7  1  0.00894871  0.00594273  0.86006783  1
  Cu  Cu8  1  0.99931703  0.00196580  0.64462938  1
  Cu  Cu9  1  0.99531057  0.99563546  0.13930381  1
  Cu  Cu10  1  0.67871587  0.33692586  0.97985073  1
  Cu  Cu11  1  0.67829643  0.34717109  0.48053733  1
  Cu  Cu12  1  0.33514780  0.67515683  0.01792160  1
  Cu  Cu13  1  0.34566839  0.68061607  0.51975261  1
  Cu  Cu14  1  0.33428464  0.65810853  0.81166931  1
  C  C15  1  0.28533967  0.28295762  0.75113882  1
  C  C16  1  0.66512650  0.62217569  0.58526094  1
  C  C17  1  0.95737725  0.61880262  0.08486493  1
  C  C18  1  0.66314118  0.04452655  0.08462952  1
  C  C19  1  0.62005802  0.66519865  0.91614553  1
  C  C20  1  0.04856396  0.38307852  0.91618236  1
  C  C21  1  0.33854257  0.95494300  0.91490377  1
  C  C22  1  0.62041348  0.96026557  0.41519640  1
  C  C23  1  0.04905828  0.66623193  0.41566396  1
  C  C24  1  0.28529058  0.00148614  0.24980234  1
  C  C25  1  0.71191459  0.71218184  0.24967270  1
  C  C26  1  0.00151564  0.28525245  0.25028966  1
  C  C27  1  0.00176474  0.71440777  0.75111241  1
  C  C28  1  0.71363987  0.00019407  0.75086097  1
  C  C29  1  0.95930508  0.33697075  0.58419060  1
  C  C30  1  0.37780812  0.04519274  0.58375243  1
  C  C31  1  0.37918130  0.33630641  0.08388422  1
  C  C32  1  0.33462463  0.37806216  0.41632109  1
  C  C33  1  0.19546877  0.02017695  0.30437309  1
  C  C34  1  0.82343734  0.80175390  0.30446441  1
  C  C35  1  0.98139533  0.17504242  0.30478946  1
  C  C36  1  0.18692907  0.16501083  0.80624509  1
  C  C37  1  0.97231997  0.79862210  0.80427621  1
  C  C38  1  0.82484341  0.02521179  0.80408620  1
  C  C39  1  0.79554125  0.97049137  0.69585371  1
  C  C40  1  0.16630212  0.19296808  0.69455748  1
  C  C41  1  0.02648021  0.82476331  0.69641330  1
  C  C42  1  0.80112678  0.82319167  0.19567393  1
  C  C43  1  0.02015103  0.19561640  0.19591568  1
  C  C44  1  0.17525281  0.98130352  0.19545027  1
  C  C45  1  0.88061727  0.36689145  0.63690838  1
  C  C46  1  0.48752224  0.11748386  0.63684226  1
  C  C47  1  0.62705922  0.50717998  0.63902038  1
  C  C48  1  0.88035205  0.50819606  0.13983928  1
  C  C49  1  0.62265346  0.11570997  0.13970108  1
  C  C50  1  0.48682636  0.36868429  0.13764432  1
  C  C51  1  0.45867945  0.30445743  0.02997674  1
  C  C52  1  0.83802482  0.53355171  0.02792626  1
  C  C53  1  0.69472803  0.16341442  0.02815996  1
  C  C54  1  0.45877928  0.15685871  0.52994786  1
  C  C55  1  0.69840217  0.53318800  0.52860427  1
  C  C56  1  0.84152758  0.30159179  0.53007836  1
  C  C57  1  0.53387001  0.69679377  0.97150234  1
  C  C58  1  0.16291767  0.46627815  0.97218376  1
  C  C59  1  0.30493255  0.83848747  0.97151588  1
  C  C60  1  0.53489444  0.84004701  0.47170581  1
  C  C61  1  0.30425374  0.45865081  0.46995314  1
  C  C62  1  0.16370990  0.69491361  0.47200826  1
  C  C63  1  0.11528178  0.62142915  0.36035706  1
  C  C64  1  0.50799439  0.88274873  0.36043798  1
  C  C65  1  0.37121056  0.48675006  0.36282522  1
  C  C66  1  0.13237204  0.50080883  0.86044907  1
  C  C67  1  0.36860463  0.86728002  0.86006470  1
  C  C68  1  0.49883268  0.63191584  0.86027495  1
  C  C69  1  0.02471142  0.83320983  0.40736040  1
  C  C70  1  0.81001691  0.97974787  0.40713515  1
  C  C71  1  0.17340852  0.19678793  0.40888035  1
  C  C72  1  0.02512413  0.19533457  0.90693868  1
  C  C73  1  0.16828855  0.97019121  0.90655619  1
  C  C74  1  0.80406297  0.83085111  0.90469112  1
  C  C75  1  0.97443597  0.17183844  0.59094907  1
  C  C76  1  0.19595869  0.02347168  0.59126669  1
  C  C77  1  0.83278920  0.81174556  0.59394583  1
  C  C78  1  0.97796442  0.80928341  0.09283223  1
  C  C79  1  0.83387186  0.02582142  0.09273326  1
  C  C80  1  0.19732334  0.17279970  0.09128350  1
  C  C81  1  0.69662986  0.15986392  0.74404871  1
  C  C82  1  0.46884674  0.30266510  0.74727712  1
  C  C83  1  0.84486088  0.53469985  0.74520431  1
  C  C84  1  0.69863958  0.53621812  0.24606562  1
  C  C85  1  0.83849283  0.29950652  0.24750958  1
  C  C86  1  0.46173005  0.16550586  0.24658594  1
  C  C87  1  0.63800004  0.49737083  0.92457522  1
  C  C88  1  0.85965504  0.36154734  0.92341459  1
  C  C89  1  0.50139768  0.14292934  0.92427633  1
  C  C90  1  0.64732606  0.14808204  0.42898258  1
  C  C91  1  0.49262560  0.35142758  0.42553043  1
  C  C92  1  0.85517892  0.50391931  0.42771014  1
  C  C93  1  0.35308281  0.49284843  0.07570897  1
  C  C94  1  0.14672855  0.64699284  0.07333908  1
  C  C95  1  0.50418318  0.85246002  0.07297964  1
  C  C96  1  0.35298074  0.86230248  0.57351156  1
  C  C97  1  0.50360826  0.64680835  0.56904031  1
  C  C98  1  0.13788587  0.49117917  0.57257287  1
  C  C99  1  0.29953487  0.83857503  0.25288295  1
  C  C100  1  0.53593801  0.69837921  0.25424502  1
  C  C101  1  0.16541616  0.46156177  0.25404883  1
  C  C102  1  0.29624947  0.46776115  0.75976320  1
  C  C103  1  0.16777467  0.70471124  0.75772272  1
  C  C104  1  0.53540875  0.83634061  0.75736223  1
