# generated using pymatgen
data_Cu6Ni6C7
_symmetry_space_group_name_H-M   'P 1'
_cell_length_a   5.21116271
_cell_length_b   15.53354572
_cell_length_c   3.05943354
_cell_angle_alpha   90.59175574
_cell_angle_beta   93.37294362
_cell_angle_gamma   95.58877758
_symmetry_Int_Tables_number   1
_chemical_formula_structural   Cu6Ni6C7
_chemical_formula_sum   'Cu6 Ni6 C7'
_cell_volume   246.01818589
_cell_formula_units_Z   1
loop_
 _symmetry_equiv_pos_site_id
 _symmetry_equiv_pos_as_xyz
  1  'x, y, z'
loop_
 _atom_site_type_symbol
 _atom_site_label
 _atom_site_symmetry_multiplicity
 _atom_site_fract_x
 _atom_site_fract_y
 _atom_site_fract_z
 _atom_site_occupancy
  C  C0  1  0.03959350  0.15845860  0.52189435  1
  C  C1  1  0.02393121  0.95937559  0.02501044  1
  C  C2  1  0.06378878  0.33703668  0.99245545  1
  C  C3  1  -0.00012976  0.66775924  0.02929139  1
  C  C4  1  0.56733839  0.24328133  0.37183130  1
  C  C5  1  0.37368916  0.52164326  0.52949458  1
  C  C6  1  0.41819318  0.82644482  0.55696100  1
  Ni  Ni7  1  0.23821139  0.28472085  0.51366298  1
  Ni  Ni8  1  0.12202017  0.60093039  0.53298403  1
  Ni  Ni9  1  0.22461385  0.91994732  0.55099526  1
  Ni  Ni10  1  0.27996550  0.75737844  0.04368883  1
  Ni  Ni11  1  0.27327500  0.44768633  0.01819171  1
  Ni  Ni12  1  0.81967439  0.22111970  0.94113194  1
  Cu  Cu13  1  0.27523850  0.13565339  0.05353335  1
  Cu  Cu14  1  0.62367296  0.57185210  0.03152351  1
  Cu  Cu15  1  0.67645033  0.87277361  0.06132503  1
  Cu  Cu16  1  0.87454771  0.04113626  0.48536450  1
  Cu  Cu17  1  0.82075179  0.37231759  0.46695876  1
  Cu  Cu18  1  0.79906195  0.71789149  0.52370160  1
