# generated using pymatgen
data_Cu4Ni2C45
_symmetry_space_group_name_H-M   'P 1'
_cell_length_a   8.72027910
_cell_length_b   8.72027882
_cell_length_c   22.53123844
_cell_angle_alpha   90.00000000
_cell_angle_beta   90.00000000
_cell_angle_gamma   120.00000105
_symmetry_Int_Tables_number   1
_chemical_formula_structural   Cu4Ni2C45
_chemical_formula_sum   'Cu8 Ni4 C90'
_cell_volume   1483.80369143
_cell_formula_units_Z   2
loop_
 _symmetry_equiv_pos_site_id
 _symmetry_equiv_pos_as_xyz
  1  'x, y, z'
loop_
 _atom_site_type_symbol
 _atom_site_label
 _atom_site_symmetry_multiplicity
 _atom_site_fract_x
 _atom_site_fract_y
 _atom_site_fract_z
 _atom_site_occupancy
  Ni  Ni0  1  0.66666700  0.33333300  0.98108107  1
  Ni  Ni1  1  0.66666700  0.33333300  0.48108107  1
  Ni  Ni2  1  0.33333300  0.66666700  0.30942681  1
  Ni  Ni3  1  0.33333300  0.66666700  0.80942681  1
  Cu  Cu4  1  0.00000000  -0.00000000  0.35161278  1
  Cu  Cu5  1  0.00000000  -0.00000000  0.85161278  1
  Cu  Cu6  1  0.00000000  0.00000000  0.64462915  1
  Cu  Cu7  1  0.00000000  0.00000000  0.14462915  1
  Cu  Cu8  1  0.66666700  0.33333300  0.68684128  1
  Cu  Cu9  1  0.66666700  0.33333300  0.18684128  1
  Cu  Cu10  1  0.33333300  0.66666700  0.02236231  1
  Cu  Cu11  1  0.33333300  0.66666700  0.52236231  1
  C  C12  1  0.29129300  0.00607423  0.25018058  1
  C  C13  1  0.71478123  0.70870700  0.25018058  1
  C  C14  1  0.99392577  0.28521877  0.25018058  1
  C  C15  1  0.29129300  0.28521877  0.75018058  1
  C  C16  1  0.99392577  0.70870700  0.75018058  1
  C  C17  1  0.71478123  0.00607423  0.75018058  1
  C  C18  1  0.95971011  0.33408101  0.58517856  1
  C  C19  1  0.37437191  0.04028989  0.58517856  1
  C  C20  1  0.66591899  0.62562809  0.58517856  1
  C  C21  1  0.95971011  0.62562809  0.08517856  1
  C  C22  1  0.66591899  0.04028989  0.08517856  1
  C  C23  1  0.37437191  0.33408101  0.08517856  1
  C  C24  1  0.62408344  0.66977421  0.91761612  1
  C  C25  1  0.04568978  0.37591656  0.91761612  1
  C  C26  1  0.33022579  0.95431022  0.91761612  1
  C  C27  1  0.62408344  0.95431022  0.41761612  1
  C  C28  1  0.33022579  0.37591656  0.41761612  1
  C  C29  1  0.04568978  0.66977421  0.41761612  1
  C  C30  1  0.21378180  0.02954272  0.30426290  1
  C  C31  1  0.81576092  0.78621820  0.30426290  1
  C  C32  1  0.97045728  0.18423908  0.30426290  1
  C  C33  1  0.21378180  0.18423908  0.80426290  1
  C  C34  1  0.97045728  0.78621820  0.80426290  1
  C  C35  1  0.81576092  0.02954272  0.80426290  1
  C  C36  1  0.77945185  0.95915742  0.69750467  1
  C  C37  1  0.17970557  0.22054815  0.69750467  1
  C  C38  1  0.04084258  0.82029443  0.69750467  1
  C  C39  1  0.77945185  0.82029443  0.19750467  1
  C  C40  1  0.04084258  0.22054815  0.19750467  1
  C  C41  1  0.17970557  0.95915742  0.19750467  1
  C  C42  1  0.87692313  0.36436425  0.63644883  1
  C  C43  1  0.48744212  0.12307687  0.63644883  1
  C  C44  1  0.63563575  0.51255788  0.63644883  1
  C  C45  1  0.87692313  0.51255788  0.13644883  1
  C  C46  1  0.63563575  0.12307687  0.13644883  1
  C  C47  1  0.48744212  0.36436425  0.13644883  1
  C  C48  1  0.47234942  0.30935427  0.02916130  1
  C  C49  1  0.83700585  0.52765058  0.02916130  1
  C  C50  1  0.69064573  0.16299415  0.02916130  1
  C  C51  1  0.47234942  0.16299415  0.52916130  1
  C  C52  1  0.69064573  0.52765058  0.52916130  1
  C  C53  1  0.83700585  0.30935427  0.52916130  1
  C  C54  1  0.54290597  0.69503002  0.96990583  1
  C  C55  1  0.15212305  0.45709403  0.96990583  1
  C  C56  1  0.30496998  0.84787695  0.96990583  1
  C  C57  1  0.54290597  0.84787695  0.46990583  1
  C  C58  1  0.30496998  0.45709403  0.46990583  1
  C  C59  1  0.15212305  0.69503002  0.46990583  1
  C  C60  1  0.12943376  0.63517578  0.36367768  1
  C  C61  1  0.50574102  0.87056624  0.36367768  1
  C  C62  1  0.36482422  0.49425898  0.36367768  1
  C  C63  1  0.12943376  0.49425898  0.86367768  1
  C  C64  1  0.36482422  0.87056624  0.86367768  1
  C  C65  1  0.50574102  0.63517578  0.86367768  1
  C  C66  1  0.01916791  0.81789518  0.40677654  1
  C  C67  1  0.79872727  0.98083209  0.40677654  1
  C  C68  1  0.18210482  0.20127273  0.40677654  1
  C  C69  1  0.01916791  0.20127273  0.90677654  1
  C  C70  1  0.18210482  0.98083209  0.90677654  1
  C  C71  1  0.79872727  0.81789518  0.90677654  1
  C  C72  1  0.96658485  0.17107473  0.58743864  1
  C  C73  1  0.20448988  0.03341515  0.58743864  1
  C  C74  1  0.82892527  0.79551012  0.58743864  1
  C  C75  1  0.96658485  0.79551012  0.08743864  1
  C  C76  1  0.82892527  0.03341515  0.08743864  1
  C  C77  1  0.20448988  0.17107473  0.08743864  1
  C  C78  1  0.68108437  0.15208050  0.74278993  1
  C  C79  1  0.47099713  0.31891563  0.74278993  1
  C  C80  1  0.84791950  0.52900287  0.74278993  1
  C  C81  1  0.68108437  0.52900287  0.24278993  1
  C  C82  1  0.84791950  0.31891563  0.24278993  1
  C  C83  1  0.47099713  0.15208050  0.24278993  1
  C  C84  1  0.63610229  0.50243867  0.92495750  1
  C  C85  1  0.86633738  0.36389771  0.92495750  1
  C  C86  1  0.49756133  0.13366262  0.92495750  1
  C  C87  1  0.63610229  0.13366262  0.42495750  1
  C  C88  1  0.49756133  0.36389771  0.42495750  1
  C  C89  1  0.86633738  0.50243867  0.42495750  1
  C  C90  1  0.36103197  0.49038395  0.07317237  1
  C  C91  1  0.12935099  0.63896803  0.07317237  1
  C  C92  1  0.50961605  0.87064901  0.07317237  1
  C  C93  1  0.36103197  0.87064901  0.57317237  1
  C  C94  1  0.50961605  0.63896803  0.57317237  1
  C  C95  1  0.12935099  0.49038395  0.57317237  1
  C  C96  1  0.30986134  0.83721520  0.26227742  1
  C  C97  1  0.52735286  0.69013866  0.26227742  1
  C  C98  1  0.16278480  0.47264714  0.26227742  1
  C  C99  1  0.30986134  0.47264714  0.76227742  1
  C  C100  1  0.16278480  0.69013866  0.76227742  1
  C  C101  1  0.52735286  0.83721520  0.76227742  1
