# generated using pymatgen
data_Cu2NiC6
_symmetry_space_group_name_H-M   'P 1'
_cell_length_a   5.01386139
_cell_length_b   6.76394909
_cell_length_c   7.43824637
_cell_angle_alpha   116.62459239
_cell_angle_beta   90.02028604
_cell_angle_gamma   111.71555948
_symmetry_Int_Tables_number   1
_chemical_formula_structural   Cu2NiC6
_chemical_formula_sum   'Cu2 Ni1 C6'
_cell_volume   205.26825181
_cell_formula_units_Z   1
loop_
 _symmetry_equiv_pos_site_id
 _symmetry_equiv_pos_as_xyz
  1  'x, y, z'
loop_
 _atom_site_type_symbol
 _atom_site_label
 _atom_site_symmetry_multiplicity
 _atom_site_fract_x
 _atom_site_fract_y
 _atom_site_fract_z
 _atom_site_occupancy
  Ni  Ni0  1  0.19252000  0.38561500  0.98790800  1
  C  C1  1  0.64236200  0.28551000  0.50603000  1
  C  C2  1  0.34306000  0.68834000  0.47687200  1
  Cu  Cu3  1  0.25082300  0.00340500  0.00652700  1
  Cu  Cu4  1  0.75169000  0.00311000  0.00647700  1
  C  C5  1  0.34121000  0.68321500  0.86704000  1
  C  C6  1  0.66369500  0.32827700  0.11179100  1
  C  C7  1  0.00196200  0.00433100  0.23783800  1
  C  C8  1  0.97517800  0.95153000  0.74396100  1
