# generated using pymatgen
data_Cu4NiC20
_symmetry_space_group_name_H-M   'P 1'
_cell_length_a   5.62262441
_cell_length_b   8.08308665
_cell_length_c   8.72422085
_cell_angle_alpha   89.32601243
_cell_angle_beta   83.09389380
_cell_angle_gamma   96.97365251
_symmetry_Int_Tables_number   1
_chemical_formula_structural   Cu4NiC20
_chemical_formula_sum   'Cu4 Ni1 C20'
_cell_volume   390.57116666
_cell_formula_units_Z   1
loop_
 _symmetry_equiv_pos_site_id
 _symmetry_equiv_pos_as_xyz
  1  'x, y, z'
loop_
 _atom_site_type_symbol
 _atom_site_label
 _atom_site_symmetry_multiplicity
 _atom_site_fract_x
 _atom_site_fract_y
 _atom_site_fract_z
 _atom_site_occupancy
  Ni  Ni0  1  0.91123400  0.13093400  0.89653400  1
  Cu  Cu1  1  0.79653800  0.13486200  0.30791100  1
  Cu  Cu2  1  0.24872300  0.63130700  0.20956200  1
  Cu  Cu3  1  0.73122700  0.39303700  0.77386700  1
  Cu  Cu4  1  0.20132600  0.86109900  0.68537100  1
  C  C5  1  0.33823600  0.18814200  0.08258400  1
  C  C6  1  0.69676600  0.68730600  0.48952700  1
  C  C7  1  0.27672400  0.30877000  0.52124200  1
  C  C8  1  0.80052600  0.76315000  0.04274700  1
  C  C9  1  0.92881900  0.10143000  0.12177300  1
  C  C10  1  0.52887600  0.20344900  0.29746500  1
  C  C11  1  0.25277700  0.01778300  0.56526800  1
  C  C12  1  0.25479700  0.47539000  0.09569100  1
  C  C13  1  0.72300000  0.54676700  0.89429900  1
  C  C14  1  0.45340400  0.79736000  0.71495200  1
  C  C15  1  0.75642500  0.95912400  0.40746600  1
  C  C16  1  0.03193600  0.71122500  0.61512800  1
  C  C17  1  0.59348500  0.20462400  0.87071600  1
  C  C18  1  0.05187300  0.92079900  0.85163200  1
  C  C19  1  0.41373800  0.79622000  0.12513000  1
  C  C20  1  0.01592600  0.32198800  0.74593800  1
  C  C21  1  0.96860600  0.67272200  0.25097200  1
  C  C22  1  0.60721800  0.42227300  0.60759500  1
  C  C23  1  0.97200700  0.28316700  0.38071100  1
  C  C24  1  0.36248000  0.58744200  0.36779400  1
