# generated using pymatgen
data_Cu2Ni2C11
_symmetry_space_group_name_H-M   'P 1'
_cell_length_a   3.68759871
_cell_length_b   3.68759871
_cell_length_c   16.45860761
_cell_angle_alpha   94.93467002
_cell_angle_beta   85.06532998
_cell_angle_gamma   90.09158326
_symmetry_Int_Tables_number   1
_chemical_formula_structural   Cu2Ni2C11
_chemical_formula_sum   'Cu2 Ni2 C11'
_cell_volume   222.15061203
_cell_formula_units_Z   1
loop_
 _symmetry_equiv_pos_site_id
 _symmetry_equiv_pos_as_xyz
  1  'x, y, z'
loop_
 _atom_site_type_symbol
 _atom_site_label
 _atom_site_symmetry_multiplicity
 _atom_site_fract_x
 _atom_site_fract_y
 _atom_site_fract_z
 _atom_site_occupancy
  Ni  Ni0  1  0.71953941  0.78046059  0.41503380  1
  Ni  Ni1  1  0.16983191  0.33016809  0.54324507  1
  Cu  Cu2  1  0.82030016  0.67969984  0.15433714  1
  Cu  Cu3  1  0.39727757  0.10272243  0.97832062  1
  C  C4  1  0.08175383  0.41824617  0.77216445  1
  C  C5  1  0.62259622  0.87740378  0.66748430  1
  C  C6  1  0.26763296  0.23236704  0.29263331  1
  C  C7  1  0.60835767  0.39197399  0.70526672  1
  C  C8  1  0.10802601  0.89164233  0.70526672  1
  C  C9  1  0.28159003  0.71907092  0.25780991  1
  C  C10  1  0.78092908  0.21840997  0.25780991  1
  C  C11  1  0.86835215  0.63164785  0.00788755  1
  C  C12  1  0.32939586  0.17060414  0.11933093  1
  C  C13  1  0.66420696  0.83579304  0.55854092  1
  C  C14  1  0.22663919  0.27336081  0.40160364  1
