# generated using pymatgen
data_Cu(NiC3)3
_symmetry_space_group_name_H-M   'P 1'
_cell_length_a   3.40266449
_cell_length_b   3.40271465
_cell_length_c   43.75159941
_cell_angle_alpha   90.11159009
_cell_angle_beta   89.91133417
_cell_angle_gamma   119.94447530
_symmetry_Int_Tables_number   1
_chemical_formula_structural   Cu(NiC3)3
_chemical_formula_sum   'Cu1 Ni3 C9'
_cell_volume   438.94592702
_cell_formula_units_Z   1
loop_
 _symmetry_equiv_pos_site_id
 _symmetry_equiv_pos_as_xyz
  1  'x, y, z'
loop_
 _atom_site_type_symbol
 _atom_site_label
 _atom_site_symmetry_multiplicity
 _atom_site_fract_x
 _atom_site_fract_y
 _atom_site_fract_z
 _atom_site_occupancy
  C  C0  1  0.99592200  0.00565600  0.38339600  1
  C  C1  1  0.33277200  0.66752400  0.70101300  1
  C  C2  1  0.66723900  0.33273100  0.05048600  1
  C  C3  1  0.66622400  0.33491000  0.13595000  1
  C  C4  1  0.33377500  0.66560200  0.61498100  1
  Ni  Ni5  1  0.33320900  0.66726700  0.09323600  1
  Ni  Ni6  1  0.33465700  0.66446700  0.47481200  1
  Ni  Ni7  1  0.66655700  0.33345700  0.27605500  1
  Cu  Cu8  1  0.66682700  0.33308700  0.65799900  1
  C  C9  1  0.33265300  0.66781000  0.31391900  1
  C  C10  1  0.33335800  0.66603900  0.23850600  1
  C  C11  1  0.66853100  0.33069700  0.43988400  1
  C  C12  1  0.66827500  0.33075400  0.50872200  1
