# generated using pymatgen
data_Cu3NiC15
_symmetry_space_group_name_H-M   'P 1'
_cell_length_a   7.45604757
_cell_length_b   5.66501638
_cell_length_c   5.88672261
_cell_angle_alpha   77.15691962
_cell_angle_beta   69.04015658
_cell_angle_gamma   71.43555881
_symmetry_Int_Tables_number   1
_chemical_formula_structural   Cu3NiC15
_chemical_formula_sum   'Cu3 Ni1 C15'
_cell_volume   218.45613863
_cell_formula_units_Z   1
loop_
 _symmetry_equiv_pos_site_id
 _symmetry_equiv_pos_as_xyz
  1  'x, y, z'
loop_
 _atom_site_type_symbol
 _atom_site_label
 _atom_site_symmetry_multiplicity
 _atom_site_fract_x
 _atom_site_fract_y
 _atom_site_fract_z
 _atom_site_occupancy
  Ni  Ni0  1  0.85771800  0.65193800  0.15893300  1
  C  C1  1  0.64987700  0.29522200  0.34531400  1
  C  C2  1  0.19746200  0.32431100  0.31080400  1
  C  C3  1  0.00337700  0.07545000  0.93959100  1
  Cu  Cu4  1  0.81389300  0.67871700  0.68004500  1
  Cu  Cu5  1  0.34998700  0.66937900  0.66579900  1
  Cu  Cu6  1  0.50531300  0.97494800  0.98366100  1
  C  C7  1  0.66939200  0.05104300  0.61418600  1
  C  C8  1  0.35071000  0.38012500  0.96614800  1
  C  C9  1  0.65969500  0.56180100  0.51153600  1
  C  C10  1  0.96438200  0.26485500  0.19188900  1
  C  C11  1  0.27628900  0.92444400  0.91259500  1
  C  C12  1  0.72348000  0.04560200  0.11115400  1
  C  C13  1  0.02397500  0.75368200  0.80381100  1
  C  C14  1  0.36303800  0.41646000  0.45324900  1
  C  C15  1  0.33336800  0.95769300  0.38055300  1
  C  C16  1  0.65509000  0.59004000  0.04878400  1
  C  C17  1  0.99543700  0.29964600  0.67353900  1
  C  C18  1  0.02716100  0.66797800  0.33174500  1
