# generated using pymatgen
data_CuNiC7
_symmetry_space_group_name_H-M   'P 1'
_cell_length_a   7.00445488
_cell_length_b   7.00445488
_cell_length_c   7.00445488
_cell_angle_alpha   107.61401562
_cell_angle_beta   107.61401562
_cell_angle_gamma   107.61401562
_symmetry_Int_Tables_number   1
_chemical_formula_structural   CuNiC7
_chemical_formula_sum   'Cu1 Ni1 C7'
_cell_volume   281.26800585
_cell_formula_units_Z   1
loop_
 _symmetry_equiv_pos_site_id
 _symmetry_equiv_pos_as_xyz
  1  'x, y, z'
loop_
 _atom_site_type_symbol
 _atom_site_label
 _atom_site_symmetry_multiplicity
 _atom_site_fract_x
 _atom_site_fract_y
 _atom_site_fract_z
 _atom_site_occupancy
  Ni  Ni0  1  0.37882100  0.37882100  0.37882100  1
  Cu  Cu1  1  0.00336800  0.00336800  0.00336800  1
  C  C2  1  0.91251100  0.43882800  0.43882800  1
  C  C3  1  0.43882800  0.91251100  0.43882800  1
  C  C4  1  0.43882800  0.43882800  0.91251100  1
  C  C5  1  0.36339300  0.05313700  0.05313700  1
  C  C6  1  0.05313700  0.36339300  0.05313700  1
  C  C7  1  0.05313700  0.05313700  0.36339300  1
  C  C8  1  0.69797500  0.69797500  0.69797500  1
