# generated using pymatgen
data_Cu(NiC8)2
_symmetry_space_group_name_H-M   'P 1'
_cell_length_a   8.98159519
_cell_length_b   8.92713431
_cell_length_c   22.82586483
_cell_angle_alpha   90.09146712
_cell_angle_beta   90.00000000
_cell_angle_gamma   120.20201223
_symmetry_Int_Tables_number   1
_chemical_formula_structural   Cu(NiC8)2
_chemical_formula_sum   'Cu6 Ni12 C96'
_cell_volume   1581.73971785
_cell_formula_units_Z   6
loop_
 _symmetry_equiv_pos_site_id
 _symmetry_equiv_pos_as_xyz
  1  'x, y, z'
loop_
 _atom_site_type_symbol
 _atom_site_label
 _atom_site_symmetry_multiplicity
 _atom_site_fract_x
 _atom_site_fract_y
 _atom_site_fract_z
 _atom_site_occupancy
  C  C0  1  0.99550168  0.63097013  0.24518707  1
  C  C1  1  0.63546844  0.63097013  0.74518707  1
  C  C2  1  0.66216868  0.96430313  0.57852007  1
  C  C3  1  0.30213544  0.96430313  0.07852007  1
  C  C4  1  0.32883468  0.29763713  0.91185407  1
  C  C5  1  0.96880144  0.29763713  0.41185407  1
  C  C6  1  0.99785222  0.97978326  0.49380717  1
  C  C7  1  0.98193104  0.97978326  0.99380717  1
  C  C8  1  0.66451922  0.31311626  0.82714017  1
  C  C9  1  0.64859804  0.31311626  0.32714017  1
  C  C10  1  0.33118522  0.64645026  0.16047417  1
  C  C11  1  0.31526404  0.64645026  0.66047417  1
  C  C12  1  0.00045735  0.99696594  0.35105839  1
  C  C13  1  0.99650859  0.99696594  0.85105839  1
  C  C14  1  0.66712435  0.33029894  0.68439139  1
  C  C15  1  0.66317559  0.33029894  0.18439139  1
  C  C16  1  0.33379035  0.66363294  0.01772539  1
  C  C17  1  0.32984159  0.66363294  0.51772539  1
  C  C18  1  0.00193395  0.01021968  0.64786268  1
  C  C19  1  0.00828573  0.01021968  0.14786268  1
  C  C20  1  0.66860095  0.34355268  0.98119568  1
  C  C21  1  0.67495273  0.34355268  0.48119568  1
  C  C22  1  0.33526695  0.67688668  0.31452968  1
  C  C23  1  0.34161873  0.67688668  0.81452968  1
  Ni  Ni24  1  0.29692467  0.01004902  0.25141446  1
  Ni  Ni25  1  0.99396617  0.29179182  0.25396319  1
  Ni  Ni26  1  0.29782565  0.29179182  0.75396319  1
  Ni  Ni27  1  0.71312435  0.01004902  0.75141446  1
  Ni  Ni28  1  0.96359167  0.34338202  0.58474746  1
  Ni  Ni29  1  0.66063317  0.62512482  0.58729619  1
  Ni  Ni30  1  0.96449265  0.62512482  0.08729619  1
  Ni  Ni31  1  0.37979135  0.34338202  0.08474746  1
  Ni  Ni32  1  0.63025767  0.67671602  0.91808146  1
  Ni  Ni33  1  0.32729917  0.95845882  0.92063019  1
  Ni  Ni34  1  0.63115865  0.95845882  0.42063019  1
  Ni  Ni35  1  0.04645735  0.67671602  0.41808146  1
  Cu  Cu36  1  0.70855694  0.70704043  0.25078524  1
  Cu  Cu37  1  0.99848349  0.70704043  0.75078524  1
  Cu  Cu38  1  0.37522394  0.04037343  0.58411824  1
  Cu  Cu39  1  0.66515049  0.04037343  0.08411824  1
  Cu  Cu40  1  0.04188994  0.37370743  0.91745224  1
  Cu  Cu41  1  0.33181649  0.37370743  0.41745224  1
  C  C42  1  0.20196479  0.02278861  0.30380174  1
  C  C43  1  0.81480679  0.79005344  0.30242204  1
  C  C44  1  0.97485227  0.18834952  0.30914601  1
  C  C45  1  0.21349725  0.18834952  0.80914601  1
  C  C46  1  0.97524666  0.79005344  0.80242204  1
  C  C47  1  0.82082382  0.02278861  0.80380174  1
  C  C48  1  0.78975223  0.97033308  0.69437481  1
  C  C49  1  0.18212692  0.20087697  0.69869588  1
  C  C50  1  0.02595212  0.81391481  0.69719969  1
  C  C51  1  0.78796270  0.81391481  0.19719969  1
  C  C52  1  0.01875005  0.20087697  0.19869588  1
  C  C53  1  0.18058085  0.97033308  0.19437481  1
  C  C54  1  0.86863179  0.35612161  0.63713474  1
  C  C55  1  0.48147379  0.12338644  0.63575504  1
  C  C56  1  0.64151927  0.52168252  0.64247901  1
  C  C57  1  0.88016425  0.52168252  0.14247901  1
  C  C58  1  0.64191366  0.12338644  0.13575504  1
  C  C59  1  0.48749082  0.35612161  0.13713474  1
  C  C60  1  0.45641923  0.30366608  0.02770781  1
  C  C61  1  0.84879392  0.53420997  0.03202888  1
  C  C62  1  0.69261912  0.14724781  0.03053269  1
  C  C63  1  0.45462970  0.14724781  0.53053269  1
  C  C64  1  0.68541705  0.53420997  0.53202888  1
  C  C65  1  0.84724785  0.30366608  0.52770781  1
  C  C66  1  0.53529779  0.68945561  0.97046874  1
  C  C67  1  0.14813979  0.45672044  0.96908904  1
  C  C68  1  0.30818527  0.85501652  0.97581301  1
  C  C69  1  0.54683025  0.85501652  0.47581301  1
  C  C70  1  0.30857966  0.45672044  0.46908904  1
  C  C71  1  0.15415682  0.68945561  0.47046874  1
  C  C72  1  0.12308523  0.63700008  0.36104181  1
  C  C73  1  0.51545992  0.86754397  0.36536288  1
  C  C74  1  0.35928512  0.48058181  0.36386669  1
  C  C75  1  0.12129570  0.48058181  0.86386669  1
  C  C76  1  0.35208305  0.86754397  0.86536288  1
  C  C77  1  0.51391385  0.63700008  0.86104181  1
  C  C78  1  0.02044955  0.83057948  0.40979524  1
  C  C79  1  0.81457119  0.98998180  0.41233647  1
  C  C80  1  0.17564077  0.20124429  0.41084641  1
  C  C81  1  0.02560352  0.20124429  0.91084641  1
  C  C82  1  0.17541061  0.98998180  0.91233647  1
  C  C83  1  0.81012993  0.83057948  0.90979524  1
  C  C84  1  0.97264241  0.16914912  0.58881102  1
  C  C85  1  0.20018016  0.02049328  0.58892852  1
  C  C86  1  0.82996580  0.81011532  0.58956394  1
  C  C87  1  0.98014952  0.81011532  0.08956394  1
  C  C88  1  0.82031313  0.02049328  0.08892852  1
  C  C89  1  0.19650671  0.16914912  0.08881102  1
  C  C90  1  0.68711655  0.16391248  0.74312824  1
  C  C91  1  0.48123819  0.32331480  0.74566947  1
  C  C92  1  0.84230777  0.53457729  0.74417941  1
  C  C93  1  0.69227052  0.53457729  0.24417941  1
  C  C94  1  0.84207761  0.32331480  0.24566947  1
  C  C95  1  0.47679693  0.16391248  0.24312824  1
  C  C96  1  0.63930941  0.50248212  0.92214402  1
  C  C97  1  0.86684716  0.35382628  0.92226152  1
  C  C98  1  0.49663280  0.14344832  0.92289694  1
  C  C99  1  0.64681652  0.14344832  0.42289694  1
  C  C100  1  0.48698013  0.35382628  0.42226152  1
  C  C101  1  0.86317371  0.50248212  0.42214402  1
  C  C102  1  0.35378255  0.49724648  0.07646224  1
  C  C103  1  0.14790419  0.65664880  0.07900347  1
  C  C104  1  0.50897377  0.86791129  0.07751341  1
  C  C105  1  0.35893652  0.86791129  0.57751341  1
  C  C106  1  0.50874361  0.65664880  0.57900347  1
  C  C107  1  0.14346293  0.49724648  0.57646224  1
  C  C108  1  0.30597541  0.83581612  0.25547802  1
  C  C109  1  0.53351316  0.68716028  0.25559552  1
  C  C110  1  0.16329880  0.47678232  0.25623094  1
  C  C111  1  0.31348252  0.47678232  0.75623094  1
  C  C112  1  0.15364613  0.68716028  0.75559552  1
  C  C113  1  0.52983971  0.83581612  0.75547802  1
