# generated using pymatgen
data_CuNi2C17
_symmetry_space_group_name_H-M   'P 1'
_cell_length_a   15.86015436
_cell_length_b   9.11825379
_cell_length_c   9.11995718
_cell_angle_alpha   90.00000000
_cell_angle_beta   124.81715211
_cell_angle_gamma   90.00000000
_symmetry_Int_Tables_number   1
_chemical_formula_structural   CuNi2C17
_chemical_formula_sum   'Cu4 Ni8 C68'
_cell_volume   1082.78835190
_cell_formula_units_Z   4
loop_
 _symmetry_equiv_pos_site_id
 _symmetry_equiv_pos_as_xyz
  1  'x, y, z'
loop_
 _atom_site_type_symbol
 _atom_site_label
 _atom_site_symmetry_multiplicity
 _atom_site_fract_x
 _atom_site_fract_y
 _atom_site_fract_z
 _atom_site_occupancy
  C  C0  1  0.24253845  0.77546535  0.99538988  1
  C  C1  1  0.74253845  0.72453465  0.49538988  1
  C  C2  1  0.74253845  0.27546535  0.99538988  1
  C  C3  1  0.24253845  0.22453465  0.49538988  1
  C  C4  1  0.50299164  0.10547802  0.75128000  1
  C  C5  1  0.50299164  0.89452198  0.25128000  1
  C  C6  1  0.00299164  0.60547802  0.75128000  1
  C  C7  1  0.00299164  0.39452198  0.25128000  1
  C  C8  1  0.80773909  0.93519871  0.21077890  1
  C  C9  1  0.80773909  0.06480129  0.71077890  1
  C  C10  1  0.30773909  0.43519871  0.21077890  1
  C  C11  1  0.30773909  0.56480129  0.71077890  1
  C  C12  1  0.10550801  0.75001130  0.56142735  1
  C  C13  1  0.89545037  0.74478555  0.93563903  1
  C  C14  1  0.89545037  0.25521445  0.43563903  1
  C  C15  1  0.10550801  0.24998870  0.06142735  1
  C  C16  1  0.60550801  0.25001130  0.56142735  1
  C  C17  1  0.39545037  0.24478555  0.93563903  1
  C  C18  1  0.39545037  0.75521445  0.43563903  1
  C  C19  1  0.60550801  0.74998870  0.06142735  1
  Ni  Ni20  1  0.35481864  0.89569783  0.75839701  1
  Ni  Ni21  1  0.64865391  0.89534216  0.74395849  1
  Ni  Ni22  1  0.64865391  0.10465784  0.24395849  1
  Ni  Ni23  1  0.35481864  0.10430217  0.25839701  1
  Ni  Ni24  1  0.85481864  0.39569783  0.75839701  1
  Ni  Ni25  1  0.14865391  0.39534216  0.74395849  1
  Ni  Ni26  1  0.14865391  0.60465784  0.24395849  1
  Ni  Ni27  1  0.85481864  0.60430217  0.25839701  1
  Cu  Cu28  1  0.00100891  0.95960418  0.74638998  1
  Cu  Cu29  1  0.00100891  0.04039582  0.24638998  1
  Cu  Cu30  1  0.50100891  0.45960418  0.74638998  1
  Cu  Cu31  1  0.50100891  0.54039582  0.24638998  1
  C  C32  1  0.15238015  0.57687035  0.74279028  1
  C  C33  1  0.85158479  0.57549636  0.75468706  1
  C  C34  1  0.85158479  0.42450364  0.25468706  1
  C  C35  1  0.15238015  0.42312965  0.24279028  1
  C  C36  1  0.65238015  0.07687035  0.74279028  1
  C  C37  1  0.35158479  0.07549636  0.75468706  1
  C  C38  1  0.35158479  0.92450364  0.25468706  1
  C  C39  1  0.65238015  0.92312965  0.24279028  1
  C  C40  1  0.43656453  0.55216567  0.57400627  1
  C  C41  1  0.56031114  0.56141248  0.91020904  1
  C  C42  1  0.56031114  0.43858752  0.41020904  1
  C  C43  1  0.43656453  0.44783433  0.07400627  1
  C  C44  1  0.93656453  0.05216567  0.57400627  1
  C  C45  1  0.06031114  0.06141248  0.91020904  1
  C  C46  1  0.06031114  0.93858752  0.41020904  1
  C  C47  1  0.93656453  0.94783433  0.07400627  1
  C  C48  1  0.25656925  0.82008070  0.74225000  1
  C  C49  1  0.74986232  0.83707740  0.75522260  1
  C  C50  1  0.74986232  0.16292260  0.25522260  1
  C  C51  1  0.25656925  0.17991930  0.24225000  1
  C  C52  1  0.75656925  0.32008070  0.74225000  1
  C  C53  1  0.24986232  0.33707740  0.75522260  1
  C  C54  1  0.24986232  0.66292260  0.25522260  1
  C  C55  1  0.75656925  0.67991930  0.24225000  1
  C  C56  1  0.36054484  0.84421249  0.59099518  1
  C  C57  1  0.64888011  0.85572952  0.92083900  1
  C  C58  1  0.64888011  0.14427048  0.42083900  1
  C  C59  1  0.36054484  0.15578751  0.09099518  1
  C  C60  1  0.86054484  0.34421249  0.59099518  1
  C  C61  1  0.14888011  0.35572952  0.92083900  1
  C  C62  1  0.14888011  0.64427048  0.42083900  1
  C  C63  1  0.86054484  0.65578751  0.09099518  1
  C  C64  1  0.46076501  0.83502842  0.94044614  1
  C  C65  1  0.54260943  0.83263483  0.56480430  1
  C  C66  1  0.54260943  0.16736517  0.06480430  1
  C  C67  1  0.46076501  0.16497158  0.44044614  1
  C  C68  1  0.96076501  0.33502842  0.94044614  1
  C  C69  1  0.04260943  0.33263483  0.56480430  1
  C  C70  1  0.04260943  0.66736517  0.06480430  1
  C  C71  1  0.96076501  0.66497158  0.44044614  1
  C  C72  1  0.07792749  0.85671923  0.74388684  1
  C  C73  1  0.92329191  0.86348260  0.75660265  1
  C  C74  1  0.92329191  0.13651740  0.25660265  1
  C  C75  1  0.07792749  0.14328077  0.24388684  1
  C  C76  1  0.57792749  0.35671923  0.74388684  1
  C  C77  1  0.42329191  0.36348260  0.75660265  1
  C  C78  1  0.42329191  0.63651740  0.25660265  1
  C  C79  1  0.57792749  0.64328077  0.24388684  1
