# generated using pymatgen
data_Cu6NiC12
_symmetry_space_group_name_H-M   'P 1'
_cell_length_a   5.20292193
_cell_length_b   14.72786935
_cell_length_c   3.05205422
_cell_angle_alpha   90.00000000
_cell_angle_beta   90.00000000
_cell_angle_gamma   98.00283675
_symmetry_Int_Tables_number   1
_chemical_formula_structural   Cu6NiC12
_chemical_formula_sum   'Cu6 Ni1 C12'
_cell_volume   231.59502689
_cell_formula_units_Z   1
loop_
 _symmetry_equiv_pos_site_id
 _symmetry_equiv_pos_as_xyz
  1  'x, y, z'
loop_
 _atom_site_type_symbol
 _atom_site_label
 _atom_site_symmetry_multiplicity
 _atom_site_fract_x
 _atom_site_fract_y
 _atom_site_fract_z
 _atom_site_occupancy
  Ni  Ni0  1  0.59659960  0.00581388  0.00000000  1
  Cu  Cu1  1  0.11164231  0.98163119  0.00000000  1
  Cu  Cu2  1  0.96987409  0.34524728  0.00000000  1
  Cu  Cu3  1  0.94773240  0.66085852  0.00000000  1
  Cu  Cu4  1  0.45524081  0.19664302  0.50000000  1
  Cu  Cu5  1  0.48573243  0.49310830  0.50000000  1
  Cu  Cu6  1  0.46052762  0.81160327  0.50000000  1
  C  C7  1  0.35581530  0.93437676  0.50000000  1
  C  C8  1  0.27899944  0.76003036  0.00000000  1
  C  C9  1  0.35619701  0.09875186  0.00000000  1
  C  C10  1  0.28805050  0.43962389  0.00000000  1
  C  C11  1  0.65098439  0.57693192  0.00000000  1
  C  C12  1  0.65317470  0.24864818  -0.00000000  1
  C  C13  1  0.15136641  0.26025047  0.50000000  1
  C  C14  1  0.12258595  0.60872122  0.50000000  1
  C  C15  1  0.75775206  0.88681031  -0.00000000  1
  C  C16  1  0.77520304  0.41828685  0.50000000  1
  C  C17  1  0.78918347  0.73860506  0.50000000  1
  C  C18  1  0.84889849  0.03868666  0.50000000  1
