# generated using pymatgen
data_Cu2NiC4
_symmetry_space_group_name_H-M   'P 1'
_cell_length_a   4.06148000
_cell_length_b   12.33171900
_cell_length_c   14.60256600
_cell_angle_alpha   90.00000000
_cell_angle_beta   90.00000000
_cell_angle_gamma   90.00000000
_symmetry_Int_Tables_number   1
_chemical_formula_structural   Cu2NiC4
_chemical_formula_sum   'Cu8 Ni4 C16'
_cell_volume   731.36995742
_cell_formula_units_Z   4
loop_
 _symmetry_equiv_pos_site_id
 _symmetry_equiv_pos_as_xyz
  1  'x, y, z'
loop_
 _atom_site_type_symbol
 _atom_site_label
 _atom_site_symmetry_multiplicity
 _atom_site_fract_x
 _atom_site_fract_y
 _atom_site_fract_z
 _atom_site_occupancy
  Ni  Ni0  1  0.25000000  0.75779600  0.83815500  1
  Ni  Ni1  1  0.75000000  0.24220400  0.16184500  1
  Ni  Ni2  1  0.25000000  0.25779600  0.66184500  1
  Ni  Ni3  1  0.75000000  0.74220400  0.33815500  1
  Cu  Cu4  1  0.25000000  0.92141700  0.10161100  1
  Cu  Cu5  1  0.75000000  0.07858300  0.89838900  1
  Cu  Cu6  1  0.25000000  0.42141700  0.39838900  1
  Cu  Cu7  1  0.75000000  0.57858300  0.60161100  1
  Cu  Cu8  1  0.25000000  0.93273100  0.60858900  1
  Cu  Cu9  1  0.75000000  0.06726900  0.39141100  1
  Cu  Cu10  1  0.25000000  0.43273100  0.89141100  1
  Cu  Cu11  1  0.75000000  0.56726900  0.10858900  1
  C  C12  1  0.75000000  0.79281000  0.66381900  1
  C  C13  1  0.25000000  0.20719000  0.33618100  1
  C  C14  1  0.75000000  0.29281000  0.83618100  1
  C  C15  1  0.25000000  0.70719000  0.16381900  1
  C  C16  1  0.75000000  0.87564700  0.97678800  1
  C  C17  1  0.25000000  0.12435300  0.02321200  1
  C  C18  1  0.75000000  0.37564700  0.52321200  1
  C  C19  1  0.25000000  0.62435300  0.47678800  1
  C  C20  1  0.25000000  0.91885000  0.42303600  1
  C  C21  1  0.75000000  0.08115000  0.57696400  1
  C  C22  1  0.25000000  0.41885000  0.07696400  1
  C  C23  1  0.75000000  0.58115000  0.92303600  1
  C  C24  1  0.25000000  0.52226900  0.71679000  1
  C  C25  1  0.75000000  0.47773100  0.28321000  1
  C  C26  1  0.25000000  0.02226900  0.78321000  1
  C  C27  1  0.75000000  0.97773100  0.21679000  1
