# generated using pymatgen
data_Cu2NiC12
_symmetry_space_group_name_H-M   'P 1'
_cell_length_a   3.66989292
_cell_length_b   3.66989292
_cell_length_c   16.23264980
_cell_angle_alpha   85.76115944
_cell_angle_beta   94.23884056
_cell_angle_gamma   90.35059192
_symmetry_Int_Tables_number   1
_chemical_formula_structural   Cu2NiC12
_chemical_formula_sum   'Cu2 Ni1 C12'
_cell_volume   217.42872322
_cell_formula_units_Z   1
loop_
 _symmetry_equiv_pos_site_id
 _symmetry_equiv_pos_as_xyz
  1  'x, y, z'
loop_
 _atom_site_type_symbol
 _atom_site_label
 _atom_site_symmetry_multiplicity
 _atom_site_fract_x
 _atom_site_fract_y
 _atom_site_fract_z
 _atom_site_occupancy
  C  C0  1  0.22021904  0.27978096  0.58551474  1
  C  C1  1  0.67921962  0.82078038  0.45598416  1
  C  C2  1  0.88917887  0.61082113  0.01884595  1
  C  C3  1  0.30715410  0.19284590  0.84615086  1
  Ni  Ni4  1  0.60490197  0.89509803  0.22243812  1
  Cu  Cu5  1  0.13976778  0.36023222  0.32991405  1
  Cu  Cu6  1  0.76128188  0.73871812  0.71045596  1
  C  C7  1  0.80799050  0.69200950  0.88218957  1
  C  C8  1  0.33298615  0.16701385  0.99076558  1
  C  C9  1  0.72539488  0.77460512  0.60001757  1
  C  C10  1  0.17535353  0.32464647  0.44039686  1
  C  C11  1  0.62738908  0.37137694  0.29110076  1
  C  C12  1  0.12862306  0.87261092  0.29110076  1
  C  C13  1  0.77421021  0.22724166  0.74664403  1
  C  C14  1  0.27275834  0.72578979  0.74664403  1
