# generated using pymatgen
data_Cu4NiC
_symmetry_space_group_name_H-M   'P 1'
_cell_length_a   12.64142898
_cell_length_b   12.64142898
_cell_length_c   12.64142898
_cell_angle_alpha   129.40172532
_cell_angle_beta   127.00271418
_cell_angle_gamma   76.31365255
_symmetry_Int_Tables_number   1
_chemical_formula_structural   Cu4NiC
_chemical_formula_sum   'Cu32 Ni8 C8'
_cell_volume   1211.52940157
_cell_formula_units_Z   8
loop_
 _symmetry_equiv_pos_site_id
 _symmetry_equiv_pos_as_xyz
  1  'x, y, z'
loop_
 _atom_site_type_symbol
 _atom_site_label
 _atom_site_symmetry_multiplicity
 _atom_site_fract_x
 _atom_site_fract_y
 _atom_site_fract_z
 _atom_site_occupancy
  C  C0  1  0.14124500  0.89124500  0.25000000  1
  C  C1  1  0.35875500  0.60875500  0.75000000  1
  C  C2  1  0.85875500  0.10875500  0.75000000  1
  C  C3  1  0.64124500  0.39124500  0.25000000  1
  C  C4  1  0.39789100  0.14789100  0.25000000  1
  C  C5  1  0.10210900  0.35210900  0.75000000  1
  C  C6  1  0.60210900  0.85210900  0.75000000  1
  C  C7  1  0.89789100  0.64789100  0.25000000  1
  Ni  Ni8  1  0.75000000  0.28038500  0.53038500  1
  Ni  Ni9  1  0.28634100  0.75000000  0.03634100  1
  Ni  Ni10  1  0.21365900  0.25000000  0.46365900  1
  Ni  Ni11  1  0.71365900  0.25000000  0.96365900  1
  Ni  Ni12  1  0.78634100  0.75000000  0.53634100  1
  Ni  Ni13  1  0.75000000  0.78038500  0.03038500  1
  Ni  Ni14  1  0.25000000  0.71961500  0.46961500  1
  Ni  Ni15  1  0.25000000  0.21961500  0.96961500  1
  Cu  Cu16  1  0.39558800  0.59979600  0.98135300  1
  Cu  Cu17  1  0.88155700  0.58576500  0.48135300  1
  Cu  Cu18  1  0.89558800  0.91423500  0.79579200  1
  Cu  Cu19  1  0.61844300  0.09979600  0.70420800  1
  Cu  Cu20  1  0.60441200  0.40020400  0.01864700  1
  Cu  Cu21  1  0.11844300  0.41423500  0.51864700  1
  Cu  Cu22  1  0.10441200  0.08576500  0.20420800  1
  Cu  Cu23  1  0.38155700  0.90020400  0.29579200  1
  Cu  Cu24  1  0.60076400  0.38963900  0.48313600  1
  Cu  Cu25  1  0.09349700  0.11036100  0.71112500  1
  Cu  Cu26  1  0.89923600  0.38237100  0.78887500  1
  Cu  Cu27  1  0.40650400  0.11762900  0.01686400  1
  Cu  Cu28  1  0.39923600  0.61036100  0.51686400  1
  Cu  Cu29  1  0.90650400  0.88963900  0.28887500  1
  Cu  Cu30  1  0.10076400  0.61762900  0.21112500  1
  Cu  Cu31  1  0.59349700  0.88237100  0.98313600  1
  Cu  Cu32  1  0.84645900  0.26232000  0.43687500  1
  Cu  Cu33  1  0.17455600  0.23768000  0.08414000  1
  Cu  Cu34  1  0.65354100  0.09041600  0.41586000  1
  Cu  Cu35  1  0.32544400  0.40958400  0.06312500  1
  Cu  Cu36  1  0.15354100  0.73768000  0.56312500  1
  Cu  Cu37  1  0.82544400  0.76232000  0.91586000  1
  Cu  Cu38  1  0.34645900  0.90958400  0.58414000  1
  Cu  Cu39  1  0.67455600  0.59041600  0.93687500  1
  Cu  Cu40  1  0.73217400  0.16184100  0.06437300  1
  Cu  Cu41  1  0.90253200  0.33815900  0.07033300  1
  Cu  Cu42  1  0.76782600  0.83219900  0.42966700  1
  Cu  Cu43  1  0.59746800  0.66780100  0.43562700  1
  Cu  Cu44  1  0.26782600  0.83815900  0.93562700  1
  Cu  Cu45  1  0.09746800  0.66184100  0.92966700  1
  Cu  Cu46  1  0.23217400  0.16780100  0.57033300  1
  Cu  Cu47  1  0.40253200  0.33219900  0.56437300  1
