# generated using pymatgen
data_Cu18NiC16
_symmetry_space_group_name_H-M   'P 1'
_cell_length_a   12.22436300
_cell_length_b   12.22436300
_cell_length_c   12.22436300
_cell_angle_alpha   90.00000000
_cell_angle_beta   90.00000000
_cell_angle_gamma   90.00000000
_symmetry_Int_Tables_number   1
_chemical_formula_structural   Cu18NiC16
_chemical_formula_sum   'Cu72 Ni4 C64'
_cell_volume   1826.74830536
_cell_formula_units_Z   4
loop_
 _symmetry_equiv_pos_site_id
 _symmetry_equiv_pos_as_xyz
  1  'x, y, z'
loop_
 _atom_site_type_symbol
 _atom_site_label
 _atom_site_symmetry_multiplicity
 _atom_site_fract_x
 _atom_site_fract_y
 _atom_site_fract_z
 _atom_site_occupancy
  C  C0  1  0.39980700  0.10019300  0.89980700  1
  C  C1  1  0.10019300  0.89980700  0.39980700  1
  C  C2  1  0.89980700  0.39980700  0.10019300  1
  C  C3  1  0.60019300  0.60019300  0.60019300  1
  C  C4  1  0.55061200  0.94938800  0.05061200  1
  C  C5  1  0.94938800  0.05061200  0.55061200  1
  C  C6  1  0.05061200  0.55061200  0.94938800  1
  C  C7  1  0.29177400  0.29177400  0.29177400  1
  C  C8  1  0.44938800  0.44938800  0.44938800  1
  C  C9  1  0.79177400  0.20822600  0.70822600  1
  C  C10  1  0.20822600  0.70822600  0.79177400  1
  C  C11  1  0.70822600  0.79177400  0.20822600  1
  Ni  Ni12  1  0.46072300  0.96072300  0.53927700  1
  Ni  Ni13  1  0.53927700  0.46072300  0.96072300  1
  Ni  Ni14  1  0.96072300  0.53927700  0.46072300  1
  Ni  Ni15  1  0.03927700  0.03927700  0.03927700  1
  Cu  Cu16  1  0.43578400  0.69324100  0.87769300  1
  Cu  Cu17  1  0.93578400  0.80675900  0.12230700  1
  Cu  Cu18  1  0.56421600  0.19324100  0.62230700  1
  Cu  Cu19  1  0.80675900  0.12230700  0.93578400  1
  Cu  Cu20  1  0.62230700  0.56421600  0.19324100  1
  Cu  Cu21  1  0.12230700  0.93578400  0.80675900  1
  Cu  Cu22  1  0.69324100  0.87769300  0.43578400  1
  Cu  Cu23  1  0.87769300  0.43578400  0.69324100  1
  Cu  Cu24  1  0.19324100  0.62230700  0.56421600  1
  Cu  Cu25  1  0.30675900  0.37769300  0.06421600  1
  Cu  Cu26  1  0.37769300  0.06421600  0.30675900  1
  Cu  Cu27  1  0.06421600  0.30675900  0.37769300  1
  Cu  Cu28  1  0.44874100  0.77327500  0.77750900  1
  Cu  Cu29  1  0.94874100  0.72672500  0.22249100  1
  Cu  Cu30  1  0.55125900  0.27327500  0.72249100  1
  Cu  Cu31  1  0.72672500  0.22249100  0.94874100  1
  Cu  Cu32  1  0.72249100  0.55125900  0.27327500  1
  Cu  Cu33  1  0.22249100  0.94874100  0.72672500  1
  Cu  Cu34  1  0.77327500  0.77750900  0.44874100  1
  Cu  Cu35  1  0.77750900  0.44874100  0.77327500  1
  Cu  Cu36  1  0.27327500  0.72249100  0.55125900  1
  Cu  Cu37  1  0.22672500  0.27750900  0.05125900  1
  Cu  Cu38  1  0.27750900  0.05125900  0.22672500  1
  Cu  Cu39  1  0.05125900  0.22672500  0.27750900  1
  Cu  Cu40  1  0.32877900  0.24026100  0.53596800  1
  Cu  Cu41  1  0.82877900  0.25973900  0.46403200  1
  Cu  Cu42  1  0.67122100  0.74026100  0.96403200  1
  Cu  Cu43  1  0.25973900  0.46403200  0.82877900  1
  Cu  Cu44  1  0.96403200  0.67122100  0.74026100  1
  Cu  Cu45  1  0.46403200  0.82877900  0.25973900  1
  Cu  Cu46  1  0.24026100  0.53596800  0.32877900  1
  Cu  Cu47  1  0.53596800  0.32877900  0.24026100  1
  Cu  Cu48  1  0.74026100  0.96403200  0.67122100  1
  Cu  Cu49  1  0.75973900  0.03596800  0.17122100  1
  Cu  Cu50  1  0.19456200  0.08262500  0.51675600  1
  Cu  Cu51  1  0.03596800  0.17122100  0.75973900  1
  Cu  Cu52  1  0.24839300  0.33942600  0.51699900  1
  Cu  Cu53  1  0.74839300  0.16057400  0.48300100  1
  Cu  Cu54  1  0.75160700  0.83942600  0.98300100  1
  Cu  Cu55  1  0.16057400  0.48300100  0.74839300  1
  Cu  Cu56  1  0.98300100  0.75160700  0.83942600  1
  Cu  Cu57  1  0.48300100  0.74839300  0.16057400  1
  Cu  Cu58  1  0.33942600  0.51699900  0.24839300  1
  Cu  Cu59  1  0.51699900  0.24839300  0.33942600  1
  Cu  Cu60  1  0.83942600  0.98300100  0.75160700  1
  Cu  Cu61  1  0.66057400  0.01699900  0.25160700  1
  Cu  Cu62  1  0.01699900  0.25160700  0.66057400  1
  Cu  Cu63  1  0.25160700  0.66057400  0.01699900  1
  Cu  Cu64  1  0.57810000  0.62777200  0.35801600  1
  Cu  Cu65  1  0.07810000  0.87222800  0.64198400  1
  Cu  Cu66  1  0.42190000  0.12777200  0.14198400  1
  Cu  Cu67  1  0.87222800  0.64198400  0.07810000  1
  Cu  Cu68  1  0.14198400  0.42190000  0.12777200  1
  Cu  Cu69  1  0.64198400  0.07810000  0.87222800  1
  Cu  Cu70  1  0.62777200  0.35801600  0.57810000  1
  Cu  Cu71  1  0.35801600  0.57810000  0.62777200  1
  Cu  Cu72  1  0.12777200  0.14198400  0.42190000  1
  Cu  Cu73  1  0.37222800  0.85801600  0.92190000  1
  Cu  Cu74  1  0.85801600  0.92190000  0.37222800  1
  Cu  Cu75  1  0.92190000  0.37222800  0.85801600  1
  Cu  Cu76  1  0.48324400  0.69456200  0.41737500  1
  Cu  Cu77  1  0.98324400  0.80543800  0.58262500  1
  Cu  Cu78  1  0.51675600  0.19456200  0.08262500  1
  Cu  Cu79  1  0.80543800  0.58262500  0.98324400  1
  Cu  Cu80  1  0.08262500  0.51675600  0.19456200  1
  Cu  Cu81  1  0.58262500  0.98324400  0.80543800  1
  Cu  Cu82  1  0.69456200  0.41737500  0.48324400  1
  Cu  Cu83  1  0.41737500  0.48324400  0.69456200  1
  Cu  Cu84  1  0.01675600  0.30543800  0.91737500  1
  Cu  Cu85  1  0.91737500  0.01675600  0.30543800  1
  Cu  Cu86  1  0.30543800  0.91737500  0.01675600  1
  Cu  Cu87  1  0.17122100  0.75973900  0.03596800  1
  C  C88  1  0.65320000  0.57481800  0.85463000  1
  C  C89  1  0.57481800  0.85463000  0.65320000  1
  C  C90  1  0.84680000  0.42518200  0.35463000  1
  C  C91  1  0.42518200  0.35463000  0.84680000  1
  C  C92  1  0.34680000  0.07481800  0.64537000  1
  C  C93  1  0.15320000  0.92518200  0.14537000  1
  C  C94  1  0.92518200  0.14537000  0.15320000  1
  C  C95  1  0.14537000  0.15320000  0.92518200  1
  C  C96  1  0.07224800  0.42775200  0.57224800  1
  C  C97  1  0.42775200  0.57224800  0.07224800  1
  C  C98  1  0.57224800  0.07224800  0.42775200  1
  C  C99  1  0.92775200  0.92775200  0.92775200  1
  C  C100  1  0.64537000  0.34680000  0.07481800  1
  C  C101  1  0.85463000  0.65320000  0.57481800  1
  C  C102  1  0.35463000  0.84680000  0.42518200  1
  C  C103  1  0.07481800  0.64537000  0.34680000  1
  C  C104  1  0.39596500  0.74742500  0.83371800  1
  C  C105  1  0.89596500  0.75257500  0.16628200  1
  C  C106  1  0.60403500  0.24742500  0.66628200  1
  C  C107  1  0.75257500  0.16628200  0.89596500  1
  C  C108  1  0.66628200  0.60403500  0.24742500  1
  C  C109  1  0.16628200  0.89596500  0.75257500  1
  C  C110  1  0.74742500  0.83371800  0.39596500  1
  C  C111  1  0.83371800  0.39596500  0.74742500  1
  C  C112  1  0.24742500  0.66628200  0.60403500  1
  C  C113  1  0.25257500  0.33371800  0.10403500  1
  C  C114  1  0.33371800  0.10403500  0.25257500  1
  C  C115  1  0.10403500  0.25257500  0.33371800  1
  C  C116  1  0.31651000  0.30576900  0.49004000  1
  C  C117  1  0.81651000  0.19423100  0.50996000  1
  C  C118  1  0.68349000  0.80576900  0.00996000  1
  C  C119  1  0.19423100  0.50996000  0.81651000  1
  C  C120  1  0.00996000  0.68349000  0.80576900  1
  C  C121  1  0.50996000  0.81651000  0.19423100  1
  C  C122  1  0.30576900  0.49004000  0.31651000  1
  C  C123  1  0.49004000  0.31651000  0.30576900  1
  C  C124  1  0.80576900  0.00996000  0.68349000  1
  C  C125  1  0.69423100  0.99004000  0.18349000  1
  C  C126  1  0.99004000  0.18349000  0.69423100  1
  C  C127  1  0.18349000  0.69423100  0.99004000  1
  C  C128  1  0.52921500  0.62846600  0.42300400  1
  C  C129  1  0.02921500  0.87153400  0.57699600  1
  C  C130  1  0.47078500  0.12846600  0.07699600  1
  C  C131  1  0.87153400  0.57699600  0.02921500  1
  C  C132  1  0.07699600  0.47078500  0.12846600  1
  C  C133  1  0.57699600  0.02921500  0.87153400  1
  C  C134  1  0.62846600  0.42300400  0.52921500  1
  C  C135  1  0.42300400  0.52921500  0.62846600  1
  C  C136  1  0.12846600  0.07699600  0.47078500  1
  C  C137  1  0.37153400  0.92300400  0.97078500  1
  C  C138  1  0.92300400  0.97078500  0.37153400  1
  C  C139  1  0.97078500  0.37153400  0.92300400  1
