# generated using pymatgen
data_CuNiC16
_symmetry_space_group_name_H-M   'P 1'
_cell_length_a   8.72968013
_cell_length_b   8.72967985
_cell_length_c   22.99302565
_cell_angle_alpha   90.00000000
_cell_angle_beta   90.00000000
_cell_angle_gamma   120.00000102
_symmetry_Int_Tables_number   1
_chemical_formula_structural   CuNiC16
_chemical_formula_sum   'Cu6 Ni6 C96'
_cell_volume   1517.48147695
_cell_formula_units_Z   6
loop_
 _symmetry_equiv_pos_site_id
 _symmetry_equiv_pos_as_xyz
  1  'x, y, z'
loop_
 _atom_site_type_symbol
 _atom_site_label
 _atom_site_symmetry_multiplicity
 _atom_site_fract_x
 _atom_site_fract_y
 _atom_site_fract_z
 _atom_site_occupancy
  Ni  Ni0  1  -0.00000000  0.00000000  0.49789828  1
  Ni  Ni1  1  -0.00000000  0.00000000  0.99789828  1
  Ni  Ni2  1  0.66666700  0.33333300  0.83123128  1
  Ni  Ni3  1  0.66666700  0.33333300  0.33123128  1
  Ni  Ni4  1  0.33333300  0.66666700  0.16456528  1
  Ni  Ni5  1  0.33333300  0.66666700  0.66456528  1
  C  C6  1  -0.00000000  0.00000000  0.35109583  1
  C  C7  1  -0.00000000  0.00000000  0.85109583  1
  C  C8  1  0.66666700  0.33333300  0.68442883  1
  C  C9  1  0.66666700  0.33333300  0.18442883  1
  C  C10  1  0.33333300  0.66666700  0.01776283  1
  C  C11  1  0.33333300  0.66666700  0.51776283  1
  Cu  Cu12  1  -0.00000000  0.00000000  0.64829680  1
  Cu  Cu13  1  -0.00000000  0.00000000  0.14829680  1
  Cu  Cu14  1  0.66666700  0.33333300  0.98162980  1
  Cu  Cu15  1  0.66666700  0.33333300  0.48162980  1
  Cu  Cu16  1  0.33333300  0.66666700  0.31496380  1
  Cu  Cu17  1  0.33333300  0.66666700  0.81496380  1
  C  C18  1  0.29375519  0.00368324  0.25084543  1
  C  C19  1  0.70992805  0.70624481  0.25084543  1
  C  C20  1  0.99631676  0.29007195  0.25084543  1
  C  C21  1  0.29375519  0.29007195  0.75084543  1
  C  C22  1  0.99631676  0.70624481  0.75084543  1
  C  C23  1  0.70992805  0.00368324  0.75084543  1
  C  C24  1  0.96042219  0.33701624  0.58417843  1
  C  C25  1  0.37659505  0.03957781  0.58417843  1
  C  C26  1  0.66298376  0.62340495  0.58417843  1
  C  C27  1  0.96042219  0.62340495  0.08417843  1
  C  C28  1  0.66298376  0.03957781  0.08417843  1
  C  C29  1  0.37659505  0.33701624  0.08417843  1
  C  C30  1  0.62708819  0.67035024  0.91751243  1
  C  C31  1  0.04326105  0.37291181  0.91751243  1
  C  C32  1  0.32964976  0.95673895  0.91751243  1
  C  C33  1  0.62708819  0.95673895  0.41751243  1
  C  C34  1  0.32964976  0.37291181  0.41751243  1
  C  C35  1  0.04326105  0.67035024  0.41751243  1
  C  C36  1  0.21043466  0.02684249  0.30275795  1
  C  C37  1  0.81640783  0.78956534  0.30275795  1
  C  C38  1  0.97315751  0.18359217  0.30275795  1
  C  C39  1  0.21043466  0.18359217  0.80275795  1
  C  C40  1  0.97315751  0.78956534  0.80275795  1
  C  C41  1  0.81640783  0.02684249  0.80275795  1
  C  C42  1  0.78994619  0.97366661  0.69774753  1
  C  C43  1  0.18372042  0.21005381  0.69774753  1
  C  C44  1  0.02633339  0.81627958  0.69774753  1
  C  C45  1  0.78994619  0.81627958  0.19774753  1
  C  C46  1  0.02633339  0.21005381  0.19774753  1
  C  C47  1  0.18372042  0.97366661  0.19774753  1
  C  C48  1  0.87710166  0.36017549  0.63609095  1
  C  C49  1  0.48307483  0.12289834  0.63609095  1
  C  C50  1  0.63982451  0.51692517  0.63609095  1
  C  C51  1  0.87710166  0.51692517  0.13609095  1
  C  C52  1  0.63982451  0.12289834  0.13609095  1
  C  C53  1  0.48307483  0.36017549  0.13609095  1
  C  C54  1  0.45661319  0.30699961  0.03108053  1
  C  C55  1  0.85038742  0.54338681  0.03108053  1
  C  C56  1  0.69300039  0.14961258  0.03108053  1
  C  C57  1  0.45661319  0.14961258  0.53108053  1
  C  C58  1  0.69300039  0.54338681  0.53108053  1
  C  C59  1  0.85038742  0.30699961  0.53108053  1
  C  C60  1  0.54376766  0.69350949  0.96942495  1
  C  C61  1  0.14974083  0.45623234  0.96942495  1
  C  C62  1  0.30649051  0.85025917  0.96942495  1
  C  C63  1  0.54376766  0.85025917  0.46942495  1
  C  C64  1  0.30649051  0.45623234  0.46942495  1
  C  C65  1  0.14974083  0.69350949  0.46942495  1
  C  C66  1  0.12327919  0.64033361  0.36441453  1
  C  C67  1  0.51705342  0.87672081  0.36441453  1
  C  C68  1  0.35966639  0.48294658  0.36441453  1
  C  C69  1  0.12327919  0.48294658  0.86441453  1
  C  C70  1  0.35966639  0.87672081  0.86441453  1
  C  C71  1  0.51705342  0.64033361  0.86441453  1
  C  C72  1  0.02283357  0.82676252  0.40984134  1
  C  C73  1  0.80392895  0.97716643  0.40984134  1
  C  C74  1  0.17323748  0.19607105  0.40984134  1
  C  C75  1  0.02283357  0.19607105  0.90984134  1
  C  C76  1  0.17323748  0.97716643  0.90984134  1
  C  C77  1  0.80392895  0.82676252  0.90984134  1
  C  C78  1  0.97678320  0.17439686  0.58971078  1
  C  C79  1  0.19761366  0.02321680  0.58971078  1
  C  C80  1  0.82560314  0.80238634  0.58971078  1
  C  C81  1  0.97678320  0.80238634  0.08971078  1
  C  C82  1  0.82560314  0.02321680  0.08971078  1
  C  C83  1  0.19761366  0.17439686  0.08971078  1
  C  C84  1  0.68950057  0.16009552  0.74317434  1
  C  C85  1  0.47059595  0.31049943  0.74317434  1
  C  C86  1  0.83990448  0.52940405  0.74317434  1
  C  C87  1  0.68950057  0.52940405  0.24317434  1
  C  C88  1  0.83990448  0.31049943  0.24317434  1
  C  C89  1  0.47059595  0.16009552  0.24317434  1
  C  C90  1  0.64345020  0.50772986  0.92304378  1
  C  C91  1  0.86428066  0.35654980  0.92304378  1
  C  C92  1  0.49227014  0.13571934  0.92304378  1
  C  C93  1  0.64345020  0.13571934  0.42304378  1
  C  C94  1  0.49227014  0.35654980  0.42304378  1
  C  C95  1  0.86428066  0.50772986  0.42304378  1
  C  C96  1  0.35616657  0.49342952  0.07650834  1
  C  C97  1  0.13726195  0.64383343  0.07650834  1
  C  C98  1  0.50657048  0.86273805  0.07650834  1
  C  C99  1  0.35616657  0.86273805  0.57650834  1
  C  C100  1  0.50657048  0.64383343  0.57650834  1
  C  C101  1  0.13726195  0.49342952  0.57650834  1
  C  C102  1  0.31011620  0.84106386  0.25637778  1
  C  C103  1  0.53094666  0.68988380  0.25637778  1
  C  C104  1  0.15893614  0.46905334  0.25637778  1
  C  C105  1  0.31011620  0.46905334  0.75637778  1
  C  C106  1  0.15893614  0.68988380  0.75637778  1
  C  C107  1  0.53094666  0.84106386  0.75637778  1
