# generated using pymatgen
data_Cu6NiC12
_symmetry_space_group_name_H-M   'P 1'
_cell_length_a   5.17760570
_cell_length_b   5.49079228
_cell_length_c   8.58343485
_cell_angle_alpha   88.76473629
_cell_angle_beta   91.29634077
_cell_angle_gamma   107.53454928
_symmetry_Int_Tables_number   1
_chemical_formula_structural   Cu6NiC12
_chemical_formula_sum   'Cu6 Ni1 C12'
_cell_volume   232.59418072
_cell_formula_units_Z   1
loop_
 _symmetry_equiv_pos_site_id
 _symmetry_equiv_pos_as_xyz
  1  'x, y, z'
loop_
 _atom_site_type_symbol
 _atom_site_label
 _atom_site_symmetry_multiplicity
 _atom_site_fract_x
 _atom_site_fract_y
 _atom_site_fract_z
 _atom_site_occupancy
  Ni  Ni0  1  0.49622808  0.00464331  0.32357407  1
  Cu  Cu1  1  0.02282691  0.98035458  0.00259777  1
  Cu  Cu2  1  -0.00052244  0.00543264  0.32858490  1
  Cu  Cu3  1  0.00701751  -0.00365238  0.67004827  1
  Cu  Cu4  1  0.49579068  0.50738715  0.15898679  1
  Cu  Cu5  1  0.49490043  0.50597049  0.83085443  1
  Cu  Cu6  1  0.50150510  0.50259492  0.50433601  1
  C  C7  1  0.16643184  0.87600851  0.17885994  1
  C  C8  1  0.32823133  0.29593711  0.33197399  1
  C  C9  1  0.31526389  0.31468432  -0.00050552  1
  C  C10  1  0.31058803  0.31382544  0.66357149  1
  C  C11  1  0.69148797  0.68934481  0.66409359  1
  C  C12  1  0.68667324  0.68946799  -0.00090852  1
  C  C13  1  0.66761501  0.71741155  0.33048295  1
  C  C14  1  0.18538339  0.83466069  0.84082515  1
  C  C15  1  0.18504150  0.85929467  0.47947007  1
  C  C16  1  0.81424634  0.15299731  0.17947751  1
  C  C17  1  0.84631731  0.13656128  0.84845218  1
  C  C18  1  0.81275087  0.14484962  0.47951191  1
