# generated using pymatgen
data_CuNiC7
_symmetry_space_group_name_H-M   'P 1'
_cell_length_a   7.97965000
_cell_length_b   8.05920800
_cell_length_c   13.47951300
_cell_angle_alpha   90.00000000
_cell_angle_beta   90.00000000
_cell_angle_gamma   90.00000000
_symmetry_Int_Tables_number   1
_chemical_formula_structural   CuNiC7
_chemical_formula_sum   'Cu8 Ni8 C56'
_cell_volume   866.86288610
_cell_formula_units_Z   8
loop_
 _symmetry_equiv_pos_site_id
 _symmetry_equiv_pos_as_xyz
  1  'x, y, z'
loop_
 _atom_site_type_symbol
 _atom_site_label
 _atom_site_symmetry_multiplicity
 _atom_site_fract_x
 _atom_site_fract_y
 _atom_site_fract_z
 _atom_site_occupancy
  Ni  Ni0  1  0.89317500  0.23549600  0.16157900  1
  Ni  Ni1  1  0.39317500  0.76450400  0.33842100  1
  Ni  Ni2  1  0.60682500  0.73549600  0.83842100  1
  Ni  Ni3  1  0.10682500  0.26450400  0.66157900  1
  Ni  Ni4  1  0.10682500  0.76450400  0.83842100  1
  Ni  Ni5  1  0.60682500  0.23549600  0.66157900  1
  Ni  Ni6  1  0.39317500  0.26450400  0.16157900  1
  Ni  Ni7  1  0.89317500  0.73549600  0.33842100  1
  Cu  Cu8  1  0.61854800  0.34962900  0.37842700  1
  Cu  Cu9  1  0.61854800  0.84962900  0.12157300  1
  Cu  Cu10  1  0.11854800  0.15037100  0.37842700  1
  Cu  Cu11  1  0.88145200  0.34962900  0.87842700  1
  Cu  Cu12  1  0.38145200  0.65037100  0.62157300  1
  Cu  Cu13  1  0.38145200  0.15037100  0.87842700  1
  Cu  Cu14  1  0.88145200  0.84962900  0.62157300  1
  Cu  Cu15  1  0.11854800  0.65037100  0.12157300  1
  C  C16  1  0.65871000  0.39629800  0.03797000  1
  C  C17  1  0.15871000  0.60370200  0.46203000  1
  C  C18  1  0.84129000  0.89629800  0.96203000  1
  C  C19  1  0.34129000  0.10370200  0.53797000  1
  C  C20  1  0.34129000  0.60370200  0.96203000  1
  C  C21  1  0.84129000  0.39629800  0.53797000  1
  C  C22  1  0.15871000  0.10370200  0.03797000  1
  C  C23  1  0.65871000  0.89629800  0.46203000  1
  C  C24  1  0.84097500  0.00510200  0.86483500  1
  C  C25  1  0.34097500  0.99489800  0.63516500  1
  C  C26  1  0.34097500  0.49489800  0.86483500  1
  C  C27  1  0.84097500  0.50510200  0.63516500  1
  C  C28  1  0.15902500  0.99489800  0.13516500  1
  C  C29  1  0.65902500  0.00510200  0.36483500  1
  C  C30  1  0.65902500  0.50510200  0.13516500  1
  C  C31  1  0.15902500  0.49489800  0.36483500  1
  C  C32  1  0.65148200  0.38958800  0.11080000  1
  C  C33  1  0.84851800  0.88958800  0.88920000  1
  C  C34  1  0.34851800  0.11041200  0.61080000  1
  C  C35  1  0.34851800  0.61041200  0.88920000  1
  C  C36  1  0.84851800  0.38958800  0.61080000  1
  C  C37  1  0.15148200  0.11041200  0.11080000  1
  C  C38  1  0.65148200  0.88958800  0.38920000  1
  C  C39  1  0.15148200  0.61041200  0.38920000  1
  C  C40  1  0.66835300  0.20988600  0.31880000  1
  C  C41  1  0.16835300  0.29011400  0.31880000  1
  C  C42  1  0.83164700  0.20988600  0.81880000  1
  C  C43  1  0.33164700  0.79011400  0.68120000  1
  C  C44  1  0.53792200  0.79218000  0.03589600  1
  C  C45  1  0.83164700  0.70988600  0.68120000  1
  C  C46  1  0.16835300  0.79011400  0.18120000  1
  C  C47  1  0.66835300  0.70988600  0.18120000  1
  C  C48  1  0.51054200  0.94969000  0.17954100  1
  C  C49  1  0.01054200  0.05031000  0.32045900  1
  C  C50  1  0.98945800  0.44969000  0.82045900  1
  C  C51  1  0.48945800  0.55031000  0.67954100  1
  C  C52  1  0.48945800  0.05031000  0.82045900  1
  C  C53  1  0.98945800  0.94969000  0.67954100  1
  C  C54  1  0.76408700  0.44157900  0.40526400  1
  C  C55  1  0.51054200  0.44969000  0.32045900  1
  C  C56  1  0.26408700  0.55842100  0.09473600  1
  C  C57  1  0.73591300  0.94157900  0.59473600  1
  C  C58  1  0.23591300  0.05842100  0.90526400  1
  C  C59  1  0.23591300  0.55842100  0.59473600  1
  C  C60  1  0.73591300  0.44157900  0.90526400  1
  C  C61  1  0.26408700  0.05842100  0.40526400  1
  C  C62  1  0.76408700  0.94157900  0.09473600  1
  C  C63  1  0.53792200  0.29218000  0.46410400  1
  C  C64  1  0.03792200  0.70782000  0.03589600  1
  C  C65  1  0.96207800  0.79218000  0.53589600  1
  C  C66  1  0.46207800  0.20782000  0.96410400  1
  C  C67  1  0.46207800  0.70782000  0.53589600  1
  C  C68  1  0.96207800  0.29218000  0.96410400  1
  C  C69  1  0.03792200  0.20782000  0.46410400  1
  C  C70  1  0.01054200  0.55031000  0.17954100  1
  C  C71  1  0.33164700  0.29011400  0.81880000  1
