# generated using pymatgen
data_CuNiC16
_symmetry_space_group_name_H-M   'P 1'
_cell_length_a   8.53487270
_cell_length_b   8.55201557
_cell_length_c   22.07845054
_cell_angle_alpha   89.50606955
_cell_angle_beta   90.00000000
_cell_angle_gamma   119.93371241
_symmetry_Int_Tables_number   1
_chemical_formula_structural   CuNiC16
_chemical_formula_sum   'Cu6 Ni6 C96'
_cell_volume   1396.47436695
_cell_formula_units_Z   6
loop_
 _symmetry_equiv_pos_site_id
 _symmetry_equiv_pos_as_xyz
  1  'x, y, z'
loop_
 _atom_site_type_symbol
 _atom_site_label
 _atom_site_symmetry_multiplicity
 _atom_site_fract_x
 _atom_site_fract_y
 _atom_site_fract_z
 _atom_site_occupancy
  C  C0  1  0.98895508  0.99095489  0.50315980  1
  C  C1  1  0.00199981  0.99095489  0.00315980  1
  C  C2  1  0.65989038  0.32199236  0.83669370  1
  C  C3  1  0.66210298  0.32199236  0.33669370  1
  C  C4  1  0.32823171  0.67313311  0.17018379  1
  C  C5  1  0.34490040  0.67313311  0.67018379  1
  C  C6  1  0.98774614  0.99047983  0.64683974  1
  C  C7  1  0.00273369  0.99047983  0.14683974  1
  C  C8  1  0.66387230  0.33097251  0.98084806  1
  C  C9  1  0.66710122  0.33097251  0.48084806  1
  C  C10  1  0.33949144  0.68177891  0.31439549  1
  C  C11  1  0.34228646  0.68177891  0.81439549  1
  Ni  Ni12  1  0.00275680  0.00125781  0.35069141  1
  Ni  Ni13  1  0.99850101  0.00125781  0.85069141  1
  Ni  Ni14  1  0.66626768  0.33189166  0.68439427  1
  Ni  Ni15  1  0.66562497  0.33189166  0.18439427  1
  Ni  Ni16  1  0.31756600  0.67171891  0.01762959  1
  Ni  Ni17  1  0.35415190  0.67171891  0.51762959  1
  Cu  Cu18  1  0.29477708  0.00713336  0.24818258  1
  Cu  Cu19  1  0.71235628  0.00713336  0.74818258  1
  Cu  Cu20  1  0.66401878  0.61792140  0.58147114  1
  Cu  Cu21  1  0.95390362  0.61792140  0.08147114  1
  Cu  Cu22  1  0.32745940  0.96145789  0.91445841  1
  Cu  Cu23  1  0.63399748  0.96145789  0.41445841  1
  C  C24  1  0.71017655  0.70411510  0.24899625  1
  C  C25  1  0.99550326  0.28861832  0.24821568  1
  C  C26  1  0.29311506  0.28861832  0.74821568  1
  C  C27  1  0.99393855  0.70411510  0.74899625  1
  C  C28  1  0.96665356  0.34194606  0.58189256  1
  C  C29  1  0.37535714  0.03680340  0.58261741  1
  C  C30  1  0.66144727  0.03680340  0.08261741  1
  C  C31  1  0.37529350  0.34194606  0.08189256  1
  C  C32  1  0.62506531  0.67204652  0.91639426  1
  C  C33  1  0.04578727  0.37306468  0.91487706  1
  C  C34  1  0.32727642  0.37306468  0.41487706  1
  C  C35  1  0.04698022  0.67204652  0.41639426  1
  C  C36  1  0.21079914  0.04464739  0.30813446  1
  C  C37  1  0.82459496  0.78394328  0.30571220  1
  C  C38  1  0.95739822  0.17269874  0.30574612  1
  C  C39  1  0.21530053  0.17269874  0.80574612  1
  C  C40  1  0.95934832  0.78394328  0.80571220  1
  C  C41  1  0.83384825  0.04464739  0.80813446  1
  C  C42  1  0.79621878  0.98320660  0.69276309  1
  C  C43  1  0.18963226  0.20698797  0.69455912  1
  C  C44  1  0.02752709  0.81357443  0.69541248  1
  C  C45  1  0.78604734  0.81357443  0.19541248  1
  C  C46  1  0.01735571  0.20698797  0.19455912  1
  C  C47  1  0.18698781  0.98320660  0.19276309  1
  C  C48  1  0.88508621  0.37462916  0.63889314  1
  C  C49  1  0.49272466  0.11433040  0.63902834  1
  C  C50  1  0.62552856  0.49627623  0.64166703  1
  C  C51  1  0.87074867  0.49627623  0.14166703  1
  C  C52  1  0.62160674  0.11433040  0.13902834  1
  C  C53  1  0.48954395  0.37462916  0.13889314  1
  C  C54  1  0.45415134  0.31087154  0.02854218  1
  C  C55  1  0.84682430  0.53272621  0.02568613  1
  C  C56  1  0.68724323  0.14145916  0.02802417  1
  C  C57  1  0.45421693  0.14145916  0.52802417  1
  C  C58  1  0.68590291  0.53272621  0.52568613  1
  C  C59  1  0.85672121  0.31087154  0.52854218  1
  C  C60  1  0.54246338  0.70502946  0.97278984  1
  C  C61  1  0.15999298  0.45087554  0.97219176  1
  C  C62  1  0.28522953  0.83791164  0.97434921  1
  C  C63  1  0.55268111  0.83791164  0.47434921  1
  C  C64  1  0.29088156  0.45087554  0.47219176  1
  C  C65  1  0.16256507  0.70502946  0.47278984  1
  C  C66  1  0.12402666  0.64311424  0.36186249  1
  C  C67  1  0.52163731  0.87925365  0.35944702  1
  C  C68  1  0.34831371  0.47870845  0.36090080  1
  C  C69  1  0.13039374  0.47870845  0.86090080  1
  C  C70  1  0.35761533  0.87925365  0.85944702  1
  C  C71  1  0.51908658  0.64311424  0.86186249  1
  C  C72  1  0.03672157  0.84502359  0.41147474  1
  C  C73  1  0.82577540  0.97212772  0.40795063  1
  C  C74  1  0.15709717  0.18885969  0.41193253  1
  C  C75  1  0.03176252  0.18885969  0.91193253  1
  C  C76  1  0.14635231  0.97212772  0.90795063  1
  C  C77  1  0.80830202  0.84502359  0.91147474  1
  C  C78  1  0.99742403  0.19034446  0.58950911  1
  C  C79  1  0.19707514  0.01638729  0.59132815  1
  C  C80  1  0.82439934  0.80574643  0.58812229  1
  C  C81  1  0.98134709  0.80574643  0.08812229  1
  C  C82  1  0.81931215  0.01638729  0.09132815  1
  C  C83  1  0.19292043  0.19034446  0.08950911  1
  C  C84  1  0.69716037  0.18667122  0.74248579  1
  C  C85  1  0.47861515  0.30325280  0.74492074  1
  C  C86  1  0.82031136  0.52306569  0.74451897  1
  C  C87  1  0.70275532  0.52306569  0.24451897  1
  C  C88  1  0.82463865  0.30325280  0.24492074  1
  C  C89  1  0.48951185  0.18667122  0.24248579  1
  C  C90  1  0.65370777  0.51926326  0.92341611  1
  C  C91  1  0.86588640  0.35047654  0.92164460  1
  C  C92  1  0.48772613  0.14821760  0.92386869  1
  C  C93  1  0.66049247  0.14821760  0.42386869  1
  C  C94  1  0.48459114  0.35047654  0.42164460  1
  C  C95  1  0.86555649  0.51926326  0.42341611  1
  C  C96  1  0.36911996  0.51625753  0.07645543  1
  C  C97  1  0.14823821  0.63087677  0.07777425  1
  C  C98  1  0.49218683  0.85158245  0.07808707  1
  C  C99  1  0.35939462  0.85158245  0.57808707  1
  C  C100  1  0.48263756  0.63087677  0.57777425  1
  C  C101  1  0.14713657  0.51625753  0.57645543  1
  C  C102  1  0.32041566  0.84479993  0.25542860  1
  C  C103  1  0.52622765  0.67176418  0.25683492  1
  C  C104  1  0.15293679  0.46775206  0.25659658  1
  C  C105  1  0.31481427  0.46775206  0.75659658  1
  C  C106  1  0.14553552  0.67176418  0.75683492  1
  C  C107  1  0.52438327  0.84479993  0.75542860  1
