# generated using pymatgen
data_CuNiC3
_symmetry_space_group_name_H-M   'P 1'
_cell_length_a   11.39949500
_cell_length_b   6.18136500
_cell_length_c   11.73282200
_cell_angle_alpha   90.00000000
_cell_angle_beta   90.00000000
_cell_angle_gamma   90.00000000
_symmetry_Int_Tables_number   1
_chemical_formula_structural   CuNiC3
_chemical_formula_sum   'Cu4 Ni4 C12'
_cell_volume   826.74672494
_cell_formula_units_Z   4
loop_
 _symmetry_equiv_pos_site_id
 _symmetry_equiv_pos_as_xyz
  1  'x, y, z'
loop_
 _atom_site_type_symbol
 _atom_site_label
 _atom_site_symmetry_multiplicity
 _atom_site_fract_x
 _atom_site_fract_y
 _atom_site_fract_z
 _atom_site_occupancy
  C  C0  1  0.25000000  0.00000000  0.98714500  1
  C  C1  1  0.75000000  0.00000000  0.01285500  1
  C  C2  1  0.25000000  0.00000000  0.50361700  1
  C  C3  1  0.75000000  0.00000000  0.49638300  1
  Ni  Ni4  1  0.03220700  0.50000000  0.21116300  1
  Ni  Ni5  1  0.53220700  0.50000000  0.78883700  1
  Ni  Ni6  1  0.96779300  0.50000000  0.78883700  1
  Ni  Ni7  1  0.46779300  0.50000000  0.21116300  1
  Cu  Cu8  1  0.25000000  0.50000000  0.24713600  1
  Cu  Cu9  1  0.75000000  0.50000000  0.75286500  1
  Cu  Cu10  1  0.00000000  0.50000000  0.00000000  1
  Cu  Cu11  1  0.50000000  0.50000000  0.00000000  1
  C  C12  1  0.01405800  0.00000000  0.23837600  1
  C  C13  1  0.51405800  0.00000000  0.76162400  1
  C  C14  1  0.98594200  0.00000000  0.76162400  1
  C  C15  1  0.48594200  0.00000000  0.23837600  1
  C  C16  1  0.25000000  0.50000000  0.75380500  1
  C  C17  1  0.75000000  0.50000000  0.24619500  1
  C  C18  1  0.00000000  0.50000000  0.50000000  1
  C  C19  1  0.50000000  0.50000000  0.50000000  1
