# generated using pymatgen
data_Cu5NiC30
_symmetry_space_group_name_H-M   'P 1'
_cell_length_a   9.14237502
_cell_length_b   9.16068111
_cell_length_c   24.48177143
_cell_angle_alpha   89.46895514
_cell_angle_beta   90.56786880
_cell_angle_gamma   119.79348374
_symmetry_Int_Tables_number   1
_chemical_formula_structural   Cu5NiC30
_chemical_formula_sum   'Cu15 Ni3 C90'
_cell_volume   1779.23578289
_cell_formula_units_Z   3
loop_
 _symmetry_equiv_pos_site_id
 _symmetry_equiv_pos_as_xyz
  1  'x, y, z'
loop_
 _atom_site_type_symbol
 _atom_site_label
 _atom_site_symmetry_multiplicity
 _atom_site_fract_x
 _atom_site_fract_y
 _atom_site_fract_z
 _atom_site_occupancy
  C  C0  1  0.98397393  0.97979991  0.50750605  1
  C  C1  1  0.99947873  0.00090109  0.99707493  1
  C  C2  1  0.67216813  0.31878960  0.82766504  1
  C  C3  1  0.63647930  0.30563157  0.32692937  1
  C  C4  1  0.32750502  0.68293061  0.17601888  1
  C  C5  1  0.38610825  0.68962618  0.66697491  1
  C  C6  1  0.01282995  0.99869635  0.34273046  1
  C  C7  1  0.97435394  0.98469381  0.64997185  1
  C  C8  1  0.66809251  0.33022722  0.68609729  1
  C  C9  1  0.66269666  0.34349055  0.48075526  1
  C  C10  1  0.35402774  0.67055674  0.52023576  1
  C  C11  1  0.35143611  0.67819340  0.81880824  1
  C  C12  1  0.98989262  0.00090116  0.84872426  1
  C  C13  1  0.00775357  0.99651010  0.15471910  1
  C  C14  1  0.65753583  0.32520191  0.18064539  1
  C  C15  1  0.66743445  0.32903841  0.98962397  1
  C  C16  1  0.33189772  0.66731057  0.01637421  1
  C  C17  1  0.33338587  0.67969431  0.31099661  1
  Ni  Ni18  1  0.31210350  0.00014616  0.24394959  1
  Ni  Ni19  1  0.70004680  0.00757800  0.75719234  1
  Ni  Ni20  1  0.66906780  0.63828004  0.58440093  1
  Cu  Cu21  1  0.69216217  0.69228427  0.24267341  1
  Cu  Cu22  1  0.00094945  0.30812658  0.24250066  1
  Cu  Cu23  1  0.29483903  0.28949340  0.75769444  1
  Cu  Cu24  1  0.99637922  0.70115060  0.75970021  1
  Cu  Cu25  1  0.97439805  0.33533393  0.58131956  1
  Cu  Cu26  1  0.35623169  0.02764190  0.58220049  1
  Cu  Cu27  1  0.95914803  0.62603236  0.08315411  1
  Cu  Cu28  1  0.66993425  0.03297245  0.08292293  1
  Cu  Cu29  1  0.36918109  0.33564076  0.08107910  1
  Cu  Cu30  1  0.64336657  0.66301464  0.92645059  1
  Cu  Cu31  1  0.02606593  0.36089421  0.92467438  1
  Cu  Cu32  1  0.33125624  0.97711304  0.92426918  1
  Cu  Cu33  1  0.63235179  0.96813014  0.40828786  1
  Cu  Cu34  1  0.33528874  0.38204079  0.40579824  1
  Cu  Cu35  1  0.03762809  0.65894567  0.41081220  1
  C  C36  1  0.22957214  0.02758257  0.29865576  1
  C  C37  1  0.79136381  0.76603687  0.29279510  1
  C  C38  1  0.96663222  0.20543649  0.29240520  1
  C  C39  1  0.21029264  0.19381894  0.80938534  1
  C  C40  1  0.00460330  0.79866727  0.81016459  1
  C  C41  1  0.79271920  0.00797129  0.81622151  1
  C  C42  1  0.79320377  0.00173995  0.70217897  1
  C  C43  1  0.20608064  0.19916871  0.70810646  1
  C  C44  1  0.01137421  0.79501473  0.70938336  1
  C  C45  1  0.77052505  0.80736370  0.19418716  1
  C  C46  1  0.01955737  0.22019344  0.19357741  1
  C  C47  1  0.19324474  0.96853949  0.18887630  1
  C  C48  1  0.88059207  0.32430031  0.63134034  1
  C  C49  1  0.45063978  0.11527989  0.63202237  1
  C  C50  1  0.68175452  0.54539908  0.63970858  1
  C  C51  1  0.87834402  0.51829073  0.13168544  1
  C  C52  1  0.64023364  0.11184315  0.13070237  1
  C  C53  1  0.47583062  0.36492363  0.13025476  1
  C  C54  1  0.44777244  0.30777145  0.03182267  1
  C  C55  1  0.85737130  0.54841062  0.03256486  1
  C  C56  1  0.69933558  0.13725647  0.03231118  1
  C  C57  1  0.45403222  0.11343242  0.53196876  1
  C  C58  1  0.65209337  0.53262687  0.52772918  1
  C  C59  1  0.87685127  0.33111181  0.53150865  1
  C  C60  1  0.55468064  0.68849232  0.97419727  1
  C  C61  1  0.13462193  0.44795735  0.97433485  1
  C  C62  1  0.30436138  0.86553810  0.97371955  1
  C  C63  1  0.55008200  0.88271088  0.45988237  1
  C  C64  1  0.33769075  0.46562061  0.45718610  1
  C  C65  1  0.12513295  0.65950024  0.46171492  1
  C  C66  1  0.13338538  0.66297489  0.36124934  1
  C  C67  1  0.53484512  0.86873895  0.35967870  1
  C  C68  1  0.33247379  0.47926539  0.35683172  1
  C  C69  1  0.09756661  0.45967364  0.87509800  1
  C  C70  1  0.36234058  0.90684438  0.87526890  1
  C  C71  1  0.54645404  0.63543419  0.87594197  1
  C  C72  1  0.01690371  0.81062467  0.41117352  1
  C  C73  1  0.80270925  0.98622943  0.40795995  1
  C  C74  1  0.18106131  0.21426493  0.40635675  1
  C  C75  1  0.01160675  0.19111099  0.92195687  1
  C  C76  1  0.17793448  0.99516828  0.91847388  1
  C  C77  1  0.81486445  0.81446055  0.92291556  1
  C  C78  1  0.00570243  0.19214492  0.57793159  1
  C  C79  1  0.19368719  0.02366522  0.57900497  1
  C  C80  1  0.83288696  0.82476240  0.57763399  1
  C  C81  1  0.97425193  0.79531495  0.08838860  1
  C  C82  1  0.82236756  0.01383297  0.09064037  1
  C  C83  1  0.19772346  0.18558887  0.08701099  1
  C  C84  1  0.67916954  0.17295800  0.75810145  1
  C  C85  1  0.46834707  0.31751045  0.75968931  1
  C  C86  1  0.83705430  0.53906122  0.76155872  1
  C  C87  1  0.68539045  0.52828096  0.23404732  1
  C  C88  1  0.85770232  0.34013273  0.23385175  1
  C  C89  1  0.50013125  0.16809682  0.23828959  1
  C  C90  1  0.65934793  0.50959611  0.93508168  1
  C  C91  1  0.85340499  0.34021884  0.93235747  1
  C  C92  1  0.48267195  0.14718372  0.93353321  1
  C  C93  1  0.64377521  0.13546086  0.40499610  1
  C  C94  1  0.48741112  0.36323552  0.40201793  1
  C  C95  1  0.86890900  0.50525151  0.40717552  1
  C  C96  1  0.35405690  0.49126803  0.07357292  1
  C  C97  1  0.13187137  0.64415052  0.07732382  1
  C  C98  1  0.51536524  0.86253746  0.07523977  1
  C  C99  1  0.32912869  0.85377439  0.58480061  1
  C  C100  1  0.50058890  0.65924427  0.58900220  1
  C  C101  1  0.13677702  0.49526266  0.58315455  1
  C  C102  1  0.33170611  0.83106712  0.24959974  1
  C  C103  1  0.51825567  0.66431541  0.24835737  1
  C  C104  1  0.15959469  0.47289355  0.24803527  1
  C  C105  1  0.29990802  0.45446537  0.75819512  1
  C  C106  1  0.14047106  0.66945654  0.76140953  1
  C  C107  1  0.51215786  0.83546652  0.75557026  1
