# generated using pymatgen
data_Cu2NiC12
_symmetry_space_group_name_H-M   'P 1'
_cell_length_a   5.70289713
_cell_length_b   6.14713254
_cell_length_c   7.64685611
_cell_angle_alpha   97.61148262
_cell_angle_beta   89.23929720
_cell_angle_gamma   122.25238474
_symmetry_Int_Tables_number   1
_chemical_formula_structural   Cu2NiC12
_chemical_formula_sum   'Cu2 Ni1 C12'
_cell_volume   224.18463941
_cell_formula_units_Z   1
loop_
 _symmetry_equiv_pos_site_id
 _symmetry_equiv_pos_as_xyz
  1  'x, y, z'
loop_
 _atom_site_type_symbol
 _atom_site_label
 _atom_site_symmetry_multiplicity
 _atom_site_fract_x
 _atom_site_fract_y
 _atom_site_fract_z
 _atom_site_occupancy
  C  C0  1  0.05940690  0.15741550  0.94860968  1
  C  C1  1  0.03171516  0.67925456  0.13500450  1
  Ni  Ni2  1  0.98345097  0.98117427  0.49846751  1
  Cu  Cu3  1  0.63125822  0.24815082  0.25605528  1
  Cu  Cu4  1  0.33299550  0.71055089  0.74807180  1
  C  C5  1  0.34735868  0.54603898  0.36867079  1
  C  C6  1  0.68235076  0.36697060  0.69327012  1
  C  C7  1  0.70841571  0.32832898  0.02773632  1
  C  C8  1  0.31716523  0.68115513  0.98407633  1
  C  C9  1  0.76909242  0.60340686  0.33725964  1
  C  C10  1  0.89789087  0.19737394  0.31295837  1
  C  C11  1  0.26252856  0.02890729  0.26917582  1
  C  C12  1  0.27383250  0.38433566  0.66044051  1
  C  C13  1  0.65698137  0.95439680  0.66285385  1
  C  C14  1  0.08127115  0.79920472  0.70449149  1
