# generated using pymatgen
data_Cu8Ni2C3
_symmetry_space_group_name_H-M   'P 1'
_cell_length_a   11.19321300
_cell_length_b   11.19321300
_cell_length_c   11.19321300
_cell_angle_alpha   90.00000000
_cell_angle_beta   90.00000000
_cell_angle_gamma   90.00000000
_symmetry_Int_Tables_number   1
_chemical_formula_structural   Cu8Ni2C3
_chemical_formula_sum   'Cu32 Ni8 C12'
_cell_volume   1402.37546358
_cell_formula_units_Z   4
loop_
 _symmetry_equiv_pos_site_id
 _symmetry_equiv_pos_as_xyz
  1  'x, y, z'
loop_
 _atom_site_type_symbol
 _atom_site_label
 _atom_site_symmetry_multiplicity
 _atom_site_fract_x
 _atom_site_fract_y
 _atom_site_fract_z
 _atom_site_occupancy
  Ni  Ni0  1  0.15280600  0.34719400  0.65280600  1
  Ni  Ni1  1  0.34719400  0.65280600  0.15280600  1
  Ni  Ni2  1  0.65280600  0.15280600  0.34719400  1
  Ni  Ni3  1  0.84719400  0.84719400  0.84719400  1
  Ni  Ni4  1  0.42585700  0.07414300  0.92585700  1
  Ni  Ni5  1  0.07414300  0.92585700  0.42585700  1
  Ni  Ni6  1  0.92585700  0.42585700  0.07414300  1
  Ni  Ni7  1  0.57414300  0.57414300  0.57414300  1
  C  C8  1  0.03121100  0.73612700  0.14108300  1
  C  C9  1  0.53121100  0.76387300  0.85891700  1
  C  C10  1  0.96878900  0.23612700  0.35891700  1
  C  C11  1  0.76387300  0.85891700  0.53121100  1
  C  C12  1  0.35891700  0.96878900  0.23612700  1
  C  C13  1  0.85891700  0.53121100  0.76387300  1
  C  C14  1  0.73612700  0.14108300  0.03121100  1
  C  C15  1  0.14108300  0.03121100  0.73612700  1
  C  C16  1  0.23612700  0.35891700  0.96878900  1
  C  C17  1  0.26387300  0.64108300  0.46878900  1
  C  C18  1  0.64108300  0.46878900  0.26387300  1
  C  C19  1  0.46878900  0.26387300  0.64108300  1
  Cu  Cu20  1  0.44473400  0.72878700  0.29046000  1
  Cu  Cu21  1  0.05526600  0.27121300  0.79046000  1
  Cu  Cu22  1  0.27121300  0.79046000  0.05526600  1
  Cu  Cu23  1  0.79046000  0.05526600  0.27121300  1
  Cu  Cu24  1  0.77121300  0.70954000  0.94473400  1
  Cu  Cu25  1  0.94473400  0.77121300  0.70954000  1
  Cu  Cu26  1  0.22878700  0.20954000  0.55526600  1
  Cu  Cu27  1  0.72878700  0.29046000  0.44473400  1
  Cu  Cu28  1  0.55526600  0.22878700  0.20954000  1
  Cu  Cu29  1  0.29046000  0.44473400  0.72878700  1
  Cu  Cu30  1  0.20954000  0.55526600  0.22878700  1
  Cu  Cu31  1  0.70954000  0.94473400  0.77121300  1
  Cu  Cu32  1  0.46617500  0.46617500  0.46617500  1
  Cu  Cu33  1  0.03382500  0.53382500  0.96617500  1
  Cu  Cu34  1  0.96617500  0.03382500  0.53382500  1
  Cu  Cu35  1  0.53382500  0.96617500  0.03382500  1
  Cu  Cu36  1  0.95194200  0.95194200  0.95194200  1
  Cu  Cu37  1  0.54805800  0.04805800  0.45194200  1
  Cu  Cu38  1  0.45194200  0.54805800  0.04805800  1
  Cu  Cu39  1  0.04805800  0.45194200  0.54805800  1
  Cu  Cu40  1  0.09244500  0.00430100  0.26124000  1
  Cu  Cu41  1  0.26124000  0.09244500  0.00430100  1
  Cu  Cu42  1  0.00430100  0.26124000  0.09244500  1
  Cu  Cu43  1  0.49569900  0.73876000  0.59244500  1
  Cu  Cu44  1  0.76124000  0.40755500  0.99569900  1
  Cu  Cu45  1  0.99569900  0.76124000  0.40755500  1
  Cu  Cu46  1  0.23876000  0.90755500  0.50430100  1
  Cu  Cu47  1  0.73876000  0.59244500  0.49569900  1
  Cu  Cu48  1  0.50430100  0.23876000  0.90755500  1
  Cu  Cu49  1  0.59244500  0.49569900  0.73876000  1
  Cu  Cu50  1  0.90755500  0.50430100  0.23876000  1
  Cu  Cu51  1  0.40755500  0.99569900  0.76124000  1
