# generated using pymatgen
data_Cu2NiC10
_symmetry_space_group_name_H-M   'P 1'
_cell_length_a   5.85737996
_cell_length_b   5.98987747
_cell_length_c   5.85734615
_cell_angle_alpha   90.06268581
_cell_angle_beta   119.79788481
_cell_angle_gamma   60.46142575
_symmetry_Int_Tables_number   1
_chemical_formula_structural   Cu2NiC10
_chemical_formula_sum   'Cu2 Ni1 C10'
_cell_volume   146.83543503
_cell_formula_units_Z   1
loop_
 _symmetry_equiv_pos_site_id
 _symmetry_equiv_pos_as_xyz
  1  'x, y, z'
loop_
 _atom_site_type_symbol
 _atom_site_label
 _atom_site_symmetry_multiplicity
 _atom_site_fract_x
 _atom_site_fract_y
 _atom_site_fract_z
 _atom_site_occupancy
  Ni  Ni0  1  0.50000000  0.50000000  0.50000000  1
  Cu  Cu1  1  0.50000000  0.50000000  0.00000000  1
  Cu  Cu2  1  0.00000000  0.50000000  0.50000000  1
  C  C3  1  0.50000000  0.00000000  0.00000000  1
  C  C4  1  0.00000000  0.50000000  0.00000000  1
  C  C5  1  0.54496400  0.70556800  0.78952500  1
  C  C6  1  0.00491000  0.70556600  0.24947000  1
  C  C7  1  0.96748300  0.30255200  0.22996500  1
  C  C8  1  0.54011500  0.70709000  0.25279300  1
  C  C9  1  0.45988500  0.29291000  0.74720700  1
  C  C10  1  0.03251700  0.69744800  0.77003500  1
  C  C11  1  0.99509000  0.29443400  0.75053000  1
  C  C12  1  0.45503600  0.29443200  0.21047500  1
