# generated using pymatgen
data_Cu2NiC
_symmetry_space_group_name_H-M   'P 1'
_cell_length_a   6.12946100
_cell_length_b   6.28252500
_cell_length_c   7.07005200
_cell_angle_alpha   90.00000000
_cell_angle_beta   90.00000000
_cell_angle_gamma   90.00000000
_symmetry_Int_Tables_number   1
_chemical_formula_structural   Cu2NiC
_chemical_formula_sum   'Cu8 Ni4 C4'
_cell_volume   272.25704066
_cell_formula_units_Z   4
loop_
 _symmetry_equiv_pos_site_id
 _symmetry_equiv_pos_as_xyz
  1  'x, y, z'
loop_
 _atom_site_type_symbol
 _atom_site_label
 _atom_site_symmetry_multiplicity
 _atom_site_fract_x
 _atom_site_fract_y
 _atom_site_fract_z
 _atom_site_occupancy
  C  C0  1  0.50000000  0.25000000  0.10887700  1
  C  C1  1  0.00000000  0.25000000  0.89112300  1
  C  C2  1  0.50000000  0.75000000  0.89112300  1
  C  C3  1  0.00000000  0.75000000  0.10887700  1
  Ni  Ni4  1  0.00000000  0.75000000  0.64735100  1
  Ni  Ni5  1  0.00000000  0.25000000  0.35264900  1
  Ni  Ni6  1  0.50000000  0.75000000  0.35264900  1
  Ni  Ni7  1  0.50000000  0.25000000  0.64735100  1
  Cu  Cu8  1  0.65114900  0.39345200  0.77994900  1
  Cu  Cu9  1  0.15114900  0.10654800  0.22005100  1
  Cu  Cu10  1  0.84885100  0.39345200  0.22005100  1
  Cu  Cu11  1  0.34885100  0.10654800  0.77994900  1
  Cu  Cu12  1  0.34885100  0.60654800  0.22005100  1
  Cu  Cu13  1  0.65114900  0.89345200  0.22005100  1
  Cu  Cu14  1  0.15114900  0.60654800  0.77994900  1
  Cu  Cu15  1  0.84885100  0.89345200  0.77994900  1
