# generated using pymatgen
data_CuNiC11
_symmetry_space_group_name_H-M   'P 1'
_cell_length_a   5.09938033
_cell_length_b   12.98311806
_cell_length_c   8.64750065
_cell_angle_alpha   89.99268084
_cell_angle_beta   84.83285645
_cell_angle_gamma   90.00744376
_symmetry_Int_Tables_number   1
_chemical_formula_structural   CuNiC11
_chemical_formula_sum   'Cu4 Ni4 C44'
_cell_volume   570.18859686
_cell_formula_units_Z   4
loop_
 _symmetry_equiv_pos_site_id
 _symmetry_equiv_pos_as_xyz
  1  'x, y, z'
loop_
 _atom_site_type_symbol
 _atom_site_label
 _atom_site_symmetry_multiplicity
 _atom_site_fract_x
 _atom_site_fract_y
 _atom_site_fract_z
 _atom_site_occupancy
  C  C0  1  0.84886000  0.12505400  0.08322100  1
  C  C1  1  0.84878300  0.62495700  0.08330900  1
  C  C2  1  0.15114500  0.37490800  0.91677400  1
  C  C3  1  0.15131900  0.87501000  0.91671000  1
  C  C4  1  0.76905300  0.48665800  0.71082200  1
  C  C5  1  0.76891600  0.98664300  0.71079100  1
  C  C6  1  0.23119700  0.01333200  0.28913300  1
  C  C7  1  0.23088200  0.51333100  0.28927300  1
  C  C8  1  0.76878300  0.26326700  0.71096400  1
  C  C9  1  0.76900300  0.76333000  0.71081900  1
  C  C10  1  0.23107500  0.23672300  0.28902500  1
  C  C11  1  0.23108000  0.73663400  0.28919600  1
  C  C12  1  0.75962200  0.87506400  0.33090100  1
  C  C13  1  0.24040900  0.62517900  0.66914900  1
  C  C14  1  0.75946200  0.37498800  0.33094400  1
  C  C15  1  0.23990500  0.12522600  0.66884100  1
  Ni  Ni16  1  0.69855600  0.12498700  0.41805800  1
  Ni  Ni17  1  0.69841800  0.62499700  0.41813300  1
  Ni  Ni18  1  0.30148400  0.37497800  0.58193500  1
  Ni  Ni19  1  0.30153300  0.87502500  0.58189800  1
  Cu  Cu20  1  0.65788600  0.37490900  0.01221600  1
  Cu  Cu21  1  0.65782400  0.87502000  0.01214400  1
  Cu  Cu22  1  0.34222200  0.12505600  0.98778700  1
  Cu  Cu23  1  0.34217600  0.62498000  0.98788300  1
  C  C24  1  0.21087700  0.37497800  0.41556400  1
  C  C25  1  0.21080800  0.87499800  0.41555300  1
  C  C26  1  0.78928200  0.12496900  0.58440400  1
  C  C27  1  0.78913700  0.62498300  0.58449600  1
  C  C28  1  0.86098000  0.37489400  0.09585600  1
  C  C29  1  0.86107400  0.87505900  0.09572800  1
  C  C30  1  0.13907600  0.12508000  0.90416300  1
  C  C31  1  0.13901400  0.62502300  0.90424000  1
  C  C32  1  0.57921400  0.12509800  0.92485300  1
  C  C33  1  0.57918500  0.62498700  0.92488000  1
  C  C34  1  0.42085500  0.37484300  0.07513200  1
  C  C35  1  0.42090700  0.87500900  0.07518600  1
  C  C36  1  0.38965100  0.12508800  0.43546900  1
  C  C37  1  0.38948700  0.62507900  0.43556600  1
  C  C38  1  0.61044400  0.37482000  0.56452600  1
  C  C39  1  0.61045600  0.87498500  0.56445500  1
  C  C40  1  0.71377200  0.37498900  0.86281900  1
  C  C41  1  0.71344800  0.87498200  0.86276300  1
  C  C42  1  0.28642600  0.12499500  0.13716200  1
  C  C43  1  0.28641100  0.62493500  0.13721600  1
  C  C44  1  0.19508700  0.28141100  0.68100400  1
  C  C45  1  0.19540300  0.78143300  0.68103100  1
  C  C46  1  0.19558300  0.46860700  0.68094300  1
  C  C47  1  0.19549900  0.96864800  0.68084200  1
  C  C48  1  0.80477700  0.21855900  0.31898500  1
  C  C49  1  0.80469600  0.71855700  0.31900700  1
  C  C50  1  0.80452200  0.03136400  0.31903300  1
  C  C51  1  0.80433100  0.53135400  0.31919700  1
