# generated using pymatgen
data_Cu3Ni5C14
_symmetry_space_group_name_H-M   'P 1'
_cell_length_a   6.91772509
_cell_length_b   6.91772509
_cell_length_c   6.91772509
_cell_angle_alpha   113.07049216
_cell_angle_beta   113.07049216
_cell_angle_gamma   102.49023994
_symmetry_Int_Tables_number   1
_chemical_formula_structural   Cu3Ni5C14
_chemical_formula_sum   'Cu3 Ni5 C14'
_cell_volume   252.05098218
_cell_formula_units_Z   1
loop_
 _symmetry_equiv_pos_site_id
 _symmetry_equiv_pos_as_xyz
  1  'x, y, z'
loop_
 _atom_site_type_symbol
 _atom_site_label
 _atom_site_symmetry_multiplicity
 _atom_site_fract_x
 _atom_site_fract_y
 _atom_site_fract_z
 _atom_site_occupancy
  C  C0  1  0.13156800  0.13156800  0.45083300  1
  C  C1  1  0.13156800  0.68073500  0.00000000  1
  C  C2  1  0.68073500  0.13156800  0.00000000  1
  C  C3  1  0.68073500  0.68073500  0.54916700  1
  C  C4  1  0.75997000  0.91562500  0.53015000  1
  C  C5  1  0.38547500  0.22982000  0.46985000  1
  C  C6  1  0.22982000  0.75997000  0.84434500  1
  C  C7  1  0.91562500  0.38547500  0.15565500  1
  C  C8  1  0.91562500  0.75997000  0.53015000  1
  C  C9  1  0.75997000  0.22982000  0.84434500  1
  C  C10  1  0.22982000  0.38547500  0.46985000  1
  C  C11  1  0.38547500  0.91562500  0.15565500  1
  C  C12  1  0.03208700  0.03208700  0.00000000  1
  Ni  Ni13  1  0.23419200  0.23419200  0.00000000  1
  Ni  Ni14  1  0.82127200  0.82127200  0.60358000  1
  Ni  Ni15  1  0.82127200  0.21769200  0.00000000  1
  Ni  Ni16  1  0.21769200  0.82127200  0.00000000  1
  Ni  Ni17  1  0.21769200  0.21769200  0.39642000  1
  Cu  Cu18  1  0.73041700  0.23041700  0.50000000  1
  Cu  Cu19  1  0.23041700  0.73041700  0.50000000  1
  Cu  Cu20  1  0.76256100  0.76256100  0.00000000  1
  C  C21  1  0.37080900  0.37080900  0.00000000  1
