# generated using pymatgen
data_Cu6NiC2
_symmetry_space_group_name_H-M   'P 1'
_cell_length_a   8.84473088
_cell_length_b   8.82732485
_cell_length_c   23.07586217
_cell_angle_alpha   90.19685123
_cell_angle_beta   90.00000000
_cell_angle_gamma   120.06524924
_symmetry_Int_Tables_number   1
_chemical_formula_structural   Cu6NiC2
_chemical_formula_sum   'Cu72 Ni12 C24'
_cell_volume   1559.23995985
_cell_formula_units_Z   12
loop_
 _symmetry_equiv_pos_site_id
 _symmetry_equiv_pos_as_xyz
  1  'x, y, z'
loop_
 _atom_site_type_symbol
 _atom_site_label
 _atom_site_symmetry_multiplicity
 _atom_site_fract_x
 _atom_site_fract_y
 _atom_site_fract_z
 _atom_site_occupancy
  C  C0  1  0.98608916  0.98984865  0.50682240  1
  C  C1  1  0.00375950  0.98984865  0.00682240  1
  C  C2  1  0.65929690  0.31835966  0.84042033  1
  C  C3  1  0.65906376  0.31835966  0.34042033  1
  C  C4  1  0.32572398  0.67255291  0.17376953  1
  C  C5  1  0.34682794  0.67255291  0.67376953  1
  C  C6  1  0.00263332  0.00070259  0.35314182  1
  C  C7  1  0.99806927  0.00070259  0.85314182  1
  C  C8  1  0.66618326  0.33296913  0.68656108  1
  C  C9  1  0.66678687  0.33296913  0.18656108  1
  C  C10  1  0.32438317  0.67332861  0.01988215  1
  C  C11  1  0.34894444  0.67332861  0.51988215  1
  C  C12  1  0.97838016  0.98566329  0.64911443  1
  C  C13  1  0.00728313  0.98566329  0.14911443  1
  C  C14  1  0.66412712  0.33270552  0.98314635  1
  C  C15  1  0.66857940  0.33270552  0.48314635  1
  C  C16  1  0.34018395  0.68986354  0.31658878  1
  C  C17  1  0.34967859  0.68986354  0.81658878  1
  C  C18  1  0.29014054  0.99315350  0.24823241  1
  C  C19  1  0.70301296  0.99315350  0.74823241  1
  C  C20  1  0.67613629  0.62583660  0.58062873  1
  C  C21  1  0.94970131  0.62583660  0.08062873  1
  C  C22  1  0.34241525  0.96957857  0.91517679  1
  C  C23  1  0.62716232  0.96957857  0.41517679  1
  Ni  Ni24  1  0.70345130  0.71011900  0.24844713  1
  Ni  Ni25  1  0.00700436  0.29435655  0.24817656  1
  Ni  Ni26  1  0.28735218  0.29435655  0.74817656  1
  Ni  Ni27  1  0.00666770  0.71011900  0.74844713  1
  Ni  Ni28  1  0.95958575  0.32984571  0.58185549  1
  Ni  Ni29  1  0.36808033  0.04315685  0.58227698  1
  Ni  Ni30  1  0.67507752  0.04315685  0.08227698  1
  Ni  Ni31  1  0.37026096  0.32984571  0.08185549  1
  Ni  Ni32  1  0.62079667  0.66019816  0.91560617  1
  Ni  Ni33  1  0.04104769  0.37971472  0.91412935  1
  Ni  Ni34  1  0.33866602  0.37971472  0.41412935  1
  Ni  Ni35  1  0.03940049  0.66019816  0.41560617  1
  Cu  Cu36  1  0.20306790  0.02242577  0.30360730  1
  Cu  Cu37  1  0.81330215  0.79231497  0.30177867  1
  Cu  Cu38  1  0.97580999  0.18367714  0.30165717  1
  Cu  Cu39  1  0.20786715  0.18367714  0.80165717  1
  Cu  Cu40  1  0.97901282  0.79231497  0.80177867  1
  Cu  Cu41  1  0.81935786  0.02242577  0.80360730  1
  Cu  Cu42  1  0.78902027  0.97402848  0.69442150  1
  Cu  Cu43  1  0.18653203  0.20887387  0.69638740  1
  Cu  Cu44  1  0.03029695  0.81403989  0.69696183  1
  Cu  Cu45  1  0.78374294  0.81403989  0.19696183  1
  Cu  Cu46  1  0.02234184  0.20887387  0.19638740  1
  Cu  Cu47  1  0.18500821  0.97402848  0.19442150  1
  Cu  Cu48  1  0.87545281  0.35579306  0.63523484  1
  Cu  Cu49  1  0.48096234  0.12292602  0.63541471  1
  Cu  Cu50  1  0.64679098  0.51204093  0.63627068  1
  Cu  Cu51  1  0.86525096  0.51204093  0.13627068  1
  Cu  Cu52  1  0.64196467  0.12292602  0.13541471  1
  Cu  Cu53  1  0.48034126  0.35579306  0.13523484  1
  Cu  Cu54  1  0.45032756  0.30498684  0.03024741  1
  Cu  Cu55  1  0.84495365  0.53582944  0.02686033  1
  Cu  Cu56  1  0.69291278  0.14340082  0.03042608  1
  Cu  Cu57  1  0.45048904  0.14340082  0.53042608  1
  Cu  Cu58  1  0.69087679  0.53582944  0.52686033  1
  Cu  Cu59  1  0.85466028  0.30498684  0.53024741  1
  Cu  Cu60  1  0.53943802  0.68781518  0.96863908  1
  Cu  Cu61  1  0.14933218  0.45908912  0.96812531  1
  Cu  Cu62  1  0.30991595  0.85016221  0.97033200  1
  Cu  Cu63  1  0.54024526  0.85016221  0.47033200  1
  Cu  Cu64  1  0.30975594  0.45908912  0.46812531  1
  Cu  Cu65  1  0.14837616  0.68781518  0.46863908  1
  Cu  Cu66  1  0.11926013  0.63797428  0.36351684  1
  Cu  Cu67  1  0.51973289  0.88320578  0.36168758  1
  Cu  Cu68  1  0.35404401  0.48113782  0.36284541  1
  Cu  Cu69  1  0.12709281  0.48113782  0.86284541  1
  Cu  Cu70  1  0.36347189  0.88320578  0.86168758  1
  Cu  Cu71  1  0.51871315  0.63797428  0.86351684  1
  Cu  Cu72  1  0.02677935  0.82577024  0.41153293  1
  Cu  Cu73  1  0.81033164  0.98089660  0.41040956  1
  Cu  Cu74  1  0.17474568  0.20078851  0.41128926  1
  Cu  Cu75  1  0.02604284  0.20078851  0.91128926  1
  Cu  Cu76  1  0.17056495  0.98089660  0.91040956  1
  Cu  Cu77  1  0.79899089  0.82577024  0.91153293  1
  Cu  Cu78  1  0.98689367  0.18039003  0.58913452  1
  Cu  Cu79  1  0.19516032  0.02299074  0.59068325  1
  Cu  Cu80  1  0.83396573  0.80955129  0.58709499  1
  Cu  Cu81  1  0.97558556  0.80955129  0.08709499  1
  Cu  Cu82  1  0.82783042  0.02299074  0.09068325  1
  Cu  Cu83  1  0.19349636  0.18039003  0.08913452  1
  Cu  Cu84  1  0.68923468  0.16455010  0.74408195  1
  Cu  Cu85  1  0.46647945  0.30974009  0.74480456  1
  Cu  Cu86  1  0.84057055  0.53383625  0.74462563  1
  Cu  Cu87  1  0.69326671  0.53383625  0.24462563  1
  Cu  Cu88  1  0.84326164  0.30974009  0.24480456  1
  Cu  Cu89  1  0.47531642  0.16455010  0.24408195  1
  Cu  Cu90  1  0.64746389  0.51020349  0.92187205  1
  Cu  Cu91  1  0.86595061  0.35614552  0.92099853  1
  Cu  Cu92  1  0.50102389  0.15134117  0.92459469  1
  Cu  Cu93  1  0.65031828  0.15134117  0.42459469  1
  Cu  Cu94  1  0.49019591  0.35614552  0.42099853  1
  Cu  Cu95  1  0.86274059  0.51020349  0.42187205  1
  Cu  Cu96  1  0.36182156  0.49559218  0.07765918  1
  Cu  Cu97  1  0.13642757  0.63994072  0.07734735  1
  Cu  Cu98  1  0.51231342  0.86371461  0.07848265  1
  Cu  Cu99  1  0.35140019  0.86371461  0.57848265  1
  Cu  Cu100  1  0.50351215  0.63994072  0.57734735  1
  Cu  Cu101  1  0.13376962  0.49559218  0.57765918  1
  Cu  Cu102  1  0.31287123  0.83319338  0.25480903  1
  Cu  Cu103  1  0.52658010  0.68118331  0.25587310  1
  Cu  Cu104  1  0.15933832  0.46849661  0.25631614  1
  Cu  Cu105  1  0.30915729  0.46849661  0.75631614  1
  Cu  Cu106  1  0.15460221  0.68118331  0.75587310  1
  Cu  Cu107  1  0.52032115  0.83319338  0.75480903  1
