# generated using pymatgen
data_Cu2NiC7
_symmetry_space_group_name_H-M   'P 1'
_cell_length_a   3.88942280
_cell_length_b   6.46313733
_cell_length_c   7.09910750
_cell_angle_alpha   93.60608621
_cell_angle_beta   89.68091600
_cell_angle_gamma   107.31257812
_symmetry_Int_Tables_number   1
_chemical_formula_structural   Cu2NiC7
_chemical_formula_sum   'Cu2 Ni1 C7'
_cell_volume   170.01806946
_cell_formula_units_Z   1
loop_
 _symmetry_equiv_pos_site_id
 _symmetry_equiv_pos_as_xyz
  1  'x, y, z'
loop_
 _atom_site_type_symbol
 _atom_site_label
 _atom_site_symmetry_multiplicity
 _atom_site_fract_x
 _atom_site_fract_y
 _atom_site_fract_z
 _atom_site_occupancy
  C  C0  1  0.63924544  0.27452193  0.43766621  1
  C  C1  1  0.36479544  0.73699205  0.57691110  1
  Ni  Ni2  1  0.49948395  -0.00020901  0.00731839  1
  Cu  Cu3  1  0.82802282  0.65589818  0.08333421  1
  Cu  Cu4  1  0.17133895  0.34476260  0.93004446  1
  C  C5  1  0.65901853  0.32150394  0.03593580  1
  C  C6  1  0.33919992  0.67643401  -0.00093567  1
  C  C7  1  0.83855424  0.67859703  0.33357788  1
  C  C8  1  0.16309479  0.32694853  0.68121242  1
  C  C9  1  0.99724591  0.99496774  0.99493519  1
