# generated using pymatgen
data_Cu2NiC4
_symmetry_space_group_name_H-M   'P 1'
_cell_length_a   3.70765800
_cell_length_b   4.04642000
_cell_length_c   7.68215900
_cell_angle_alpha   90.00000000
_cell_angle_beta   90.00000000
_cell_angle_gamma   90.00000000
_symmetry_Int_Tables_number   1
_chemical_formula_structural   Cu2NiC4
_chemical_formula_sum   'Cu2 Ni1 C4'
_cell_volume   115.25344552
_cell_formula_units_Z   1
loop_
 _symmetry_equiv_pos_site_id
 _symmetry_equiv_pos_as_xyz
  1  'x, y, z'
loop_
 _atom_site_type_symbol
 _atom_site_label
 _atom_site_symmetry_multiplicity
 _atom_site_fract_x
 _atom_site_fract_y
 _atom_site_fract_z
 _atom_site_occupancy
  Ni  Ni0  1  0.50000000  0.50000000  0.35811800  1
  Cu  Cu1  1  0.50000000  0.00000000  0.04494500  1
  Cu  Cu2  1  0.00000000  0.50000000  0.90398700  1
  C  C3  1  0.00000000  0.00000000  0.36785600  1
  C  C4  1  0.50000000  0.50000000  0.66724500  1
  C  C5  1  0.00000000  0.00000000  0.93566400  1
  C  C6  1  0.50000000  0.50000000  0.10499800  1
