# generated using pymatgen
data_Cu2NiC10
_symmetry_space_group_name_H-M   'P 1'
_cell_length_a   7.48074003
_cell_length_b   7.48074003
_cell_length_c   7.04231913
_cell_angle_alpha   132.34878191
_cell_angle_beta   134.44738457
_cell_angle_gamma   72.93978474
_symmetry_Int_Tables_number   1
_chemical_formula_structural   Cu2NiC10
_chemical_formula_sum   'Cu2 Ni1 C10'
_cell_volume   195.69065802
_cell_formula_units_Z   1
loop_
 _symmetry_equiv_pos_site_id
 _symmetry_equiv_pos_as_xyz
  1  'x, y, z'
loop_
 _atom_site_type_symbol
 _atom_site_label
 _atom_site_symmetry_multiplicity
 _atom_site_fract_x
 _atom_site_fract_y
 _atom_site_fract_z
 _atom_site_occupancy
  C  C0  1  0.38399045  0.13399045  0.25000000  1
  C  C1  1  0.65216134  0.90216134  0.75000000  1
  Ni  Ni2  1  0.41045957  0.66045957  0.75000000  1
  Cu  Cu3  1  0.82473081  0.57473081  0.25000000  1
  Cu  Cu4  1  0.12272759  0.37272759  0.75000000  1
  C  C5  1  0.71728580  0.52767573  0.84854164  1
  C  C6  1  0.70486487  0.05776028  0.21034497  1
  C  C7  1  0.47386781  0.22160063  0.75537958  1
  C  C8  1  0.06221639  0.32425815  0.30822522  1
  C  C9  1  0.96622105  0.71848923  0.74462042  1
  C  C10  1  0.51603392  0.75399116  0.19177478  1
  C  C11  1  0.17913509  0.86874516  0.65145836  1
  C  C12  1  0.34741631  0.49452090  0.28965503  1
