# generated using pymatgen
data_Cu12Ni12C13
_symmetry_space_group_name_H-M   'P 1'
_cell_length_a   9.56777255
_cell_length_b   14.66052579
_cell_length_c   3.10437000
_cell_angle_alpha   90.00000000
_cell_angle_beta   90.00000000
_cell_angle_gamma   91.46622766
_symmetry_Int_Tables_number   1
_chemical_formula_structural   Cu12Ni12C13
_chemical_formula_sum   'Cu12 Ni12 C13'
_cell_volume   435.30298677
_cell_formula_units_Z   1
loop_
 _symmetry_equiv_pos_site_id
 _symmetry_equiv_pos_as_xyz
  1  'x, y, z'
loop_
 _atom_site_type_symbol
 _atom_site_label
 _atom_site_symmetry_multiplicity
 _atom_site_fract_x
 _atom_site_fract_y
 _atom_site_fract_z
 _atom_site_occupancy
  C  C0  1  0.26582200  0.01128400  0.00000000  1
  C  C1  1  0.98324600  0.00793500  0.00000000  1
  C  C2  1  0.00470000  0.34259100  0.00000000  1
  C  C3  1  0.00830100  0.66184000  0.00000000  1
  C  C4  1  0.20929100  0.18477400  0.50000000  1
  C  C5  1  0.24840500  0.48618900  0.50000000  1
  C  C6  1  0.26704200  0.84237100  0.50000000  1
  C  C7  1  0.49338400  0.34661100  0.00000000  1
  C  C8  1  0.56323100  0.98304500  0.00000000  1
  C  C9  1  0.52325200  0.66164600  0.00000000  1
  C  C10  1  0.74392200  0.15499900  0.50000000  1
  C  C11  1  0.72131800  0.49726100  0.50000000  1
  C  C12  1  0.74379300  0.82017700  0.50000000  1
  Ni  Ni13  1  0.08349000  0.28188200  0.50000000  1
  Ni  Ni14  1  0.13351000  0.95249000  0.50000000  1
  Ni  Ni15  1  0.13806700  0.11557300  0.00000000  1
  Ni  Ni16  1  0.14274200  0.44235100  0.00000000  1
  Ni  Ni17  1  0.36576000  0.89598300  0.00000000  1
  Ni  Ni18  1  0.39650600  0.39717500  0.50000000  1
  Ni  Ni19  1  0.63650600  0.92278300  0.50000000  1
  Ni  Ni20  1  0.59117800  0.59617300  0.50000000  1
  Ni  Ni21  1  0.64653100  0.11048900  0.00000000  1
  Ni  Ni22  1  0.65181300  0.43127400  0.00000000  1
  Ni  Ni23  1  0.66507600  0.75622400  0.00000000  1
  Ni  Ni24  1  0.89359200  0.06205000  0.50000000  1
  Cu  Cu25  1  0.11518200  0.60071600  0.50000000  1
  Cu  Cu26  1  0.16382200  0.77252000  0.00000000  1
  Cu  Cu27  1  0.33789800  0.23712500  0.00000000  1
  Cu  Cu28  1  0.34616700  0.56446800  0.00000000  1
  Cu  Cu29  1  0.36634400  0.07258400  0.50000000  1
  Cu  Cu30  1  0.40178000  0.72679700  0.50000000  1
  Cu  Cu31  1  0.58620100  0.27112100  0.50000000  1
  Cu  Cu32  1  0.84125700  0.23926600  0.00000000  1
  Cu  Cu33  1  0.87868300  0.88527400  0.00000000  1
  Cu  Cu34  1  0.84391500  0.55961600  0.00000000  1
  Cu  Cu35  1  0.89289700  0.40364200  0.50000000  1
  Cu  Cu36  1  0.91252000  0.72947500  0.50000000  1
