# generated using pymatgen
data_Cu(NiC2)3
_symmetry_space_group_name_H-M   'P 1'
_cell_length_a   8.37871784
_cell_length_b   8.37871784
_cell_length_c   8.37871784
_cell_angle_alpha   109.47122063
_cell_angle_beta   109.47122063
_cell_angle_gamma   109.47122063
_symmetry_Int_Tables_number   1
_chemical_formula_structural   Cu(NiC2)3
_chemical_formula_sum   'Cu4 Ni12 C24'
_cell_volume   452.80457430
_cell_formula_units_Z   4
loop_
 _symmetry_equiv_pos_site_id
 _symmetry_equiv_pos_as_xyz
  1  'x, y, z'
loop_
 _atom_site_type_symbol
 _atom_site_label
 _atom_site_symmetry_multiplicity
 _atom_site_fract_x
 _atom_site_fract_y
 _atom_site_fract_z
 _atom_site_occupancy
  Ni  Ni0  1  0.72055100  0.47055100  0.25000000  1
  Ni  Ni1  1  0.75000000  0.77944900  0.02944900  1
  Ni  Ni2  1  0.02944900  0.75000000  0.77944900  1
  Ni  Ni3  1  0.25000000  0.72055100  0.47055100  1
  Ni  Ni4  1  0.47055100  0.25000000  0.72055100  1
  Ni  Ni5  1  0.77944900  0.02944900  0.75000000  1
  Ni  Ni6  1  0.27944900  0.52944900  0.75000000  1
  Ni  Ni7  1  0.25000000  0.22055100  0.97055100  1
  Ni  Ni8  1  0.97055100  0.25000000  0.22055100  1
  Ni  Ni9  1  0.75000000  0.27944900  0.52944900  1
  Ni  Ni10  1  0.52944900  0.75000000  0.27944900  1
  Ni  Ni11  1  0.22055100  0.97055100  0.25000000  1
  Cu  Cu12  1  0.50000000  0.00000000  0.00000000  1
  Cu  Cu13  1  0.00000000  0.00000000  0.50000000  1
  Cu  Cu14  1  0.00000000  0.50000000  0.00000000  1
  Cu  Cu15  1  0.50000000  0.50000000  0.50000000  1
  C  C16  1  0.53186000  0.80414600  0.07147000  1
  C  C17  1  0.26732400  0.69585400  0.22771400  1
  C  C18  1  0.96814000  0.03961000  0.27228600  1
  C  C19  1  0.46039000  0.42853000  0.23267600  1
  C  C20  1  0.42853000  0.23267600  0.46039000  1
  C  C21  1  0.07147000  0.53186000  0.80414600  1
  C  C22  1  0.69585400  0.22771400  0.26732400  1
  C  C23  1  0.27228600  0.96814000  0.03961000  1
  C  C24  1  0.80414600  0.07147000  0.53186000  1
  C  C25  1  0.22771400  0.26732400  0.69585400  1
  C  C26  1  0.03961000  0.27228600  0.96814000  1
  C  C27  1  0.23267600  0.46039000  0.42853000  1
  C  C28  1  0.46814000  0.19585400  0.92853000  1
  C  C29  1  0.73267600  0.30414600  0.77228600  1
  C  C30  1  0.03186000  0.96039000  0.72771400  1
  C  C31  1  0.53961000  0.57147000  0.76732400  1
  C  C32  1  0.76732400  0.53961000  0.57147000  1
  C  C33  1  0.96039000  0.72771400  0.03186000  1
  C  C34  1  0.77228600  0.73267600  0.30414600  1
  C  C35  1  0.19585400  0.92853000  0.46814000  1
  C  C36  1  0.72771400  0.03186000  0.96039000  1
  C  C37  1  0.30414600  0.77228600  0.73267600  1
  C  C38  1  0.92853000  0.46814000  0.19585400  1
  C  C39  1  0.57147000  0.76732400  0.53961000  1
