# generated using pymatgen
data_Cu3Ni5C74
_symmetry_space_group_name_H-M   'P 1'
_cell_length_a   18.08681073
_cell_length_b   9.03956302
_cell_length_c   22.01689967
_cell_angle_alpha   90.10444812
_cell_angle_beta   89.86658715
_cell_angle_gamma   120.10570458
_symmetry_Int_Tables_number   1
_chemical_formula_structural   Cu3Ni5C74
_chemical_formula_sum   'Cu9 Ni15 C222'
_cell_volume   3114.09135900
_cell_formula_units_Z   3
loop_
 _symmetry_equiv_pos_site_id
 _symmetry_equiv_pos_as_xyz
  1  'x, y, z'
loop_
 _atom_site_type_symbol
 _atom_site_label
 _atom_site_symmetry_multiplicity
 _atom_site_fract_x
 _atom_site_fract_y
 _atom_site_fract_z
 _atom_site_occupancy
  C  C0  1  0.18615381  0.36027625  0.24671334  1
  C  C1  1  0.68690653  0.36196376  0.24723448  1
  C  C2  1  0.99254342  0.62758311  0.24752521  1
  C  C3  1  0.49275969  0.62671294  0.24632904  1
  C  C4  1  0.31919557  0.62627285  0.74648769  1
  C  C5  1  0.81977278  0.62704342  0.74650633  1
  C  C6  1  0.18616521  0.01508251  0.74655186  1
  C  C7  1  0.68620363  0.01424046  0.74591818  1
  C  C8  1  0.15619432  0.34618475  0.57739653  1
  C  C9  1  0.65638442  0.34660508  0.57728063  1
  C  C10  1  0.01628668  0.68639049  0.57776495  1
  C  C11  1  0.51631075  0.68612258  0.57770297  1
  C  C12  1  0.32640060  0.96588931  0.57702048  1
  C  C13  1  0.82655883  0.96563764  0.57740549  1
  C  C14  1  0.15613694  0.96770707  0.07776543  1
  C  C15  1  0.65345600  0.96147168  0.08081465  1
  C  C16  1  0.32668124  0.68594304  0.07792287  1
  C  C17  1  0.01959358  0.34742685  0.08005837  1
  C  C18  1  0.51686666  0.34808716  0.07698529  1
  C  C19  1  0.48001417  0.66535655  0.91854801  1
  C  C20  1  0.98773164  0.67979165  0.91352226  1
  C  C21  1  0.35279128  0.04005027  0.91844028  1
  C  C22  1  0.16747823  0.29127433  0.91886601  1
  C  C23  1  0.66125759  0.29686693  0.91373761  1
  C  C24  1  0.48034700  0.29461296  0.41862294  1
  C  C25  1  0.98034688  0.29438290  0.41843847  1
  C  C26  1  0.16719735  0.03983000  0.41854270  1
  C  C27  1  0.66741502  0.03984448  0.41870747  1
  C  C28  1  0.35280708  0.66477186  0.41896897  1
  C  C29  1  0.85299446  0.66513924  0.41861498  1
  C  C30  1  0.99979686  0.00024521  0.49391237  1
  C  C31  1  0.49984798  0.00031319  0.49393804  1
  C  C32  1  0.98704092  0.99078024  0.99357706  1
  C  C33  1  0.49899721  0.99957894  0.99423909  1
  C  C34  1  0.34046427  0.33416450  0.83155775  1
  C  C35  1  0.84203438  0.32424103  0.82679539  1
  C  C36  1  0.33261529  0.31855604  0.33177284  1
  C  C37  1  0.83306823  0.31935514  0.33217360  1
  C  C38  1  0.17267017  0.67915905  0.16233275  1
  C  C39  1  0.67981725  0.68005919  0.15976909  1
  C  C40  1  0.16049996  0.65566694  0.66167499  1
  C  C41  1  0.66063440  0.65564664  0.66192917  1
  Ni  Ni42  1  0.99868787  0.00088741  0.34757828  1
  Ni  Ni43  1  0.49901538  0.00132369  0.34798538  1
  Ni  Ni44  1  0.99626809  0.00299275  0.84979294  1
  Ni  Ni45  1  0.49858280  0.00107103  0.84757290  1
  Ni  Ni46  1  0.33730078  0.33417389  0.68086103  1
  Ni  Ni47  1  0.83730592  0.33435124  0.68021489  1
  Ni  Ni48  1  0.33256590  0.32509565  0.18092911  1
  Ni  Ni49  1  0.83294158  0.32675889  0.18299720  1
  Ni  Ni50  1  0.33334867  0.33209690  0.98781482  1
  Ni  Ni51  1  0.33404257  0.33319536  0.48745279  1
  Ni  Ni52  1  0.83417852  0.33340491  0.48742920  1
  Ni  Ni53  1  0.16683625  0.66708120  0.01355972  1
  Ni  Ni54  1  0.67146727  0.66884969  0.01538968  1
  Ni  Ni55  1  0.16661644  0.66681880  0.51310444  1
  Ni  Ni56  1  0.66671329  0.66688660  0.51310480  1
  Cu  Cu57  1  0.99947468  0.00270419  0.65257412  1
  Cu  Cu58  1  0.50003367  0.00284775  0.65260836  1
  Cu  Cu59  1  0.99589451  0.99526130  0.15069460  1
  Cu  Cu60  1  0.49902054  0.00050851  0.15215643  1
  Cu  Cu61  1  0.83340519  0.33097476  0.98394130  1
  Cu  Cu62  1  0.16857520  0.67132556  0.31604386  1
  Cu  Cu63  1  0.66881895  0.67162228  0.31618659  1
  Cu  Cu64  1  0.16337329  0.66153996  0.81643364  1
  Cu  Cu65  1  0.66716156  0.66657937  0.81759172  1
  C  C66  1  0.14766296  0.99812176  0.25160318  1
  C  C67  1  0.64859972  0.99874074  0.25243916  1
  C  C68  1  0.35018367  0.70282163  0.25205661  1
  C  C69  1  0.85052920  0.70344547  0.25286406  1
  C  C70  1  0.00043936  0.29883798  0.25271542  1
  C  C71  1  0.50072690  0.29997838  0.25294283  1
  C  C72  1  0.14811032  0.29851261  0.75271265  1
  C  C73  1  0.64902146  0.30068031  0.75241931  1
  C  C74  1  0.00067060  0.70303997  0.75252049  1
  C  C75  1  0.50134100  0.70312759  0.75280498  1
  C  C76  1  0.34956440  0.99843952  0.75325696  1
  C  C77  1  0.85065799  0.99911974  0.75210167  1
  C  C78  1  0.48157961  0.33107354  0.58338573  1
  C  C79  1  0.98167530  0.33117233  0.58330170  1
  C  C80  1  0.18328671  0.03737457  0.58533507  1
  C  C81  1  0.68333209  0.03732812  0.58524572  1
  C  C82  1  0.33468273  0.63245348  0.58541979  1
  C  C83  1  0.83468018  0.63238466  0.58537269  1
  C  C84  1  0.48123984  0.63276466  0.08519725  1
  C  C85  1  0.98083493  0.63244511  0.08543762  1
  C  C86  1  0.33467631  0.03703428  0.08326043  1
  C  C87  1  0.83392303  0.03904885  0.08522725  1
  C  C88  1  0.18318852  0.32923237  0.08535751  1
  C  C89  1  0.68459060  0.33267999  0.08683304  1
  C  C90  1  0.31482493  0.66554043  0.91742476  1
  C  C91  1  0.81494768  0.66451070  0.91827001  1
  C  C92  1  0.01721641  0.36963784  0.92004231  1
  C  C93  1  0.51825179  0.37208923  0.91939253  1
  C  C94  1  0.16724719  0.96480144  0.91753206  1
  C  C95  1  0.66775708  0.96448224  0.91870139  1
  C  C96  1  0.31521568  0.96435421  0.41907469  1
  C  C97  1  0.81529994  0.96463048  0.41918517  1
  C  C98  1  0.16706888  0.36977129  0.41733857  1
  C  C99  1  0.66703413  0.36966797  0.41743509  1
  C  C100  1  0.01792176  0.66629134  0.41745600  1
  C  C101  1  0.51792873  0.66615286  0.41738318  1
  C  C102  1  0.10533512  0.02071114  0.30784435  1
  C  C103  1  0.60538106  0.02103207  0.30818615  1
  C  C104  1  0.40457328  0.78859592  0.30751575  1
  C  C105  1  0.90317815  0.78417298  0.30966547  1
  C  C106  1  0.49214416  0.19731613  0.30924500  1
  C  C107  1  0.99209560  0.19794775  0.30954015  1
  C  C108  1  0.10504796  0.18885837  0.80801998  1
  C  C109  1  0.60583516  0.19123764  0.80804682  1
  C  C110  1  0.48975383  0.78871343  0.80884450  1
  C  C111  1  0.99066837  0.78972007  0.80867043  1
  C  C112  1  0.40067257  0.01568185  0.80984294  1
  C  C113  1  0.90525673  0.01787980  0.80603885  1
  C  C114  1  0.38981553  0.96289303  0.69484848  1
  C  C115  1  0.88709977  0.96126554  0.69189006  1
  C  C116  1  0.09465709  0.22009989  0.69289655  1
  C  C117  1  0.59503460  0.22059261  0.69300736  1
  C  C118  1  0.01834591  0.81948782  0.69412779  1
  C  C119  1  0.51923715  0.82015105  0.69438159  1
  C  C120  1  0.39004905  0.81076030  0.19248829  1
  C  C121  1  0.89131705  0.81678817  0.19524796  1
  C  C122  1  0.01731022  0.21757998  0.19424332  1
  C  C123  1  0.51867889  0.22060031  0.19402647  1
  C  C124  1  0.08887041  0.96122416  0.19346910  1
  C  C125  1  0.59029020  0.96245268  0.19386448  1
  C  C126  1  0.43935826  0.36041016  0.63797781  1
  C  C127  1  0.93961614  0.36058872  0.63794018  1
  C  C128  1  0.23604579  0.11904451  0.64265261  1
  C  C129  1  0.73586190  0.11909173  0.64257076  1
  C  C130  1  0.32222866  0.52631859  0.64258737  1
  C  C131  1  0.82214987  0.52624037  0.64254852  1
  C  C132  1  0.43970705  0.52739662  0.14233585  1
  C  C133  1  0.93846689  0.52426197  0.14116594  1
  C  C134  1  0.32031693  0.12164158  0.13781986  1
  C  C135  1  0.81956031  0.12284443  0.13966612  1
  C  C136  1  0.23660169  0.35574342  0.14236534  1
  C  C137  1  0.73556382  0.34971468  0.14321643  1
  C  C138  1  0.22100464  0.29457794  0.02779757  1
  C  C139  1  0.72394619  0.29618543  0.02796835  1
  C  C140  1  0.42622061  0.55769021  0.02758912  1
  C  C141  1  0.92729785  0.55169960  0.02581395  1
  C  C142  1  0.35290883  0.14190633  0.02423722  1
  C  C143  1  0.85540355  0.15755001  0.02718693  1
  C  C144  1  0.22138401  0.14752524  0.52789779  1
  C  C145  1  0.72143236  0.14744937  0.52782801  1
  C  C146  1  0.35195514  0.55727363  0.52774315  1
  C  C147  1  0.85177571  0.55680858  0.52772643  1
  C  C148  1  0.42869552  0.29336143  0.52460223  1
  C  C149  1  0.92872521  0.29350835  0.52456717  1
  C  C150  1  0.27258728  0.69230654  0.97347910  1
  C  C151  1  0.77004616  0.68373372  0.97206849  1
  C  C152  1  0.06916214  0.45087536  0.97753279  1
  C  C153  1  0.57272167  0.45261097  0.97608557  1
  C  C154  1  0.15294498  0.85173747  0.97318327  1
  C  C155  1  0.65594606  0.85638541  0.97452049  1
  C  C156  1  0.27497601  0.85547136  0.47606777  1
  C  C157  1  0.77496747  0.85560008  0.47612837  1
  C  C158  1  0.15400082  0.45468239  0.47341742  1
  C  C159  1  0.65388683  0.45451711  0.47348349  1
  C  C160  1  0.07378150  0.69353153  0.47334270  1
  C  C161  1  0.57375752  0.69371243  0.47332996  1
  C  C162  1  0.05983203  0.63642835  0.35844466  1
  C  C163  1  0.55999969  0.63654714  0.35850028  1
  C  C164  1  0.25516094  0.87855802  0.36237820  1
  C  C165  1  0.75518175  0.87896312  0.36251325  1
  C  C166  1  0.18143013  0.48325761  0.35855308  1
  C  C167  1  0.68117783  0.48275843  0.35864820  1
  C  C168  1  0.05770524  0.49187804  0.86364023  1
  C  C169  1  0.56235835  0.49264758  0.86267829  1
  C  C170  1  0.18123477  0.87921570  0.85861107  1
  C  C171  1  0.68229520  0.88636357  0.85892423  1
  C  C172  1  0.25741582  0.63596939  0.85898415  1
  C  C173  1  0.76036027  0.62767064  0.85783369  1
  C  C174  1  0.00964138  0.82751333  0.41196506  1
  C  C175  1  0.50939868  0.82716500  0.41180002  1
  C  C176  1  0.40381881  0.98000862  0.41203966  1
  C  C177  1  0.90390624  0.98052058  0.41212615  1
  C  C178  1  0.08643354  0.19136044  0.41199357  1
  C  C179  1  0.58631865  0.19113808  0.41219406  1
  C  C180  1  0.01029828  0.19566241  0.91195877  1
  C  C181  1  0.50972030  0.19379854  0.91182944  1
  C  C182  1  0.08732453  0.98358300  0.91185068  1
  C  C183  1  0.58835433  0.98543109  0.91318245  1
  C  C184  1  0.40415122  0.82713330  0.91190890  1
  C  C185  1  0.90658342  0.81343786  0.91218471  1
  C  C186  1  0.48979440  0.16338184  0.58986407  1
  C  C187  1  0.99007294  0.16376578  0.58965368  1
  C  C188  1  0.09093788  0.01982123  0.58963918  1
  C  C189  1  0.59091501  0.01981723  0.58945092  1
  C  C190  1  0.41865001  0.81735363  0.59001973  1
  C  C191  1  0.91881487  0.81686906  0.58977634  1
  C  C192  1  0.49017188  0.81801942  0.08933993  1
  C  C193  1  0.99219429  0.81727849  0.08744740  1
  C  C194  1  0.41896003  0.02172076  0.08935381  1
  C  C195  1  0.91911663  0.03077824  0.08890362  1
  C  C196  1  0.09073678  0.16195736  0.09001837  1
  C  C197  1  0.59346022  0.16005884  0.08805639  1
  C  C198  1  0.33417274  0.14865917  0.74630286  1
  C  C199  1  0.83392682  0.14757878  0.74556249  1
  C  C200  1  0.23810864  0.32150771  0.74673337  1
  C  C201  1  0.73844626  0.32099823  0.74667862  1
  C  C202  1  0.42172334  0.52800429  0.74510102  1
  C  C203  1  0.92117751  0.52764525  0.74511700  1
  C  C204  1  0.33911316  0.52300500  0.24631337  1
  C  C205  1  0.83982276  0.52403303  0.24611077  1
  C  C206  1  0.42558501  0.33070924  0.24602602  1
  C  C207  1  0.92590490  0.33172519  0.24630312  1
  C  C208  1  0.23545112  0.15704337  0.24410937  1
  C  C209  1  0.73616916  0.15797477  0.24544302  1
  C  C210  1  0.32250498  0.50310108  0.91938283  1
  C  C211  1  0.82022370  0.49283099  0.92134261  1
  C  C212  1  0.42919383  0.35606621  0.92058897  1
  C  C213  1  0.92795845  0.36139459  0.92192534  1
  C  C214  1  0.24938745  0.14159629  0.91950704  1
  C  C215  1  0.74878057  0.14991079  0.92120119  1
  C  C216  1  0.32327595  0.14263645  0.42108063  1
  C  C217  1  0.82329784  0.14289363  0.42118436  1
  C  C218  1  0.24851938  0.35510941  0.41935609  1
  C  C219  1  0.74844152  0.35493223  0.41942291  1
  C  C220  1  0.42913278  0.50277587  0.41954440  1
  C  C221  1  0.92913581  0.50293436  0.41962940  1
  C  C222  1  0.17041208  0.48587772  0.08028014  1
  C  C223  1  0.66782770  0.48148699  0.08002651  1
  C  C224  1  0.07126615  0.65526804  0.07981530  1
  C  C225  1  0.57232984  0.65920761  0.08038335  1
  C  C226  1  0.25721216  0.85288502  0.07903596  1
  C  C227  1  0.75517910  0.86252656  0.07682555  1
  C  C228  1  0.16979499  0.85455805  0.58043636  1
  C  C229  1  0.66979207  0.85450920  0.58045505  1
  C  C230  1  0.25675342  0.65873401  0.58066634  1
  C  C231  1  0.75672200  0.65857102  0.58068237  1
  C  C232  1  0.07351771  0.48625854  0.57875980  1
  C  C233  1  0.57341117  0.48605882  0.57884835  1
  C  C234  1  0.15162423  0.82736045  0.25354787  1
  C  C235  1  0.65233233  0.82820204  0.25399489  1
  C  C236  1  0.25821123  0.68168699  0.25355002  1
  C  C237  1  0.75814631  0.68056959  0.25412353  1
  C  C238  1  0.08660701  0.48091077  0.25307140  1
  C  C239  1  0.58653262  0.48148246  0.25358868  1
  C  C240  1  0.15858234  0.48268605  0.75457589  1
  C  C241  1  0.65984806  0.48464173  0.75439929  1
  C  C242  1  0.08596491  0.69511739  0.75375435  1
  C  C243  1  0.58701963  0.69732756  0.75504369  1
  C  C244  1  0.25885967  0.82663728  0.75384556  1
  C  C245  1  0.75969118  0.82711088  0.75453051  1
