# generated using pymatgen
data_Cu2Ni3C31
_symmetry_space_group_name_H-M   'P 1'
_cell_length_a   8.67407398
_cell_length_b   8.65342970
_cell_length_c   22.52431260
_cell_angle_alpha   90.19217550
_cell_angle_beta   89.34339054
_cell_angle_gamma   119.95945389
_symmetry_Int_Tables_number   1
_chemical_formula_structural   Cu2Ni3C31
_chemical_formula_sum   'Cu6 Ni9 C93'
_cell_volume   1464.67315420
_cell_formula_units_Z   3
loop_
 _symmetry_equiv_pos_site_id
 _symmetry_equiv_pos_as_xyz
  1  'x, y, z'
loop_
 _atom_site_type_symbol
 _atom_site_label
 _atom_site_symmetry_multiplicity
 _atom_site_fract_x
 _atom_site_fract_y
 _atom_site_fract_z
 _atom_site_occupancy
  C  C0  1  0.00083293  0.99581364  0.49838317  1
  C  C1  1  0.00016053  0.98923372  0.99882603  1
  C  C2  1  0.65479609  0.32973509  0.83227553  1
  C  C3  1  0.67698862  0.33622496  0.33193941  1
  C  C4  1  0.32504236  0.66182224  0.16004579  1
  C  C5  1  0.33080716  0.65980346  0.66664371  1
  C  C6  1  0.66570489  0.34660284  0.97840210  1
  C  C7  1  0.31285307  0.65360840  0.31038044  1
  C  C8  1  0.34401372  0.66454485  0.81454699  1
  Ni  Ni9  1  0.99510750  0.99511850  0.35036625  1
  Ni  Ni10  1  0.01745490  0.99912696  0.85631554  1
  Ni  Ni11  1  0.00755555  0.00987452  0.65264102  1
  Ni  Ni12  1  0.00021989  0.00163975  0.14470955  1
  Ni  Ni13  1  0.65467099  0.33254264  0.68718917  1
  Ni  Ni14  1  0.69561103  0.33926851  0.18389014  1
  Ni  Ni15  1  0.67877604  0.34182870  0.48056275  1
  Ni  Ni16  1  0.33282938  0.68285093  0.01791113  1
  Ni  Ni17  1  0.32434909  0.67204035  0.51533291  1
  Cu  Cu18  1  0.98239409  0.26358186  0.24889277  1
  Cu  Cu19  1  0.28612930  0.28064710  0.74867289  1
  Cu  Cu20  1  0.96972973  0.63438304  0.08587629  1
  Cu  Cu21  1  0.62994694  0.68359002  0.92027621  1
  Cu  Cu22  1  0.32980281  0.95600128  0.91826739  1
  Cu  Cu23  1  0.03405084  0.67195333  0.42048848  1
  C  C24  1  0.29313162  0.00856208  0.24913117  1
  C  C25  1  0.71196964  0.70806974  0.24995634  1
  C  C26  1  0.99575208  0.70805172  0.74787569  1
  C  C27  1  0.71637584  0.00564876  0.74847059  1
  C  C28  1  0.95426512  0.33131035  0.58399324  1
  C  C29  1  0.37909624  0.04437401  0.58239916  1
  C  C30  1  0.66653708  0.62701275  0.58316676  1
  C  C31  1  0.66645157  0.04261390  0.08468330  1
  C  C32  1  0.37721211  0.33487053  0.08644823  1
  C  C33  1  0.04596346  0.37444169  0.91787561  1
  C  C34  1  0.62280138  0.95675370  0.41846359  1
  C  C35  1  0.33395914  0.37542086  0.41896964  1
  C  C36  1  0.21480018  0.03117152  0.30433156  1
  C  C37  1  0.81857883  0.78298497  0.30400258  1
  C  C38  1  0.96867248  0.16342884  0.31069741  1
  C  C39  1  0.19489366  0.16519136  0.80736843  1
  C  C40  1  0.96092836  0.78178888  0.80156563  1
  C  C41  1  0.81745620  0.02960883  0.80202676  1
  C  C42  1  0.78740657  0.96532413  0.69378568  1
  C  C43  1  0.16998571  0.20850910  0.68859176  1
  C  C44  1  0.02739898  0.81742398  0.69336396  1
  C  C45  1  0.78662067  0.81898994  0.19689660  1
  C  C46  1  0.03577650  0.19297137  0.19061948  1
  C  C47  1  0.18074768  0.96358634  0.19675431  1
  C  C48  1  0.87301927  0.36292636  0.63757624  1
  C  C49  1  0.48859705  0.12361035  0.63587759  1
  C  C50  1  0.63474009  0.51542740  0.63665361  1
  C  C51  1  0.87451220  0.50815251  0.14219398  1
  C  C52  1  0.63090292  0.11965864  0.13869544  1
  C  C53  1  0.48629499  0.35828724  0.13875382  1
  C  C54  1  0.45994344  0.30379984  0.03056720  1
  C  C55  1  0.83583065  0.53224236  0.02697546  1
  C  C56  1  0.69298382  0.15367780  0.03093798  1
  C  C57  1  0.46064102  0.15650755  0.52847986  1
  C  C58  1  0.69850369  0.54712392  0.52913914  1
  C  C59  1  0.84544045  0.30220844  0.53007911  1
  C  C60  1  0.52897555  0.69479516  0.97786209  1
  C  C61  1  0.15240529  0.45271276  0.97068338  1
  C  C62  1  0.29459061  0.83533956  0.97500297  1
  C  C63  1  0.54451534  0.84426421  0.47249778  1
  C  C64  1  0.30595936  0.45944217  0.47239252  1
  C  C65  1  0.16382118  0.70586186  0.47560757  1
  C  C66  1  0.13476621  0.63704663  0.36058178  1
  C  C67  1  0.51328831  0.87388237  0.36465619  1
  C  C68  1  0.36701542  0.48971613  0.36435655  1
  C  C69  1  0.12362675  0.48833743  0.86299117  1
  C  C70  1  0.36267734  0.86291660  0.85755617  1
  C  C71  1  0.50132079  0.63110270  0.85948022  1
  C  C72  1  0.02108983  0.84906397  0.40654337  1
  C  C73  1  0.80089742  0.97681848  0.41230480  1
  C  C74  1  0.17399467  0.20097332  0.41171013  1
  C  C75  1  0.02098514  0.19764227  0.90947546  1
  C  C76  1  0.16164475  0.98203966  0.91163228  1
  C  C77  1  0.81876401  0.85085593  0.90507317  1
  C  C78  1  0.96968226  0.16789394  0.58903846  1
  C  C79  1  0.19783485  0.02200506  0.58825428  1
  C  C80  1  0.82823222  0.80647512  0.59040143  1
  C  C81  1  0.97892345  0.82726527  0.09157716  1
  C  C82  1  0.83026543  0.03119414  0.08920250  1
  C  C83  1  0.20090874  0.17174141  0.08874317  1
  C  C84  1  0.69651120  0.16490335  0.74064292  1
  C  C85  1  0.48847877  0.31146055  0.74234768  1
  C  C86  1  0.83938341  0.52626873  0.74051465  1
  C  C87  1  0.68180195  0.52610756  0.24394418  1
  C  C88  1  0.81994661  0.30468389  0.24552432  1
  C  C89  1  0.47041362  0.16463563  0.24205712  1
  C  C90  1  0.64377652  0.49871664  0.92343010  1
  C  C91  1  0.86711121  0.36030118  0.92246604  1
  C  C92  1  0.51501302  0.14977209  0.92492661  1
  C  C93  1  0.63397985  0.13295032  0.42516080  1
  C  C94  1  0.49469667  0.35826241  0.42426834  1
  C  C95  1  0.84291858  0.48793863  0.42430535  1
  C  C96  1  0.36230323  0.49413906  0.07831669  1
  C  C97  1  0.15866738  0.64094499  0.07652487  1
  C  C98  1  0.50937658  0.86386232  0.07978039  1
  C  C99  1  0.36404839  0.86453843  0.57697779  1
  C  C100  1  0.50456137  0.64424394  0.57577636  1
  C  C101  1  0.13590815  0.49208614  0.57755663  1
  C  C102  1  0.31676483  0.84390329  0.25749343  1
  C  C103  1  0.53203870  0.69466200  0.25910986  1
  C  C104  1  0.17058147  0.47395694  0.25818535  1
  C  C105  1  0.30713359  0.48351060  0.75589410  1
  C  C106  1  0.15834617  0.69204054  0.75367599  1
  C  C107  1  0.53203569  0.84315614  0.75329329  1
