# generated using pymatgen
data_Cu2NiC12
_symmetry_space_group_name_H-M   'P 1'
_cell_length_a   3.92726862
_cell_length_b   3.91322178
_cell_length_c   18.97510486
_cell_angle_alpha   90.00000000
_cell_angle_beta   90.00000000
_cell_angle_gamma   90.00000000
_symmetry_Int_Tables_number   1
_chemical_formula_structural   Cu2NiC12
_chemical_formula_sum   'Cu2 Ni1 C12'
_cell_volume   291.61459358
_cell_formula_units_Z   1
loop_
 _symmetry_equiv_pos_site_id
 _symmetry_equiv_pos_as_xyz
  1  'x, y, z'
loop_
 _atom_site_type_symbol
 _atom_site_label
 _atom_site_symmetry_multiplicity
 _atom_site_fract_x
 _atom_site_fract_y
 _atom_site_fract_z
 _atom_site_occupancy
  C  C0  1  0.25000000  0.25000000  0.10901273  1
  C  C1  1  0.75000000  0.75000000  0.96738290  1
  C  C2  1  0.25000000  0.25000000  0.30021489  1
  C  C3  1  0.75000000  0.75000000  0.74503254  1
  Ni  Ni4  1  0.75000000  0.25000000  0.57773801  1
  Cu  Cu5  1  0.75000000  0.75000000  0.20023673  1
  Cu  Cu6  1  0.25000000  0.25000000  0.86145565  1
  C  C7  1  0.75000000  0.75000000  0.37038998  1
  C  C8  1  0.25000000  0.25000000  0.50901359  1
  C  C9  1  0.75000000  0.25000000  0.21482239  1
  C  C10  1  0.25000000  0.75000000  0.21460141  1
  C  C11  1  0.25000000  0.75000000  0.82774234  1
  C  C12  1  0.75000000  0.25000000  0.67470721  1
  C  C13  1  0.75000000  0.75000000  0.08894373  1
  C  C14  1  0.25000000  0.25000000  0.96816991  1
