# generated using pymatgen
data_Cu2Ni2C3
_symmetry_space_group_name_H-M   'P 1'
_cell_length_a   6.04419998
_cell_length_b   6.04419998
_cell_length_c   8.12078869
_cell_angle_alpha   88.99991860
_cell_angle_beta   88.99991860
_cell_angle_gamma   64.45454682
_symmetry_Int_Tables_number   1
_chemical_formula_structural   Cu2Ni2C3
_chemical_formula_sum   'Cu4 Ni4 C6'
_cell_volume   267.61296528
_cell_formula_units_Z   2
loop_
 _symmetry_equiv_pos_site_id
 _symmetry_equiv_pos_as_xyz
  1  'x, y, z'
loop_
 _atom_site_type_symbol
 _atom_site_label
 _atom_site_symmetry_multiplicity
 _atom_site_fract_x
 _atom_site_fract_y
 _atom_site_fract_z
 _atom_site_occupancy
  C  C0  1  0.91217500  0.08782500  0.75000000  1
  C  C1  1  0.08782500  0.91217500  0.25000000  1
  Ni  Ni2  1  0.51329500  0.24795600  0.10154000  1
  Ni  Ni3  1  0.24795600  0.51329500  0.60154000  1
  Ni  Ni4  1  0.48670500  0.75204400  0.89846000  1
  Ni  Ni5  1  0.75204400  0.48670500  0.39846000  1
  Cu  Cu6  1  0.76505400  0.64010000  0.82664600  1
  Cu  Cu7  1  0.35990000  0.23494600  0.67335400  1
  Cu  Cu8  1  0.23494600  0.35990000  0.17335400  1
  Cu  Cu9  1  0.64010000  0.76505400  0.32664600  1
  C  C10  1  0.71924100  0.16169400  0.05001600  1
  C  C11  1  0.16169400  0.71924100  0.55001600  1
  C  C12  1  0.83830600  0.28075900  0.44998400  1
  C  C13  1  0.28075900  0.83830600  0.94998400  1
