# generated using pymatgen
data_Cu(NiC2)2
_symmetry_space_group_name_H-M   'P 1'
_cell_length_a   4.65163200
_cell_length_b   8.06735400
_cell_length_c   9.20646379
_cell_angle_alpha   71.87052298
_cell_angle_beta   90.00000000
_cell_angle_gamma   90.00000000
_symmetry_Int_Tables_number   1
_chemical_formula_structural   Cu(NiC2)2
_chemical_formula_sum   'Cu4 Ni8 C16'
_cell_volume   328.33375229
_cell_formula_units_Z   4
loop_
 _symmetry_equiv_pos_site_id
 _symmetry_equiv_pos_as_xyz
  1  'x, y, z'
loop_
 _atom_site_type_symbol
 _atom_site_label
 _atom_site_symmetry_multiplicity
 _atom_site_fract_x
 _atom_site_fract_y
 _atom_site_fract_z
 _atom_site_occupancy
  Ni  Ni0  1  0.29155300  0.43319200  0.39978100  1
  Ni  Ni1  1  0.79155300  0.56680800  0.10021900  1
  Ni  Ni2  1  0.70844700  0.56680800  0.60021900  1
  Ni  Ni3  1  0.20844700  0.43319200  0.89978100  1
  Ni  Ni4  1  0.84693700  0.85327700  0.68632300  1
  Ni  Ni5  1  0.34693700  0.14672300  0.81367700  1
  Ni  Ni6  1  0.15306300  0.14672300  0.31367700  1
  Ni  Ni7  1  0.65306300  0.85327700  0.18632300  1
  Cu  Cu8  1  0.56499900  0.26987200  0.31334300  1
  Cu  Cu9  1  0.06499900  0.73012800  0.18665700  1
  Cu  Cu10  1  0.43500100  0.73012800  0.68665700  1
  Cu  Cu11  1  0.93500100  0.26987200  0.81334300  1
  C  C12  1  0.36317500  0.12051600  0.30244800  1
  C  C13  1  0.56435500  0.66521000  0.55792100  1
  C  C14  1  0.93564500  0.66521000  0.05792100  1
  C  C15  1  0.06435500  0.33479000  0.94207900  1
  C  C16  1  0.93977600  0.41098800  0.66951400  1
  C  C17  1  0.43977600  0.58901200  0.83048600  1
  C  C18  1  0.06022400  0.58901200  0.33048600  1
  C  C19  1  0.56022400  0.41098800  0.16951400  1
  C  C20  1  0.66378500  0.18904600  0.86811400  1
  C  C21  1  0.16378500  0.81095400  0.63188600  1
  C  C22  1  0.33621500  0.81095400  0.13188600  1
  C  C23  1  0.83621500  0.18904600  0.36811400  1
  C  C24  1  0.63682500  0.87948400  0.69755200  1
  C  C25  1  0.13682500  0.12051600  0.80244800  1
  C  C26  1  0.43564500  0.33479000  0.44207900  1
  C  C27  1  0.86317500  0.87948400  0.19755200  1
