# generated using pymatgen
data_Cu(Ni2C3)2
_symmetry_space_group_name_H-M   'P 1'
_cell_length_a   9.11194400
_cell_length_b   9.11194400
_cell_length_c   9.13436900
_cell_angle_alpha   90.00000000
_cell_angle_beta   90.00000000
_cell_angle_gamma   90.00000000
_symmetry_Int_Tables_number   1
_chemical_formula_structural   Cu(Ni2C3)2
_chemical_formula_sum   'Cu2 Ni8 C12'
_cell_volume   758.40403643
_cell_formula_units_Z   2
loop_
 _symmetry_equiv_pos_site_id
 _symmetry_equiv_pos_as_xyz
  1  'x, y, z'
loop_
 _atom_site_type_symbol
 _atom_site_label
 _atom_site_symmetry_multiplicity
 _atom_site_fract_x
 _atom_site_fract_y
 _atom_site_fract_z
 _atom_site_occupancy
  Ni  Ni0  1  0.34698300  0.84698300  0.75000000  1
  Ni  Ni1  1  0.84698300  0.65301700  0.75000000  1
  Ni  Ni2  1  0.84698300  0.65301700  0.25000000  1
  Ni  Ni3  1  0.34698300  0.84698300  0.25000000  1
  Ni  Ni4  1  0.65301700  0.15301700  0.25000000  1
  Ni  Ni5  1  0.15301700  0.34698300  0.25000000  1
  Ni  Ni6  1  0.65301700  0.15301700  0.75000000  1
  Ni  Ni7  1  0.15301700  0.34698300  0.75000000  1
  Cu  Cu8  1  0.00000000  0.00000000  0.00000000  1
  Cu  Cu9  1  0.50000000  0.50000000  0.50000000  1
  C  C10  1  0.36304900  0.18593800  0.50000000  1
  C  C11  1  0.63695100  0.81406200  0.50000000  1
  C  C12  1  0.18593800  0.63695100  0.50000000  1
  C  C13  1  0.81406200  0.36304900  0.50000000  1
  C  C14  1  0.68593800  0.86304900  0.00000000  1
  C  C15  1  0.13695100  0.68593800  0.00000000  1
  C  C16  1  0.86304900  0.31406200  0.00000000  1
  C  C17  1  0.31406200  0.13695100  0.00000000  1
  C  C18  1  0.50000000  0.50000000  0.78422100  1
  C  C19  1  0.00000000  0.00000000  0.71577900  1
  C  C20  1  0.00000000  0.00000000  0.28422100  1
  C  C21  1  0.50000000  0.50000000  0.21577900  1
