# generated using pymatgen
data_Cu7Ni5C62
_symmetry_space_group_name_H-M   'P 1'
_cell_length_a   18.30060255
_cell_length_b   9.10217741
_cell_length_c   23.59750268
_cell_angle_alpha   89.96686462
_cell_angle_beta   89.69423597
_cell_angle_gamma   119.83825087
_symmetry_Int_Tables_number   1
_chemical_formula_structural   Cu7Ni5C62
_chemical_formula_sum   'Cu21 Ni15 C186'
_cell_volume   3409.60215820
_cell_formula_units_Z   3
loop_
 _symmetry_equiv_pos_site_id
 _symmetry_equiv_pos_as_xyz
  1  'x, y, z'
loop_
 _atom_site_type_symbol
 _atom_site_label
 _atom_site_symmetry_multiplicity
 _atom_site_fract_x
 _atom_site_fract_y
 _atom_site_fract_z
 _atom_site_occupancy
  C  C0  1  0.99822498  0.62536348  0.25859109  1
  C  C1  1  0.49816643  0.62573868  0.25100274  1
  C  C2  1  0.99831042  0.37622310  0.74977465  1
  C  C3  1  0.50039204  0.36022699  0.75527923  1
  C  C4  1  0.66317430  0.30862524  0.91952663  1
  C  C5  1  0.16387884  0.01146056  0.43418975  1
  C  C6  1  0.00399166  0.99285772  0.50903892  1
  C  C7  1  0.50626040  0.99024199  0.50399861  1
  C  C8  1  0.00784493  0.01917593  0.99534541  1
  C  C9  1  0.50583432  0.02129227  0.00252324  1
  C  C10  1  0.33033632  0.31484747  0.84194268  1
  C  C11  1  0.82835409  0.32991868  0.81756703  1
  C  C12  1  0.34472146  0.35224958  0.32584673  1
  C  C13  1  0.82443394  0.33944186  0.34657915  1
  C  C14  1  0.19277681  0.65196627  0.16452502  1
  C  C15  1  0.67301935  0.64776726  0.15920187  1
  C  C16  1  0.17539016  0.70244991  0.66322392  1
  C  C17  1  0.68761241  0.70088823  0.67438047  1
  C  C18  1  0.99519863  0.99264905  0.35876102  1
  C  C19  1  0.50018733  0.00662347  0.85519601  1
  C  C20  1  0.32231878  0.33239674  0.67796389  1
  C  C21  1  0.82409773  0.31464697  0.68789167  1
  C  C22  1  0.33053305  0.34372908  0.18499456  1
  C  C23  1  0.82060879  0.31297750  0.17782653  1
  C  C24  1  0.83216881  0.32145702  0.98847156  1
  C  C25  1  0.33425740  0.34768365  0.49101122  1
  C  C26  1  0.17016559  0.66437866  0.31426389  1
  C  C27  1  0.66975392  0.64805104  0.31406492  1
  C  C28  1  0.17111101  0.69230422  0.81428441  1
  C  C29  1  0.66728432  0.66228628  0.81106729  1
  C  C30  1  0.49860283  0.01522025  0.35227419  1
  C  C31  1  0.99876314  0.98033862  0.85120417  1
  C  C32  1  0.99882131  0.98500608  0.64980488  1
  C  C33  1  0.50938507  0.00049823  0.64358693  1
  C  C34  1  0.00330691  0.01568830  0.13987642  1
  C  C35  1  0.49799893  0.01273964  0.14861398  1
  C  C36  1  0.32714914  0.32098135  0.98099082  1
  C  C37  1  0.82823652  0.33595318  0.48203328  1
  C  C38  1  0.16252779  0.66555314  0.01621905  1
  C  C39  1  0.66532324  0.65737368  0.02048639  1
  C  C40  1  0.16436435  0.67246504  0.52247163  1
  C  C41  1  0.66198927  0.65642200  0.51752347  1
  Ni  Ni42  1  0.35755279  0.71798447  0.25092775  1
  Ni  Ni43  1  0.49939211  0.29675953  0.24946520  1
  Ni  Ni44  1  0.64340083  0.29173485  0.75082345  1
  Ni  Ni45  1  0.00233688  0.70364541  0.74889382  1
  Ni  Ni46  1  0.85869757  0.99930719  0.75132139  1
  Ni  Ni47  1  0.17597561  0.03093150  0.57920127  1
  Ni  Ni48  1  0.68745899  0.03124994  0.58164318  1
  Ni  Ni49  1  0.33405184  0.64870277  0.58379027  1
  Ni  Ni50  1  0.83074134  0.02184819  0.08353911  1
  Ni  Ni51  1  0.18736696  0.34464016  0.08296297  1
  Ni  Ni52  1  0.67620153  0.32453139  0.07953427  1
  Ni  Ni53  1  0.51717991  0.37616015  0.91650435  1
  Ni  Ni54  1  0.16247420  0.96527763  0.91919614  1
  Ni  Ni55  1  0.66392842  0.36071334  0.41835894  1
  Ni  Ni56  1  0.01886831  0.65613725  0.41426916  1
  Cu  Cu57  1  0.14042555  0.99643121  0.24938402  1
  Cu  Cu58  1  0.64177980  0.00440209  0.25178191  1
  Cu  Cu59  1  0.85958873  0.71299980  0.24631571  1
  Cu  Cu60  1  0.99889497  0.29097602  0.24736635  1
  Cu  Cu61  1  0.14192090  0.27968937  0.75188973  1
  Cu  Cu62  1  0.49650692  0.70412608  0.74788013  1
  Cu  Cu63  1  0.35702181  0.00354900  0.74586285  1
  Cu  Cu64  1  0.48683960  0.33457016  0.58526697  1
  Cu  Cu65  1  0.98008692  0.32971968  0.58075111  1
  Cu  Cu66  1  0.83233199  0.63265443  0.58007452  1
  Cu  Cu67  1  0.48122120  0.63244665  0.08132190  1
  Cu  Cu68  1  0.98754388  0.63779436  0.08720370  1
  Cu  Cu69  1  0.33104189  0.03222103  0.08129194  1
  Cu  Cu70  1  0.31050432  0.65879093  0.92028798  1
  Cu  Cu71  1  0.81549030  0.67198562  0.91919439  1
  Cu  Cu72  1  0.02115755  0.37243903  0.91579016  1
  Cu  Cu73  1  0.66734328  0.96032875  0.91891670  1
  Cu  Cu74  1  0.31488633  0.96014853  0.41829082  1
  Cu  Cu75  1  0.80968698  0.96203495  0.41968069  1
  Cu  Cu76  1  0.16917729  0.37134580  0.41818455  1
  Cu  Cu77  1  0.52041652  0.66861807  0.41530149  1
  C  C78  1  0.10263845  0.01342917  0.30287985  1
  C  C79  1  0.59822003  0.01667311  0.30365552  1
  C  C80  1  0.41485677  0.81725002  0.30722475  1
  C  C81  1  0.90561027  0.79434152  0.29923986  1
  C  C82  1  0.49810982  0.19003935  0.30660423  1
  C  C83  1  0.99283260  0.19629987  0.29945203  1
  C  C84  1  0.09897348  0.17983277  0.80385525  1
  C  C85  1  0.60211786  0.19909687  0.81182324  1
  C  C86  1  0.48605855  0.78129768  0.79970774  1
  C  C87  1  0.00063209  0.80708315  0.80635022  1
  C  C88  1  0.40155164  0.01200050  0.79923643  1
  C  C89  1  0.91643231  0.01086932  0.80732376  1
  C  C90  1  0.40232803  0.99374445  0.69567642  1
  C  C91  1  0.91036334  0.99343912  0.69412650  1
  C  C92  1  0.09337893  0.19482232  0.69990823  1
  C  C93  1  0.58073758  0.17322377  0.69921532  1
  C  C94  1  0.01061946  0.82033768  0.69310397  1
  C  C95  1  0.49823678  0.80097322  0.69646059  1
  C  C96  1  0.40917362  0.82290804  0.19353003  1
  C  C97  1  0.90751860  0.81547183  0.19660157  1
  C  C98  1  0.00288570  0.19657523  0.19675497  1
  C  C99  1  0.50708990  0.19764709  0.19336804  1
  C  C100  1  0.08687511  0.98682382  0.20062983  1
  C  C101  1  0.59279967  0.99176702  0.19981876  1
  C  C102  1  0.44993204  0.36226109  0.63703336  1
  C  C103  1  0.95053551  0.36697892  0.63453480  1
  C  C104  1  0.23807291  0.11886216  0.63225122  1
  C  C105  1  0.74107069  0.09796210  0.63836156  1
  C  C106  1  0.31486865  0.52781042  0.63884092  1
  C  C107  1  0.81726783  0.53208362  0.63195456  1
  C  C108  1  0.45079251  0.53515017  0.13550137  1
  C  C109  1  0.95115916  0.53713665  0.13888027  1
  C  C110  1  0.31600593  0.10214803  0.13315949  1
  C  C111  1  0.81632725  0.10346469  0.14046529  1
  C  C112  1  0.23816401  0.37748746  0.14137643  1
  C  C113  1  0.73663124  0.36077649  0.13405506  1
  C  C114  1  0.23748001  0.31487371  0.03098138  1
  C  C115  1  0.71879908  0.30476977  0.02121040  1
  C  C116  1  0.42425208  0.53798055  0.03440424  1
  C  C117  1  0.93365441  0.56305020  0.03719592  1
  C  C118  1  0.34454917  0.14249385  0.03159174  1
  C  C119  1  0.85654422  0.14889438  0.02973732  1
  C  C120  1  0.21767674  0.13184623  0.51971969  1
  C  C121  1  0.73820378  0.16170989  0.52897151  1
  C  C122  1  0.35695187  0.57028771  0.52871131  1
  C  C123  1  0.84609102  0.54964825  0.53013359  1
  C  C124  1  0.43437956  0.30922035  0.53508818  1
  C  C125  1  0.92441000  0.31286846  0.53298365  1
  C  C126  1  0.26139615  0.67373286  0.96866808  1
  C  C127  1  0.77456773  0.69369644  0.97049670  1
  C  C128  1  0.07503218  0.46591668  0.96634219  1
  C  C129  1  0.58782926  0.49278687  0.96472990  1
  C  C130  1  0.15294493  0.83976756  0.97305508  1
  C  C131  1  0.66698105  0.86595407  0.96981544  1
  C  C132  1  0.27365773  0.85668892  0.46922013  1
  C  C133  1  0.76243492  0.84857552  0.46780359  1
  C  C134  1  0.16458991  0.46108336  0.46839410  1
  C  C135  1  0.65309405  0.46650502  0.47120353  1
  C  C136  1  0.09116298  0.68645780  0.46149963  1
  C  C137  1  0.57322055  0.68072495  0.46520048  1
  C  C138  1  0.05169374  0.63641398  0.35109614  1
  C  C139  1  0.56147735  0.65731729  0.36216444  1
  C  C140  1  0.26263541  0.88067366  0.36747909  1
  C  C141  1  0.76483677  0.89439065  0.36582726  1
  C  C142  1  0.17587133  0.46444640  0.36527581  1
  C  C143  1  0.68341781  0.47222761  0.36065687  1
  C  C144  1  0.06295997  0.46654284  0.86327489  1
  C  C145  1  0.54974071  0.46540514  0.85459481  1
  C  C146  1  0.18151227  0.89110642  0.86228153  1
  C  C147  1  0.67355205  0.87977276  0.86650165  1
  C  C148  1  0.26458681  0.63435853  0.86681243  1
  C  C149  1  0.76307955  0.64577980  0.86869086  1
  C  C150  1  0.01605042  0.83676168  0.41607515  1
  C  C151  1  0.51239610  0.82294862  0.41406029  1
  C  C152  1  0.39917885  0.97368166  0.41228474  1
  C  C153  1  0.89404626  0.97575505  0.41821628  1
  C  C154  1  0.09116659  0.20027727  0.41631687  1
  C  C155  1  0.57927023  0.17288669  0.41293284  1
  C  C156  1  0.01329854  0.20252297  0.91503836  1
  C  C157  1  0.51271515  0.18998863  0.92019102  1
  C  C158  1  0.07796563  0.98346579  0.91476864  1
  C  C159  1  0.58865194  0.97228509  0.91954291  1
  C  C160  1  0.39385761  0.81214795  0.91961774  1
  C  C161  1  0.89997219  0.82712025  0.91357668  1
  C  C162  1  0.49925507  0.18692045  0.59084990  1
  C  C163  1  0.98717040  0.17489568  0.58506758  1
  C  C164  1  0.08382834  0.01829116  0.58762083  1
  C  C165  1  0.59301882  0.01467626  0.58739667  1
  C  C166  1  0.41363985  0.83953893  0.59428616  1
  C  C167  1  0.90823419  0.80398465  0.58529169  1
  C  C168  1  0.48804933  0.80112282  0.08669687  1
  C  C169  1  0.00144974  0.81266972  0.09482392  1
  C  C170  1  0.40721332  0.01298012  0.08664408  1
  C  C171  1  0.91251066  0.99156528  0.09390410  1
  C  C172  1  0.09231082  0.17164736  0.08934417  1
  C  C173  1  0.58383576  0.15197969  0.08864872  1
  C  C174  1  0.35195344  0.16247587  0.74415918  1
  C  C175  1  0.85823318  0.17756158  0.74991887  1
  C  C176  1  0.22696497  0.29861754  0.75015587  1
  C  C177  1  0.73678708  0.31799817  0.74680104  1
  C  C178  1  0.42493360  0.52632439  0.74442056  1
  C  C179  1  0.92001333  0.52009902  0.74669139  1
  C  C180  1  0.35311364  0.53313085  0.25017543  1
  C  C181  1  0.85391090  0.54433674  0.24440764  1
  C  C182  1  0.41512750  0.31280513  0.24809026  1
  C  C183  1  0.92559377  0.31821226  0.24435102  1
  C  C184  1  0.22645771  0.14162227  0.24440699  1
  C  C185  1  0.72646768  0.15527368  0.25022898  1
  C  C186  1  0.32091570  0.50832267  0.92879082  1
  C  C187  1  0.82557784  0.52092401  0.92452548  1
  C  C188  1  0.42437360  0.35528736  0.93138653  1
  C  C189  1  0.93881411  0.36281830  0.92163873  1
  C  C190  1  0.24655902  0.15271734  0.92888528  1
  C  C191  1  0.74065836  0.13793848  0.92001746  1
  C  C192  1  0.32463324  0.13152096  0.42277585  1
  C  C193  1  0.82191085  0.13421361  0.42766863  1
  C  C194  1  0.24258081  0.34256079  0.41933576  1
  C  C195  1  0.74811756  0.34184521  0.42799268  1
  C  C196  1  0.43673051  0.51346152  0.41978627  1
  C  C197  1  0.92587029  0.49357884  0.42832405  1
  C  C198  1  0.17019526  0.50337531  0.07073266  1
  C  C199  1  0.66095249  0.48833546  0.07426612  1
  C  C200  1  0.07240199  0.65538589  0.07746419  1
  C  C201  1  0.56725063  0.65807890  0.07080139  1
  C  C202  1  0.25679645  0.85949355  0.07158155  1
  C  C203  1  0.74757554  0.83791085  0.07313195  1
  C  C204  1  0.16009533  0.83544525  0.57381283  1
  C  C205  1  0.67012944  0.83965818  0.56609395  1
  C  C206  1  0.24836582  0.65937772  0.57135677  1
  C  C207  1  0.75779652  0.65496782  0.56974182  1
  C  C208  1  0.06668647  0.47607984  0.56916079  1
  C  C209  1  0.57196679  0.48856583  0.57630531  1
  C  C210  1  0.14234089  0.83475500  0.24964805  1
  C  C211  1  0.64679873  0.84693131  0.25483828  1
  C  C212  1  0.26436542  0.70006636  0.25175980  1
  C  C213  1  0.77523180  0.69806599  0.24691516  1
  C  C214  1  0.07708853  0.46098532  0.24688889  1
  C  C215  1  0.58127958  0.49004029  0.25026896  1
  C  C216  1  0.14663196  0.44653271  0.75506148  1
  C  C217  1  0.64211580  0.47103784  0.74655789  1
  C  C218  1  0.08564862  0.67889956  0.74961750  1
  C  C219  1  0.57617239  0.69815056  0.74834018  1
  C  C220  1  0.27161727  0.85176940  0.74681272  1
  C  C221  1  0.76593955  0.83457372  0.75338156  1
