# generated using pymatgen
data_Cu4NiC
_symmetry_space_group_name_H-M   'P 1'
_cell_length_a   3.96072882
_cell_length_b   5.54741300
_cell_length_c   6.75490787
_cell_angle_alpha   114.24435895
_cell_angle_beta   107.05237807
_cell_angle_gamma   89.99988297
_symmetry_Int_Tables_number   1
_chemical_formula_structural   Cu4NiC
_chemical_formula_sum   'Cu12 Ni3 C3'
_cell_volume   128.13776751
_cell_formula_units_Z   3
loop_
 _symmetry_equiv_pos_site_id
 _symmetry_equiv_pos_as_xyz
  1  'x, y, z'
loop_
 _atom_site_type_symbol
 _atom_site_label
 _atom_site_symmetry_multiplicity
 _atom_site_fract_x
 _atom_site_fract_y
 _atom_site_fract_z
 _atom_site_occupancy
  C  C0  1  0.00000100  0.54510700  0.00000100  1
  C  C1  1  0.33668300  0.88876300  0.67347100  1
  C  C2  1  0.66330100  0.21529200  0.32652900  1
  Ni  Ni3  1  0.00001600  0.05724000  0.00000100  1
  Ni  Ni4  1  0.33441600  0.38468300  0.66898600  1
  Ni  Ni5  1  0.66557900  0.71567500  0.33100600  1
  Cu  Cu6  1  0.90653300  0.09621500  0.81291100  1
  Cu  Cu7  1  0.09347800  0.28331400  0.18710000  1
  Cu  Cu8  1  0.74167000  0.91691100  0.00010400  1
  Cu  Cu9  1  0.25835500  0.91679900  0.99990500  1
  Cu  Cu10  1  0.07675000  0.52046700  0.67367900  1
  Cu  Cu11  1  0.92323000  0.84677400  0.32632100  1
  Cu  Cu12  1  0.42109600  0.33121000  0.84229500  1
  Cu  Cu13  1  0.57889800  0.48891000  0.15770100  1
  Cu  Cu14  1  0.59718500  0.52003200  0.67356200  1
  Cu  Cu15  1  0.40282400  0.84645400  0.32643900  1
  Cu  Cu16  1  0.23960700  0.17309000  0.47961400  1
  Cu  Cu17  1  0.76037700  0.69346400  0.52037700  1
