# generated using pymatgen
data_CuNi3C2
_symmetry_space_group_name_H-M   'P 1'
_cell_length_a   5.72044900
_cell_length_b   12.50680100
_cell_length_c   13.71273400
_cell_angle_alpha   90.00000000
_cell_angle_beta   90.00000000
_cell_angle_gamma   90.00000000
_symmetry_Int_Tables_number   1
_chemical_formula_structural   CuNi3C2
_chemical_formula_sum   'Cu8 Ni24 C16'
_cell_volume   981.07093453
_cell_formula_units_Z   8
loop_
 _symmetry_equiv_pos_site_id
 _symmetry_equiv_pos_as_xyz
  1  'x, y, z'
loop_
 _atom_site_type_symbol
 _atom_site_label
 _atom_site_symmetry_multiplicity
 _atom_site_fract_x
 _atom_site_fract_y
 _atom_site_fract_z
 _atom_site_occupancy
  C  C0  1  0.84085100  0.89982600  0.99092600  1
  C  C1  1  0.34085100  0.60017400  0.00907400  1
  C  C2  1  0.15914900  0.39982600  0.50907400  1
  C  C3  1  0.65914900  0.10017400  0.49092600  1
  C  C4  1  0.54083600  0.67755900  0.66907500  1
  C  C5  1  0.04083600  0.82244100  0.33092500  1
  C  C6  1  0.45916400  0.17755900  0.83092500  1
  C  C7  1  0.95916400  0.32244100  0.16907500  1
  C  C8  1  0.04460700  0.95168400  0.65774000  1
  C  C9  1  0.54460700  0.54831600  0.34226000  1
  C  C10  1  0.95539300  0.45168400  0.84226000  1
  C  C11  1  0.45539300  0.04831600  0.15774000  1
  C  C12  1  0.19786700  0.82410200  0.80309600  1
  C  C13  1  0.69786700  0.67589800  0.19690400  1
  C  C14  1  0.80213300  0.32410200  0.69690400  1
  C  C15  1  0.30213300  0.17589800  0.30309600  1
  Ni  Ni16  1  0.09531000  0.40927100  0.20593200  1
  Ni  Ni17  1  0.09906000  0.57583100  0.98416700  1
  Ni  Ni18  1  0.40094000  0.42416900  0.48416700  1
  Ni  Ni19  1  0.90094000  0.07583100  0.51583300  1
  Ni  Ni20  1  0.40469000  0.59072900  0.70593200  1
  Ni  Ni21  1  0.90469000  0.90927100  0.29406800  1
  Ni  Ni22  1  0.59531000  0.09072900  0.79406800  1
  Ni  Ni23  1  0.59906000  0.92416900  0.01583300  1
  Ni  Ni24  1  0.97037700  0.83056400  0.05490700  1
  Ni  Ni25  1  0.47037700  0.66943600  0.94509300  1
  Ni  Ni26  1  0.02962300  0.33056400  0.44509300  1
  Ni  Ni27  1  0.52962300  0.16943600  0.55490700  1
  Ni  Ni28  1  0.85686900  0.87223500  0.88503400  1
  Ni  Ni29  1  0.35686900  0.62776500  0.11496600  1
  Ni  Ni30  1  0.14313100  0.37223500  0.61496600  1
  Ni  Ni31  1  0.64313100  0.12776500  0.38503400  1
  Ni  Ni32  1  0.71643300  0.33345300  0.14690700  1
  Ni  Ni33  1  0.21643300  0.16654700  0.85309300  1
  Ni  Ni34  1  0.28356700  0.83345300  0.35309300  1
  Ni  Ni35  1  0.78356700  0.66654700  0.64690700  1
  Ni  Ni36  1  0.98669500  0.21762600  0.22979100  1
  Ni  Ni37  1  0.48669500  0.28237400  0.77020900  1
  Ni  Ni38  1  0.01330500  0.71762600  0.27020900  1
  Ni  Ni39  1  0.51330500  0.78237400  0.72979100  1
  Cu  Cu40  1  0.97186000  0.01257500  0.99615600  1
  Cu  Cu41  1  0.58401400  0.21371300  0.92993700  1
  Cu  Cu42  1  0.91598600  0.78628700  0.42993700  1
  Cu  Cu43  1  0.41598600  0.71371300  0.57006300  1
  Cu  Cu44  1  0.52814000  0.98742500  0.49615600  1
  Cu  Cu45  1  0.02814000  0.51257500  0.50384400  1
  Cu  Cu46  1  0.47186000  0.48742500  0.00384400  1
  Cu  Cu47  1  0.08401400  0.28628700  0.07006300  1
