# generated using pymatgen
data_Cu2Ni4C7
_symmetry_space_group_name_H-M   'P 1'
_cell_length_a   3.33539700
_cell_length_b   3.33538813
_cell_length_c   45.60961001
_cell_angle_alpha   90.00209720
_cell_angle_beta   90.00000000
_cell_angle_gamma   120.00009791
_symmetry_Int_Tables_number   1
_chemical_formula_structural   Cu2Ni4C7
_chemical_formula_sum   'Cu2 Ni4 C7'
_cell_volume   439.42066200
_cell_formula_units_Z   1
loop_
 _symmetry_equiv_pos_site_id
 _symmetry_equiv_pos_as_xyz
  1  'x, y, z'
loop_
 _atom_site_type_symbol
 _atom_site_label
 _atom_site_symmetry_multiplicity
 _atom_site_fract_x
 _atom_site_fract_y
 _atom_site_fract_z
 _atom_site_occupancy
  C  C0  1  0.00000600  0.00001300  0.38146600  1
  C  C1  1  0.33331700  0.66663400  0.69949000  1
  C  C2  1  0.33329600  0.66659400  0.61618100  1
  C  C3  1  0.33336000  0.66672100  0.09381600  1
  C  C4  1  0.66664100  0.33328200  0.65785500  1
  C  C5  1  0.33333300  0.66666400  0.47667300  1
  C  C6  1  0.66666600  0.33333000  0.27422200  1
  Ni  Ni7  1  0.33334300  0.66668700  0.31125200  1
  Ni  Ni8  1  0.66668000  0.33335800  0.05721400  1
  Ni  Ni9  1  0.66671000  0.33342000  0.13043200  1
  Ni  Ni10  1  0.33331700  0.66663500  0.23746600  1
  Cu  Cu11  1  0.66665500  0.33330800  0.44299800  1
  Cu  Cu12  1  0.66667700  0.33335400  0.50989000  1
