# generated using pymatgen
data_CuNiC8
_symmetry_space_group_name_H-M   'P 1'
_cell_length_a   8.35854100
_cell_length_b   5.73666500
_cell_length_c   7.00908640
_cell_angle_alpha   84.64195891
_cell_angle_beta   90.00000000
_cell_angle_gamma   90.00000000
_symmetry_Int_Tables_number   1
_chemical_formula_structural   CuNiC8
_chemical_formula_sum   'Cu2 Ni2 C16'
_cell_volume   334.61824897
_cell_formula_units_Z   2
loop_
 _symmetry_equiv_pos_site_id
 _symmetry_equiv_pos_as_xyz
  1  'x, y, z'
loop_
 _atom_site_type_symbol
 _atom_site_label
 _atom_site_symmetry_multiplicity
 _atom_site_fract_x
 _atom_site_fract_y
 _atom_site_fract_z
 _atom_site_occupancy
  Ni  Ni0  1  0.25000000  0.79651100  0.78258400  1
  Ni  Ni1  1  0.75000000  0.20348900  0.21741600  1
  Cu  Cu2  1  0.25000000  0.49946800  0.29822600  1
  Cu  Cu3  1  0.75000000  0.50053200  0.70177400  1
  C  C4  1  0.47723700  0.76992200  0.78627400  1
  C  C5  1  0.97723700  0.23007800  0.21372600  1
  C  C6  1  0.52276300  0.23007800  0.21372600  1
  C  C7  1  0.02276300  0.76992200  0.78627400  1
  C  C8  1  0.25000000  0.01776700  0.96551400  1
  C  C9  1  0.75000000  0.98223300  0.03448600  1
  C  C10  1  0.09397300  0.70221500  0.29167300  1
  C  C11  1  0.59397300  0.29778500  0.70832700  1
  C  C12  1  0.90602700  0.29778500  0.70832700  1
  C  C13  1  0.40602700  0.70221500  0.29167300  1
  C  C14  1  0.25000000  0.53639300  0.99873900  1
  C  C15  1  0.75000000  0.46360700  0.00126100  1
  C  C16  1  0.25000000  0.53626700  0.61635200  1
  C  C17  1  0.75000000  0.46373300  0.38364800  1
  C  C18  1  0.25000000  0.02171500  0.56716700  1
  C  C19  1  0.75000000  0.97828500  0.43283300  1
