# generated using pymatgen
data_CuNi5C33
_symmetry_space_group_name_H-M   'P 1'
_cell_length_a   9.03230283
_cell_length_b   9.03635680
_cell_length_c   22.49269571
_cell_angle_alpha   90.10554435
_cell_angle_beta   89.96699290
_cell_angle_gamma   119.94823310
_symmetry_Int_Tables_number   1
_chemical_formula_structural   CuNi5C33
_chemical_formula_sum   'Cu3 Ni15 C99'
_cell_volume   1590.70460207
_cell_formula_units_Z   3
loop_
 _symmetry_equiv_pos_site_id
 _symmetry_equiv_pos_as_xyz
  1  'x, y, z'
loop_
 _atom_site_type_symbol
 _atom_site_label
 _atom_site_symmetry_multiplicity
 _atom_site_fract_x
 _atom_site_fract_y
 _atom_site_fract_z
 _atom_site_occupancy
  C  C0  1  0.99134640  0.63063257  0.24183255  1
  C  C1  1  0.63231408  0.62042611  0.74611077  1
  C  C2  1  0.98741653  0.36538165  0.74569044  1
  C  C3  1  0.37711434  0.01143222  0.74787091  1
  C  C4  1  0.31872898  0.97608020  0.08406164  1
  C  C5  1  0.66391920  0.68666656  0.08385358  1
  C  C6  1  0.96658528  0.28851402  0.41348220  1
  C  C7  1  0.32092981  0.03225879  0.41167787  1
  C  C8  1  0.70943957  0.67851285  0.41424725  1
  C  C9  1  0.99841998  0.99959560  0.50090279  1
  C  C10  1  0.99921527  0.01156683  0.99520441  1
  C  C11  1  0.66575240  0.33358073  0.83374373  1
  C  C12  1  0.64773476  0.31623337  0.32273153  1
  C  C13  1  0.33307639  0.65504724  0.16458728  1
  C  C14  1  0.33185764  0.66182951  0.66360585  1
  C  C15  1  0.00454611  0.00269223  0.35353812  1
  C  C16  1  0.67002175  0.33861810  0.68603426  1
  C  C17  1  0.65786661  0.32504699  0.18375582  1
  C  C18  1  0.99975109  0.99926710  0.85755397  1
  C  C19  1  0.99667268  0.99942322  0.64390186  1
  C  C20  1  0.00386248  0.00400034  0.14600926  1
  C  C21  1  0.66707655  0.33189476  0.97753932  1
  C  C22  1  0.67065429  0.33566861  0.48181156  1
  C  C23  1  0.32930147  0.66384786  0.01823486  1
  C  C24  1  0.33375065  0.66465751  0.52249598  1
  C  C25  1  0.33657249  0.66915103  0.31105425  1
  C  C26  1  0.33278710  0.66558365  0.81340894  1
  Ni  Ni27  1  0.29722647  0.00186788  0.25287935  1
  Ni  Ni28  1  0.28405272  0.28629526  0.75053866  1
  Ni  Ni29  1  0.00375378  0.71599896  0.75019544  1
  Ni  Ni30  1  0.71135586  0.99656797  0.75093608  1
  Ni  Ni31  1  0.96104541  0.33260445  0.58576611  1
  Ni  Ni32  1  0.66840733  0.62875758  0.58579509  1
  Ni  Ni33  1  0.95744429  0.62016487  0.08639551  1
  Ni  Ni34  1  0.66807364  0.04380553  0.08256787  1
  Ni  Ni35  1  0.37808499  0.33602324  0.08322195  1
  Ni  Ni36  1  0.62356350  0.66518034  0.91680345  1
  Ni  Ni37  1  0.04031325  0.37574561  0.91540228  1
  Ni  Ni38  1  0.33544091  0.95975488  0.91632130  1
  Ni  Ni39  1  0.61841780  0.95660662  0.41734637  1
  Ni  Ni40  1  0.33698027  0.38077601  0.41690359  1
  Ni  Ni41  1  0.04395202  0.66240017  0.41652979  1
  Cu  Cu42  1  0.70720397  0.71099635  0.25140332  1
  Cu  Cu43  1  0.00327955  0.29331560  0.25267364  1
  Cu  Cu44  1  0.37451058  0.04214232  0.58402018  1
  C  C45  1  0.20459040  0.01004478  0.31342688  1
  C  C46  1  0.80889723  0.79815289  0.30788288  1
  C  C47  1  0.98587725  0.19748709  0.31053718  1
  C  C48  1  0.18711981  0.16545134  0.80781475  1
  C  C49  1  0.97810439  0.81224249  0.80752165  1
  C  C50  1  0.83426579  0.02338291  0.80772162  1
  C  C51  1  0.80444068  0.96438356  0.69239360  1
  C  C52  1  0.16025168  0.19548825  0.69226784  1
  C  C53  1  0.03748011  0.84068341  0.69220427  1
  C  C54  1  0.79915035  0.82322965  0.19505817  1
  C  C55  1  0.01584401  0.19007220  0.19826189  1
  C  C56  1  0.16859514  0.97625407  0.19472713  1
  C  C57  1  0.88125547  0.35935121  0.64589490  1
  C  C58  1  0.47610628  0.11678451  0.64082624  1
  C  C59  1  0.63612183  0.52148955  0.64602616  1
  C  C60  1  0.88739123  0.52095309  0.14785799  1
  C  C61  1  0.61347362  0.11637149  0.13835164  1
  C  C62  1  0.50137649  0.38585166  0.13984617  1
  C  C63  1  0.46463903  0.29275191  0.02624540  1
  C  C64  1  0.82395136  0.52521365  0.03078628  1
  C  C65  1  0.69797427  0.16613978  0.02471260  1
  C  C66  1  0.47042689  0.15661496  0.52839260  1
  C  C67  1  0.68554664  0.52375310  0.52690272  1
  C  C68  1  0.83743428  0.30944717  0.52669539  1
  C  C69  1  0.52840878  0.68821566  0.97491931  1
  C  C70  1  0.16332188  0.47775268  0.97181503  1
  C  C71  1  0.31432923  0.84367839  0.97485300  1
  C  C72  1  0.52238363  0.83269680  0.47321300  1
  C  C73  1  0.31137582  0.47876070  0.47350748  1
  C  C74  1  0.17080251  0.69184171  0.47179797  1
  C  C75  1  0.13151106  0.62734951  0.35686457  1
  C  C76  1  0.49237784  0.86282962  0.35873987  1
  C  C77  1  0.37089148  0.50675861  0.35918825  1
  C  C78  1  0.13459541  0.49217844  0.85588127  1
  C  C79  1  0.35625961  0.86163555  0.85735630  1
  C  C80  1  0.50433486  0.64248341  0.85780032  1
  C  C81  1  0.01436446  0.82480169  0.41402841  1
  C  C82  1  0.80774944  0.98060344  0.41337238  1
  C  C83  1  0.16855708  0.19285376  0.41478552  1
  C  C84  1  0.02430460  0.18842269  0.91149460  1
  C  C85  1  0.16309515  0.97487044  0.91135852  1
  C  C86  1  0.81100126  0.83666389  0.91119177  1
  C  C87  1  0.98049981  0.16129058  0.58698556  1
  C  C88  1  0.19599951  0.02768571  0.58579691  1
  C  C89  1  0.84523838  0.81489373  0.58696817  1
  C  C90  1  0.97452056  0.81512500  0.09181115  1
  C  C91  1  0.83431275  0.01549786  0.09161936  1
  C  C92  1  0.18823576  0.16082203  0.09253687  1
  C  C93  1  0.68578470  0.16110147  0.74739600  1
  C  C94  1  0.47254949  0.30676555  0.74788990  1
  C  C95  1  0.83651743  0.52670701  0.74817324  1
  C  C96  1  0.69535655  0.53678911  0.24681888  1
  C  C97  1  0.85528654  0.32856413  0.24679162  1
  C  C98  1  0.48455518  0.16427237  0.24756736  1
  C  C99  1  0.63897327  0.49378993  0.92356103  1
  C  C100  1  0.85514467  0.36360299  0.92275702  1
  C  C101  1  0.50728698  0.14676000  0.92175361  1
  C  C102  1  0.62678727  0.14220973  0.42344904  1
  C  C103  1  0.50978801  0.36454195  0.42374633  1
  C  C104  1  0.85633043  0.48541167  0.42370843  1
  C  C105  1  0.35122803  0.50080029  0.07316104  1
  C  C106  1  0.15540523  0.66357429  0.07515491  1
  C  C107  1  0.50422893  0.84797937  0.07318071  1
  C  C108  1  0.35136361  0.86179474  0.57414069  1
  C  C109  1  0.50423353  0.65738305  0.57504088  1
  C  C110  1  0.14928249  0.50309245  0.57507079  1
  C  C111  1  0.29627847  0.81431980  0.25369525  1
  C  C112  1  0.52635336  0.69524432  0.25409073  1
  C  C113  1  0.17506202  0.47118216  0.25312613  1
  C  C114  1  0.29821347  0.47581155  0.75527688  1
  C  C115  1  0.17946458  0.70242189  0.75502457  1
  C  C116  1  0.52395342  0.81932727  0.75520946  1
