# generated using pymatgen
data_Cu2NiC6
_symmetry_space_group_name_H-M   'P 1'
_cell_length_a   2.90130451
_cell_length_b   5.46072971
_cell_length_c   8.19234704
_cell_angle_alpha   73.17610204
_cell_angle_beta   89.97985501
_cell_angle_gamma   105.41747869
_symmetry_Int_Tables_number   1
_chemical_formula_structural   Cu2NiC6
_chemical_formula_sum   'Cu2 Ni1 C6'
_cell_volume   119.34628565
_cell_formula_units_Z   1
loop_
 _symmetry_equiv_pos_site_id
 _symmetry_equiv_pos_as_xyz
  1  'x, y, z'
loop_
 _atom_site_type_symbol
 _atom_site_label
 _atom_site_symmetry_multiplicity
 _atom_site_fract_x
 _atom_site_fract_y
 _atom_site_fract_z
 _atom_site_occupancy
  C  C0  1  0.61660928  0.23235301  0.37774281  1
  C  C1  1  0.37017951  0.74003310  0.11162445  1
  Ni  Ni2  1  0.95211490  0.90261473  0.77195907  1
  Cu  Cu3  1  0.16681818  0.33307663  0.91787121  1
  Cu  Cu4  1  0.84409652  0.68640995  0.49880828  1
  C  C5  1  0.55105433  0.10106441  0.86963223  1
  C  C6  1  0.77362646  0.54672984  0.96941024  1
  C  C7  1  0.27638872  0.55115291  0.39251629  1
  C  C8  1  0.42827909  0.85448242  0.60405941  1
