# generated using pymatgen
data_CuNiC6
_symmetry_space_group_name_H-M   'P 1'
_cell_length_a   3.90285136
_cell_length_b   3.90285101
_cell_length_c   7.76346985
_cell_angle_alpha   91.70595956
_cell_angle_beta   91.70595501
_cell_angle_gamma   89.44934079
_symmetry_Int_Tables_number   1
_chemical_formula_structural   CuNiC6
_chemical_formula_sum   'Cu1 Ni1 C6'
_cell_volume   118.14578342
_cell_formula_units_Z   1
loop_
 _symmetry_equiv_pos_site_id
 _symmetry_equiv_pos_as_xyz
  1  'x, y, z'
loop_
 _atom_site_type_symbol
 _atom_site_label
 _atom_site_symmetry_multiplicity
 _atom_site_fract_x
 _atom_site_fract_y
 _atom_site_fract_z
 _atom_site_occupancy
  C  C0  1  0.85189591  0.85189691  0.35295606  1
  C  C1  1  0.35542714  0.35542514  0.68009145  1
  Ni  Ni2  1  0.34389199  0.34389199  0.10629468  1
  Cu  Cu3  1  0.83327913  0.83327913  0.93366458  1
  C  C4  1  0.89836721  0.89836921  0.66069296  1
  C  C5  1  0.36349226  0.36349226  0.36716164  1
  C  C6  1  0.34703374  0.83994663  0.02827231  1
  C  C7  1  0.83994763  0.34703274  0.02827231  1
