# generated using pymatgen
data_Cu2Ni2C9
_symmetry_space_group_name_H-M   'P 1'
_cell_length_a   3.39124100
_cell_length_b   3.39121571
_cell_length_c   46.61146700
_cell_angle_alpha   89.99968825
_cell_angle_beta   89.99953731
_cell_angle_gamma   119.99893418
_symmetry_Int_Tables_number   1
_chemical_formula_structural   Cu2Ni2C9
_chemical_formula_sum   'Cu2 Ni2 C9'
_cell_volume   464.23955124
_cell_formula_units_Z   1
loop_
 _symmetry_equiv_pos_site_id
 _symmetry_equiv_pos_as_xyz
  1  'x, y, z'
loop_
 _atom_site_type_symbol
 _atom_site_label
 _atom_site_symmetry_multiplicity
 _atom_site_fract_x
 _atom_site_fract_y
 _atom_site_fract_z
 _atom_site_occupancy
  C  C0  1  0.99995400  0.00001900  0.18354500  1
  C  C1  1  0.33322900  0.66653800  0.32888800  1
  C  C2  1  0.33347900  0.66684800  0.69796100  1
  C  C3  1  0.33323300  0.66660400  0.24808200  1
  C  C4  1  0.33343200  0.66679300  0.61701500  1
  C  C5  1  0.33328900  0.66656700  0.08598000  1
  C  C6  1  0.66659500  0.33327400  0.28869200  1
  C  C7  1  0.33342500  0.66668100  0.46974100  1
  C  C8  1  0.66679600  0.33350100  0.65747700  1
  Ni  Ni9  1  0.66665700  0.33328200  0.05067200  1
  Ni  Ni10  1  0.66664500  0.33327300  0.12176400  1
  Cu  Cu11  1  0.66662800  0.33331100  0.43736400  1
  Cu  Cu12  1  0.66663700  0.33330700  0.50212200  1
