# generated using pymatgen
data_CuNi7C4
_symmetry_space_group_name_H-M   'P 1'
_cell_length_a   6.13382950
_cell_length_b   6.13382950
_cell_length_c   6.13382940
_cell_angle_alpha   77.90147298
_cell_angle_beta   77.90147298
_cell_angle_gamma   77.90147450
_symmetry_Int_Tables_number   1
_chemical_formula_structural   CuNi7C4
_chemical_formula_sum   'Cu2 Ni14 C8'
_cell_volume   217.30285275
_cell_formula_units_Z   2
loop_
 _symmetry_equiv_pos_site_id
 _symmetry_equiv_pos_as_xyz
  1  'x, y, z'
loop_
 _atom_site_type_symbol
 _atom_site_label
 _atom_site_symmetry_multiplicity
 _atom_site_fract_x
 _atom_site_fract_y
 _atom_site_fract_z
 _atom_site_occupancy
  Ni  Ni0  1  0.58183000  0.58183000  0.58183000  1
  Ni  Ni1  1  0.08183000  0.08183000  0.08183000  1
  Ni  Ni2  1  0.48949000  0.59248200  0.33950400  1
  Ni  Ni3  1  0.33950400  0.48949000  0.59248200  1
  Ni  Ni4  1  0.59248200  0.33950400  0.48949000  1
  Ni  Ni5  1  0.98949000  0.83950400  0.09248200  1
  Ni  Ni6  1  0.09248200  0.98949000  0.83950400  1
  Ni  Ni7  1  0.83950400  0.09248200  0.98949000  1
  Ni  Ni8  1  0.74813300  0.93361100  0.56920600  1
  Ni  Ni9  1  0.56920600  0.74813300  0.93361100  1
  Ni  Ni10  1  0.06920600  0.43361100  0.24813300  1
  Ni  Ni11  1  0.43361100  0.24813300  0.06920600  1
  Ni  Ni12  1  0.24813300  0.06920600  0.43361100  1
  Ni  Ni13  1  0.93361100  0.56920600  0.74813300  1
  Cu  Cu14  1  0.50033700  0.50033700  0.50033700  1
  Cu  Cu15  1  0.00033700  0.00033700  0.00033700  1
  C  C16  1  0.76006200  0.07114500  0.44978800  1
  C  C17  1  0.44978800  0.76006200  0.07114500  1
  C  C18  1  0.07114500  0.44978800  0.76006200  1
  C  C19  1  0.26006200  0.94978800  0.57114500  1
  C  C20  1  0.57114500  0.26006200  0.94978800  1
  C  C21  1  0.94978800  0.57114500  0.26006200  1
  C  C22  1  0.73491200  0.73491200  0.73491200  1
  C  C23  1  0.23491200  0.23491200  0.23491200  1
