# generated using pymatgen
data_Cu3Ni3C7
_symmetry_space_group_name_H-M   'P 1'
_cell_length_a   6.65086891
_cell_length_b   6.65086891
_cell_length_c   6.65086868
_cell_angle_alpha   96.64609489
_cell_angle_beta   96.64609489
_cell_angle_gamma   96.64609525
_symmetry_Int_Tables_number   1
_chemical_formula_structural   Cu3Ni3C7
_chemical_formula_sum   'Cu6 Ni6 C14'
_cell_volume   287.75732688
_cell_formula_units_Z   2
loop_
 _symmetry_equiv_pos_site_id
 _symmetry_equiv_pos_as_xyz
  1  'x, y, z'
loop_
 _atom_site_type_symbol
 _atom_site_label
 _atom_site_symmetry_multiplicity
 _atom_site_fract_x
 _atom_site_fract_y
 _atom_site_fract_z
 _atom_site_occupancy
  C  C0  1  0.50000000  0.50000000  0.50000000  1
  C  C1  1  0.00000000  0.00000000  0.00000000  1
  C  C2  1  0.89384100  0.69708800  0.54381800  1
  C  C3  1  0.54381800  0.89384100  0.69708800  1
  C  C4  1  0.69708800  0.54381800  0.89384100  1
  C  C5  1  0.10615900  0.30291200  0.45618200  1
  C  C6  1  0.45618200  0.10615900  0.30291200  1
  C  C7  1  0.30291200  0.45618200  0.10615900  1
  C  C8  1  0.80328100  0.66969000  0.30826100  1
  C  C9  1  0.30826100  0.80328100  0.66969000  1
  C  C10  1  0.66969000  0.30826100  0.80328100  1
  C  C11  1  0.69173900  0.19671900  0.33031000  1
  C  C12  1  0.33031000  0.69173900  0.19671900  1
  C  C13  1  0.19671900  0.33031000  0.69173900  1
  Ni  Ni14  1  0.43886900  0.79002100  0.61658700  1
  Ni  Ni15  1  0.61658700  0.43886900  0.79002100  1
  Ni  Ni16  1  0.20997900  0.38341300  0.56113100  1
  Ni  Ni17  1  0.56113100  0.20997900  0.38341300  1
  Ni  Ni18  1  0.38341300  0.56113100  0.20997900  1
  Ni  Ni19  1  0.79002100  0.61658700  0.43886900  1
  Cu  Cu20  1  0.06659300  0.84310900  0.74476600  1
  Cu  Cu21  1  0.74476600  0.06659300  0.84310900  1
  Cu  Cu22  1  0.84310900  0.74476600  0.06659300  1
  Cu  Cu23  1  0.93340700  0.15689100  0.25523400  1
  Cu  Cu24  1  0.15689100  0.25523400  0.93340700  1
  Cu  Cu25  1  0.25523400  0.93340700  0.15689100  1
