# generated using pymatgen
data_CuNiC18
_symmetry_space_group_name_H-M   'P 1'
_cell_length_a   15.87892393
_cell_length_b   9.11881878
_cell_length_c   9.15501519
_cell_angle_alpha   90.00000000
_cell_angle_beta   124.68179512
_cell_angle_gamma   90.00000000
_symmetry_Int_Tables_number   1
_chemical_formula_structural   CuNiC18
_chemical_formula_sum   'Cu4 Ni4 C72'
_cell_volume   1090.08949030
_cell_formula_units_Z   4
loop_
 _symmetry_equiv_pos_site_id
 _symmetry_equiv_pos_as_xyz
  1  'x, y, z'
loop_
 _atom_site_type_symbol
 _atom_site_label
 _atom_site_symmetry_multiplicity
 _atom_site_fract_x
 _atom_site_fract_y
 _atom_site_fract_z
 _atom_site_occupancy
  C  C0  1  0.25605749  0.71493821  0.99540759  1
  C  C1  1  0.75605749  0.78506179  0.49540759  1
  C  C2  1  0.75605749  0.21493821  0.99540759  1
  C  C3  1  0.25605749  0.28506179  0.49540759  1
  C  C4  1  0.50755956  0.11311232  0.76125824  1
  C  C5  1  0.50755956  0.88688768  0.26125824  1
  C  C6  1  0.00755956  0.61311232  0.76125824  1
  C  C7  1  0.00755956  0.38688768  0.26125824  1
  C  C8  1  0.18454700  0.93238853  0.28054343  1
  C  C9  1  0.18454700  0.06761147  0.78054343  1
  C  C10  1  0.68454700  0.43238853  0.28054343  1
  C  C11  1  0.68454700  0.56761147  0.78054343  1
  C  C12  1  0.89523591  0.75708577  0.94077619  1
  C  C13  1  0.89523591  0.24291423  0.44077619  1
  C  C14  1  0.39523591  0.25708577  0.94077619  1
  C  C15  1  0.39523591  0.74291423  0.44077619  1
  Ni  Ni16  1  0.10113146  0.74578416  0.55612380  1
  Ni  Ni17  1  0.10113146  0.25421584  0.05612380  1
  Ni  Ni18  1  0.60113146  0.24578416  0.55612380  1
  Ni  Ni19  1  0.60113146  0.75421584  0.05612380  1
  Cu  Cu20  1  0.64416242  0.89391923  0.73580645  1
  Cu  Cu21  1  0.64416242  0.10608077  0.23580645  1
  Cu  Cu22  1  0.14416242  0.39391923  0.73580645  1
  Cu  Cu23  1  0.14416242  0.60608077  0.23580645  1
  C  C24  1  0.00207453  0.95393801  0.76215230  1
  C  C25  1  0.00207453  0.04606199  0.26215230  1
  C  C26  1  0.50207453  0.45393801  0.76215230  1
  C  C27  1  0.50207453  0.54606199  0.26215230  1
  C  C28  1  0.35044861  0.89768450  0.75715660  1
  C  C29  1  0.35044861  0.10231550  0.25715660  1
  C  C30  1  0.85044861  0.39768450  0.75715660  1
  C  C31  1  0.85044861  0.60231550  0.25715660  1
  C  C32  1  0.14983174  0.57294855  0.74299613  1
  C  C33  1  0.84872551  0.57001908  0.75458590  1
  C  C34  1  0.84872551  0.42998092  0.25458590  1
  C  C35  1  0.14983174  0.42705145  0.24299613  1
  C  C36  1  0.64983174  0.07294855  0.74299613  1
  C  C37  1  0.34872551  0.07001908  0.75458590  1
  C  C38  1  0.34872551  0.92998092  0.25458590  1
  C  C39  1  0.64983174  0.92705145  0.24299613  1
  C  C40  1  0.44735505  0.56164263  0.60182967  1
  C  C41  1  0.56428251  0.53750170  0.93789642  1
  C  C42  1  0.56428251  0.46249830  0.43789642  1
  C  C43  1  0.44735505  0.43835737  0.10182967  1
  C  C44  1  0.94735505  0.06164263  0.60182967  1
  C  C45  1  0.06428251  0.03750170  0.93789642  1
  C  C46  1  0.06428251  0.96249830  0.43789642  1
  C  C47  1  0.94735505  0.93835737  0.10182967  1
  C  C48  1  0.25548167  0.84580763  0.74839427  1
  C  C49  1  0.74176948  0.81341049  0.74890324  1
  C  C50  1  0.74176948  0.18658951  0.24890324  1
  C  C51  1  0.25548167  0.15419237  0.24839427  1
  C  C52  1  0.75548167  0.34580763  0.74839427  1
  C  C53  1  0.24176948  0.31341049  0.74890324  1
  C  C54  1  0.24176948  0.68658951  0.24890324  1
  C  C55  1  0.75548167  0.65419237  0.24839427  1
  C  C56  1  0.35005937  0.85186226  0.59184426  1
  C  C57  1  0.64165744  0.83961962  0.90044015  1
  C  C58  1  0.64165744  0.16038038  0.40044015  1
  C  C59  1  0.35005937  0.14813774  0.09184426  1
  C  C60  1  0.85005937  0.35186226  0.59184426  1
  C  C61  1  0.14165744  0.33961962  0.90044015  1
  C  C62  1  0.14165744  0.66038038  0.40044015  1
  C  C63  1  0.85005937  0.64813774  0.09184426  1
  C  C64  1  0.44636418  0.84098313  0.93099982  1
  C  C65  1  0.53766302  0.83499491  0.55063730  1
  C  C66  1  0.53766302  0.16500509  0.05063730  1
  C  C67  1  0.44636418  0.15901687  0.43099982  1
  C  C68  1  0.94636418  0.34098313  0.93099982  1
  C  C69  1  0.03766302  0.33499491  0.55063730  1
  C  C70  1  0.03766302  0.66500509  0.05063730  1
  C  C71  1  0.94636418  0.65901687  0.43099982  1
  C  C72  1  0.07757608  0.85504466  0.75131661  1
  C  C73  1  0.91801695  0.85700507  0.75093161  1
  C  C74  1  0.91801695  0.14299493  0.25093161  1
  C  C75  1  0.07757608  0.14495534  0.25131661  1
  C  C76  1  0.57757608  0.35504466  0.75131661  1
  C  C77  1  0.41801695  0.35700507  0.75093161  1
  C  C78  1  0.41801695  0.64299493  0.25093161  1
  C  C79  1  0.57757608  0.64495534  0.25131661  1
