# generated using pymatgen
data_Cu2NiC10
_symmetry_space_group_name_H-M   'P 1'
_cell_length_a   4.96606826
_cell_length_b   5.19865434
_cell_length_c   5.97057700
_cell_angle_alpha   89.99999935
_cell_angle_beta   90.00000958
_cell_angle_gamma   91.06140643
_symmetry_Int_Tables_number   1
_chemical_formula_structural   Cu2NiC10
_chemical_formula_sum   'Cu2 Ni1 C10'
_cell_volume   154.11517599
_cell_formula_units_Z   1
loop_
 _symmetry_equiv_pos_site_id
 _symmetry_equiv_pos_as_xyz
  1  'x, y, z'
loop_
 _atom_site_type_symbol
 _atom_site_label
 _atom_site_symmetry_multiplicity
 _atom_site_fract_x
 _atom_site_fract_y
 _atom_site_fract_z
 _atom_site_occupancy
  Ni  Ni0  1  0.00000000  0.75000000  0.38015100  1
  C  C1  1  0.00000000  0.75000000  0.84515800  1
  C  C2  1  0.00000000  0.25000000  0.14889500  1
  Cu  Cu3  1  0.49999800  0.75000000  0.34477200  1
  Cu  Cu4  1  0.50000200  0.25000000  0.65756900  1
  C  C5  1  0.24606500  0.89016500  0.62570900  1
  C  C6  1  0.20839500  0.42823800  0.88846200  1
  C  C7  1  0.24203300  0.41951700  0.36441800  1
  C  C8  1  0.21029200  0.92382300  0.12361400  1
  C  C9  1  0.79160400  0.07176200  0.88846200  1
  C  C10  1  0.75393400  0.60983500  0.62570900  1
  C  C11  1  0.78970900  0.57617700  0.12361400  1
  C  C12  1  0.75796700  0.08048300  0.36441800  1
