# generated using pymatgen
data_Cu8Ni4C
_symmetry_space_group_name_H-M   'P 1'
_cell_length_a   7.62017900
_cell_length_b   11.30259600
_cell_length_c   11.40164718
_cell_angle_alpha   79.60136723
_cell_angle_beta   90.00000000
_cell_angle_gamma   90.00000000
_symmetry_Int_Tables_number   1
_chemical_formula_structural   Cu8Ni4C
_chemical_formula_sum   'Cu32 Ni16 C4'
_cell_volume   965.87027481
_cell_formula_units_Z   4
loop_
 _symmetry_equiv_pos_site_id
 _symmetry_equiv_pos_as_xyz
  1  'x, y, z'
loop_
 _atom_site_type_symbol
 _atom_site_label
 _atom_site_symmetry_multiplicity
 _atom_site_fract_x
 _atom_site_fract_y
 _atom_site_fract_z
 _atom_site_occupancy
  C  C0  1  0.93994500  0.75229300  0.35535200  1
  C  C1  1  0.43994500  0.24770700  0.14464800  1
  C  C2  1  0.06005500  0.24770700  0.64464800  1
  C  C3  1  0.56005500  0.75229300  0.85535200  1
  Ni  Ni4  1  0.84444300  0.70674700  0.90688400  1
  Ni  Ni5  1  0.34444300  0.29325300  0.59311600  1
  Ni  Ni6  1  0.15555700  0.29325300  0.09311600  1
  Ni  Ni7  1  0.65555700  0.70674700  0.40688400  1
  Ni  Ni8  1  0.06807300  0.80559300  0.51852800  1
  Ni  Ni9  1  0.56807300  0.19440700  0.98147200  1
  Ni  Ni10  1  0.93192700  0.19440700  0.48147200  1
  Ni  Ni11  1  0.43192700  0.80559300  0.01852800  1
  Ni  Ni12  1  0.53949900  0.91424000  0.70517000  1
  Ni  Ni13  1  0.03949900  0.08576000  0.79483000  1
  Ni  Ni14  1  0.46050100  0.08576000  0.29483000  1
  Ni  Ni15  1  0.96050100  0.91424000  0.20517000  1
  Ni  Ni16  1  0.07406700  0.58857900  0.30438700  1
  Ni  Ni17  1  0.57406700  0.41142100  0.19561300  1
  Ni  Ni18  1  0.92593300  0.41142100  0.69561300  1
  Ni  Ni19  1  0.42593300  0.58857900  0.80438700  1
  Cu  Cu20  1  0.25725000  0.79990900  0.97376600  1
  Cu  Cu21  1  0.75725000  0.20009100  0.52623400  1
  Cu  Cu22  1  0.74275000  0.20009100  0.02623400  1
  Cu  Cu23  1  0.24275000  0.79990900  0.47376600  1
  Cu  Cu24  1  0.42713600  0.68403200  0.08155400  1
  Cu  Cu25  1  0.92713600  0.31596800  0.41844600  1
  Cu  Cu26  1  0.57286400  0.31596800  0.91844600  1
  Cu  Cu27  1  0.07286400  0.68403200  0.58155400  1
  Cu  Cu28  1  0.83720400  0.98485400  0.25756000  1
  Cu  Cu29  1  0.33720400  0.01514600  0.24244000  1
  Cu  Cu30  1  0.16279600  0.01514600  0.74244000  1
  Cu  Cu31  1  0.66279600  0.98485400  0.75756000  1
  Cu  Cu32  1  0.83018000  0.87008300  0.13371000  1
  Cu  Cu33  1  0.33018000  0.12991700  0.36629000  1
  Cu  Cu34  1  0.16982000  0.12991700  0.86629000  1
  Cu  Cu35  1  0.66982000  0.87008300  0.63371000  1
  Cu  Cu36  1  0.50093400  0.60586800  0.68745600  1
  Cu  Cu37  1  0.00093400  0.39413200  0.81254400  1
  Cu  Cu38  1  0.49906600  0.39413200  0.31254400  1
  Cu  Cu39  1  0.99906600  0.60586800  0.18745600  1
  Cu  Cu40  1  0.69792200  0.59185000  0.47678600  1
  Cu  Cu41  1  0.19792200  0.40815000  0.02321400  1
  Cu  Cu42  1  0.30207800  0.40815000  0.52321400  1
  Cu  Cu43  1  0.80207800  0.59185000  0.97678600  1
  Cu  Cu44  1  0.62317300  0.65691500  0.30209000  1
  Cu  Cu45  1  0.12317300  0.34308500  0.19791000  1
  Cu  Cu46  1  0.37682700  0.34308500  0.69791000  1
  Cu  Cu47  1  0.87682700  0.65691500  0.80209000  1
  Cu  Cu48  1  0.26836000  0.65135100  0.76324100  1
  Cu  Cu49  1  0.76836000  0.34864900  0.73675900  1
  Cu  Cu50  1  0.73164000  0.34864900  0.23675900  1
  Cu  Cu51  1  0.23164000  0.65135100  0.26324100  1
