# generated using pymatgen
data_Cu(Ni4C)2
_symmetry_space_group_name_H-M   'P 1'
_cell_length_a   8.55364900
_cell_length_b   9.34871200
_cell_length_c   17.35510900
_cell_angle_alpha   90.00000000
_cell_angle_beta   90.00000000
_cell_angle_gamma   90.00000000
_symmetry_Int_Tables_number   1
_chemical_formula_structural   Cu(Ni4C)2
_chemical_formula_sum   'Cu4 Ni32 C8'
_cell_volume   1387.81172247
_cell_formula_units_Z   4
loop_
 _symmetry_equiv_pos_site_id
 _symmetry_equiv_pos_as_xyz
  1  'x, y, z'
loop_
 _atom_site_type_symbol
 _atom_site_label
 _atom_site_symmetry_multiplicity
 _atom_site_fract_x
 _atom_site_fract_y
 _atom_site_fract_z
 _atom_site_occupancy
  C  C0  1  0.25000000  0.42151600  0.35400100  1
  C  C1  1  0.75000000  0.57848400  0.64599900  1
  C  C2  1  0.75000000  0.92151600  0.14599900  1
  C  C3  1  0.25000000  0.07848400  0.85400100  1
  C  C4  1  0.25000000  0.71729300  0.92379700  1
  C  C5  1  0.75000000  0.28270700  0.07620300  1
  C  C6  1  0.75000000  0.21729300  0.57620300  1
  C  C7  1  0.25000000  0.78270700  0.42379700  1
  Ni  Ni8  1  0.56472600  0.13623200  0.62891200  1
  Ni  Ni9  1  0.93527400  0.36376800  0.12891200  1
  Ni  Ni10  1  0.43527400  0.63623200  0.87108800  1
  Ni  Ni11  1  0.06472600  0.86376800  0.37108800  1
  Ni  Ni12  1  0.25000000  0.92279200  0.74397800  1
  Ni  Ni13  1  0.75000000  0.07720800  0.25602200  1
  Ni  Ni14  1  0.75000000  0.42279200  0.75602200  1
  Ni  Ni15  1  0.25000000  0.57720800  0.24397800  1
  Ni  Ni16  1  0.25000000  0.19891400  0.97459100  1
  Ni  Ni17  1  0.75000000  0.80108600  0.02540900  1
  Ni  Ni18  1  0.75000000  0.69891400  0.52540900  1
  Ni  Ni19  1  0.25000000  0.30108600  0.47459100  1
  Ni  Ni20  1  0.25000000  0.28781400  0.77813900  1
  Ni  Ni21  1  0.75000000  0.71218600  0.22186100  1
  Ni  Ni22  1  0.75000000  0.78781400  0.72186100  1
  Ni  Ni23  1  0.25000000  0.21218600  0.27813900  1
  Ni  Ni24  1  0.97395500  0.05688400  0.86068400  1
  Ni  Ni25  1  0.47395500  0.94311600  0.13931600  1
  Ni  Ni26  1  0.02604500  0.55688400  0.63931600  1
  Ni  Ni27  1  0.52604500  0.44311600  0.36068400  1
  Ni  Ni28  1  0.02604500  0.94311600  0.13931600  1
  Ni  Ni29  1  0.52604500  0.05688400  0.86068400  1
  Ni  Ni30  1  0.97395500  0.44311600  0.36068400  1
  Ni  Ni31  1  0.47395500  0.55688400  0.63931600  1
  Ni  Ni32  1  0.25000000  0.86325300  0.52953700  1
  Ni  Ni33  1  0.75000000  0.13674700  0.47046300  1
  Ni  Ni34  1  0.75000000  0.36325300  0.97046300  1
  Ni  Ni35  1  0.25000000  0.63674700  0.02953700  1
  Ni  Ni36  1  0.06472600  0.63623200  0.87108800  1
  Ni  Ni37  1  0.56472600  0.36376800  0.12891200  1
  Ni  Ni38  1  0.93527400  0.13623200  0.62891200  1
  Ni  Ni39  1  0.43527400  0.86376800  0.37108800  1
  Cu  Cu40  1  0.25000000  0.87734400  0.92752700  1
  Cu  Cu41  1  0.25000000  0.62265600  0.42752700  1
  Cu  Cu42  1  0.75000000  0.37734400  0.57247300  1
  Cu  Cu43  1  0.75000000  0.12265600  0.07247300  1
