# generated using pymatgen
data_Cu12NiC24
_symmetry_space_group_name_H-M   'P 1'
_cell_length_a   9.87808577
_cell_length_b   14.97263124
_cell_length_c   3.13365000
_cell_angle_alpha   90.00000000
_cell_angle_beta   90.00000000
_cell_angle_gamma   84.93607454
_symmetry_Int_Tables_number   1
_chemical_formula_structural   Cu12NiC24
_chemical_formula_sum   'Cu12 Ni1 C24'
_cell_volume   461.66076877
_cell_formula_units_Z   1
loop_
 _symmetry_equiv_pos_site_id
 _symmetry_equiv_pos_as_xyz
  1  'x, y, z'
loop_
 _atom_site_type_symbol
 _atom_site_label
 _atom_site_symmetry_multiplicity
 _atom_site_fract_x
 _atom_site_fract_y
 _atom_site_fract_z
 _atom_site_occupancy
  Ni  Ni0  1  0.25148100  0.67151200  0.50000000  1
  Cu  Cu1  1  0.00783900  0.99950600  0.00000000  1
  Cu  Cu2  1  0.98328000  0.31577000  0.00000000  1
  Cu  Cu3  1  0.97413600  0.65669300  0.00000000  1
  Cu  Cu4  1  0.21692600  0.14726300  0.50000000  1
  Cu  Cu5  1  0.22551900  0.35592300  0.50000000  1
  Cu  Cu6  1  0.29123000  0.89799500  0.50000000  1
  Cu  Cu7  1  0.53186400  0.34922200  0.00000000  1
  Cu  Cu8  1  0.53385200  0.01275200  0.00000000  1
  Cu  Cu9  1  0.55237700  0.68603800  0.00000000  1
  Cu  Cu10  1  0.75176600  0.14408400  0.50000000  1
  Cu  Cu11  1  0.72395100  0.50209000  0.50000000  1
  Cu  Cu12  1  0.73636700  0.84401300  0.50000000  1
  C  C13  1  0.08708300  0.25910400  0.50000000  1
  C  C14  1  0.10565300  0.92959500  0.50000000  1
  C  C15  1  0.15243000  0.08995700  0.00000000  1
  C  C16  1  0.12943300  0.40058200  0.00000000  1
  C  C17  1  0.37560400  0.93441500  0.00000000  1
  C  C18  1  0.40926000  0.37356000  0.50000000  1
  C  C19  1  0.61748600  0.95406400  0.50000000  1
  C  C20  1  0.60890100  0.62580000  0.50000000  1
  C  C21  1  0.65203100  0.11143600  0.00000000  1
  C  C22  1  0.64380900  0.43967800  0.00000000  1
  C  C23  1  0.65211200  0.79027200  0.00000000  1
  C  C24  1  0.90653800  0.05680900  0.50000000  1
  C  C25  1  0.09641700  0.59653500  0.50000000  1
  C  C26  1  0.15090400  0.73221000  0.00000000  1
  C  C27  1  0.30604800  0.22923500  0.00000000  1
  C  C28  1  0.36693900  0.62588800  0.00000000  1
  C  C29  1  0.40963600  0.08419500  0.50000000  1
  C  C30  1  0.37773100  0.76971800  0.50000000  1
  C  C31  1  0.62834000  0.26925000  0.50000000  1
  C  C32  1  0.85050700  0.22159000  0.00000000  1
  C  C33  1  0.85500300  0.89222200  0.00000000  1
  C  C34  1  0.84586300  0.55606300  0.00000000  1
  C  C35  1  0.88517900  0.37972800  0.50000000  1
  C  C36  1  0.88507800  0.73411600  0.50000000  1
