# generated using pymatgen
data_Cu6Ni2C5
_symmetry_space_group_name_H-M   'P 1'
_cell_length_a   6.70826921
_cell_length_b   6.70826921
_cell_length_c   9.78065951
_cell_angle_alpha   56.32518362
_cell_angle_beta   56.32518362
_cell_angle_gamma   48.52824255
_symmetry_Int_Tables_number   1
_chemical_formula_structural   Cu6Ni2C5
_chemical_formula_sum   'Cu12 Ni4 C10'
_cell_volume   261.77836956
_cell_formula_units_Z   2
loop_
 _symmetry_equiv_pos_site_id
 _symmetry_equiv_pos_as_xyz
  1  'x, y, z'
loop_
 _atom_site_type_symbol
 _atom_site_label
 _atom_site_symmetry_multiplicity
 _atom_site_fract_x
 _atom_site_fract_y
 _atom_site_fract_z
 _atom_site_occupancy
  C  C0  1  0.57334200  0.42665800  0.25000000  1
  C  C1  1  0.42665800  0.57334200  0.75000000  1
  C  C2  1  0.35541500  0.12663500  0.34909300  1
  C  C3  1  0.87336500  0.64458500  0.15090700  1
  C  C4  1  0.49261700  0.19458200  0.14303800  1
  C  C5  1  0.80541800  0.50738300  0.35696200  1
  C  C6  1  0.50738300  0.80541800  0.85696200  1
  C  C7  1  0.12663500  0.35541500  0.84909300  1
  C  C8  1  0.64458500  0.87336500  0.65090700  1
  C  C9  1  0.19458200  0.49261700  0.64303800  1
  Ni  Ni10  1  0.12547700  0.97674600  0.14952700  1
  Ni  Ni11  1  0.97674600  0.12547700  0.64952700  1
  Ni  Ni12  1  0.87452300  0.02325400  0.85047300  1
  Ni  Ni13  1  0.02325400  0.87452300  0.35047300  1
  Cu  Cu14  1  0.60797900  0.73259900  0.75884400  1
  Cu  Cu15  1  0.96056200  0.22050000  0.07430800  1
  Cu  Cu16  1  0.26740100  0.39202100  0.74115600  1
  Cu  Cu17  1  0.77950000  0.03943800  0.42569200  1
  Cu  Cu18  1  0.73259900  0.60797900  0.25884400  1
  Cu  Cu19  1  0.39202100  0.26740100  0.24115600  1
  Cu  Cu20  1  0.19066500  0.63343000  0.42495000  1
  Cu  Cu21  1  0.63343000  0.19066500  0.92495000  1
  Cu  Cu22  1  0.22050000  0.96056200  0.57430800  1
  Cu  Cu23  1  0.36657000  0.80933500  0.07505000  1
  Cu  Cu24  1  0.03943800  0.77950000  0.92569200  1
  Cu  Cu25  1  0.80933500  0.36657000  0.57505000  1
