# generated using pymatgen
data_Cu3NiC15
_symmetry_space_group_name_H-M   'P 1'
_cell_length_a   8.87767147
_cell_length_b   8.87767118
_cell_length_c   22.62638797
_cell_angle_alpha   90.21170576
_cell_angle_beta   89.78829426
_cell_angle_gamma   120.56043359
_symmetry_Int_Tables_number   1
_chemical_formula_structural   Cu3NiC15
_chemical_formula_sum   'Cu18 Ni6 C90'
_cell_volume   1535.53477865
_cell_formula_units_Z   6
loop_
 _symmetry_equiv_pos_site_id
 _symmetry_equiv_pos_as_xyz
  1  'x, y, z'
loop_
 _atom_site_type_symbol
 _atom_site_label
 _atom_site_symmetry_multiplicity
 _atom_site_fract_x
 _atom_site_fract_y
 _atom_site_fract_z
 _atom_site_occupancy
  C  C0  1  0.36544709  0.36147376  0.24829521  1
  C  C1  1  0.63852624  0.63455291  0.74829521  1
  C  C2  1  0.03211409  0.69480676  0.58162821  1
  C  C3  1  0.30519324  0.96788591  0.08162821  1
  C  C4  1  0.69878009  0.02814076  0.91496221  1
  C  C5  1  0.97185924  0.30121991  0.41496221  1
  C  C6  1  0.99986515  0.99884420  0.49539320  1
  C  C7  1  0.00115580  0.00013485  0.99539320  1
  C  C8  1  0.66653215  0.33217720  0.82872620  1
  C  C9  1  0.66782280  0.33346785  0.32872620  1
  C  C10  1  0.33319815  0.66551120  0.16206020  1
  C  C11  1  0.33448880  0.66680185  0.66206020  1
  C  C12  1  0.00168667  0.00917587  0.64632608  1
  C  C13  1  0.99082413  0.99831333  0.14632608  1
  C  C14  1  0.66835367  0.34250887  0.97965908  1
  C  C15  1  0.65749113  0.33164633  0.47965908  1
  C  C16  1  0.33501967  0.67584287  0.31299308  1
  C  C17  1  0.32415713  0.66498033  0.81299308  1
  Ni  Ni18  1  0.99902370  0.99141766  0.35085038  1
  Ni  Ni19  1  0.00858234  0.00097630  0.85085038  1
  Ni  Ni20  1  0.66569070  0.32475066  0.68418338  1
  Ni  Ni21  1  0.67524934  0.33430930  0.18418338  1
  Ni  Ni22  1  0.33235670  0.65808466  0.01751738  1
  Ni  Ni23  1  0.34191534  0.66764330  0.51751738  1
  Cu  Cu24  1  0.29467385  0.00840844  0.24929617  1
  Cu  Cu25  1  0.71269785  0.70151063  0.25191193  1
  Cu  Cu26  1  0.98804440  0.28626497  0.25259823  1
  Cu  Cu27  1  0.29848937  0.28730215  0.75191193  1
  Cu  Cu28  1  0.99159156  0.70532615  0.74929617  1
  Cu  Cu29  1  0.71373503  0.01195560  0.75259823  1
  Cu  Cu30  1  0.96134085  0.34174144  0.58262917  1
  Cu  Cu31  1  0.37936485  0.03484363  0.58524493  1
  Cu  Cu32  1  0.65471140  0.61959797  0.58593123  1
  Cu  Cu33  1  0.96515637  0.62063515  0.08524493  1
  Cu  Cu34  1  0.65825856  0.03865915  0.08262917  1
  Cu  Cu35  1  0.38040203  0.34528860  0.08593123  1
  Cu  Cu36  1  0.62800685  0.67507544  0.91596317  1
  Cu  Cu37  1  0.04603085  0.36817763  0.91857893  1
  Cu  Cu38  1  0.32137740  0.95293197  0.91926523  1
  Cu  Cu39  1  0.63182237  0.95396915  0.41857893  1
  Cu  Cu40  1  0.32492456  0.37199315  0.41596317  1
  Cu  Cu41  1  0.04706803  0.67862260  0.41926523  1
  C  C42  1  0.20780530  0.04006513  0.30349843  1
  C  C43  1  0.82361124  0.78995657  0.30669443  1
  C  C44  1  0.96643739  0.18078356  0.30929929  1
  C  C45  1  0.21004343  0.17638876  0.80669443  1
  C  C46  1  0.95993486  0.79219470  0.80349843  1
  C  C47  1  0.81921644  0.03356261  0.80929929  1
  C  C48  1  0.79696419  0.97376017  0.69818223  1
  C  C49  1  0.18450433  0.20710047  0.69618517  1
  C  C50  1  0.02198611  0.81445325  0.69244742  1
  C  C51  1  0.79289953  0.81549567  0.19618517  1
  C  C52  1  0.02623983  0.20303581  0.19818223  1
  C  C53  1  0.18554675  0.97801389  0.19244742  1
  C  C54  1  0.87447230  0.37339813  0.63683143  1
  C  C55  1  0.49027824  0.12328957  0.64002743  1
  C  C56  1  0.63310439  0.51411656  0.64263229  1
  C  C57  1  0.87671043  0.50972176  0.14002743  1
  C  C58  1  0.62660186  0.12552770  0.13683143  1
  C  C59  1  0.48588344  0.36689561  0.14263229  1
  C  C60  1  0.46363119  0.30709317  0.03151523  1
  C  C61  1  0.85117133  0.54043347  0.02951817  1
  C  C62  1  0.68865311  0.14778625  0.02578042  1
  C  C63  1  0.45956653  0.14882867  0.52951817  1
  C  C64  1  0.69290683  0.53636881  0.53151523  1
  C  C65  1  0.85221375  0.31134689  0.52578042  1
  C  C66  1  0.54113830  0.70673213  0.97016543  1
  C  C67  1  0.15694424  0.45662357  0.97336143  1
  C  C68  1  0.29977039  0.84745056  0.97596629  1
  C  C69  1  0.54337643  0.84305576  0.47336143  1
  C  C70  1  0.29326786  0.45886170  0.47016543  1
  C  C71  1  0.15254944  0.70022961  0.47596629  1
  C  C72  1  0.13029719  0.64042717  0.36484923  1
  C  C73  1  0.51783733  0.87376747  0.36285217  1
  C  C74  1  0.35531911  0.48112025  0.35911442  1
  C  C75  1  0.12623253  0.48216267  0.86285217  1
  C  C76  1  0.35957283  0.86970281  0.86484923  1
  C  C77  1  0.51887975  0.64468089  0.85911442  1
  C  C78  1  0.02756566  0.83884082  0.41050785  1
  C  C79  1  0.81684471  0.98073395  0.41141691  1
  C  C80  1  0.15774254  0.18989137  0.41002609  1
  C  C81  1  0.01926605  0.18315529  0.91141691  1
  C  C82  1  0.16115918  0.97243434  0.91050785  1
  C  C83  1  0.81010863  0.84225746  0.91002609  1
  C  C84  1  0.97946188  0.17757445  0.58819400  1
  C  C85  1  0.19178405  0.01050083  0.58939015  1
  C  C86  1  0.82716743  0.80255744  0.58948686  1
  C  C87  1  0.98949917  0.80821595  0.08939015  1
  C  C88  1  0.82242555  0.02053812  0.08819400  1
  C  C89  1  0.19744256  0.17283257  0.08948686  1
  C  C90  1  0.69423266  0.17217382  0.74384085  1
  C  C91  1  0.48351171  0.31406695  0.74474991  1
  C  C92  1  0.82440954  0.52322437  0.74335909  1
  C  C93  1  0.68593305  0.51648829  0.24474991  1
  C  C94  1  0.82782618  0.30576734  0.24384085  1
  C  C95  1  0.47677563  0.17559046  0.24335909  1
  C  C96  1  0.64612888  0.51090745  0.92152700  1
  C  C97  1  0.85845105  0.34383383  0.92272315  1
  C  C98  1  0.49383443  0.13589044  0.92281986  1
  C  C99  1  0.65616617  0.14154895  0.42272315  1
  C  C100  1  0.48909255  0.35387112  0.42152700  1
  C  C101  1  0.86410956  0.50616557  0.42281986  1
  C  C102  1  0.36089866  0.50550782  0.07717485  1
  C  C103  1  0.15017771  0.64740095  0.07808391  1
  C  C104  1  0.49107554  0.85655837  0.07669309  1
  C  C105  1  0.35259905  0.84982229  0.57808391  1
  C  C106  1  0.49449218  0.63910134  0.57717485  1
  C  C107  1  0.14344163  0.50892446  0.57669309  1
  C  C108  1  0.31279488  0.84424145  0.25486100  1
  C  C109  1  0.52511705  0.67716783  0.25605715  1
  C  C110  1  0.16050043  0.46922444  0.25615386  1
  C  C111  1  0.32283217  0.47488295  0.75605715  1
  C  C112  1  0.15575855  0.68720512  0.75486100  1
  C  C113  1  0.53077556  0.83949957  0.75615386  1
