# generated using pymatgen
data_Cu2NiC17
_symmetry_space_group_name_H-M   'P 1'
_cell_length_a   8.96904775
_cell_length_b   8.96904744
_cell_length_c   22.10777163
_cell_angle_alpha   88.95930834
_cell_angle_beta   91.04069165
_cell_angle_gamma   119.64294961
_symmetry_Int_Tables_number   1
_chemical_formula_structural   Cu2NiC17
_chemical_formula_sum   'Cu12 Ni6 C102'
_cell_volume   1545.33878483
_cell_formula_units_Z   6
loop_
 _symmetry_equiv_pos_site_id
 _symmetry_equiv_pos_as_xyz
  1  'x, y, z'
loop_
 _atom_site_type_symbol
 _atom_site_label
 _atom_site_symmetry_multiplicity
 _atom_site_fract_x
 _atom_site_fract_y
 _atom_site_fract_z
 _atom_site_occupancy
  C  C0  1  0.99808462  0.99591142  0.49345941  1
  C  C1  1  0.00408858  0.00191538  0.99345941  1
  C  C2  1  0.66475162  0.32924442  0.82679241  1
  C  C3  1  0.67075558  0.33524838  0.32679241  1
  C  C4  1  0.33141762  0.66257842  0.16012641  1
  C  C5  1  0.33742158  0.66858238  0.66012641  1
  C  C6  1  0.64160654  0.00950692  0.24824099  1
  C  C7  1  0.98938001  0.62488708  0.24755124  1
  C  C8  1  0.99049308  0.35839346  0.74824099  1
  C  C9  1  0.37511292  0.01061999  0.74755124  1
  C  C10  1  0.30827354  0.34283992  0.58157399  1
  C  C11  1  0.65604701  0.95822008  0.58088424  1
  C  C12  1  0.65716008  0.69172646  0.08157399  1
  C  C13  1  0.04177992  0.34395299  0.08088424  1
  C  C14  1  0.97493954  0.67617392  0.91490799  1
  C  C15  1  0.32271301  0.29155408  0.91421824  1
  C  C16  1  0.32382608  0.02506046  0.41490799  1
  C  C17  1  0.70844592  0.67728699  0.41421824  1
  C  C18  1  0.99594402  0.99530984  0.64518546  1
  C  C19  1  0.00469016  0.00405598  0.14518546  1
  C  C20  1  0.66261102  0.32864284  0.97851846  1
  C  C21  1  0.67135716  0.33738898  0.47851846  1
  C  C22  1  0.32927702  0.66197684  0.31185246  1
  C  C23  1  0.33802316  0.67072298  0.81185246  1
  Ni  Ni24  1  0.98633483  0.99283891  0.35234550  1
  Ni  Ni25  1  0.00716109  0.01366517  0.85234550  1
  Ni  Ni26  1  0.65300183  0.32617191  0.68567850  1
  Ni  Ni27  1  0.67382809  0.34699817  0.18567850  1
  Ni  Ni28  1  0.31966783  0.65950591  0.01901250  1
  Ni  Ni29  1  0.34049409  0.68033217  0.51901250  1
  Cu  Cu30  1  0.70839507  0.70354168  0.25161822  1
  Cu  Cu31  1  0.99571663  0.28581305  0.25060513  1
  Cu  Cu32  1  0.29645832  0.29160493  0.75161822  1
  Cu  Cu33  1  0.71418695  0.00428337  0.75060513  1
  Cu  Cu34  1  0.37506207  0.03687468  0.58495122  1
  Cu  Cu35  1  0.66238363  0.61914605  0.58393813  1
  Cu  Cu36  1  0.96312532  0.62493793  0.08495122  1
  Cu  Cu37  1  0.38085395  0.33761637  0.08393813  1
  Cu  Cu38  1  0.04172807  0.37020868  0.91828522  1
  Cu  Cu39  1  0.32904963  0.95248005  0.91727213  1
  Cu  Cu40  1  0.62979132  0.95827193  0.41828522  1
  Cu  Cu41  1  0.04751995  0.67095037  0.41727213  1
  C  C42  1  0.29355606  0.00806803  0.25434650  1
  C  C43  1  0.99193197  0.70644394  0.75434650  1
  C  C44  1  0.96022306  0.34140103  0.58767950  1
  C  C45  1  0.65859897  0.03977694  0.08767950  1
  C  C46  1  0.62688906  0.67473503  0.92101350  1
  C  C47  1  0.32526497  0.37311094  0.42101350  1
  C  C48  1  0.21280284  0.02399125  0.31178532  1
  C  C49  1  0.82537556  0.78623110  0.31142326  1
  C  C50  1  0.96642854  0.15938566  0.30645705  1
  C  C51  1  0.21376890  0.17462444  0.81142326  1
  C  C52  1  0.97600875  0.78719716  0.81178532  1
  C  C53  1  0.84061434  0.03357146  0.80645705  1
  C  C54  1  0.79963209  0.97568433  0.68850811  1
  C  C55  1  0.16710115  0.19434564  0.69209624  1
  C  C56  1  0.01867447  0.82809425  0.69811959  1
  C  C57  1  0.80565436  0.83289885  0.19209624  1
  C  C58  1  0.02431567  0.20036791  0.18850811  1
  C  C59  1  0.17190575  0.98132553  0.19811959  1
  C  C60  1  0.87946984  0.35732425  0.64511832  1
  C  C61  1  0.49204256  0.11956410  0.64475626  1
  C  C62  1  0.63309554  0.49271866  0.63979005  1
  C  C63  1  0.88043590  0.50795744  0.14475626  1
  C  C64  1  0.64267575  0.12053016  0.14511832  1
  C  C65  1  0.50728134  0.36690446  0.13979005  1
  C  C66  1  0.46629909  0.30901733  0.02184111  1
  C  C67  1  0.83376815  0.52767864  0.02542924  1
  C  C68  1  0.68534147  0.16142725  0.03145259  1
  C  C69  1  0.47232136  0.16623185  0.52542924  1
  C  C70  1  0.69098267  0.53370091  0.52184111  1
  C  C71  1  0.83857275  0.31465853  0.53145259  1
  C  C72  1  0.54613584  0.69065825  0.97845232  1
  C  C73  1  0.15870856  0.45289810  0.97809026  1
  C  C74  1  0.29976154  0.82605266  0.97312405  1
  C  C75  1  0.54710190  0.84129144  0.47809026  1
  C  C76  1  0.30934175  0.45386416  0.47845232  1
  C  C77  1  0.17394734  0.70023846  0.47312405  1
  C  C78  1  0.13296509  0.64235133  0.35517511  1
  C  C79  1  0.50043415  0.86101264  0.35876324  1
  C  C80  1  0.35200747  0.49476125  0.36478659  1
  C  C81  1  0.13898736  0.49956585  0.85876324  1
  C  C82  1  0.35764867  0.86703491  0.85517511  1
  C  C83  1  0.50523875  0.64799253  0.86478659  1
  C  C84  1  0.02620150  0.84149525  0.41151486  1
  C  C85  1  0.81672697  0.97663969  0.41114883  1
  C  C86  1  0.17928443  0.19081199  0.41242783  1
  C  C87  1  0.02336031  0.18327303  0.91114883  1
  C  C88  1  0.15850475  0.97379850  0.91151486  1
  C  C89  1  0.80918801  0.82071557  0.91242783  1
  C  C90  1  0.96541447  0.16703608  0.58681989  1
  C  C91  1  0.18837782  0.03356629  0.58828687  1
  C  C92  1  0.83281086  0.81469003  0.58805971  1
  C  C93  1  0.96643371  0.81162218  0.08828687  1
  C  C94  1  0.83296392  0.03458553  0.08681989  1
  C  C95  1  0.18530997  0.16718914  0.08805971  1
  C  C96  1  0.69286850  0.17482825  0.74484786  1
  C  C97  1  0.48339397  0.30997269  0.74448183  1
  C  C98  1  0.84595143  0.52414499  0.74576083  1
  C  C99  1  0.69002731  0.51660603  0.24448183  1
  C  C100  1  0.82517175  0.30713150  0.24484786  1
  C  C101  1  0.47585501  0.15404857  0.24576083  1
  C  C102  1  0.63208147  0.50036908  0.92015289  1
  C  C103  1  0.85504482  0.36689929  0.92161987  1
  C  C104  1  0.49947786  0.14802303  0.92139271  1
  C  C105  1  0.63310071  0.14495518  0.42161987  1
  C  C106  1  0.49963092  0.36791853  0.42015289  1
  C  C107  1  0.85197697  0.50052214  0.42139271  1
  C  C108  1  0.35953450  0.50816225  0.07818186  1
  C  C109  1  0.15005997  0.64330669  0.07781583  1
  C  C110  1  0.51261743  0.85747899  0.07909483  1
  C  C111  1  0.35669331  0.84994003  0.57781583  1
  C  C112  1  0.49183775  0.64046550  0.57818186  1
  C  C113  1  0.14252101  0.48738257  0.57909483  1
  C  C114  1  0.29874747  0.83370308  0.25348689  1
  C  C115  1  0.52171082  0.70023329  0.25495387  1
  C  C116  1  0.16614386  0.48135703  0.25472671  1
  C  C117  1  0.29976671  0.47828918  0.75495387  1
  C  C118  1  0.16629692  0.70125253  0.75348689  1
  C  C119  1  0.51864297  0.83385614  0.75472671  1
