# generated using pymatgen
data_Cu4Ni4C5
_symmetry_space_group_name_H-M   'P 1'
_cell_length_a   3.37547200
_cell_length_b   3.37540794
_cell_length_c   42.27838611
_cell_angle_alpha   90.00338645
_cell_angle_beta   89.99303530
_cell_angle_gamma   119.99937265
_symmetry_Int_Tables_number   1
_chemical_formula_structural   Cu4Ni4C5
_chemical_formula_sum   'Cu4 Ni4 C5'
_cell_volume   417.16950302
_cell_formula_units_Z   1
loop_
 _symmetry_equiv_pos_site_id
 _symmetry_equiv_pos_as_xyz
  1  'x, y, z'
loop_
 _atom_site_type_symbol
 _atom_site_label
 _atom_site_symmetry_multiplicity
 _atom_site_fract_x
 _atom_site_fract_y
 _atom_site_fract_z
 _atom_site_occupancy
  C  C0  1  0.33068900  0.66535900  0.37786700  1
  Ni  Ni1  1  0.33368500  0.66693000  0.70228800  1
  Ni  Ni2  1  0.66607900  0.33301000  0.04930800  1
  Ni  Ni3  1  0.66722300  0.33362700  0.13851300  1
  Ni  Ni4  1  0.33280000  0.66640900  0.61315200  1
  C  C5  1  0.33328600  0.66663000  0.09389500  1
  C  C6  1  0.33135600  0.66564500  0.47569300  1
  C  C7  1  0.66567600  0.33282600  0.27819500  1
  C  C8  1  0.66652800  0.33330600  0.65772900  1
  Cu  Cu9  1  0.33241600  0.66621900  0.31379400  1
  Cu  Cu10  1  0.66579500  0.33284000  0.43980100  1
  Cu  Cu11  1  0.66349100  0.33174200  0.51110200  1
  Cu  Cu12  1  0.33240700  0.66617100  0.24282800  1
