# generated using pymatgen
data_Cu2NiC16
_symmetry_space_group_name_H-M   'P 1'
_cell_length_a   7.32428357
_cell_length_b   7.32428357
_cell_length_c   6.16659767
_cell_angle_alpha   100.20452530
_cell_angle_beta   100.20452530
_cell_angle_gamma   79.76945638
_symmetry_Int_Tables_number   1
_chemical_formula_structural   Cu2NiC16
_chemical_formula_sum   'Cu2 Ni1 C16'
_cell_volume   316.75285579
_cell_formula_units_Z   1
loop_
 _symmetry_equiv_pos_site_id
 _symmetry_equiv_pos_as_xyz
  1  'x, y, z'
loop_
 _atom_site_type_symbol
 _atom_site_label
 _atom_site_symmetry_multiplicity
 _atom_site_fract_x
 _atom_site_fract_y
 _atom_site_fract_z
 _atom_site_occupancy
  C  C0  1  0.16943180  0.83056820  0.50000000  1
  C  C1  1  0.14894369  0.85105631  0.00000000  1
  C  C2  1  0.59400022  0.89407935  0.26876892  1
  C  C3  1  0.10592065  0.40599978  0.73123108  1
  C  C4  1  0.40599978  0.10592065  0.73123108  1
  C  C5  1  0.89407935  0.59400022  0.26876892  1
  C  C6  1  0.85105631  0.14894369  0.00000000  1
  C  C7  1  0.83056820  0.16943180  0.50000000  1
  Ni  Ni8  1  0.50000000  0.50000000  0.50000000  1
  Cu  Cu9  1  0.74682134  0.74682134  0.73057042  1
  Cu  Cu10  1  0.25317866  0.25317866  0.26942958  1
  C  C11  1  0.21189682  0.50641547  0.38893874  1
  C  C12  1  0.49358453  0.78810318  0.61106126  1
  C  C13  1  0.82723013  0.82723013  0.02852759  1
  C  C14  1  0.13155751  0.13155751  0.41685161  1
  C  C15  1  0.17276987  0.17276987  -0.02852759  1
  C  C16  1  0.86844249  0.86844249  0.58314839  1
  C  C17  1  0.78810318  0.49358453  0.61106126  1
  C  C18  1  0.50641547  0.21189682  0.38893874  1
