# generated using pymatgen
data_Cu5(Ni2C15)2
_symmetry_space_group_name_H-M   'P 1'
_cell_length_a   8.50657573
_cell_length_b   8.53083151
_cell_length_c   21.53021490
_cell_angle_alpha   90.31634850
_cell_angle_beta   89.82291720
_cell_angle_gamma   119.88327551
_symmetry_Int_Tables_number   1
_chemical_formula_structural   Cu5(Ni2C15)2
_chemical_formula_sum   'Cu15 Ni12 C90'
_cell_volume   1354.65309595
_cell_formula_units_Z   3
loop_
 _symmetry_equiv_pos_site_id
 _symmetry_equiv_pos_as_xyz
  1  'x, y, z'
loop_
 _atom_site_type_symbol
 _atom_site_label
 _atom_site_symmetry_multiplicity
 _atom_site_fract_x
 _atom_site_fract_y
 _atom_site_fract_z
 _atom_site_occupancy
  C  C0  1  0.64101051  0.00001088  0.25033782  1
  C  C1  1  0.99791508  0.36247036  0.74994990  1
  C  C2  1  0.36413776  0.99949673  0.75044872  1
  C  C3  1  0.03013465  0.69858126  0.58289471  1
  C  C4  1  0.66648367  0.96874519  0.58343626  1
  C  C5  1  0.30237300  0.97115987  0.08197552  1
  C  C6  1  0.03191260  0.33487829  0.08351660  1
  C  C7  1  0.97277513  0.66660171  0.91667311  1
  C  C8  1  0.70102248  0.66882550  0.41721468  1
  C  C9  1  0.01173426  0.01172975  0.49944206  1
  C  C10  1  0.99752457  0.00486555  0.99893395  1
  C  C11  1  0.65878728  0.32877993  0.83420585  1
  C  C12  1  0.67631525  0.33745151  0.33332283  1
  C  C13  1  0.33539574  0.65500322  0.16753895  1
  C  C14  1  0.34047270  0.65726703  0.66668770  1
  Ni  Ni15  1  0.98930661  0.99494894  0.35234116  1
  Ni  Ni16  1  0.00986888  0.01248017  0.85158760  1
  Ni  Ni17  1  0.00378374  0.00564908  0.64788436  1
  Ni  Ni18  1  0.98951939  0.99820527  0.14728825  1
  Ni  Ni19  1  0.66523623  0.33881013  0.68545284  1
  Ni  Ni20  1  0.67522832  0.34667007  0.18506281  1
  Ni  Ni21  1  0.66353126  0.32186415  0.98176636  1
  Ni  Ni22  1  0.67373597  0.32781972  0.48154977  1
  Ni  Ni23  1  0.33184776  0.66432110  0.01945956  1
  Ni  Ni24  1  0.33268256  0.66961374  0.51932730  1
  Ni  Ni25  1  0.32660484  0.65979775  0.31431968  1
  Ni  Ni26  1  0.33382999  0.66830607  0.81393895  1
  Cu  Cu27  1  0.70909699  0.70551590  0.25050086  1
  Cu  Cu28  1  0.00422916  0.29203898  0.25010401  1
  Cu  Cu29  1  0.29285840  0.29292563  0.74998917  1
  Cu  Cu30  1  0.99390894  0.71076549  0.75052038  1
  Cu  Cu31  1  0.71093348  0.99477213  0.75008815  1
  Cu  Cu32  1  0.96033881  0.33340142  0.58383014  1
  Cu  Cu33  1  0.37826947  0.05095002  0.58303015  1
  Cu  Cu34  1  0.66107754  0.61742549  0.58243154  1
  Cu  Cu35  1  0.95154638  0.62413536  0.08228128  1
  Cu  Cu36  1  0.66508959  0.04112025  0.08403753  1
  Cu  Cu37  1  0.38349215  0.33770208  0.08366496  1
  Cu  Cu38  1  0.04377162  0.37344973  0.91676603  1
  Cu  Cu39  1  0.33729968  0.95989398  0.91663657  1
  Cu  Cu40  1  0.61952983  0.95900706  0.41600408  1
  Cu  Cu41  1  0.04680912  0.66800898  0.41651759  1
  C  C42  1  0.28574611  0.00078503  0.25028611  1
  C  C43  1  0.61919328  0.66671493  0.91659313  1
  C  C44  1  0.32870486  0.37372323  0.41659764  1
  C  C45  1  0.20185424  0.02992173  0.30550330  1
  C  C46  1  0.82448059  0.78941405  0.30960743  1
  C  C47  1  0.96605672  0.16559772  0.30609929  1
  C  C48  1  0.21080836  0.16883973  0.80684274  1
  C  C49  1  0.96604722  0.79661577  0.80947931  1
  C  C50  1  0.83630629  0.03592346  0.80639312  1
  C  C51  1  0.79285165  0.96540571  0.69024502  1
  C  C52  1  0.16744889  0.20927490  0.69330061  1
  C  C53  1  0.03567054  0.83175115  0.69255586  1
  C  C54  1  0.79584143  0.83315800  0.19455838  1
  C  C55  1  0.03480041  0.20774101  0.19051128  1
  C  C56  1  0.17708806  0.97012622  0.19302337  1
  C  C57  1  0.87827501  0.37298411  0.64246613  1
  C  C58  1  0.49804845  0.12747160  0.64189862  1
  C  C59  1  0.63240528  0.50181596  0.63976780  1
  C  C60  1  0.87183796  0.49875919  0.13849503  1
  C  C61  1  0.62514505  0.12222754  0.14279048  1
  C  C62  1  0.49804013  0.36591214  0.14163510  1
  C  C63  1  0.46466425  0.29613986  0.02613848  1
  C  C64  1  0.83826450  0.54169062  0.02309170  1
  C  C65  1  0.70689008  0.16672376  0.02787301  1
  C  C66  1  0.46628713  0.16783618  0.52607555  1
  C  C67  1  0.70126128  0.53759440  0.52366060  1
  C  C68  1  0.83507958  0.29365003  0.52748664  1
  C  C69  1  0.53810519  0.69761367  0.97267721  1
  C  C70  1  0.16093002  0.46104638  0.97520703  1
  C  C71  1  0.29903153  0.83699927  0.97436021  1
  C  C72  1  0.53821544  0.83407869  0.47368470  1
  C  C73  1  0.29824731  0.45623197  0.47254636  1
  C  C74  1  0.15911174  0.69744548  0.47613462  1
  C  C75  1  0.13431786  0.63411777  0.35973311  1
  C  C76  1  0.50467903  0.86886197  0.35735976  1
  C  C77  1  0.36832984  0.49210450  0.36136916  1
  C  C78  1  0.12843710  0.49650900  0.85904836  1
  C  C79  1  0.36655317  0.87187443  0.85805049  1
  C  C80  1  0.50772754  0.63605268  0.86080792  1
  C  C81  1  0.02491836  0.83832696  0.40918781  1
  C  C82  1  0.81060441  0.97608849  0.40985218  1
  C  C83  1  0.16818466  0.19391098  0.40855388  1
  C  C84  1  0.02266702  0.18503212  0.90935655  1
  C  C85  1  0.16041746  0.97106346  0.90989744  1
  C  C86  1  0.80335292  0.82842963  0.91083939  1
  C  C87  1  0.97486708  0.16148240  0.59089190  1
  C  C88  1  0.18502955  0.02154826  0.59062975  1
  C  C89  1  0.83293630  0.80964571  0.58943605  1
  C  C90  1  0.98047086  0.81637150  0.09155464  1
  C  C91  1  0.83736434  0.02554977  0.09073524  1
  C  C92  1  0.18990998  0.16597825  0.09074049  1
  C  C93  1  0.68912500  0.16603334  0.74346723  1
  C  C94  1  0.47984428  0.30770201  0.74203952  1
  C  C95  1  0.82971014  0.51878022  0.74352225  1
  C  C96  1  0.68909323  0.51778871  0.24278638  1
  C  C97  1  0.82784978  0.30436173  0.24275983  1
  C  C98  1  0.47025896  0.16152197  0.24488118  1
  C  C99  1  0.64171347  0.50508384  0.92235069  1
  C  C100  1  0.85558561  0.36190909  0.92374296  1
  C  C101  1  0.50484542  0.14794698  0.92393553  1
  C  C102  1  0.63773712  0.14608282  0.42358700  1
  C  C103  1  0.49522592  0.35899612  0.42295113  1
  C  C104  1  0.85192940  0.50126719  0.42346412  1
  C  C105  1  0.35576492  0.50262406  0.07576511  1
  C  C106  1  0.14520568  0.64560150  0.07580735  1
  C  C107  1  0.49486339  0.85397674  0.07498732  1
  C  C108  1  0.35738321  0.85760513  0.57646687  1
  C  C109  1  0.49558881  0.64463123  0.57487482  1
  C  C110  1  0.14703804  0.50483569  0.57538512  1
  C  C111  1  0.30855835  0.83849701  0.25564125  1
  C  C112  1  0.52023314  0.69256986  0.25833532  1
  C  C113  1  0.17187990  0.48038977  0.25805447  1
  C  C114  1  0.30869810  0.47997656  0.75896486  1
  C  C115  1  0.16649627  0.68962315  0.75662922  1
  C  C116  1  0.51907843  0.82923445  0.75767676  1
