# generated using pymatgen
data_Cu3NiC2
_symmetry_space_group_name_H-M   'P 1'
_cell_length_a   8.29061466
_cell_length_b   8.29061466
_cell_length_c   8.29061466
_cell_angle_alpha   135.94084023
_cell_angle_beta   130.66720368
_cell_angle_gamma   68.26671258
_symmetry_Int_Tables_number   1
_chemical_formula_structural   Cu3NiC2
_chemical_formula_sum   'Cu6 Ni2 C4'
_cell_volume   295.34171475
_cell_formula_units_Z   2
loop_
 _symmetry_equiv_pos_site_id
 _symmetry_equiv_pos_as_xyz
  1  'x, y, z'
loop_
 _atom_site_type_symbol
 _atom_site_label
 _atom_site_symmetry_multiplicity
 _atom_site_fract_x
 _atom_site_fract_y
 _atom_site_fract_z
 _atom_site_occupancy
  C  C0  1  0.08267600  0.90702200  0.17565400  1
  C  C1  1  0.91732400  0.09297800  0.82434600  1
  C  C2  1  0.26863200  0.59297800  0.67565400  1
  C  C3  1  0.73136800  0.40702200  0.32434600  1
  Ni  Ni4  1  0.00000000  0.75000000  0.75000000  1
  Ni  Ni5  1  0.00000000  0.25000000  0.25000000  1
  Cu  Cu6  1  0.37756000  0.20313500  0.17442600  1
  Cu  Cu7  1  0.62244000  0.79686500  0.82557400  1
  Cu  Cu8  1  0.50000000  0.25000000  0.75000000  1
  Cu  Cu9  1  0.50000000  0.75000000  0.25000000  1
  Cu  Cu10  1  0.02870900  0.70313500  0.32557400  1
  Cu  Cu11  1  0.97129100  0.29686500  0.67442600  1
