# generated using pymatgen
data_CuNi2C3
_symmetry_space_group_name_H-M   'P 1'
_cell_length_a   4.20337300
_cell_length_b   9.28096500
_cell_length_c   12.53953100
_cell_angle_alpha   90.00000000
_cell_angle_beta   90.00000000
_cell_angle_gamma   90.00000000
_symmetry_Int_Tables_number   1
_chemical_formula_structural   CuNi2C3
_chemical_formula_sum   'Cu4 Ni8 C12'
_cell_volume   489.18412917
_cell_formula_units_Z   4
loop_
 _symmetry_equiv_pos_site_id
 _symmetry_equiv_pos_as_xyz
  1  'x, y, z'
loop_
 _atom_site_type_symbol
 _atom_site_label
 _atom_site_symmetry_multiplicity
 _atom_site_fract_x
 _atom_site_fract_y
 _atom_site_fract_z
 _atom_site_occupancy
  C  C0  1  0.25000000  0.88353300  0.58790500  1
  C  C1  1  0.25000000  0.61646700  0.08790500  1
  C  C2  1  0.75000000  0.38353300  0.91209500  1
  C  C3  1  0.75000000  0.11646700  0.41209500  1
  C  C4  1  0.75000000  0.94014900  0.82913700  1
  C  C5  1  0.25000000  0.05985100  0.17086300  1
  C  C6  1  0.25000000  0.44014900  0.67086300  1
  C  C7  1  0.75000000  0.55985100  0.32913700  1
  C  C8  1  0.75000000  0.32814400  0.16628600  1
  C  C9  1  0.25000000  0.67185600  0.83371400  1
  C  C10  1  0.25000000  0.82814400  0.33371400  1
  C  C11  1  0.75000000  0.17185600  0.66628600  1
  Ni  Ni12  1  0.75000000  0.30125400  0.71445000  1
  Ni  Ni13  1  0.25000000  0.69874600  0.28555000  1
  Ni  Ni14  1  0.25000000  0.80125400  0.78555000  1
  Ni  Ni15  1  0.75000000  0.46186800  0.12259500  1
  Ni  Ni16  1  0.75000000  0.03813200  0.62259500  1
  Ni  Ni17  1  0.25000000  0.96186800  0.37740500  1
  Ni  Ni18  1  0.25000000  0.53813200  0.87740500  1
  Ni  Ni19  1  0.75000000  0.19874600  0.21445000  1
  Cu  Cu20  1  0.75000000  0.85504700  0.06169700  1
  Cu  Cu21  1  0.25000000  0.35504700  0.43830300  1
  Cu  Cu22  1  0.25000000  0.14495300  0.93830300  1
  Cu  Cu23  1  0.75000000  0.64495300  0.56169700  1
