# generated using pymatgen
data_Cu3Ni3C34
_symmetry_space_group_name_H-M   'P 1'
_cell_length_a   8.94666779
_cell_length_b   8.95175756
_cell_length_c   22.26133005
_cell_angle_alpha   89.99648832
_cell_angle_beta   90.84275578
_cell_angle_gamma   119.59382736
_symmetry_Int_Tables_number   1
_chemical_formula_structural   Cu3Ni3C34
_chemical_formula_sum   'Cu9 Ni9 C102'
_cell_volume   1550.07416454
_cell_formula_units_Z   3
loop_
 _symmetry_equiv_pos_site_id
 _symmetry_equiv_pos_as_xyz
  1  'x, y, z'
loop_
 _atom_site_type_symbol
 _atom_site_label
 _atom_site_symmetry_multiplicity
 _atom_site_fract_x
 _atom_site_fract_y
 _atom_site_fract_z
 _atom_site_occupancy
  C  C0  1  0.37034487  0.35464918  0.24626474  1
  C  C1  1  0.99940637  0.63544400  0.24206861  1
  C  C2  1  0.98920990  0.35455242  0.74680046  1
  C  C3  1  0.37810480  0.02273095  0.74724850  1
  C  C4  1  0.29801590  0.33470825  0.58138730  1
  C  C5  1  0.65865564  0.97468273  0.58968253  1
  C  C6  1  0.30363404  0.95905171  0.07452505  1
  C  C7  1  0.65931938  0.68645284  0.08302062  1
  C  C8  1  0.98250116  0.67799223  0.91804077  1
  C  C9  1  0.32300963  0.28777587  0.90913845  1
  C  C10  1  0.98280166  0.30383380  0.42401752  1
  C  C11  1  0.32633919  0.03947697  0.41402948  1
  C  C12  1  0.00523895  0.99442440  0.50338239  1
  C  C13  1  0.00211316  0.01019072  0.99446276  1
  C  C14  1  0.65722539  0.31941202  0.82638721  1
  C  C15  1  0.65295641  0.32592754  0.33180341  1
  C  C16  1  0.32150250  0.65746227  0.15902396  1
  C  C17  1  0.32154209  0.66422246  0.66149348  1
  C  C18  1  0.01088421  0.00651876  0.35046706  1
  C  C19  1  0.01025880  0.00781242  0.84864218  1
  C  C20  1  0.66228629  0.32523374  0.68623302  1
  C  C21  1  0.66157224  0.32688810  0.18250957  1
  C  C22  1  0.31502350  0.65852286  0.01905942  1
  C  C23  1  0.31649476  0.65506422  0.52164901  1
  C  C24  1  0.00565579  0.02687441  0.64843073  1
  C  C25  1  0.02360146  0.99581246  0.14203059  1
  C  C26  1  0.64991290  0.32446357  0.98408668  1
  C  C27  1  0.64760412  0.32728028  0.48895189  1
  C  C28  1  0.34116037  0.66794254  0.31535014  1
  C  C29  1  0.35523660  0.68917721  0.80788153  1
  Ni  Ni30  1  0.30452359  0.00085604  0.25326083  1
  Ni  Ni31  1  0.30223416  0.30351071  0.75443890  1
  Ni  Ni32  1  0.71696180  0.00351754  0.75103365  1
  Ni  Ni33  1  0.95725798  0.34004449  0.58588407  1
  Ni  Ni34  1  0.36238565  0.02777344  0.58693886  1
  Ni  Ni35  1  0.95623647  0.61358711  0.08683414  1
  Ni  Ni36  1  0.37385288  0.34117363  0.08630519  1
  Ni  Ni37  1  0.33475260  0.95889505  0.91878464  1
  Ni  Ni38  1  0.33790985  0.37422648  0.41862155  1
  Cu  Cu39  1  0.70955289  0.71482381  0.25097502  1
  Cu  Cu40  1  0.99723262  0.28792896  0.25126787  1
  Cu  Cu41  1  0.99876877  0.71092616  0.75134279  1
  Cu  Cu42  1  0.67205661  0.62647297  0.58411716  1
  Cu  Cu43  1  0.67280279  0.04516475  0.08403642  1
  Cu  Cu44  1  0.62461599  0.66791271  0.91806397  1
  Cu  Cu45  1  0.03726341  0.37390864  0.91668075  1
  Cu  Cu46  1  0.62703874  0.95609197  0.41693475  1
  Cu  Cu47  1  0.04011650  0.66535070  0.41467405  1
  C  C48  1  0.20949198  0.02587169  0.30949414  1
  C  C49  1  0.81516166  0.80352001  0.30390052  1
  C  C50  1  0.97691942  0.19244542  0.30699214  1
  C  C51  1  0.22104845  0.18266335  0.81164016  1
  C  C52  1  0.98068608  0.78501704  0.80816202  1
  C  C53  1  0.83183981  0.02381669  0.80826551  1
  C  C54  1  0.80126834  0.96960472  0.68851000  1
  C  C55  1  0.16514367  0.20592521  0.69347870  1
  C  C56  1  0.02964117  0.82472193  0.69919693  1
  C  C57  1  0.78239793  0.81292060  0.19510026  1
  C  C58  1  0.02325030  0.20200925  0.19875642  1
  C  C59  1  0.16929562  0.96507712  0.19202539  1
  C  C60  1  0.87100229  0.36103289  0.64436215  1
  C  C61  1  0.48462137  0.12085205  0.64327568  1
  C  C62  1  0.64352452  0.51925875  0.63651638  1
  C  C63  1  0.87144472  0.51528324  0.14750466  1
  C  C64  1  0.64211340  0.12199896  0.13717202  1
  C  C65  1  0.48383160  0.36608276  0.14625077  1
  C  C66  1  0.46396671  0.29462395  0.02714208  1
  C  C67  1  0.82652175  0.52328219  0.02671474  1
  C  C68  1  0.69659370  0.15309267  0.02969751  1
  C  C69  1  0.46056014  0.16737797  0.52558774  1
  C  C70  1  0.69134967  0.53652336  0.52840480  1
  C  C71  1  0.82805753  0.30573451  0.52307213  1
  C  C72  1  0.54755770  0.68831480  0.97277466  1
  C  C73  1  0.14940218  0.45532797  0.96978489  1
  C  C74  1  0.30947285  0.84660538  0.97746864  1
  C  C75  1  0.54993807  0.85841395  0.47067785  1
  C  C76  1  0.30807164  0.46826929  0.47375299  1
  C  C77  1  0.15369902  0.69926576  0.46701000  1
  C  C78  1  0.12551696  0.63987206  0.35925693  1
  C  C79  1  0.50901362  0.86841653  0.36225408  1
  C  C80  1  0.35755714  0.50100099  0.35723288  1
  C  C81  1  0.11391996  0.47885953  0.86217974  1
  C  C82  1  0.35829216  0.85951420  0.85837261  1
  C  C83  1  0.51179451  0.63839911  0.86417245  1
  C  C84  1  0.01662688  0.81640488  0.40733591  1
  C  C85  1  0.79996252  0.97990028  0.40764982  1
  C  C86  1  0.16602035  0.18435279  0.41164487  1
  C  C87  1  0.01761554  0.19997241  0.91251399  1
  C  C88  1  0.16481391  0.98257067  0.91358302  1
  C  C89  1  0.80057131  0.81268548  0.91190344  1
  C  C90  1  0.96173870  0.15082640  0.58652157  1
  C  C91  1  0.17580540  0.02290757  0.58922368  1
  C  C92  1  0.82793856  0.79652152  0.58584854  1
  C  C93  1  0.96232434  0.81269328  0.09056973  1
  C  C94  1  0.82905936  0.02643142  0.08986382  1
  C  C95  1  0.18252663  0.15682534  0.09052048  1
  C  C96  1  0.68700716  0.16662953  0.74666470  1
  C  C97  1  0.48816506  0.32708435  0.74304012  1
  C  C98  1  0.85225222  0.53753931  0.74441728  1
  C  C99  1  0.69207998  0.54072660  0.24879178  1
  C  C100  1  0.85170958  0.32006965  0.24526609  1
  C  C101  1  0.48867081  0.16965865  0.24517189  1
  C  C102  1  0.63669769  0.50268528  0.92121683  1
  C  C103  1  0.86577729  0.36481785  0.92347832  1
  C  C104  1  0.51154218  0.15787401  0.92464008  1
  C  C105  1  0.63909874  0.13037765  0.41797489  1
  C  C106  1  0.51241587  0.35154768  0.42040563  1
  C  C107  1  0.87330477  0.50435309  0.41848223  1
  C  C108  1  0.36309543  0.51119691  0.07433741  1
  C  C109  1  0.15417678  0.66533160  0.08104927  1
  C  C110  1  0.52232515  0.87069740  0.07644947  1
  C  C111  1  0.36418430  0.85342836  0.57226567  1
  C  C112  1  0.51940922  0.64808381  0.57506510  1
  C  C113  1  0.15360365  0.48773039  0.57888480  1
  C  C114  1  0.30456449  0.81319653  0.25876414  1
  C  C115  1  0.52866773  0.68952194  0.25554715  1
  C  C116  1  0.16172107  0.46483562  0.25517518  1
  C  C117  1  0.29587475  0.48650075  0.76086126  1
  C  C118  1  0.16139738  0.69387428  0.75540565  1
  C  C119  1  0.51551216  0.82710469  0.75504198  1
