# generated using pymatgen
data_CuNiC9
_symmetry_space_group_name_H-M   'P 1'
_cell_length_a   9.52352087
_cell_length_b   9.52352088
_cell_length_c   9.52352059
_cell_angle_alpha   118.00287258
_cell_angle_beta   61.99712501
_cell_angle_gamma   118.00287379
_symmetry_Int_Tables_number   1
_chemical_formula_structural   CuNiC9
_chemical_formula_sum   'Cu4 Ni4 C36'
_cell_volume   638.05404955
_cell_formula_units_Z   4
loop_
 _symmetry_equiv_pos_site_id
 _symmetry_equiv_pos_as_xyz
  1  'x, y, z'
loop_
 _atom_site_type_symbol
 _atom_site_label
 _atom_site_symmetry_multiplicity
 _atom_site_fract_x
 _atom_site_fract_y
 _atom_site_fract_z
 _atom_site_occupancy
  C  C0  1  0.24632500  0.12500000  0.50367500  1
  C  C1  1  0.74632500  0.62500000  0.00367500  1
  C  C2  1  0.99632500  0.74632500  0.62500000  1
  C  C3  1  0.49632500  0.24632500  0.12500000  1
  C  C4  1  0.62500000  0.00367500  0.25367500  1
  C  C5  1  0.12500000  0.50367500  0.75367500  1
  C  C6  1  0.25367500  0.37500000  0.99632500  1
  C  C7  1  0.75367500  0.87500000  0.49632500  1
  C  C8  1  0.50367500  0.75367500  0.87500000  1
  C  C9  1  0.00367500  0.25367500  0.37500000  1
  C  C10  1  0.87500000  0.49632500  0.24632500  1
  C  C11  1  0.37500000  0.99632500  0.74632500  1
  Ni  Ni12  1  0.75000000  0.25000000  0.75000000  1
  Ni  Ni13  1  0.50000000  0.50000000  0.50000000  1
  Ni  Ni14  1  0.25000000  0.75000000  0.25000000  1
  Ni  Ni15  1  0.00000000  0.00000000  0.00000000  1
  Cu  Cu16  1  0.37500000  0.62500000  0.37500000  1
  Cu  Cu17  1  0.87500000  0.12500000  0.87500000  1
  Cu  Cu18  1  0.12500000  0.87500000  0.12500000  1
  Cu  Cu19  1  0.62500000  0.37500000  0.62500000  1
  C  C20  1  0.13087500  0.53477700  0.32786100  1
  C  C21  1  0.63087500  0.03477700  0.82786100  1
  C  C22  1  0.32786100  0.86912500  0.46522300  1
  C  C23  1  0.82786100  0.36912500  0.96522300  1
  C  C24  1  0.46522300  0.67213900  0.13087500  1
  C  C25  1  0.96522300  0.17213900  0.63087500  1
  C  C26  1  0.78477700  0.88087500  0.92213900  1
  C  C27  1  0.28477700  0.38087500  0.42213900  1
  C  C28  1  0.92213900  0.21522300  0.11912500  1
  C  C29  1  0.42213900  0.71522300  0.61912500  1
  C  C30  1  0.11912500  0.07786100  0.78477700  1
  C  C31  1  0.61912500  0.57786100  0.28477700  1
  C  C32  1  0.36912500  0.96522300  0.17213900  1
  C  C33  1  0.86912500  0.46522300  0.67213900  1
  C  C34  1  0.17213900  0.63087500  0.03477700  1
  C  C35  1  0.67213900  0.13087500  0.53477700  1
  C  C36  1  0.03477700  0.82786100  0.36912500  1
  C  C37  1  0.53477700  0.32786100  0.86912500  1
  C  C38  1  0.71522300  0.61912500  0.57786100  1
  C  C39  1  0.21522300  0.11912500  0.07786100  1
  C  C40  1  0.38087500  0.42213900  0.71522300  1
  C  C41  1  0.88087500  0.92213900  0.21522300  1
  C  C42  1  0.57786100  0.28477700  0.38087500  1
  C  C43  1  0.07786100  0.78477700  0.88087500  1
