# generated using pymatgen
data_Cu4Ni4C5
_symmetry_space_group_name_H-M   'P 1'
_cell_length_a   3.87964567
_cell_length_b   6.75129849
_cell_length_c   7.26401115
_cell_angle_alpha   119.48043594
_cell_angle_beta   90.00399254
_cell_angle_gamma   90.00771581
_symmetry_Int_Tables_number   1
_chemical_formula_structural   Cu4Ni4C5
_chemical_formula_sum   'Cu4 Ni4 C5'
_cell_volume   165.62904887
_cell_formula_units_Z   1
loop_
 _symmetry_equiv_pos_site_id
 _symmetry_equiv_pos_as_xyz
  1  'x, y, z'
loop_
 _atom_site_type_symbol
 _atom_site_label
 _atom_site_symmetry_multiplicity
 _atom_site_fract_x
 _atom_site_fract_y
 _atom_site_fract_z
 _atom_site_occupancy
  C  C0  1  0.25902700  0.35768300  0.81764900  1
  C  C1  1  0.75928000  0.66918000  0.20006500  1
  C  C2  1  0.75901800  0.39089100  0.49776900  1
  C  C3  1  0.75896000  0.89809100  0.78924400  1
  C  C4  1  0.25921200  0.11216400  0.16339000  1
  Ni  Ni5  1  0.75883800  0.70093600  0.52822700  1
  Ni  Ni6  1  0.25909300  0.28887800  0.45240200  1
  Ni  Ni7  1  0.25893800  0.94120100  0.85932400  1
  Ni  Ni8  1  0.75902100  0.09772600  0.13071100  1
  Cu  Cu9  1  0.25957200  0.39718900  0.14104200  1
  Cu  Cu10  1  0.75909000  0.59255400  0.81685700  1
  Cu  Cu11  1  0.75903100  0.15873500  0.74437600  1
  Cu  Cu12  1  0.25912400  0.83477600  0.18301700  1
