# generated using pymatgen
data_CuNi2C
_symmetry_space_group_name_H-M   'P 1'
_cell_length_a   5.69076787
_cell_length_b   5.69076787
_cell_length_c   5.50231011
_cell_angle_alpha   61.04327563
_cell_angle_beta   61.04327563
_cell_angle_gamma   57.86169626
_symmetry_Int_Tables_number   1
_chemical_formula_structural   CuNi2C
_chemical_formula_sum   'Cu2 Ni4 C2'
_cell_volume   125.69740329
_cell_formula_units_Z   2
loop_
 _symmetry_equiv_pos_site_id
 _symmetry_equiv_pos_as_xyz
  1  'x, y, z'
loop_
 _atom_site_type_symbol
 _atom_site_label
 _atom_site_symmetry_multiplicity
 _atom_site_fract_x
 _atom_site_fract_y
 _atom_site_fract_z
 _atom_site_occupancy
  C  C0  1  0.50000000  -0.00000000  0.50000000  1
  C  C1  1  0.00000000  0.50000000  -0.00000000  1
  Ni  Ni2  1  0.25668434  0.22988300  0.26241550  1
  Ni  Ni3  1  0.77011700  0.74331566  0.23758450  1
  Ni  Ni4  1  0.22988300  0.25668434  0.76241550  1
  Ni  Ni5  1  0.74331566  0.77011700  0.73758450  1
  Cu  Cu6  1  0.26939849  0.73060151  0.75000000  1
  Cu  Cu7  1  0.73060151  0.26939849  0.25000000  1
