# generated using pymatgen
data_Cu2Ni4C9
_symmetry_space_group_name_H-M   'P 1'
_cell_length_a   6.17767286
_cell_length_b   6.17767287
_cell_length_c   6.61405518
_cell_angle_alpha   57.63443439
_cell_angle_beta   57.63442829
_cell_angle_gamma   59.46542339
_symmetry_Int_Tables_number   1
_chemical_formula_structural   Cu2Ni4C9
_chemical_formula_sum   'Cu2 Ni4 C9'
_cell_volume   171.18385133
_cell_formula_units_Z   1
loop_
 _symmetry_equiv_pos_site_id
 _symmetry_equiv_pos_as_xyz
  1  'x, y, z'
loop_
 _atom_site_type_symbol
 _atom_site_label
 _atom_site_symmetry_multiplicity
 _atom_site_fract_x
 _atom_site_fract_y
 _atom_site_fract_z
 _atom_site_occupancy
  C  C0  1  0.85361531  0.85361531  0.14638469  1
  Ni  Ni1  1  0.17309694  0.17309694  0.82690306  1
  Ni  Ni2  1  0.27719401  0.27719401  0.22280599  1
  Ni  Ni3  1  0.59378065  0.59378065  0.14292298  1
  Ni  Ni4  1  0.59378065  0.59378065  0.66951572  1
  Cu  Cu5  1  0.12268909  0.67984773  0.59873159  1
  Cu  Cu6  1  0.67984773  0.12268909  0.59873159  1
  C  C7  1  0.36851866  0.36851866  0.43269951  1
  C  C8  1  0.41739090  0.85474666  0.36393172  1
  C  C9  1  0.36851866  0.36851866  0.83026416  1
  C  C10  1  0.85474666  0.41739090  0.36393172  1
  C  C11  1  0.30416059  0.77140235  0.96221803  1
  C  C12  1  0.82451789  0.82451789  0.47586448  1
  C  C13  1  0.77140235  0.30416059  0.96221803  1
  C  C14  1  0.82451789  0.82451789  0.87509873  1
