# generated using pymatgen
data_Cu3Ni3C31
_symmetry_space_group_name_H-M   'P 1'
_cell_length_a   8.76610331
_cell_length_b   8.79190047
_cell_length_c   22.45109009
_cell_angle_alpha   89.97260464
_cell_angle_beta   90.06555738
_cell_angle_gamma   119.90613835
_symmetry_Int_Tables_number   1
_chemical_formula_structural   Cu3Ni3C31
_chemical_formula_sum   'Cu9 Ni9 C93'
_cell_volume   1499.91659360
_cell_formula_units_Z   3
loop_
 _symmetry_equiv_pos_site_id
 _symmetry_equiv_pos_as_xyz
  1  'x, y, z'
loop_
 _atom_site_type_symbol
 _atom_site_label
 _atom_site_symmetry_multiplicity
 _atom_site_fract_x
 _atom_site_fract_y
 _atom_site_fract_z
 _atom_site_occupancy
  C  C0  1  0.63806019  0.00013067  0.24799992  1
  C  C1  1  0.37335236  0.36367415  0.24634858  1
  C  C2  1  0.70503614  0.67369128  0.41325508  1
  C  C3  1  0.00933313  0.00927441  0.49204449  1
  C  C4  1  0.00332479  0.00281422  0.99937017  1
  C  C5  1  0.66746915  0.33331199  0.82888074  1
  C  C6  1  0.67884010  0.33750158  0.33106770  1
  C  C7  1  0.32574790  0.66375763  0.16451913  1
  C  C8  1  0.33585197  0.66578569  0.66486088  1
  C  C9  1  0.00112250  0.00139370  0.85472662  1
  C  C10  1  0.99807619  0.99798225  0.64308427  1
  C  C11  1  0.99797751  0.99767322  0.14472295  1
  C  C12  1  0.66089701  0.33177181  0.97697583  1
  C  C13  1  0.66726269  0.33487016  0.47824585  1
  C  C14  1  0.33446903  0.66375204  0.02253768  1
  C  C15  1  0.33539974  0.66437353  0.52096833  1
  C  C16  1  0.33170186  0.66654738  0.31382566  1
  C  C17  1  0.33326134  0.66636995  0.81074664  1
  C  C18  1  0.99716888  0.99515928  0.35607021  1
  C  C19  1  0.66447136  0.33462214  0.68605551  1
  C  C20  1  0.67309523  0.34674486  0.18604675  1
  Ni  Ni21  1  0.71955285  0.70487236  0.25297391  1
  Ni  Ni22  1  0.66230724  0.61133233  0.58766090  1
  Ni  Ni23  1  0.38420036  0.33431107  0.08803806  1
  Ni  Ni24  1  0.62058182  0.66809272  0.91618064  1
  Ni  Ni25  1  0.04692203  0.38114022  0.91623512  1
  Ni  Ni26  1  0.33335257  0.95072489  0.91678160  1
  Ni  Ni27  1  0.62955997  0.96057672  0.41567738  1
  Ni  Ni28  1  0.31816459  0.36339675  0.41543381  1
  Ni  Ni29  1  0.04713902  0.67577428  0.41708898  1
  Cu  Cu30  1  0.28613442  0.00165473  0.25146383  1
  Cu  Cu31  1  0.99240143  0.28385532  0.25054241  1
  Cu  Cu32  1  0.29786434  0.28826562  0.74802122  1
  Cu  Cu33  1  0.99103468  0.70254062  0.74819959  1
  Cu  Cu34  1  0.71139275  0.01014360  0.74789769  1
  Cu  Cu35  1  0.94833043  0.33650180  0.58756568  1
  Cu  Cu36  1  0.38827547  0.05121787  0.58731763  1
  Cu  Cu37  1  0.94869384  0.61349885  0.08602239  1
  Cu  Cu38  1  0.66444667  0.05285331  0.08721966  1
  C  C39  1  0.19963987  0.03474377  0.30472559  1
  C  C40  1  0.83070378  0.80304477  0.31128540  1
  C  C41  1  0.96246857  0.16722010  0.30447277  1
  C  C42  1  0.20132009  0.17484820  0.80391155  1
  C  C43  1  0.97204471  0.79804175  0.80382272  1
  C  C44  1  0.82535774  0.02930694  0.80381122  1
  C  C45  1  0.80376609  0.97857692  0.69379207  1
  C  C46  1  0.17542013  0.19807788  0.69395874  1
  C  C47  1  0.02261661  0.82624936  0.69404982  1
  C  C48  1  0.80581739  0.83721471  0.19443121  1
  C  C49  1  0.03291535  0.20264552  0.19422355  1
  C  C50  1  0.17330933  0.97483929  0.19411248  1
  C  C51  1  0.86063279  0.35739145  0.64201049  1
  C  C52  1  0.49915130  0.13446748  0.64190252  1
  C  C53  1  0.63724851  0.49269777  0.64373068  1
  C  C54  1  0.86544651  0.50292120  0.14104359  1
  C  C55  1  0.64431554  0.13780232  0.14364170  1
  C  C56  1  0.49651170  0.35798558  0.14712130  1
  C  C57  1  0.47324944  0.30734508  0.02755740  1
  C  C58  1  0.84116698  0.53363288  0.02866644  1
  C  C59  1  0.69468930  0.16291076  0.03025895  1
  C  C60  1  0.46759000  0.16132818  0.52977462  1
  C  C61  1  0.69523791  0.53402293  0.52495502  1
  C  C62  1  0.83793939  0.30309165  0.52969023  1
  C  C63  1  0.53279080  0.70055196  0.97530429  1
  C  C64  1  0.16943064  0.46974734  0.97506073  1
  C  C65  1  0.30071295  0.83259335  0.97590896  1
  C  C66  1  0.52977296  0.82858155  0.47246383  1
  C  C67  1  0.29966715  0.46702772  0.47369659  1
  C  C68  1  0.16665273  0.69710293  0.47543063  1
  C  C69  1  0.13523077  0.63426321  0.35890298  1
  C  C70  1  0.50318850  0.87009794  0.35587214  1
  C  C71  1  0.36964586  0.49883235  0.35726900  1
  C  C72  1  0.13716806  0.50147854  0.85723244  1
  C  C73  1  0.36361904  0.86118319  0.85763363  1
  C  C74  1  0.49903503  0.63549915  0.85741435  1
  C  C75  1  0.02015509  0.84045278  0.40886959  1
  C  C76  1  0.81461233  0.97063185  0.40802677  1
  C  C77  1  0.15121349  0.17782982  0.40506130  1
  C  C78  1  0.02826931  0.18869068  0.90722540  1
  C  C79  1  0.16188921  0.97391864  0.90707387  1
  C  C80  1  0.81307108  0.84071106  0.90726109  1
  C  C81  1  0.97460122  0.17218662  0.59250716  1
  C  C82  1  0.20021248  0.03225783  0.59254526  1
  C  C83  1  0.83812836  0.81268088  0.59229581  1
  C  C84  1  0.96864632  0.80074814  0.09132489  1
  C  C85  1  0.82963304  0.02793986  0.09131850  1
  C  C86  1  0.18466664  0.16023193  0.09064262  1
  C  C87  1  0.69304074  0.17181530  0.74108023  1
  C  C88  1  0.47763696  0.30348908  0.74306643  1
  C  C89  1  0.83066475  0.52145291  0.74237905  1
  C  C90  1  0.68727373  0.50772089  0.24405507  1
  C  C91  1  0.82862700  0.30148752  0.24009613  1
  C  C92  1  0.47497736  0.15877921  0.24381741  1
  C  C93  1  0.64260120  0.49678961  0.92390845  1
  C  C94  1  0.85458827  0.35925952  0.92479410  1
  C  C95  1  0.50684271  0.14361319  0.92358060  1
  C  C96  1  0.63918818  0.14770139  0.42394184  1
  C  C97  1  0.50422173  0.36257326  0.42449901  1
  C  C98  1  0.85310941  0.49674086  0.42417738  1
  C  C99  1  0.35935907  0.50760134  0.07988770  1
  C  C100  1  0.13729892  0.64175870  0.07936724  1
  C  C101  1  0.50083774  0.86720252  0.08010045  1
  C  C102  1  0.35939519  0.86376283  0.57854577  1
  C  C103  1  0.49305459  0.64200295  0.57906814  1
  C  C104  1  0.13396008  0.49879514  0.57931199  1
  C  C105  1  0.30429499  0.83316485  0.25427209  1
  C  C106  1  0.51808572  0.68841464  0.25452660  1
  C  C107  1  0.16359124  0.46764242  0.25482410  1
  C  C108  1  0.31005062  0.47121185  0.75408942  1
  C  C109  1  0.16365174  0.69277896  0.75361391  1
  C  C110  1  0.52943544  0.83860727  0.75369853  1
