# generated using pymatgen
data_Cu4Ni29C13
_symmetry_space_group_name_H-M   'P 1'
_cell_length_a   11.10897500
_cell_length_b   11.10897500
_cell_length_c   7.80901000
_cell_angle_alpha   90.00000000
_cell_angle_beta   90.00000000
_cell_angle_gamma   90.00000000
_symmetry_Int_Tables_number   1
_chemical_formula_structural   Cu4Ni29C13
_chemical_formula_sum   'Cu8 Ni58 C26'
_cell_volume   963.70465732
_cell_formula_units_Z   2
loop_
 _symmetry_equiv_pos_site_id
 _symmetry_equiv_pos_as_xyz
  1  'x, y, z'
loop_
 _atom_site_type_symbol
 _atom_site_label
 _atom_site_symmetry_multiplicity
 _atom_site_fract_x
 _atom_site_fract_y
 _atom_site_fract_z
 _atom_site_occupancy
  C  C0  1  0.50000000  0.50000000  0.50000000  1
  C  C1  1  0.00000000  0.00000000  0.50000000  1
  C  C2  1  0.75000000  0.25000000  0.00000000  1
  C  C3  1  0.75000000  0.75000000  0.00000000  1
  C  C4  1  0.25000000  0.25000000  0.00000000  1
  C  C5  1  0.25000000  0.75000000  0.00000000  1
  Ni  Ni6  1  0.00000000  0.50000000  0.46484600  1
  Ni  Ni7  1  0.50000000  0.00000000  0.53515400  1
  Ni  Ni8  1  0.38977200  0.50000000  0.88829500  1
  Ni  Ni9  1  0.00000000  0.11022800  0.88829500  1
  Ni  Ni10  1  0.00000000  0.88977200  0.88829500  1
  Ni  Ni11  1  0.61022800  0.50000000  0.88829500  1
  Ni  Ni12  1  0.11022800  0.00000000  0.11170500  1
  Ni  Ni13  1  0.88977200  0.00000000  0.11170500  1
  Ni  Ni14  1  0.50000000  0.38977200  0.11170500  1
  Ni  Ni15  1  0.50000000  0.61022800  0.11170500  1
  Ni  Ni16  1  0.77170900  0.50000000  0.47268500  1
  Ni  Ni17  1  0.00000000  0.72829100  0.47268500  1
  Ni  Ni18  1  0.00000000  0.27170900  0.47268500  1
  Ni  Ni19  1  0.22829100  0.50000000  0.47268500  1
  Ni  Ni20  1  0.72829100  0.00000000  0.52731500  1
  Ni  Ni21  1  0.27170900  0.00000000  0.52731500  1
  Ni  Ni22  1  0.50000000  0.77170900  0.52731500  1
  Ni  Ni23  1  0.50000000  0.22829100  0.52731500  1
  Ni  Ni24  1  0.83507500  0.50000000  0.96930400  1
  Ni  Ni25  1  0.00000000  0.66492500  0.96930400  1
  Ni  Ni26  1  0.00000000  0.33507500  0.96930400  1
  Ni  Ni27  1  0.16492500  0.50000000  0.96930400  1
  Ni  Ni28  1  0.66492500  0.00000000  0.03069600  1
  Ni  Ni29  1  0.33507500  0.00000000  0.03069600  1
  Ni  Ni30  1  0.50000000  0.83507500  0.03069600  1
  Ni  Ni31  1  0.50000000  0.16492500  0.03069600  1
  Ni  Ni32  1  0.88394100  0.38394100  0.24736400  1
  Ni  Ni33  1  0.88394100  0.61605900  0.24736400  1
  Ni  Ni34  1  0.11605900  0.38394100  0.24736400  1
  Ni  Ni35  1  0.11605900  0.61605900  0.24736400  1
  Ni  Ni36  1  0.61605900  0.88394100  0.75263600  1
  Ni  Ni37  1  0.38394100  0.11605900  0.75263600  1
  Ni  Ni38  1  0.38394100  0.88394100  0.75263600  1
  Ni  Ni39  1  0.61605900  0.11605900  0.75263600  1
  Ni  Ni40  1  0.88993300  0.38993300  0.69758800  1
  Ni  Ni41  1  0.88993300  0.61006700  0.69758800  1
  Ni  Ni42  1  0.11006700  0.38993300  0.69758800  1
  Ni  Ni43  1  0.11006700  0.61006700  0.69758800  1
  Ni  Ni44  1  0.61006700  0.88993300  0.30241200  1
  Ni  Ni45  1  0.38993300  0.11006700  0.30241200  1
  Ni  Ni46  1  0.38993300  0.88993300  0.30241200  1
  Ni  Ni47  1  0.61006700  0.11006700  0.30241200  1
  Ni  Ni48  1  0.33846200  0.32568700  0.33574100  1
  Ni  Ni49  1  0.82568700  0.16153800  0.33574100  1
  Ni  Ni50  1  0.17431300  0.83846200  0.33574100  1
  Ni  Ni51  1  0.66153800  0.67431300  0.33574100  1
  Ni  Ni52  1  0.16153800  0.82568700  0.66425900  1
  Ni  Ni53  1  0.83846200  0.17431300  0.66425900  1
  Ni  Ni54  1  0.32568700  0.33846200  0.66425900  1
  Ni  Ni55  1  0.67431300  0.66153800  0.66425900  1
  Ni  Ni56  1  0.16153800  0.17431300  0.66425900  1
  Ni  Ni57  1  0.67431300  0.33846200  0.66425900  1
  Ni  Ni58  1  0.32568700  0.66153800  0.66425900  1
  Ni  Ni59  1  0.83846200  0.82568700  0.66425900  1
  Ni  Ni60  1  0.33846200  0.67431300  0.33574100  1
  Ni  Ni61  1  0.66153800  0.32568700  0.33574100  1
  Ni  Ni62  1  0.17431300  0.16153800  0.33574100  1
  Ni  Ni63  1  0.82568700  0.83846200  0.33574100  1
  Cu  Cu64  1  0.31767400  0.50000000  0.17476900  1
  Cu  Cu65  1  0.00000000  0.18232600  0.17476900  1
  Cu  Cu66  1  0.00000000  0.81767400  0.17476900  1
  Cu  Cu67  1  0.68232600  0.50000000  0.17476900  1
  Cu  Cu68  1  0.18232600  0.00000000  0.82523100  1
  Cu  Cu69  1  0.81767400  0.00000000  0.82523100  1
  Cu  Cu70  1  0.50000000  0.31767400  0.82523100  1
  Cu  Cu71  1  0.50000000  0.68232600  0.82523100  1
  C  C72  1  0.00000000  0.50000000  0.10577900  1
  C  C73  1  0.50000000  0.00000000  0.89422100  1
  C  C74  1  0.00000000  0.50000000  0.85025100  1
  C  C75  1  0.50000000  0.00000000  0.14974900  1
  C  C76  1  0.74370900  0.50000000  0.73517200  1
  C  C77  1  0.00000000  0.75629100  0.73517200  1
  C  C78  1  0.00000000  0.24370900  0.73517200  1
  C  C79  1  0.25629100  0.50000000  0.73517200  1
  C  C80  1  0.75629100  0.00000000  0.26482800  1
  C  C81  1  0.24370900  0.00000000  0.26482800  1
  C  C82  1  0.50000000  0.74370900  0.26482800  1
  C  C83  1  0.50000000  0.25629100  0.26482800  1
  C  C84  1  0.81392900  0.31392900  0.48124400  1
  C  C85  1  0.81392900  0.68607100  0.48124400  1
  C  C86  1  0.18607100  0.31392900  0.48124400  1
  C  C87  1  0.18607100  0.68607100  0.48124400  1
  C  C88  1  0.68607100  0.81392900  0.51875600  1
  C  C89  1  0.31392900  0.18607100  0.51875600  1
  C  C90  1  0.31392900  0.81392900  0.51875600  1
  C  C91  1  0.68607100  0.18607100  0.51875600  1
