# generated using pymatgen
data_Cu4Ni4C3
_symmetry_space_group_name_H-M   'P 1'
_cell_length_a   7.78115199
_cell_length_b   3.85521624
_cell_length_c   6.71110228
_cell_angle_alpha   90.00000000
_cell_angle_beta   90.00000000
_cell_angle_gamma   89.95749218
_symmetry_Int_Tables_number   1
_chemical_formula_structural   Cu4Ni4C3
_chemical_formula_sum   'Cu4 Ni4 C3'
_cell_volume   201.31974843
_cell_formula_units_Z   1
loop_
 _symmetry_equiv_pos_site_id
 _symmetry_equiv_pos_as_xyz
  1  'x, y, z'
loop_
 _atom_site_type_symbol
 _atom_site_label
 _atom_site_symmetry_multiplicity
 _atom_site_fract_x
 _atom_site_fract_y
 _atom_site_fract_z
 _atom_site_occupancy
  C  C0  1  0.50987383  0.56402230  0.50000000  1
  C  C1  1  0.01309614  0.99303995  0.00000000  1
  C  C2  1  0.51302247  0.99303520  0.00000000  1
  Ni  Ni3  1  0.01264467  0.49540645  0.00000000  1
  Ni  Ni4  1  0.25608495  0.99368535  0.00000000  1
  Ni  Ni5  1  0.51200426  0.49306015  0.00000000  1
  Ni  Ni6  1  0.76965114  0.99321275  0.00000000  1
  Cu  Cu7  1  0.01371006  0.99889230  0.28776789  1
  Cu  Cu8  1  0.01371006  0.99889230  0.71223211  1
  Cu  Cu9  1  0.51181471  0.98837663  0.32183186  1
  Cu  Cu10  1  0.51181471  0.98837663  0.67816814  1
