# generated using pymatgen
data_CuNiC15
_symmetry_space_group_name_H-M   'P 1'
_cell_length_a   8.72971509
_cell_length_b   8.72971481
_cell_length_c   22.57692818
_cell_angle_alpha   90.00000000
_cell_angle_beta   90.00000000
_cell_angle_gamma   120.00000104
_symmetry_Int_Tables_number   1
_chemical_formula_structural   CuNiC15
_chemical_formula_sum   'Cu6 Ni6 C90'
_cell_volume   1490.03203050
_cell_formula_units_Z   6
loop_
 _symmetry_equiv_pos_site_id
 _symmetry_equiv_pos_as_xyz
  1  'x, y, z'
loop_
 _atom_site_type_symbol
 _atom_site_label
 _atom_site_symmetry_multiplicity
 _atom_site_fract_x
 _atom_site_fract_y
 _atom_site_fract_z
 _atom_site_occupancy
  Ni  Ni0  1  -0.00000000  -0.00000000  0.35379494  1
  Ni  Ni1  1  -0.00000000  -0.00000000  0.85379494  1
  Ni  Ni2  1  0.66666700  0.33333300  0.68712794  1
  Ni  Ni3  1  0.66666700  0.33333300  0.18712794  1
  Ni  Ni4  1  0.33333300  0.66666700  0.02046194  1
  Ni  Ni5  1  0.33333300  0.66666700  0.52046194  1
  Cu  Cu6  1  -0.00000000  -0.00000000  0.64751679  1
  Cu  Cu7  1  -0.00000000  -0.00000000  0.14751679  1
  Cu  Cu8  1  0.66666700  0.33333300  0.98084979  1
  Cu  Cu9  1  0.66666700  0.33333300  0.48084979  1
  Cu  Cu10  1  0.33333300  0.66666700  0.31418379  1
  Cu  Cu11  1  0.33333300  0.66666700  0.81418379  1
  C  C12  1  0.29342218  0.00348861  0.25145118  1
  C  C13  1  0.71006644  0.70657782  0.25145118  1
  C  C14  1  0.99651139  0.28993356  0.25145118  1
  C  C15  1  0.29342218  0.28993356  0.75145118  1
  C  C16  1  0.99651139  0.70657782  0.75145118  1
  C  C17  1  0.71006644  0.00348861  0.75145118  1
  C  C18  1  0.96008918  0.33682161  0.58478418  1
  C  C19  1  0.37673344  0.03991082  0.58478418  1
  C  C20  1  0.66317839  0.62326656  0.58478418  1
  C  C21  1  0.96008918  0.62326656  0.08478418  1
  C  C22  1  0.66317839  0.03991082  0.08478418  1
  C  C23  1  0.37673344  0.33682161  0.08478418  1
  C  C24  1  0.62675518  0.67015561  0.91811818  1
  C  C25  1  0.04339944  0.37324482  0.91811818  1
  C  C26  1  0.32984439  0.95660056  0.91811818  1
  C  C27  1  0.62675518  0.95660056  0.41811818  1
  C  C28  1  0.32984439  0.37324482  0.41811818  1
  C  C29  1  0.04339944  0.67015561  0.41811818  1
  C  C30  1  0.21055791  0.02951029  0.30325574  1
  C  C31  1  0.81895238  0.78944209  0.30325574  1
  C  C32  1  0.97048971  0.18104762  0.30325574  1
  C  C33  1  0.21055791  0.18104762  0.80325574  1
  C  C34  1  0.97048971  0.78944209  0.80325574  1
  C  C35  1  0.81895238  0.02951029  0.80325574  1
  C  C36  1  0.78290451  0.96200994  0.69623173  1
  C  C37  1  0.17910544  0.21709549  0.69623173  1
  C  C38  1  0.03799006  0.82089456  0.69623173  1
  C  C39  1  0.78290451  0.82089456  0.19623173  1
  C  C40  1  0.03799006  0.21709549  0.19623173  1
  C  C41  1  0.17910544  0.96200994  0.19623173  1
  C  C42  1  0.87722491  0.36284329  0.63658874  1
  C  C43  1  0.48561938  0.12277509  0.63658874  1
  C  C44  1  0.63715671  0.51438062  0.63658874  1
  C  C45  1  0.87722491  0.51438062  0.13658874  1
  C  C46  1  0.63715671  0.12277509  0.13658874  1
  C  C47  1  0.48561938  0.36284329  0.13658874  1
  C  C48  1  0.44957151  0.29534294  0.02956473  1
  C  C49  1  0.84577244  0.55042849  0.02956473  1
  C  C50  1  0.70465706  0.15422756  0.02956473  1
  C  C51  1  0.44957151  0.15422756  0.52956473  1
  C  C52  1  0.70465706  0.55042849  0.52956473  1
  C  C53  1  0.84577244  0.29534294  0.52956473  1
  C  C54  1  0.54389091  0.69617729  0.96992274  1
  C  C55  1  0.15228538  0.45610909  0.96992274  1
  C  C56  1  0.30382271  0.84771462  0.96992274  1
  C  C57  1  0.54389091  0.84771462  0.46992274  1
  C  C58  1  0.30382271  0.45610909  0.46992274  1
  C  C59  1  0.15228538  0.69617729  0.46992274  1
  C  C60  1  0.11623751  0.62867694  0.36289873  1
  C  C61  1  0.51243844  0.88376249  0.36289873  1
  C  C62  1  0.37132306  0.48756156  0.36289873  1
  C  C63  1  0.11623751  0.48756156  0.86289873  1
  C  C64  1  0.37132306  0.88376249  0.86289873  1
  C  C65  1  0.51243844  0.62867694  0.86289873  1
  C  C66  1  0.02250592  0.82291064  0.40845573  1
  C  C67  1  0.80040471  0.97749408  0.40845573  1
  C  C68  1  0.17708936  0.19959529  0.40845573  1
  C  C69  1  0.02250592  0.19959529  0.90845573  1
  C  C70  1  0.17708936  0.97749408  0.90845573  1
  C  C71  1  0.80040471  0.82291064  0.90845573  1
  C  C72  1  0.97408521  0.17130535  0.59016838  1
  C  C73  1  0.19722014  0.02591479  0.59016838  1
  C  C74  1  0.82869465  0.80277986  0.59016838  1
  C  C75  1  0.97408521  0.80277986  0.09016838  1
  C  C76  1  0.82869465  0.02591479  0.09016838  1
  C  C77  1  0.19722014  0.17130535  0.09016838  1
  C  C78  1  0.68917292  0.15624364  0.74178873  1
  C  C79  1  0.46707171  0.31082708  0.74178873  1
  C  C80  1  0.84375636  0.53292829  0.74178873  1
  C  C81  1  0.68917292  0.53292829  0.24178873  1
  C  C82  1  0.84375636  0.31082708  0.24178873  1
  C  C83  1  0.46707171  0.15624364  0.24178873  1
  C  C84  1  0.64075221  0.50463835  0.92350138  1
  C  C85  1  0.86388714  0.35924779  0.92350138  1
  C  C86  1  0.49536165  0.13611286  0.92350138  1
  C  C87  1  0.64075221  0.13611286  0.42350138  1
  C  C88  1  0.49536165  0.35924779  0.42350138  1
  C  C89  1  0.86388714  0.50463835  0.42350138  1
  C  C90  1  0.35583892  0.48957764  0.07512273  1
  C  C91  1  0.13373771  0.64416108  0.07512273  1
  C  C92  1  0.51042236  0.86626229  0.07512273  1
  C  C93  1  0.35583892  0.86626229  0.57512273  1
  C  C94  1  0.51042236  0.64416108  0.57512273  1
  C  C95  1  0.13373771  0.48957764  0.57512273  1
  C  C96  1  0.30741821  0.83797235  0.25683538  1
  C  C97  1  0.53055314  0.69258179  0.25683538  1
  C  C98  1  0.16202765  0.46944686  0.25683538  1
  C  C99  1  0.30741821  0.46944686  0.75683538  1
  C  C100  1  0.16202765  0.69258179  0.75683538  1
  C  C101  1  0.53055314  0.83797235  0.75683538  1
