# generated using pymatgen
data_Cu2(NiC12)3
_symmetry_space_group_name_H-M   'P 1'
_cell_length_a   8.90928131
_cell_length_b   8.90829129
_cell_length_c   22.02667671
_cell_angle_alpha   89.88766195
_cell_angle_beta   89.53953302
_cell_angle_gamma   119.93043730
_symmetry_Int_Tables_number   1
_chemical_formula_structural   Cu2(NiC12)3
_chemical_formula_sum   'Cu6 Ni9 C108'
_cell_volume   1514.94321513
_cell_formula_units_Z   3
loop_
 _symmetry_equiv_pos_site_id
 _symmetry_equiv_pos_as_xyz
  1  'x, y, z'
loop_
 _atom_site_type_symbol
 _atom_site_label
 _atom_site_symmetry_multiplicity
 _atom_site_fract_x
 _atom_site_fract_y
 _atom_site_fract_z
 _atom_site_occupancy
  C  C0  1  0.62861379  0.00218847  0.25232665  1
  C  C1  1  0.37108685  0.37327916  0.24845694  1
  C  C2  1  0.00032906  0.62113125  0.25021363  1
  C  C3  1  0.63199329  0.63351285  0.74853644  1
  C  C4  1  0.99509128  0.36600767  0.74849377  1
  C  C5  1  0.37391135  0.00143639  0.74727492  1
  C  C6  1  0.03043646  0.69578375  0.58317154  1
  C  C7  1  0.66343654  0.96796227  0.58239626  1
  C  C8  1  0.66575403  0.69031464  0.08272054  1
  C  C9  1  0.02747023  0.33476836  0.08559302  1
  C  C10  1  0.96061481  0.66517677  0.91921266  1
  C  C11  1  0.70155731  0.03289306  0.91723962  1
  C  C12  1  0.33857605  0.30084205  0.91842094  1
  C  C13  1  0.96840123  0.30312838  0.41610386  1
  C  C14  1  0.33592301  0.03159220  0.41799162  1
  C  C15  1  0.99955442  0.99990331  0.49995610  1
  C  C16  1  0.00760568  0.99665663  0.00290129  1
  C  C17  1  0.66646155  0.33303551  0.83327962  1
  C  C18  1  0.67197807  0.34131495  0.33676674  1
  C  C19  1  0.32760334  0.66847215  0.16488665  1
  C  C20  1  0.33390672  0.66033804  0.66235783  1
  C  C21  1  0.99340603  0.99821829  0.85369968  1
  C  C22  1  0.66989292  0.32976127  0.67957099  1
  C  C23  1  0.67275486  0.33730478  0.18245649  1
  C  C24  1  0.66471361  0.34056546  0.98683507  1
  C  C25  1  0.32713590  0.66330889  0.31790492  1
  C  C26  1  0.34058548  0.66915354  0.81269889  1
  Ni  Ni27  1  0.99967826  0.27944535  0.25074298  1
  Ni  Ni28  1  0.71386645  0.00284604  0.74720926  1
  Ni  Ni29  1  0.97037770  0.33666294  0.58083518  1
  Ni  Ni30  1  0.37000443  0.03997530  0.58187038  1
  Ni  Ni31  1  0.97578130  0.64310061  0.08354961  1
  Ni  Ni32  1  0.36375577  0.33104859  0.08393186  1
  Ni  Ni33  1  0.62139760  0.66410864  0.91848072  1
  Ni  Ni34  1  0.62560667  0.95791024  0.41786844  1
  Ni  Ni35  1  0.03004107  0.66523822  0.41796355  1
  Cu  Cu36  1  0.98517033  0.98964238  0.35539475  1
  Cu  Cu37  1  0.00653414  0.01148493  0.64454977  1
  Cu  Cu38  1  0.01100300  0.00423978  0.14677251  1
  Cu  Cu39  1  0.66819771  0.32906797  0.48308871  1
  Cu  Cu40  1  0.33460141  0.66776191  0.02068294  1
  Cu  Cu41  1  0.33001369  0.67155055  0.51654443  1
  C  C42  1  0.27924782  -0.00001147  0.25116597  1
  C  C43  1  0.72040231  0.72012862  0.24983822  1
  C  C44  1  0.28727111  0.28671871  0.74830274  1
  C  C45  1  0.99853146  0.71269591  0.74758998  1
  C  C46  1  0.66095849  0.62278930  0.58140903  1
  C  C47  1  0.66332781  0.03055676  0.08378014  1
  C  C48  1  0.04575118  0.37935939  0.91837933  1
  C  C49  1  0.33558702  0.95413611  0.91848769  1
  C  C50  1  0.33948960  0.37740931  0.41847690  1
  C  C51  1  0.19643025  0.02985552  0.30907969  1
  C  C52  1  0.83715415  0.80059730  0.30626286  1
  C  C53  1  0.96919955  0.15740385  0.31167901  1
  C  C54  1  0.21322027  0.18016090  0.80684878  1
  C  C55  1  0.97384148  0.79271952  0.80593479  1
  C  C56  1  0.82631067  0.03530941  0.80840971  1
  C  C57  1  0.80963036  0.96607752  0.68830917  1
  C  C58  1  0.16696765  0.19649626  0.69325115  1
  C  C59  1  0.03173447  0.83116013  0.69077601  1
  C  C60  1  0.80340562  0.83281403  0.19216908  1
  C  C61  1  0.02869388  0.18813567  0.19026431  1
  C  C62  1  0.16280073  0.96451470  0.19487150  1
  C  C63  1  0.89783689  0.38394362  0.64119895  1
  C  C64  1  0.48750746  0.11202189  0.64165448  1
  C  C65  1  0.63282998  0.52270060  0.64084247  1
  C  C66  1  0.89576173  0.51436037  0.14242158  1
  C  C67  1  0.63386047  0.11185370  0.14073474  1
  C  C68  1  0.48820676  0.37639546  0.14270450  1
  C  C69  1  0.44298797  0.29680399  0.02303342  1
  C  C70  1  0.85092794  0.56288271  0.02498983  1
  C  C71  1  0.70245867  0.14597708  0.02734120  1
  C  C72  1  0.46259068  0.16566394  0.52257491  1
  C  C73  1  0.70086083  0.53304792  0.52807490  1
  C  C74  1  0.83411163  0.29218237  0.52409698  1
  C  C75  1  0.52646214  0.70071736  0.97712396  1
  C  C76  1  0.16147255  0.46730348  0.97457890  1
  C  C77  1  0.30059771  0.83054160  0.97327477  1
  C  C78  1  0.53297966  0.83323029  0.47734374  1
  C  C79  1  0.29806660  0.46575982  0.47173702  1
  C  C80  1  0.16429370  0.71009999  0.47531531  1
  C  C81  1  0.10508430  0.61826062  0.35792825  1
  C  C82  1  0.50911445  0.88452507  0.35764069  1
  C  C83  1  0.36875827  0.47938968  0.35905239  1
  C  C84  1  0.12137672  0.48745156  0.86024647  1
  C  C85  1  0.36081191  0.87647035  0.85944525  1
  C  C86  1  0.50737501  0.63136426  0.85775413  1
  C  C87  1  0.02766149  0.84973986  0.40891413  1
  C  C88  1  0.82429746  0.98593439  0.41247658  1
  C  C89  1  0.17301559  0.19296922  0.41404640  1
  C  C90  1  0.03486191  0.20071460  0.91609106  1
  C  C91  1  0.17387652  0.97503636  0.91602066  1
  C  C92  1  0.81275353  0.83807984  0.91788606  1
  C  C93  1  0.97462921  0.15358851  0.58860593  1
  C  C94  1  0.17043244  0.00878002  0.59017030  1
  C  C95  1  0.82979322  0.80627361  0.58505766  1
  C  C96  1  0.97811247  0.82742687  0.09397729  1
  C  C97  1  0.82746762  0.01078913  0.09038727  1
  C  C98  1  0.16682903  0.16230921  0.09056610  1
  C  C99  1  0.69207328  0.17416253  0.74499652  1
  C  C100  1  0.47060147  0.31254262  0.74252815  1
  C  C101  1  0.83378341  0.53355011  0.74405928  1
  C  C102  1  0.70012983  0.53766188  0.24657909  1
  C  C103  1  0.82571163  0.29747412  0.24884516  1
  C  C104  1  0.45965751  0.16328981  0.24617159  1
  C  C105  1  0.64393774  0.49329343  0.92052000  1
  C  C106  1  0.86174112  0.35272681  0.92390205  1
  C  C107  1  0.50046568  0.13259862  0.92315493  1
  C  C108  1  0.64504040  0.15355620  0.42578002  1
  C  C109  1  0.49910512  0.35308184  0.42603472  1
  C  C110  1  0.84048128  0.48938291  0.42856559  1
  C  C111  1  0.34716781  0.50879645  0.07578991  1
  C  C112  1  0.16368245  0.65262936  0.07368153  1
  C  C113  1  0.50173300  0.84724386  0.07754265  1
  C  C114  1  0.35218271  0.84543827  0.57388903  1
  C  C115  1  0.50229005  0.64842440  0.57371607  1
  C  C116  1  0.16018856  0.51243899  0.57054144  1
  C  C117  1  0.30042484  0.83809161  0.25391598  1
  C  C118  1  0.54019626  0.70348175  0.25416988  1
  C  C119  1  0.17337594  0.47130388  0.25168638  1
  C  C120  1  0.29756499  0.46501332  0.75045030  1
  C  C121  1  0.15993323  0.69125934  0.75042143  1
  C  C122  1  0.52232086  0.82877452  0.74817915  1
