# generated using pymatgen
data_Cu12Ni3C2
_symmetry_space_group_name_H-M   'P 1'
_cell_length_a   8.69020292
_cell_length_b   8.69020265
_cell_length_c   22.33755893
_cell_angle_alpha   90.00000000
_cell_angle_beta   90.00000000
_cell_angle_gamma   120.00000103
_symmetry_Int_Tables_number   1
_chemical_formula_structural   Cu12Ni3C2
_chemical_formula_sum   'Cu72 Ni18 C12'
_cell_volume   1460.91907610
_cell_formula_units_Z   6
loop_
 _symmetry_equiv_pos_site_id
 _symmetry_equiv_pos_as_xyz
  1  'x, y, z'
loop_
 _atom_site_type_symbol
 _atom_site_label
 _atom_site_symmetry_multiplicity
 _atom_site_fract_x
 _atom_site_fract_y
 _atom_site_fract_z
 _atom_site_occupancy
  C  C0  1  -0.00000000  0.00000000  0.35252078  1
  C  C1  1  -0.00000000  0.00000000  0.85252078  1
  C  C2  1  -0.00000000  0.00000000  0.64574969  1
  C  C3  1  -0.00000000  0.00000000  0.14574969  1
  C  C4  1  0.66666700  0.33333300  0.68732659  1
  C  C5  1  0.66666700  0.33333300  0.18732659  1
  C  C6  1  0.33333300  0.66666700  0.02193041  1
  C  C7  1  0.33333300  0.66666700  0.52193041  1
  C  C8  1  0.66666700  0.33333300  0.98174755  1
  C  C9  1  0.66666700  0.33333300  0.48174755  1
  C  C10  1  0.33333300  0.66666700  0.30835365  1
  C  C11  1  0.33333300  0.66666700  0.80835365  1
  Ni  Ni12  1  0.28957660  0.00795405  0.24965473  1
  Ni  Ni13  1  0.71837744  0.71042340  0.24965473  1
  Ni  Ni14  1  0.99204595  0.28162256  0.24965473  1
  Ni  Ni15  1  0.28957660  0.28162256  0.74965473  1
  Ni  Ni16  1  0.99204596  0.71042340  0.74965473  1
  Ni  Ni17  1  0.71837744  0.00795405  0.74965473  1
  Ni  Ni18  1  0.96227607  0.33433292  0.58603741  1
  Ni  Ni19  1  0.37205785  0.03772393  0.58603741  1
  Ni  Ni20  1  0.66566708  0.62794215  0.58603741  1
  Ni  Ni21  1  0.96227607  0.62794215  0.08603741  1
  Ni  Ni22  1  0.66566708  0.03772393  0.08603741  1
  Ni  Ni23  1  0.37205785  0.33433292  0.08603741  1
  Ni  Ni24  1  0.62564062  0.67174770  0.91783314  1
  Ni  Ni25  1  0.04610608  0.37435938  0.91783314  1
  Ni  Ni26  1  0.32825230  0.95389392  0.91783314  1
  Ni  Ni27  1  0.62564062  0.95389392  0.41783314  1
  Ni  Ni28  1  0.32825230  0.37435938  0.41783314  1
  Ni  Ni29  1  0.04610608  0.67174770  0.41783314  1
  Cu  Cu30  1  0.20972770  0.02854545  0.30426049  1
  Cu  Cu31  1  0.81881774  0.79027230  0.30426049  1
  Cu  Cu32  1  0.97145455  0.18118226  0.30426049  1
  Cu  Cu33  1  0.20972770  0.18118226  0.80426049  1
  Cu  Cu34  1  0.97145455  0.79027230  0.80426049  1
  Cu  Cu35  1  0.81881774  0.02854545  0.80426049  1
  Cu  Cu36  1  0.78515855  0.96301733  0.69690162  1
  Cu  Cu37  1  0.17785878  0.21484145  0.69690162  1
  Cu  Cu38  1  0.03698267  0.82214122  0.69690162  1
  Cu  Cu39  1  0.78515855  0.82214122  0.19690162  1
  Cu  Cu40  1  0.03698267  0.21484145  0.19690162  1
  Cu  Cu41  1  0.17785878  0.96301733  0.19690162  1
  Cu  Cu42  1  0.87385714  0.36484573  0.63611439  1
  Cu  Cu43  1  0.49098959  0.12614286  0.63611439  1
  Cu  Cu44  1  0.63515427  0.50901041  0.63611439  1
  Cu  Cu45  1  0.87385714  0.50901041  0.13611439  1
  Cu  Cu46  1  0.63515427  0.12614286  0.13611439  1
  Cu  Cu47  1  0.49098959  0.36484573  0.13611439  1
  Cu  Cu48  1  0.46620853  0.30436801  0.02878276  1
  Cu  Cu49  1  0.83816048  0.53379147  0.02878276  1
  Cu  Cu50  1  0.69563199  0.16183952  0.02878276  1
  Cu  Cu51  1  0.46620853  0.16183952  0.52878276  1
  Cu  Cu52  1  0.69563199  0.53379147  0.52878276  1
  Cu  Cu53  1  0.83816048  0.30436801  0.52878276  1
  Cu  Cu54  1  0.54041295  0.69546214  0.96999065  1
  Cu  Cu55  1  0.15504819  0.45958705  0.96999065  1
  Cu  Cu56  1  0.30453786  0.84495181  0.96999065  1
  Cu  Cu57  1  0.54041295  0.84495181  0.46999065  1
  Cu  Cu58  1  0.30453786  0.45958705  0.46999065  1
  Cu  Cu59  1  0.15504819  0.69546214  0.46999065  1
  Cu  Cu60  1  0.12727950  0.63402966  0.36297256  1
  Cu  Cu61  1  0.50674916  0.87272050  0.36297256  1
  Cu  Cu62  1  0.36597034  0.49325084  0.36297256  1
  Cu  Cu63  1  0.12727950  0.49325084  0.86297256  1
  Cu  Cu64  1  0.36597034  0.87272050  0.86297256  1
  Cu  Cu65  1  0.50674916  0.63402966  0.86297256  1
  Cu  Cu66  1  0.02215535  0.82225269  0.40735959  1
  Cu  Cu67  1  0.80009735  0.97784465  0.40735959  1
  Cu  Cu68  1  0.17774731  0.19990265  0.40735959  1
  Cu  Cu69  1  0.02215535  0.19990265  0.90735959  1
  Cu  Cu70  1  0.17774731  0.97784465  0.90735959  1
  Cu  Cu71  1  0.80009735  0.82225269  0.90735959  1
  Cu  Cu72  1  0.97162597  0.17346013  0.58995722  1
  Cu  Cu73  1  0.20183416  0.02837403  0.58995722  1
  Cu  Cu74  1  0.82653987  0.79816584  0.58995722  1
  Cu  Cu75  1  0.97162597  0.79816584  0.08995722  1
  Cu  Cu76  1  0.82653987  0.02837403  0.08995722  1
  Cu  Cu77  1  0.20183416  0.17346013  0.08995722  1
  Cu  Cu78  1  0.68568714  0.15506153  0.74200576  1
  Cu  Cu79  1  0.46937540  0.31431286  0.74200576  1
  Cu  Cu80  1  0.84493847  0.53062460  0.74200576  1
  Cu  Cu81  1  0.68568714  0.53062460  0.24200576  1
  Cu  Cu82  1  0.84493847  0.31431286  0.24200576  1
  Cu  Cu83  1  0.46937540  0.15506153  0.24200576  1
  Cu  Cu84  1  0.63968567  0.50512838  0.92486617  1
  Cu  Cu85  1  0.86544371  0.36031433  0.92486617  1
  Cu  Cu86  1  0.49487162  0.13455629  0.92486617  1
  Cu  Cu87  1  0.63968567  0.13455629  0.42486617  1
  Cu  Cu88  1  0.49487162  0.36031433  0.42486617  1
  Cu  Cu89  1  0.86544371  0.50512838  0.42486617  1
  Cu  Cu90  1  0.36026221  0.49189930  0.07333999  1
  Cu  Cu91  1  0.13163609  0.63973779  0.07333999  1
  Cu  Cu92  1  0.50810070  0.86836391  0.07333999  1
  Cu  Cu93  1  0.36026221  0.86836391  0.57333999  1
  Cu  Cu94  1  0.50810070  0.63973779  0.57333999  1
  Cu  Cu95  1  0.13163609  0.49189930  0.57333999  1
  Cu  Cu96  1  0.30915411  0.83836573  0.26071396  1
  Cu  Cu97  1  0.52921062  0.69084589  0.26071396  1
  Cu  Cu98  1  0.16163427  0.47078938  0.26071396  1
  Cu  Cu99  1  0.30915411  0.47078938  0.76071396  1
  Cu  Cu100  1  0.16163427  0.69084589  0.76071396  1
  Cu  Cu101  1  0.52921062  0.83836573  0.76071396  1
