# generated using pymatgen
data_CuNi3C37
_symmetry_space_group_name_H-M   'P 1'
_cell_length_a   18.29105062
_cell_length_b   9.14188758
_cell_length_c   22.38167386
_cell_angle_alpha   90.02871125
_cell_angle_beta   89.99733484
_cell_angle_gamma   120.12158466
_symmetry_Int_Tables_number   1
_chemical_formula_structural   CuNi3C37
_chemical_formula_sum   'Cu6 Ni18 C222'
_cell_volume   3237.16076304
_cell_formula_units_Z   6
loop_
 _symmetry_equiv_pos_site_id
 _symmetry_equiv_pos_as_xyz
  1  'x, y, z'
loop_
 _atom_site_type_symbol
 _atom_site_label
 _atom_site_symmetry_multiplicity
 _atom_site_fract_x
 _atom_site_fract_y
 _atom_site_fract_z
 _atom_site_occupancy
  C  C0  1  0.81023096  0.00171631  0.25086274  1
  C  C1  1  0.68775983  0.35135558  0.24426520  1
  C  C2  1  0.50644410  0.64914296  0.24680809  1
  C  C3  1  0.30902054  0.61723050  0.75075936  1
  C  C4  1  0.00648177  0.37623100  0.74543836  1
  C  C5  1  0.17522169  0.00146726  0.74330525  1
  C  C6  1  0.15277684  0.32630152  0.57601653  1
  C  C7  1  0.66973563  0.36088962  0.58261772  1
  C  C8  1  0.01435694  0.69635721  0.57372904  1
  C  C9  1  0.52452419  0.68572888  0.58788980  1
  C  C10  1  0.32539483  0.99069430  0.58373754  1
  C  C11  1  0.82439592  0.95489727  0.58788073  1
  C  C12  1  0.16397525  0.97070737  0.07687283  1
  C  C13  1  0.65826076  0.98653379  0.06896382  1
  C  C14  1  0.32037838  0.69172086  0.08268115  1
  C  C15  1  0.82867793  0.66449084  0.07814621  1
  C  C16  1  0.02419157  0.36296337  0.08326786  1
  C  C17  1  0.51301432  0.32924070  0.06572002  1
  C  C18  1  0.49001364  0.66720558  0.91941617  1
  C  C19  1  0.98053511  0.66189323  0.91262701  1
  C  C20  1  0.35429464  0.04660569  0.92469151  1
  C  C21  1  0.84523970  0.04061531  0.91168406  1
  C  C22  1  0.16761713  0.29433596  0.91419088  1
  C  C23  1  0.66146019  0.28867349  0.92688812  1
  C  C24  1  0.48163549  0.30635328  0.42957047  1
  C  C25  1  0.99104327  0.31424383  0.42460340  1
  C  C26  1  0.15828231  0.02920104  0.43215491  1
  C  C27  1  0.67122012  0.04481567  0.42220353  1
  C  C28  1  0.34179524  0.65046724  0.41886052  1
  C  C29  1  0.85535522  0.66313091  0.42828048  1
  C  C30  1  0.00439154  0.98487129  0.49893151  1
  C  C31  1  0.50846363  0.01794298  0.50213669  1
  C  C32  1  0.00778134  0.99867224  0.99586120  1
  C  C33  1  0.50458889  0.02217529  0.99176642  1
  C  C34  1  0.33702883  0.33092473  0.83025370  1
  C  C35  1  0.82905237  0.33536319  0.82534571  1
  C  C36  1  0.31683231  0.32228961  0.33340778  1
  C  C37  1  0.84102454  0.34534270  0.33278457  1
  C  C38  1  0.16773534  0.67249628  0.15387945  1
  C  C39  1  0.66782954  0.66203676  0.16328443  1
  C  C40  1  0.15784554  0.67278548  0.67031488  1
  C  C41  1  0.67153610  0.66657035  0.65561151  1
  Ni  Ni42  1  0.00515378  0.00143328  0.35587251  1
  Ni  Ni43  1  0.50520662  0.00538490  0.34499846  1
  Ni  Ni44  1  0.00465239  0.99180282  0.83809490  1
  Ni  Ni45  1  0.50484984  0.00850928  0.85481250  1
  Ni  Ni46  1  0.32962598  0.31618515  0.68107870  1
  Ni  Ni47  1  0.83008927  0.34470870  0.68144589  1
  Ni  Ni48  1  0.32123038  0.31585827  0.17736329  1
  Ni  Ni49  1  0.83124713  0.34083257  0.18081613  1
  Ni  Ni50  1  0.33256452  0.31679024  0.98618194  1
  Ni  Ni51  1  0.82672450  0.33594837  0.98591001  1
  Ni  Ni52  1  0.32574213  0.31990362  0.48785587  1
  Ni  Ni53  1  0.83560802  0.35028040  0.48950243  1
  Ni  Ni54  1  0.16620964  0.66883297  0.02118158  1
  Ni  Ni55  1  0.66070646  0.65309004  0.01288996  1
  Ni  Ni56  1  0.15838167  0.66433179  0.51479156  1
  Ni  Ni57  1  0.66738346  0.66805635  0.52260184  1
  Ni  Ni58  1  0.66594064  0.67316385  0.31537604  1
  Ni  Ni59  1  0.16171782  0.65817365  0.81225300  1
  Cu  Cu60  1  0.00471101  0.98876518  0.65212834  1
  Cu  Cu61  1  0.50598540  0.01633532  0.64613991  1
  Cu  Cu62  1  0.00612885  0.99678026  0.14573554  1
  Cu  Cu63  1  0.50400725  0.00696140  0.14813415  1
  Cu  Cu64  1  0.16123371  0.65199294  0.31721668  1
  Cu  Cu65  1  0.66242819  0.67126784  0.81749988  1
  C  C66  1  0.65343899  0.00079636  0.25304314  1
  C  C67  1  0.15434868  0.30371311  0.75251272  1
  C  C68  1  0.99508367  0.68310355  0.75640978  1
  C  C69  1  0.47691916  0.33791365  0.58004525  1
  C  C70  1  0.18479340  0.02564155  0.58330387  1
  C  C71  1  0.69187312  0.04601652  0.58032051  1
  C  C72  1  0.83448827  0.63511085  0.58142669  1
  C  C73  1  0.97670373  0.61545506  0.08034710  1
  C  C74  1  0.33400592  0.03736708  0.08268119  1
  C  C75  1  0.18976234  0.33967389  0.07934982  1
  C  C76  1  0.68645008  0.34629776  0.08521857  1
  C  C77  1  0.51203761  0.36360826  0.91889025  1
  C  C78  1  0.66904522  0.97046295  0.92262918  1
  C  C79  1  0.16906234  0.36809404  0.42214484  1
  C  C80  1  0.01183811  0.66034701  0.41880171  1
  C  C81  1  0.15145807  0.00383480  0.25288087  1
  C  C82  1  0.35228119  0.70067230  0.25215794  1
  C  C83  1  0.85285987  0.70792265  0.25368210  1
  C  C84  1  0.99861368  0.28975297  0.25131821  1
  C  C85  1  0.49844645  0.29857632  0.25412551  1
  C  C86  1  0.65017766  0.29870872  0.75324356  1
  C  C87  1  0.49898588  0.70770292  0.75141298  1
  C  C88  1  0.35523452  0.00067130  0.75389389  1
  C  C89  1  0.85082604  0.99814322  0.75195138  1
  C  C90  1  0.98035512  0.33245040  0.58364865  1
  C  C91  1  0.33387879  0.62928882  0.58379793  1
  C  C92  1  0.47964113  0.62497275  0.08621063  1
  C  C93  1  0.83365791  0.03829653  0.08507956  1
  C  C94  1  0.31187079  0.66680695  0.91560550  1
  C  C95  1  0.81576545  0.67386695  0.91780651  1
  C  C96  1  0.01894541  0.36793727  0.91764701  1
  C  C97  1  0.16573478  0.95632422  0.91612723  1
  C  C98  1  0.31808552  0.96147815  0.41472938  1
  C  C99  1  0.81239661  0.95842586  0.41461130  1
  C  C100  1  0.66251736  0.37374806  0.41289273  1
  C  C101  1  0.51904680  0.67012787  0.41492322  1
  C  C102  1  0.10563660  0.01302752  0.30523855  1
  C  C103  1  0.60779191  0.02977092  0.31069512  1
  C  C104  1  0.40268789  0.79120424  0.30601600  1
  C  C105  1  0.90329967  0.80228215  0.30572186  1
  C  C106  1  0.48617954  0.19405596  0.30755273  1
  C  C107  1  0.99250996  0.18878074  0.30442562  1
  C  C108  1  0.10923461  0.18777280  0.81155970  1
  C  C109  1  0.60351320  0.19778593  0.80594154  1
  C  C110  1  0.49286522  0.79642247  0.80472169  1
  C  C111  1  0.98270140  0.76956717  0.81603814  1
  C  C112  1  0.40699190  0.01128259  0.80582012  1
  C  C113  1  0.90152940  0.01270033  0.80626277  1
  C  C114  1  0.39518524  0.97689423  0.69803853  1
  C  C115  1  0.89333718  0.98240163  0.69743253  1
  C  C116  1  0.09082214  0.20787517  0.69393681  1
  C  C117  1  0.59710256  0.21543787  0.69757736  1
  C  C118  1  0.00834715  0.81302162  0.69868228  1
  C  C119  1  0.50709873  0.80800505  0.69611477  1
  C  C120  1  0.39481113  0.80199378  0.19761306  1
  C  C121  1  0.89198579  0.81133786  0.19794100  1
  C  C122  1  0.00620947  0.20552782  0.19598995  1
  C  C123  1  0.50773595  0.21067862  0.20018387  1
  C  C124  1  0.10022230  0.98452930  0.19694349  1
  C  C125  1  0.58922041  0.97188866  0.19484295  1
  C  C126  1  0.43203795  0.37489638  0.63498986  1
  C  C127  1  0.94015452  0.35168006  0.63742689  1
  C  C128  1  0.24114998  0.11047907  0.64274638  1
  C  C129  1  0.75297384  0.13512065  0.63607626  1
  C  C130  1  0.32298982  0.52809295  0.63766459  1
  C  C131  1  0.81658789  0.50809424  0.63588084  1
  C  C132  1  0.43991781  0.52901628  0.14134948  1
  C  C133  1  0.93323499  0.49118729  0.13639364  1
  C  C134  1  0.32037425  0.12877747  0.13946651  1
  C  C135  1  0.82248085  0.11607241  0.13944050  1
  C  C136  1  0.24932998  0.37936843  0.13699236  1
  C  C137  1  0.74006729  0.37086769  0.14588256  1
  C  C138  1  0.22325175  0.28832302  0.01979561  1
  C  C139  1  0.72292226  0.29941999  0.02642193  1
  C  C140  1  0.42928868  0.54426024  0.03199870  1
  C  C141  1  0.91987673  0.55230684  0.01966060  1
  C  C142  1  0.36045393  0.15312080  0.02219222  1
  C  C143  1  0.84908056  0.14288022  0.03114442  1
  C  C144  1  0.22327882  0.14170338  0.52355904  1
  C  C145  1  0.72257230  0.15754322  0.51845342  1
  C  C146  1  0.35038359  0.55707649  0.52935884  1
  C  C147  1  0.85846684  0.56923343  0.52033943  1
  C  C148  1  0.42112350  0.29121772  0.51858885  1
  C  C149  1  0.93076185  0.31355597  0.52843895  1
  C  C150  1  0.27300224  0.69229321  0.96979073  1
  C  C151  1  0.77516827  0.68926900  0.97293213  1
  C  C152  1  0.07140073  0.45015404  0.97123210  1
  C  C153  1  0.57038134  0.44489821  0.97758897  1
  C  C154  1  0.15886286  0.85850637  0.97066901  1
  C  C155  1  0.65660780  0.85448364  0.98116984  1
  C  C156  1  0.28080250  0.86337261  0.46988118  1
  C  C157  1  0.77096461  0.85154600  0.46740379  1
  C  C158  1  0.15889798  0.46244473  0.48013943  1
  C  C159  1  0.65484175  0.45822280  0.46686131  1
  C  C160  1  0.07113253  0.69675089  0.47673719  1
  C  C161  1  0.57222815  0.69357487  0.46776906  1
  C  C162  1  0.06793320  0.64057604  0.36165086  1
  C  C163  1  0.55918363  0.65018567  0.35988513  1
  C  C164  1  0.26324665  0.87080686  0.36207215  1
  C  C165  1  0.76110419  0.87656891  0.35975908  1
  C  C166  1  0.18355726  0.49921041  0.36383523  1
  C  C167  1  0.66877773  0.47222931  0.35834125  1
  C  C168  1  0.06043851  0.46851901  0.86339343  1
  C  C169  1  0.56919824  0.49586458  0.86297957  1
  C  C170  1  0.17240770  0.87009805  0.86230853  1
  C  C171  1  0.68266526  0.86611517  0.86522953  1
  C  C172  1  0.25995794  0.64754521  0.86195585  1
  C  C173  1  0.76182846  0.65548068  0.86475247  1
  C  C174  1  0.00051815  0.82473689  0.40915037  1
  C  C175  1  0.50792698  0.82279703  0.41114352  1
  C  C176  1  0.40371161  0.97788535  0.40763776  1
  C  C177  1  0.89847187  0.97934920  0.40935243  1
  C  C178  1  0.08288544  0.18566370  0.41234351  1
  C  C179  1  0.58292648  0.20100438  0.41122050  1
  C  C180  1  0.00688950  0.19256198  0.91393404  1
  C  C181  1  0.50054082  0.17606562  0.90963137  1
  C  C182  1  0.08826746  0.97433429  0.91499105  1
  C  C183  1  0.58263932  0.98032520  0.91277274  1
  C  C184  1  0.39882571  0.81819387  0.91017608  1
  C  C185  1  0.89982254  0.83154430  0.91322818  1
  C  C186  1  0.48312517  0.15811012  0.59113572  1
  C  C187  1  0.98792747  0.17630853  0.58666673  1
  C  C188  1  0.08939864  0.00922627  0.58812207  1
  C  C189  1  0.59215498  0.02231279  0.59109959  1
  C  C190  1  0.41233643  0.80463182  0.59002035  1
  C  C191  1  0.91620097  0.83153966  0.59028065  1
  C  C192  1  0.48670144  0.79804983  0.08883160  1
  C  C193  1  0.98411840  0.80894811  0.09231833  1
  C  C194  1  0.41581562  0.00327987  0.09260104  1
  C  C195  1  0.91150694  0.01910095  0.09121298  1
  C  C196  1  0.09096977  0.16349559  0.09056526  1
  C  C197  1  0.58880053  0.17340937  0.09119453  1
  C  C198  1  0.34786267  0.15350897  0.74961595  1
  C  C199  1  0.84247762  0.14879068  0.74861906  1
  C  C200  1  0.24808303  0.32041507  0.74486458  1
  C  C201  1  0.73136037  0.30900338  0.74845039  1
  C  C202  1  0.42249086  0.54045471  0.74762865  1
  C  C203  1  0.91782940  0.49121546  0.74610602  1
  C  C204  1  0.34904520  0.53523989  0.24953035  1
  C  C205  1  0.84565930  0.54004798  0.25020490  1
  C  C206  1  0.42804796  0.33231842  0.24796578  1
  C  C207  1  0.92227820  0.30452051  0.24789968  1
  C  C208  1  0.23476564  0.15841031  0.24875320  1
  C  C209  1  0.74769992  0.16835508  0.24528350  1
  C  C210  1  0.32035952  0.51314764  0.92002569  1
  C  C211  1  0.82414976  0.52097667  0.91782146  1
  C  C212  1  0.42186809  0.36204043  0.91763982  1
  C  C213  1  0.93373012  0.35202669  0.92218814  1
  C  C214  1  0.24273209  0.12856988  0.91779180  1
  C  C215  1  0.75480913  0.15780255  0.92140406  1
  C  C216  1  0.32662581  0.13136770  0.41512780  1
  C  C217  1  0.82090769  0.12854850  0.41939277  1
  C  C218  1  0.25522472  0.35346591  0.42076859  1
  C  C219  1  0.73788836  0.35304344  0.41435730  1
  C  C220  1  0.43369935  0.51647553  0.41960232  1
  C  C221  1  0.92156268  0.48135601  0.41793093  1
  C  C222  1  0.16962830  0.49327227  0.07322114  1
  C  C223  1  0.67480454  0.51224635  0.07914382  1
  C  C224  1  0.07462771  0.66161480  0.07459364  1
  C  C225  1  0.56642826  0.65182432  0.08270910  1
  C  C226  1  0.25165357  0.84877280  0.07573456  1
  C  C227  1  0.75958294  0.86586406  0.07954613  1
  C  C228  1  0.17342620  0.83593979  0.57823428  1
  C  C229  1  0.67053710  0.85022210  0.57470070  1
  C  C230  1  0.26043707  0.65347400  0.57778718  1
  C  C231  1  0.75219550  0.65988917  0.57461302  1
  C  C232  1  0.06723501  0.48261936  0.57997825  1
  C  C233  1  0.57490639  0.48863801  0.57401732  1
  C  C234  1  0.16059766  0.85062330  0.25436005  1
  C  C235  1  0.65873307  0.82521112  0.25387944  1
  C  C236  1  0.26680374  0.68130076  0.25375447  1
  C  C237  1  0.76563672  0.68542453  0.25637683  1
  C  C238  1  0.07705793  0.46107435  0.25260152  1
  C  C239  1  0.57993457  0.46412242  0.25683739  1
  C  C240  1  0.16398613  0.49221224  0.75402243  1
  C  C241  1  0.65876456  0.47018641  0.75492637  1
  C  C242  1  0.08655305  0.68792978  0.75545865  1
  C  C243  1  0.57721686  0.69353145  0.75320270  1
  C  C244  1  0.26990119  0.84734757  0.75710158  1
  C  C245  1  0.76574151  0.84004671  0.75424317  1
