# generated using pymatgen
data_Cu4NiC2
_symmetry_space_group_name_H-M   'P 1'
_cell_length_a   5.16222555
_cell_length_b   5.81850023
_cell_length_c   7.23194774
_cell_angle_alpha   104.45530689
_cell_angle_beta   105.58950118
_cell_angle_gamma   90.63688731
_symmetry_Int_Tables_number   1
_chemical_formula_structural   Cu4NiC2
_chemical_formula_sum   'Cu8 Ni2 C4'
_cell_volume   201.89351822
_cell_formula_units_Z   2
loop_
 _symmetry_equiv_pos_site_id
 _symmetry_equiv_pos_as_xyz
  1  'x, y, z'
loop_
 _atom_site_type_symbol
 _atom_site_label
 _atom_site_symmetry_multiplicity
 _atom_site_fract_x
 _atom_site_fract_y
 _atom_site_fract_z
 _atom_site_occupancy
  C  C0  1  0.73511000  0.12913000  0.42210300  1
  C  C1  1  0.37767500  0.36034400  0.76184100  1
  C  C2  1  0.62950100  0.64109900  0.24491500  1
  C  C3  1  0.99538800  0.94656400  0.94911500  1
  Ni  Ni4  1  0.47124900  0.30597000  0.55385000  1
  Ni  Ni5  1  0.62763800  0.76316000  0.47601000  1
  Cu  Cu6  1  0.53053900  0.10159600  0.86096700  1
  Cu  Cu7  1  0.44494400  0.92787800  0.17444400  1
  Cu  Cu8  1  0.02528100  0.17286400  0.67521000  1
  Cu  Cu9  1  0.94256300  0.87378000  0.28093700  1
  Cu  Cu10  1  0.16413500  0.62835300  0.75222200  1
  Cu  Cu11  1  0.81932800  0.35982200  0.28484900  1
  Cu  Cu12  1  0.68824200  0.57928100  0.94933800  1
  Cu  Cu13  1  0.31090700  0.43635000  0.07253100  1
