# generated using pymatgen
data_Cu2NiC15
_symmetry_space_group_name_H-M   'P 1'
_cell_length_a   8.73882601
_cell_length_b   8.73882573
_cell_length_c   22.80134862
_cell_angle_alpha   90.00000000
_cell_angle_beta   90.00000000
_cell_angle_gamma   120.00000109
_symmetry_Int_Tables_number   1
_chemical_formula_structural   Cu2NiC15
_chemical_formula_sum   'Cu12 Ni6 C90'
_cell_volume   1507.98608169
_cell_formula_units_Z   6
loop_
 _symmetry_equiv_pos_site_id
 _symmetry_equiv_pos_as_xyz
  1  'x, y, z'
loop_
 _atom_site_type_symbol
 _atom_site_label
 _atom_site_symmetry_multiplicity
 _atom_site_fract_x
 _atom_site_fract_y
 _atom_site_fract_z
 _atom_site_occupancy
  C  C0  1  0.00000000  0.00000000  0.49640854  1
  C  C1  1  0.00000000  0.00000000  0.99640854  1
  C  C2  1  0.66666700  0.33333300  0.82825397  1
  C  C3  1  0.66666700  0.33333300  0.32825397  1
  C  C4  1  0.33333300  0.66666700  0.16088143  1
  C  C5  1  0.33333300  0.66666700  0.66088143  1
  C  C6  1  0.66666700  0.33333300  0.97730341  1
  C  C7  1  0.66666700  0.33333300  0.47730341  1
  C  C8  1  0.33333300  0.66666700  0.31638235  1
  C  C9  1  0.33333300  0.66666700  0.81638235  1
  C  C10  1  0.00000000  0.00000000  0.35356616  1
  C  C11  1  0.00000000  0.00000000  0.85356616  1
  C  C12  1  0.00000000  0.00000000  0.64899843  1
  C  C13  1  0.00000000  0.00000000  0.14899843  1
  C  C14  1  0.66666700  0.33333300  0.68309825  1
  C  C15  1  0.66666700  0.33333300  0.18309825  1
  C  C16  1  0.33333300  0.66666700  0.01465407  1
  C  C17  1  0.33333300  0.66666700  0.51465407  1
  Ni  Ni18  1  0.62753590  0.67368833  0.91947271  1
  Ni  Ni19  1  0.04615143  0.37246410  0.91947271  1
  Ni  Ni20  1  0.32631167  0.95384857  0.91947271  1
  Ni  Ni21  1  0.62753590  0.95384857  0.41947271  1
  Ni  Ni22  1  0.32631167  0.37246410  0.41947271  1
  Ni  Ni23  1  0.04615143  0.67368833  0.41947271  1
  Cu  Cu24  1  0.29329395  0.00342216  0.25000964  1
  Cu  Cu25  1  0.71012821  0.70670605  0.25000964  1
  Cu  Cu26  1  0.99657784  0.28987179  0.25000964  1
  Cu  Cu27  1  0.29329395  0.28987179  0.75000964  1
  Cu  Cu28  1  0.99657784  0.70670605  0.75000964  1
  Cu  Cu29  1  0.71012821  0.00342216  0.75000964  1
  Cu  Cu30  1  0.96028169  0.33395010  0.58480274  1
  Cu  Cu31  1  0.37366941  0.03971831  0.58480274  1
  Cu  Cu32  1  0.66604990  0.62633059  0.58480274  1
  Cu  Cu33  1  0.96028169  0.62633059  0.08480274  1
  Cu  Cu34  1  0.66604990  0.03971831  0.08480274  1
  Cu  Cu35  1  0.37366941  0.33395010  0.08480274  1
  C  C36  1  0.21321787  0.02538072  0.30305280  1
  C  C37  1  0.81216284  0.78678213  0.30305280  1
  C  C38  1  0.97461928  0.18783716  0.30305280  1
  C  C39  1  0.21321787  0.18783716  0.80305280  1
  C  C40  1  0.97461928  0.78678213  0.80305280  1
  C  C41  1  0.81216284  0.02538072  0.80305280  1
  C  C42  1  0.77916487  0.96608454  0.69626195  1
  C  C43  1  0.18691967  0.22083513  0.69626195  1
  C  C44  1  0.03391546  0.81308033  0.69626195  1
  C  C45  1  0.77916487  0.81308033  0.19626195  1
  C  C46  1  0.03391546  0.22083513  0.19626195  1
  C  C47  1  0.18691967  0.96608454  0.19626195  1
  C  C48  1  0.87661754  0.35751033  0.63718901  1
  C  C49  1  0.48089379  0.12338246  0.63718901  1
  C  C50  1  0.64248967  0.51910621  0.63718901  1
  C  C51  1  0.87661754  0.51910621  0.13718901  1
  C  C52  1  0.64248967  0.12338246  0.13718901  1
  C  C53  1  0.48089379  0.35751033  0.13718901  1
  C  C54  1  0.46941318  0.31397335  0.03047585  1
  C  C55  1  0.84456117  0.53058682  0.03047585  1
  C  C56  1  0.68602665  0.15543883  0.03047585  1
  C  C57  1  0.46941318  0.15543883  0.53047585  1
  C  C58  1  0.68602665  0.53058682  0.53047585  1
  C  C59  1  0.84456117  0.31397335  0.53047585  1
  C  C60  1  0.54530353  0.69628064  0.97381220  1
  C  C61  1  0.15097611  0.45469647  0.97381220  1
  C  C62  1  0.30371936  0.84902389  0.97381220  1
  C  C63  1  0.54530353  0.84902389  0.47381220  1
  C  C64  1  0.30371936  0.45469647  0.47381220  1
  C  C65  1  0.15097611  0.69628064  0.47381220  1
  C  C66  1  0.13245593  0.63581088  0.36312247  1
  C  C67  1  0.50335395  0.86754407  0.36312247  1
  C  C68  1  0.36418912  0.49664605  0.36312247  1
  C  C69  1  0.13245593  0.49664605  0.86312247  1
  C  C70  1  0.36418912  0.86754407  0.86312247  1
  C  C71  1  0.50335395  0.63581088  0.86312247  1
  C  C72  1  0.01392255  0.82424796  0.40820747  1
  C  C73  1  0.81032540  0.98607745  0.40820747  1
  C  C74  1  0.17575204  0.18967460  0.40820747  1
  C  C75  1  0.01392255  0.18967460  0.90820747  1
  C  C76  1  0.17575204  0.98607745  0.90820747  1
  C  C77  1  0.81032540  0.82424796  0.90820747  1
  C  C78  1  0.96732566  0.16847369  0.58591664  1
  C  C79  1  0.20114804  0.03267434  0.58591664  1
  C  C80  1  0.83152631  0.79885196  0.58591664  1
  C  C81  1  0.96732566  0.79885196  0.08591664  1
  C  C82  1  0.83152631  0.03267434  0.08591664  1
  C  C83  1  0.20114804  0.16847369  0.08591664  1
  C  C84  1  0.68081627  0.15543869  0.74443068  1
  C  C85  1  0.47462342  0.31918373  0.74443068  1
  C  C86  1  0.84456131  0.52537658  0.74443068  1
  C  C87  1  0.68081627  0.52537658  0.24443068  1
  C  C88  1  0.84456131  0.31918373  0.24443068  1
  C  C89  1  0.47462342  0.15543869  0.24443068  1
  C  C90  1  0.63529965  0.49505176  0.92451977  1
  C  C91  1  0.85975312  0.36470035  0.92451977  1
  C  C92  1  0.50494824  0.14024688  0.92451977  1
  C  C93  1  0.63529965  0.14024688  0.42451977  1
  C  C94  1  0.50494824  0.36470035  0.42451977  1
  C  C95  1  0.85975312  0.49505176  0.42451977  1
  C  C96  1  0.35770687  0.49210741  0.07784228  1
  C  C97  1  0.13439954  0.64229313  0.07784228  1
  C  C98  1  0.50789259  0.86560046  0.07784228  1
  C  C99  1  0.35770687  0.86560046  0.57784228  1
  C  C100  1  0.50789259  0.64229313  0.57784228  1
  C  C101  1  0.13439954  0.49210741  0.57784228  1
  C  C102  1  0.31177267  0.83600781  0.25770160  1
  C  C103  1  0.52423415  0.68822733  0.25770160  1
  C  C104  1  0.16399219  0.47576585  0.25770160  1
  C  C105  1  0.31177267  0.47576585  0.75770160  1
  C  C106  1  0.16399219  0.68822733  0.75770160  1
  C  C107  1  0.52423415  0.83600781  0.75770160  1
