# generated using pymatgen
data_Cu2NiC18
_symmetry_space_group_name_H-M   'P 1'
_cell_length_a   8.86377585
_cell_length_b   8.86377556
_cell_length_c   21.81244086
_cell_angle_alpha   90.08945103
_cell_angle_beta   89.91054898
_cell_angle_gamma   119.72280310
_symmetry_Int_Tables_number   1
_chemical_formula_structural   Cu2NiC18
_chemical_formula_sum   'Cu12 Ni6 C108'
_cell_volume   1488.25730255
_cell_formula_units_Z   6
loop_
 _symmetry_equiv_pos_site_id
 _symmetry_equiv_pos_as_xyz
  1  'x, y, z'
loop_
 _atom_site_type_symbol
 _atom_site_label
 _atom_site_symmetry_multiplicity
 _atom_site_fract_x
 _atom_site_fract_y
 _atom_site_fract_z
 _atom_site_occupancy
  C  C0  1  0.63671651  0.00156714  0.25044375  1
  C  C1  1  0.36893894  0.36870612  0.24778142  1
  C  C2  1  0.99456368  0.62851861  0.24960731  1
  C  C3  1  0.63129388  0.63106106  0.74778142  1
  C  C4  1  0.99843286  0.36328349  0.75044375  1
  C  C5  1  0.37148139  0.00543632  0.74960731  1
  C  C6  1  0.30338351  0.33490014  0.58377675  1
  C  C7  1  0.03560594  0.70203912  0.58111442  1
  C  C8  1  0.66123068  0.96185161  0.58294031  1
  C  C9  1  0.29796088  0.96439406  0.08111442  1
  C  C10  1  0.66509986  0.69661649  0.08377675  1
  C  C11  1  0.03814839  0.33876932  0.08294031  1
  C  C12  1  0.97004951  0.66823414  0.91711075  1
  C  C13  1  0.70227194  0.03537312  0.91444842  1
  C  C14  1  0.32789668  0.29518561  0.91627431  1
  C  C15  1  0.96462688  0.29772806  0.41444842  1
  C  C16  1  0.33176586  0.02995049  0.41711075  1
  C  C17  1  0.70481439  0.67210332  0.41627431  1
  C  C18  1  0.99791205  0.99550875  0.49865220  1
  C  C19  1  0.00449125  0.00208795  0.99865220  1
  C  C20  1  0.66457905  0.32884175  0.83198520  1
  C  C21  1  0.67115825  0.33542095  0.33198520  1
  C  C22  1  0.33124505  0.66217575  0.16531920  1
  C  C23  1  0.33782425  0.66875495  0.66531920  1
  C  C24  1  0.99824258  0.00045971  0.64824388  1
  C  C25  1  0.99954029  0.00175742  0.14824388  1
  C  C26  1  0.66490958  0.33379271  0.98157688  1
  C  C27  1  0.66620729  0.33509042  0.48157688  1
  C  C28  1  0.33157558  0.66712671  0.31491088  1
  C  C29  1  0.33287329  0.66842442  0.81491088  1
  Ni  Ni30  1  0.98896523  0.99219896  0.35217190  1
  Ni  Ni31  1  0.00780104  0.01103477  0.85217190  1
  Ni  Ni32  1  0.65563223  0.32553196  0.68550490  1
  Ni  Ni33  1  0.67446804  0.34436777  0.18550490  1
  Ni  Ni34  1  0.32229823  0.65886596  0.01883890  1
  Ni  Ni35  1  0.34113404  0.67770177  0.51883890  1
  Cu  Cu36  1  0.71011727  0.70661972  0.25113574  1
  Cu  Cu37  1  0.99507980  0.28779803  0.25172126  1
  Cu  Cu38  1  0.29338028  0.28988273  0.75113574  1
  Cu  Cu39  1  0.71220197  0.00492020  0.75172126  1
  Cu  Cu40  1  0.37678427  0.03995272  0.58446874  1
  Cu  Cu41  1  0.66174680  0.62113103  0.58505426  1
  Cu  Cu42  1  0.96004728  0.62321573  0.08446874  1
  Cu  Cu43  1  0.37886897  0.33825320  0.08505426  1
  Cu  Cu44  1  0.04345027  0.37328672  0.91780274  1
  Cu  Cu45  1  0.32841280  0.95446503  0.91838826  1
  Cu  Cu46  1  0.62671328  0.95654973  0.41780274  1
  Cu  Cu47  1  0.04553497  0.67158720  0.41838826  1
  C  C48  1  0.28972178  0.00341865  0.25127670  1
  C  C49  1  0.99658135  0.71027822  0.75127670  1
  C  C50  1  0.95638878  0.33675165  0.58460970  1
  C  C51  1  0.66324835  0.04361122  0.08460970  1
  C  C52  1  0.62305478  0.67008565  0.91794370  1
  C  C53  1  0.32991435  0.37694522  0.41794370  1
  C  C54  1  0.20545394  0.03552808  0.30791163  1
  C  C55  1  0.83617249  0.79591757  0.30971168  1
  C  C56  1  0.96742830  0.16441453  0.31047081  1
  C  C57  1  0.20408243  0.16382751  0.80971168  1
  C  C58  1  0.96447192  0.79454606  0.80791163  1
  C  C59  1  0.83558547  0.03257170  0.81047081  1
  C  C60  1  0.79933994  0.96426880  0.69067222  1
  C  C61  1  0.16475752  0.19996808  0.69076714  1
  C  C62  1  0.03319298  0.82763561  0.69333727  1
  C  C63  1  0.80003192  0.83524248  0.19076714  1
  C  C64  1  0.03573120  0.20066006  0.19067222  1
  C  C65  1  0.17236439  0.96680702  0.19333727  1
  C  C66  1  0.87212094  0.36886108  0.64124463  1
  C  C67  1  0.50283949  0.12925057  0.64304468  1
  C  C68  1  0.63409530  0.49774753  0.64380381  1
  C  C69  1  0.87074943  0.49716051  0.14304468  1
  C  C70  1  0.63113892  0.12787906  0.14124463  1
  C  C71  1  0.50225247  0.36590470  0.14380381  1
  C  C72  1  0.46600694  0.29760180  0.02400522  1
  C  C73  1  0.83142452  0.53330108  0.02410014  1
  C  C74  1  0.69985998  0.16096861  0.02667027  1
  C  C75  1  0.46669892  0.16857548  0.52410014  1
  C  C76  1  0.70239820  0.53399306  0.52400522  1
  C  C77  1  0.83903139  0.30014002  0.52667027  1
  C  C78  1  0.53878694  0.70219508  0.97457863  1
  C  C79  1  0.16950549  0.46258457  0.97637868  1
  C  C80  1  0.30076130  0.83108153  0.97713781  1
  C  C81  1  0.53741543  0.83049451  0.47637868  1
  C  C82  1  0.29780492  0.46121306  0.47457863  1
  C  C83  1  0.16891847  0.69923870  0.47713781  1
  C  C84  1  0.13267294  0.63093580  0.35733922  1
  C  C85  1  0.49809052  0.86663508  0.35743414  1
  C  C86  1  0.36652598  0.49430261  0.36000427  1
  C  C87  1  0.13336492  0.50190948  0.85743414  1
  C  C88  1  0.36906420  0.86732706  0.85733922  1
  C  C89  1  0.50569739  0.63347402  0.86000427  1
  C  C90  1  0.03011403  0.84694167  0.40958712  1
  C  C91  1  0.82068059  0.97938270  0.41055425  1
  C  C92  1  0.17006175  0.19396737  0.41023361  1
  C  C93  1  0.02061730  0.17931941  0.91055425  1
  C  C94  1  0.15305833  0.96988597  0.90958712  1
  C  C95  1  0.80603263  0.82993825  0.91023361  1
  C  C96  1  0.97294386  0.16943807  0.58826465  1
  C  C97  1  0.18341239  0.02408613  0.58884985  1
  C  C98  1  0.83774366  0.81521499  0.58860560  1
  C  C99  1  0.97591387  0.81658761  0.08884985  1
  C  C100  1  0.83056193  0.02705614  0.08826465  1
  C  C101  1  0.18478501  0.16225634  0.08860560  1
  C  C102  1  0.69678103  0.18027467  0.74292012  1
  C  C103  1  0.48734759  0.31271570  0.74388725  1
  C  C104  1  0.83672875  0.52730037  0.74356661  1
  C  C105  1  0.68728430  0.51265241  0.24388725  1
  C  C106  1  0.81972533  0.30321897  0.24292012  1
  C  C107  1  0.47269963  0.16327125  0.24356661  1
  C  C108  1  0.63961086  0.50277107  0.92159765  1
  C  C109  1  0.85007939  0.35741913  0.92218285  1
  C  C110  1  0.50441066  0.14854799  0.92193860  1
  C  C111  1  0.64258087  0.14992061  0.42218285  1
  C  C112  1  0.49722893  0.36038914  0.42159765  1
  C  C113  1  0.85145201  0.49558934  0.42193860  1
  C  C114  1  0.36344703  0.51360867  0.07625412  1
  C  C115  1  0.15401359  0.64604970  0.07722125  1
  C  C116  1  0.50339475  0.86063437  0.07690061  1
  C  C117  1  0.35395030  0.84598641  0.57722125  1
  C  C118  1  0.48639133  0.63655297  0.57625412  1
  C  C119  1  0.13936563  0.49660525  0.57690061  1
  C  C120  1  0.30627686  0.83610507  0.25493165  1
  C  C121  1  0.51674539  0.69075313  0.25551685  1
  C  C122  1  0.17107666  0.48188199  0.25527260  1
  C  C123  1  0.30924687  0.48325461  0.75551685  1
  C  C124  1  0.16389493  0.69372314  0.75493165  1
  C  C125  1  0.51811801  0.82892334  0.75527260  1
