# generated using pymatgen
data_Cu6NiC9
_symmetry_space_group_name_H-M   'P 1'
_cell_length_a   11.32240000
_cell_length_b   11.32240000
_cell_length_c   11.32240000
_cell_angle_alpha   90.00000000
_cell_angle_beta   90.00000000
_cell_angle_gamma   90.00000000
_symmetry_Int_Tables_number   1
_chemical_formula_structural   Cu6NiC9
_chemical_formula_sum   'Cu24 Ni4 C36'
_cell_volume   1451.49478890
_cell_formula_units_Z   4
loop_
 _symmetry_equiv_pos_site_id
 _symmetry_equiv_pos_as_xyz
  1  'x, y, z'
loop_
 _atom_site_type_symbol
 _atom_site_label
 _atom_site_symmetry_multiplicity
 _atom_site_fract_x
 _atom_site_fract_y
 _atom_site_fract_z
 _atom_site_occupancy
  Ni  Ni0  1  0.50843500  0.50843500  0.50843500  1
  Ni  Ni1  1  0.99156500  0.49156500  0.00843500  1
  Ni  Ni2  1  0.00843500  0.99156500  0.49156500  1
  Ni  Ni3  1  0.49156500  0.00843500  0.99156500  1
  C  C4  1  0.82463600  0.07003600  0.13449400  1
  C  C5  1  0.13449400  0.82463600  0.07003600  1
  C  C6  1  0.07003600  0.13449400  0.82463600  1
  C  C7  1  0.42996400  0.86550600  0.32463600  1
  C  C8  1  0.63449400  0.67536400  0.92996400  1
  C  C9  1  0.92996400  0.63449400  0.67536400  1
  C  C10  1  0.36550600  0.17536400  0.57003600  1
  C  C11  1  0.86550600  0.32463600  0.42996400  1
  C  C12  1  0.57003600  0.36550600  0.17536400  1
  C  C13  1  0.32463600  0.42996400  0.86550600  1
  C  C14  1  0.17536400  0.57003600  0.36550600  1
  C  C15  1  0.67536400  0.92996400  0.63449400  1
  C  C16  1  0.22695800  0.23234900  0.03031600  1
  C  C17  1  0.03031600  0.22695800  0.23234900  1
  C  C18  1  0.23234900  0.03031600  0.22695800  1
  C  C19  1  0.26765100  0.96968400  0.72695800  1
  C  C20  1  0.53031600  0.27304200  0.76765100  1
  C  C21  1  0.76765100  0.53031600  0.27304200  1
  C  C22  1  0.46968400  0.77304200  0.73234900  1
  C  C23  1  0.96968400  0.72695800  0.26765100  1
  C  C24  1  0.73234900  0.46968400  0.77304200  1
  C  C25  1  0.72695800  0.26765100  0.96968400  1
  C  C26  1  0.77304200  0.73234900  0.46968400  1
  C  C27  1  0.27304200  0.76765100  0.53031600  1
  C  C28  1  0.82977100  0.03771000  0.86281100  1
  C  C29  1  0.86281100  0.82977100  0.03771000  1
  C  C30  1  0.03771000  0.86281100  0.82977100  1
  C  C31  1  0.46229000  0.13718900  0.32977100  1
  C  C32  1  0.36281100  0.67022900  0.96229000  1
  C  C33  1  0.96229000  0.36281100  0.67022900  1
  C  C34  1  0.63718900  0.17022900  0.53771000  1
  C  C35  1  0.13718900  0.32977100  0.46229000  1
  C  C36  1  0.53771000  0.63718900  0.17022900  1
  C  C37  1  0.32977100  0.46229000  0.13718900  1
  C  C38  1  0.17022900  0.53771000  0.63718900  1
  C  C39  1  0.67022900  0.96229000  0.36281100  1
  Cu  Cu40  1  0.02154300  0.02154300  0.02154300  1
  Cu  Cu41  1  0.47845700  0.97845700  0.52154300  1
  Cu  Cu42  1  0.52154300  0.47845700  0.97845700  1
  Cu  Cu43  1  0.97845700  0.52154300  0.47845700  1
  Cu  Cu44  1  0.63101100  0.63101100  0.63101100  1
  Cu  Cu45  1  0.86898900  0.36898900  0.13101100  1
  Cu  Cu46  1  0.13101100  0.86898900  0.36898900  1
  Cu  Cu47  1  0.36898900  0.13101100  0.86898900  1
  Cu  Cu48  1  0.26217700  0.26217700  0.26217700  1
  Cu  Cu49  1  0.23782300  0.73782300  0.76217700  1
  Cu  Cu50  1  0.76217700  0.23782300  0.73782300  1
  Cu  Cu51  1  0.73782300  0.76217700  0.23782300  1
  Cu  Cu52  1  0.39892000  0.62694000  0.36630500  1
  Cu  Cu53  1  0.36630500  0.39892000  0.62694000  1
  Cu  Cu54  1  0.62694000  0.36630500  0.39892000  1
  Cu  Cu55  1  0.87306000  0.63369500  0.89892000  1
  Cu  Cu56  1  0.86630500  0.10108000  0.37306000  1
  Cu  Cu57  1  0.37306000  0.86630500  0.10108000  1
  Cu  Cu58  1  0.13369500  0.60108000  0.12694000  1
  Cu  Cu59  1  0.63369500  0.89892000  0.87306000  1
  Cu  Cu60  1  0.12694000  0.13369500  0.60108000  1
  Cu  Cu61  1  0.89892000  0.87306000  0.63369500  1
  Cu  Cu62  1  0.60108000  0.12694000  0.13369500  1
  Cu  Cu63  1  0.10108000  0.37306000  0.86630500  1
