# generated using pymatgen
data_Cu(Ni3C2)2
_symmetry_space_group_name_H-M   'P 1'
_cell_length_a   6.16266500
_cell_length_b   6.87797300
_cell_length_c   6.90740400
_cell_angle_alpha   90.00000000
_cell_angle_beta   90.00000000
_cell_angle_gamma   90.00000000
_symmetry_Int_Tables_number   1
_chemical_formula_structural   Cu(Ni3C2)2
_chemical_formula_sum   'Cu2 Ni12 C8'
_cell_volume   292.78167071
_cell_formula_units_Z   2
loop_
 _symmetry_equiv_pos_site_id
 _symmetry_equiv_pos_as_xyz
  1  'x, y, z'
loop_
 _atom_site_type_symbol
 _atom_site_label
 _atom_site_symmetry_multiplicity
 _atom_site_fract_x
 _atom_site_fract_y
 _atom_site_fract_z
 _atom_site_occupancy
  C  C0  1  0.00000000  0.18617800  0.50000000  1
  C  C1  1  0.50000000  0.31382200  0.00000000  1
  C  C2  1  0.00000000  0.81382200  0.50000000  1
  C  C3  1  0.50000000  0.68617800  0.00000000  1
  C  C4  1  0.29417100  0.50000000  0.36027400  1
  C  C5  1  0.79417100  0.00000000  0.13972600  1
  C  C6  1  0.70582900  0.50000000  0.63972600  1
  C  C7  1  0.20582900  0.00000000  0.86027400  1
  Ni  Ni8  1  0.17581600  0.29867200  0.38017000  1
  Ni  Ni9  1  0.67581600  0.20132800  0.11983000  1
  Ni  Ni10  1  0.82418400  0.29867200  0.61983000  1
  Ni  Ni11  1  0.32418400  0.20132800  0.88017000  1
  Ni  Ni12  1  0.82418400  0.70132800  0.61983000  1
  Ni  Ni13  1  0.32418400  0.79867200  0.88017000  1
  Ni  Ni14  1  0.17581600  0.70132800  0.38017000  1
  Ni  Ni15  1  0.67581600  0.79867200  0.11983000  1
  Ni  Ni16  1  0.39821900  0.50000000  0.13722300  1
  Ni  Ni17  1  0.89821900  0.00000000  0.36277700  1
  Ni  Ni18  1  0.10178100  0.00000000  0.63722300  1
  Ni  Ni19  1  0.60178100  0.50000000  0.86277700  1
  Cu  Cu20  1  0.50000000  0.50000000  0.50000000  1
  Cu  Cu21  1  0.00000000  0.00000000  0.00000000  1
