# generated using pymatgen
data_Cu24Ni6C5
_symmetry_space_group_name_H-M   'P 1'
_cell_length_a   9.07417731
_cell_length_b   9.07417700
_cell_length_c   24.03405107
_cell_angle_alpha   90.00000000
_cell_angle_beta   90.00000000
_cell_angle_gamma   120.00000111
_symmetry_Int_Tables_number   1
_chemical_formula_structural   Cu24Ni6C5
_chemical_formula_sum   'Cu72 Ni18 C15'
_cell_volume   1713.84725741
_cell_formula_units_Z   3
loop_
 _symmetry_equiv_pos_site_id
 _symmetry_equiv_pos_as_xyz
  1  'x, y, z'
loop_
 _atom_site_type_symbol
 _atom_site_label
 _atom_site_symmetry_multiplicity
 _atom_site_fract_x
 _atom_site_fract_y
 _atom_site_fract_z
 _atom_site_occupancy
  C  C0  1  -0.00000000  -0.00000000  0.99151988  1
  C  C1  1  0.66666700  0.33333300  0.84191976  1
  C  C2  1  0.66666700  0.33333300  0.33328374  1
  C  C3  1  -0.00000000  -0.00000000  0.64757043  1
  C  C4  1  -0.00000000  -0.00000000  0.14750116  1
  C  C5  1  0.66666700  0.33333300  0.68761463  1
  C  C6  1  0.66666700  0.33333300  0.18499953  1
  C  C7  1  0.66666700  0.33333300  0.47993923  1
  C  C8  1  0.33333300  0.66666700  0.01724441  1
  C  C9  1  0.33333300  0.66666700  0.51655252  1
  C  C10  1  0.33333300  0.66666700  0.31204526  1
  C  C11  1  0.33333300  0.66666700  0.81589364  1
  C  C12  1  -0.00000000  -0.00000000  0.35335479  1
  C  C13  1  -0.00000000  -0.00000000  0.84950899  1
  C  C14  1  0.66666700  0.33333300  0.98336045  1
  Ni  Ni15  1  0.28868181  0.00590061  0.25372261  1
  Ni  Ni16  1  0.71721880  0.71131819  0.25372261  1
  Ni  Ni17  1  0.99409939  0.28278120  0.25372261  1
  Ni  Ni18  1  0.28799020  0.28446678  0.75387201  1
  Ni  Ni19  1  0.99647659  0.71200980  0.75387201  1
  Ni  Ni20  1  0.71553322  0.00352341  0.75387201  1
  Ni  Ni21  1  0.95955144  0.33468936  0.58328119  1
  Ni  Ni22  1  0.37513891  0.04044856  0.58328119  1
  Ni  Ni23  1  0.66531064  0.62486109  0.58328119  1
  Ni  Ni24  1  0.95157324  0.62226142  0.07944527  1
  Ni  Ni25  1  0.67068918  0.04842676  0.07944527  1
  Ni  Ni26  1  0.37773858  0.32931082  0.07944527  1
  Ni  Ni27  1  0.63888863  0.66667303  0.91666474  1
  Ni  Ni28  1  0.02778340  0.36111137  0.91666474  1
  Ni  Ni29  1  0.33332697  0.97221660  0.91666474  1
  Ni  Ni30  1  0.63669029  0.96189452  0.41376308  1
  Ni  Ni31  1  0.32520323  0.36330971  0.41376308  1
  Ni  Ni32  1  0.03810548  0.67479677  0.41376308  1
  Cu  Cu33  1  0.20659289  0.02971447  0.30260034  1
  Cu  Cu34  1  0.82312158  0.79340711  0.30260034  1
  Cu  Cu35  1  0.97028553  0.17687842  0.30260034  1
  Cu  Cu36  1  0.20629032  0.17736949  0.80297805  1
  Cu  Cu37  1  0.97107917  0.79370968  0.80297805  1
  Cu  Cu38  1  0.82263051  0.02892083  0.80297805  1
  Cu  Cu39  1  0.79204218  0.98329290  0.70204350  1
  Cu  Cu40  1  0.19125072  0.20795782  0.70204350  1
  Cu  Cu41  1  0.01670710  0.80874928  0.70204350  1
  Cu  Cu42  1  0.79371988  0.80794678  0.20152192  1
  Cu  Cu43  1  0.01422691  0.20628012  0.20152192  1
  Cu  Cu44  1  0.19205322  0.98577309  0.20152192  1
  Cu  Cu45  1  0.87867179  0.36037396  0.63322996  1
  Cu  Cu46  1  0.48170318  0.12132821  0.63322996  1
  Cu  Cu47  1  0.63962604  0.51829682  0.63322996  1
  Cu  Cu48  1  0.87480896  0.52470618  0.13148379  1
  Cu  Cu49  1  0.64989822  0.12519104  0.13148379  1
  Cu  Cu50  1  0.47529382  0.35010178  0.13148379  1
  Cu  Cu51  1  0.46001429  0.30413465  0.03052084  1
  Cu  Cu52  1  0.84412136  0.53998571  0.03052084  1
  Cu  Cu53  1  0.69586535  0.15587864  0.03052084  1
  Cu  Cu54  1  0.45598010  0.14781703  0.53359971  1
  Cu  Cu55  1  0.69183793  0.54401990  0.53359971  1
  Cu  Cu56  1  0.85218297  0.30816207  0.53359971  1
  Cu  Cu57  1  0.55403949  0.68959630  0.96651556  1
  Cu  Cu58  1  0.13555581  0.44596051  0.96651556  1
  Cu  Cu59  1  0.31040370  0.86444419  0.96651556  1
  Cu  Cu60  1  0.55386510  0.86097178  0.46476868  1
  Cu  Cu61  1  0.30710568  0.44613490  0.46476868  1
  Cu  Cu62  1  0.13902822  0.69289432  0.46476868  1
  Cu  Cu63  1  0.12016586  0.64315758  0.36532191  1
  Cu  Cu64  1  0.52299072  0.87983414  0.36532191  1
  Cu  Cu65  1  0.35684242  0.47700928  0.36532191  1
  Cu  Cu66  1  0.11259025  0.46899506  0.86686951  1
  Cu  Cu67  1  0.35640381  0.88740975  0.86686951  1
  Cu  Cu68  1  0.53100494  0.64359619  0.86686951  1
  Cu  Cu69  1  0.02218252  0.82584886  0.40611773  1
  Cu  Cu70  1  0.80366634  0.97781748  0.40611773  1
  Cu  Cu71  1  0.17415114  0.19633366  0.40611773  1
  Cu  Cu72  1  0.01345448  0.19127322  0.91072297  1
  Cu  Cu73  1  0.17781873  0.98654552  0.91072297  1
  Cu  Cu74  1  0.80872678  0.82218127  0.91072297  1
  Cu  Cu75  1  0.97656415  0.18292222  0.59091204  1
  Cu  Cu76  1  0.20635807  0.02343585  0.59091204  1
  Cu  Cu77  1  0.81707778  0.79364193  0.59091204  1
  Cu  Cu78  1  0.97162277  0.79567032  0.08555892  1
  Cu  Cu79  1  0.82404755  0.02837723  0.08555892  1
  Cu  Cu80  1  0.20432968  0.17595245  0.08555892  1
  Cu  Cu81  1  0.69547699  0.15722091  0.74811841  1
  Cu  Cu82  1  0.46174493  0.30452301  0.74811841  1
  Cu  Cu83  1  0.84277909  0.53825507  0.74811841  1
  Cu  Cu84  1  0.69590087  0.53678106  0.24786161  1
  Cu  Cu85  1  0.84088119  0.30409913  0.24786161  1
  Cu  Cu86  1  0.46321894  0.15911881  0.24786161  1
  Cu  Cu87  1  0.65312850  0.51104058  0.92264349  1
  Cu  Cu88  1  0.85791308  0.34687150  0.92264349  1
  Cu  Cu89  1  0.48895942  0.14208692  0.92264349  1
  Cu  Cu90  1  0.65302194  0.13449708  0.41966478  1
  Cu  Cu91  1  0.48147614  0.34697806  0.41966478  1
  Cu  Cu92  1  0.86550292  0.51852386  0.41966478  1
  Cu  Cu93  1  0.35909766  0.48126940  0.07314327  1
  Cu  Cu94  1  0.12217074  0.64090234  0.07314327  1
  Cu  Cu95  1  0.51873060  0.87782926  0.07314327  1
  Cu  Cu96  1  0.35825406  0.87170727  0.57524106  1
  Cu  Cu97  1  0.51345221  0.64174594  0.57524106  1
  Cu  Cu98  1  0.12829273  0.48654779  0.57524106  1
  Cu  Cu99  1  0.30784061  0.85395861  0.25907840  1
  Cu  Cu100  1  0.54611699  0.69215939  0.25907840  1
  Cu  Cu101  1  0.14604139  0.45388301  0.25907840  1
  Cu  Cu102  1  0.30711552  0.45532309  0.76018719  1
  Cu  Cu103  1  0.14820657  0.69288448  0.76018719  1
  Cu  Cu104  1  0.54467691  0.85179343  0.76018719  1
