# generated using pymatgen
data_Cu8(NiC4)3
_symmetry_space_group_name_H-M   'P 1'
_cell_length_a   9.34676300
_cell_length_b   14.84485300
_cell_length_c   14.98446900
_cell_angle_alpha   90.00000000
_cell_angle_beta   90.00000000
_cell_angle_gamma   90.00000000
_symmetry_Int_Tables_number   1
_chemical_formula_structural   Cu8(NiC4)3
_chemical_formula_sum   'Cu64 Ni24 C96'
_cell_volume   2079.11489462
_cell_formula_units_Z   8
loop_
 _symmetry_equiv_pos_site_id
 _symmetry_equiv_pos_as_xyz
  1  'x, y, z'
loop_
 _atom_site_type_symbol
 _atom_site_label
 _atom_site_symmetry_multiplicity
 _atom_site_fract_x
 _atom_site_fract_y
 _atom_site_fract_z
 _atom_site_occupancy
  C  C0  1  0.07446300  0.16387600  0.42665900  1
  C  C1  1  0.57446300  0.33612400  0.57334100  1
  C  C2  1  0.92553700  0.66387600  0.07334100  1
  C  C3  1  0.42553700  0.83612400  0.92665900  1
  C  C4  1  0.92553700  0.83612400  0.57334100  1
  C  C5  1  0.42553700  0.66387600  0.42665900  1
  C  C6  1  0.07446300  0.33612400  0.92665900  1
  C  C7  1  0.57446300  0.16387600  0.07334100  1
  C  C8  1  0.44841200  0.16162900  0.45217400  1
  C  C9  1  0.94841200  0.33837100  0.54782600  1
  C  C10  1  0.55158800  0.66162900  0.04782600  1
  C  C11  1  0.05158800  0.83837100  0.95217400  1
  C  C12  1  0.55158800  0.83837100  0.54782600  1
  C  C13  1  0.05158800  0.66162900  0.45217400  1
  C  C14  1  0.44841200  0.33837100  0.95217400  1
  C  C15  1  0.94841200  0.16162900  0.04782600  1
  Ni  Ni16  1  0.23986900  0.22469100  0.61689700  1
  Ni  Ni17  1  0.73986900  0.27530900  0.38310300  1
  Ni  Ni18  1  0.76013100  0.72469100  0.88310300  1
  Ni  Ni19  1  0.26013100  0.77530900  0.11689700  1
  Ni  Ni20  1  0.76013100  0.77530900  0.38310300  1
  Ni  Ni21  1  0.26013100  0.72469100  0.61689700  1
  Ni  Ni22  1  0.23986900  0.27530900  0.11689700  1
  Ni  Ni23  1  0.73986900  0.22469100  0.88310300  1
  Ni  Ni24  1  0.46596400  0.03163400  0.26155000  1
  Ni  Ni25  1  0.96596400  0.46836600  0.73845000  1
  Ni  Ni26  1  0.53403600  0.53163400  0.23845000  1
  Ni  Ni27  1  0.03403600  0.96836600  0.76155000  1
  Ni  Ni28  1  0.53403600  0.96836600  0.73845000  1
  Ni  Ni29  1  0.03403600  0.53163400  0.26155000  1
  Ni  Ni30  1  0.46596400  0.46836600  0.76155000  1
  Ni  Ni31  1  0.96596400  0.03163400  0.23845000  1
  Ni  Ni32  1  0.27784200  0.96765000  0.48338000  1
  Ni  Ni33  1  0.77784200  0.53235000  0.51662000  1
  Ni  Ni34  1  0.72215800  0.46765000  0.01662000  1
  Ni  Ni35  1  0.22215800  0.03235000  0.98338000  1
  Ni  Ni36  1  0.72215800  0.03235000  0.51662000  1
  Ni  Ni37  1  0.22215800  0.46765000  0.48338000  1
  Ni  Ni38  1  0.27784200  0.53235000  0.98338000  1
  Ni  Ni39  1  0.77784200  0.96765000  0.01662000  1
  Cu  Cu40  1  0.23584500  0.13951600  0.65787700  1
  Cu  Cu41  1  0.73584500  0.36048400  0.34212300  1
  Cu  Cu42  1  0.76415500  0.63951600  0.84212300  1
  Cu  Cu43  1  0.26415500  0.86048400  0.15787700  1
  Cu  Cu44  1  0.76415500  0.86048400  0.34212300  1
  Cu  Cu45  1  0.26415500  0.63951600  0.65787700  1
  Cu  Cu46  1  0.23584500  0.36048400  0.15787700  1
  Cu  Cu47  1  0.73584500  0.13951600  0.84212300  1
  Cu  Cu48  1  0.31540900  0.03628600  0.26221900  1
  Cu  Cu49  1  0.81540900  0.46371400  0.73778100  1
  Cu  Cu50  1  0.68459100  0.53628600  0.23778100  1
  Cu  Cu51  1  0.18459100  0.96371400  0.76221900  1
  Cu  Cu52  1  0.68459100  0.96371400  0.73778100  1
  Cu  Cu53  1  0.18459100  0.53628600  0.26221900  1
  Cu  Cu54  1  0.31540900  0.46371400  0.76221900  1
  Cu  Cu55  1  0.81540900  0.03628600  0.23778100  1
  Cu  Cu56  1  0.23888000  0.95184700  0.57266300  1
  Cu  Cu57  1  0.73888000  0.54815300  0.42733700  1
  Cu  Cu58  1  0.76112000  0.45184700  0.92733700  1
  Cu  Cu59  1  0.26112000  0.04815300  0.07266300  1
  Cu  Cu60  1  0.76112000  0.04815300  0.42733700  1
  Cu  Cu61  1  0.26112000  0.45184700  0.57266300  1
  Cu  Cu62  1  0.23888000  0.54815300  0.07266300  1
  Cu  Cu63  1  0.73888000  0.95184700  0.92733700  1
  Cu  Cu64  1  0.29384700  0.23468000  0.31138400  1
  Cu  Cu65  1  0.79384700  0.26532000  0.68861600  1
  Cu  Cu66  1  0.70615300  0.73468000  0.18861600  1
  Cu  Cu67  1  0.20615300  0.76532000  0.81138400  1
  Cu  Cu68  1  0.70615300  0.76532000  0.68861600  1
  Cu  Cu69  1  0.20615300  0.73468000  0.31138400  1
  Cu  Cu70  1  0.29384700  0.26532000  0.81138400  1
  Cu  Cu71  1  0.79384700  0.23468000  0.18861600  1
  Cu  Cu72  1  0.31325800  0.30660400  0.38978200  1
  Cu  Cu73  1  0.81325800  0.19339600  0.61021800  1
  Cu  Cu74  1  0.68674200  0.80660400  0.11021800  1
  Cu  Cu75  1  0.18674200  0.69339600  0.88978200  1
  Cu  Cu76  1  0.68674200  0.69339600  0.61021800  1
  Cu  Cu77  1  0.18674200  0.80660400  0.38978200  1
  Cu  Cu78  1  0.31325800  0.19339600  0.88978200  1
  Cu  Cu79  1  0.81325800  0.30660400  0.11021800  1
  Cu  Cu80  1  0.15179500  0.33582900  0.69591100  1
  Cu  Cu81  1  0.65179500  0.16417100  0.30408900  1
  Cu  Cu82  1  0.84820500  0.83582900  0.80408900  1
  Cu  Cu83  1  0.34820500  0.66417100  0.19591100  1
  Cu  Cu84  1  0.84820500  0.66417100  0.30408900  1
  Cu  Cu85  1  0.34820500  0.83582900  0.69591100  1
  Cu  Cu86  1  0.15179500  0.16417100  0.19591100  1
  Cu  Cu87  1  0.65179500  0.33582900  0.80408900  1
  Cu  Cu88  1  0.47361000  0.92349600  0.36193500  1
  Cu  Cu89  1  0.97361000  0.57650400  0.63806500  1
  Cu  Cu90  1  0.52639000  0.42349600  0.13806500  1
  Cu  Cu91  1  0.02639000  0.07650400  0.86193500  1
  Cu  Cu92  1  0.52639000  0.07650400  0.63806500  1
  Cu  Cu93  1  0.02639000  0.42349600  0.36193500  1
  Cu  Cu94  1  0.47361000  0.57650400  0.86193500  1
  Cu  Cu95  1  0.97361000  0.92349600  0.13806500  1
  Cu  Cu96  1  0.09533000  0.96758600  0.38623200  1
  Cu  Cu97  1  0.59533000  0.53241400  0.61376800  1
  Cu  Cu98  1  0.90467000  0.46758600  0.11376800  1
  Cu  Cu99  1  0.40467000  0.03241400  0.88623200  1
  Cu  Cu100  1  0.90467000  0.03241400  0.61376800  1
  Cu  Cu101  1  0.40467000  0.46758600  0.38623200  1
  Cu  Cu102  1  0.09533000  0.53241400  0.88623200  1
  Cu  Cu103  1  0.59533000  0.96758600  0.11376800  1
  C  C104  1  0.38131500  0.23451100  0.56753300  1
  C  C105  1  0.88131500  0.26548900  0.43246700  1
  C  C106  1  0.61868500  0.73451100  0.93246700  1
  C  C107  1  0.11868500  0.76548900  0.06753300  1
  C  C108  1  0.61868500  0.76548900  0.43246700  1
  C  C109  1  0.11868500  0.73451100  0.56753300  1
  C  C110  1  0.38131500  0.26548900  0.06753300  1
  C  C111  1  0.88131500  0.23451100  0.93246700  1
  C  C112  1  0.52098800  0.10562600  0.32455800  1
  C  C113  1  0.02098800  0.39437400  0.67544200  1
  C  C114  1  0.47901200  0.60562600  0.17544200  1
  C  C115  1  0.97901200  0.89437400  0.82455800  1
  C  C116  1  0.47901200  0.89437400  0.67544200  1
  C  C117  1  0.97901200  0.60562600  0.32455800  1
  C  C118  1  0.52098800  0.39437400  0.82455800  1
  C  C119  1  0.02098800  0.10562600  0.17544200  1
  C  C120  1  0.58430800  0.08435700  0.53548400  1
  C  C121  1  0.08430800  0.41564300  0.46451600  1
  C  C122  1  0.41569200  0.58435700  0.96451600  1
  C  C123  1  0.91569200  0.91564300  0.03548400  1
  C  C124  1  0.41569200  0.91564300  0.46451600  1
  C  C125  1  0.91569200  0.58435700  0.53548400  1
  C  C126  1  0.58430800  0.41564300  0.03548400  1
  C  C127  1  0.08430800  0.08435700  0.96451600  1
  C  C128  1  0.28030700  0.06855900  0.46508400  1
  C  C129  1  0.78030700  0.43144100  0.53491600  1
  C  C130  1  0.71969300  0.56855900  0.03491600  1
  C  C131  1  0.21969300  0.93144100  0.96508400  1
  C  C132  1  0.71969300  0.93144100  0.53491600  1
  C  C133  1  0.21969300  0.56855900  0.46508400  1
  C  C134  1  0.28030700  0.43144100  0.96508400  1
  C  C135  1  0.78030700  0.06855900  0.03491600  1
  C  C136  1  0.60352600  0.26227500  0.43700400  1
  C  C137  1  0.10352600  0.23772500  0.56299600  1
  C  C138  1  0.39647400  0.76227400  0.06299600  1
  C  C139  1  0.89647400  0.73772600  0.93700400  1
  C  C140  1  0.39647400  0.73772600  0.56299600  1
  C  C141  1  0.89647400  0.76227400  0.43700400  1
  C  C142  1  0.60352600  0.23772500  0.93700400  1
  C  C143  1  0.10352600  0.26227500  0.06299600  1
  C  C144  1  0.29397900  0.24229400  0.37705500  1
  C  C145  1  0.79397900  0.25770600  0.62294500  1
  C  C146  1  0.70602100  0.74229400  0.12294500  1
  C  C147  1  0.20602100  0.75770600  0.87705500  1
  C  C148  1  0.70602100  0.75770600  0.62294500  1
  C  C149  1  0.20602100  0.74229400  0.37705500  1
  C  C150  1  0.29397900  0.25770600  0.87705500  1
  C  C151  1  0.79397900  0.24229400  0.12294500  1
  C  C152  1  0.23933700  0.29333700  0.69961600  1
  C  C153  1  0.73933700  0.20666300  0.30038400  1
  C  C154  1  0.76066300  0.79333700  0.80038400  1
  C  C155  1  0.26066300  0.70666300  0.19961600  1
  C  C156  1  0.76066300  0.70666300  0.30038400  1
  C  C157  1  0.26066300  0.79333700  0.69961600  1
  C  C158  1  0.23933700  0.20666300  0.19961600  1
  C  C159  1  0.73933700  0.29333700  0.80038400  1
  C  C160  1  0.50346200  0.93397600  0.29748600  1
  C  C161  1  0.00346200  0.56602400  0.70251400  1
  C  C162  1  0.49653800  0.43397600  0.20251400  1
  C  C163  1  0.99653800  0.06602400  0.79748600  1
  C  C164  1  0.49653800  0.06602400  0.70251400  1
  C  C165  1  0.99653800  0.43397600  0.29748600  1
  C  C166  1  0.50346200  0.56602400  0.79748600  1
  C  C167  1  0.00346200  0.93397600  0.20251400  1
  C  C168  1  0.52015700  0.03884600  0.16625800  1
  C  C169  1  0.02015700  0.46115400  0.83374200  1
  C  C170  1  0.47984300  0.53884600  0.33374200  1
  C  C171  1  0.97984300  0.96115400  0.66625800  1
  C  C172  1  0.47984300  0.96115400  0.83374200  1
  C  C173  1  0.97984300  0.53884600  0.16625800  1
  C  C174  1  0.52015700  0.46115400  0.66625800  1
  C  C175  1  0.02015700  0.03884600  0.33374200  1
  C  C176  1  0.15133400  0.92279800  0.42718600  1
  C  C177  1  0.65133400  0.57720200  0.57281400  1
  C  C178  1  0.84866600  0.42279800  0.07281400  1
  C  C179  1  0.34866600  0.07720200  0.92718600  1
  C  C180  1  0.84866600  0.07720200  0.57281400  1
  C  C181  1  0.34866600  0.42279800  0.42718600  1
  C  C182  1  0.15133400  0.57720200  0.92718600  1
  C  C183  1  0.65133400  0.92279800  0.07281400  1
