# generated using pymatgen
data_Cu9Ni2C9
_symmetry_space_group_name_H-M   'P 1'
_cell_length_a   6.17104500
_cell_length_b   9.87132000
_cell_length_c   16.64372844
_cell_angle_alpha   55.95687411
_cell_angle_beta   90.00000000
_cell_angle_gamma   90.00000000
_symmetry_Int_Tables_number   1
_chemical_formula_structural   Cu9Ni2C9
_chemical_formula_sum   'Cu36 Ni8 C36'
_cell_volume   840.11378445
_cell_formula_units_Z   4
loop_
 _symmetry_equiv_pos_site_id
 _symmetry_equiv_pos_as_xyz
  1  'x, y, z'
loop_
 _atom_site_type_symbol
 _atom_site_label
 _atom_site_symmetry_multiplicity
 _atom_site_fract_x
 _atom_site_fract_y
 _atom_site_fract_z
 _atom_site_occupancy
  C  C0  1  0.23878800  0.96314600  0.69832500  1
  C  C1  1  0.73878800  0.03685400  0.80167500  1
  C  C2  1  0.76121200  0.03685400  0.30167500  1
  C  C3  1  0.26121200  0.96314600  0.19832500  1
  C  C4  1  0.51881700  0.29700700  0.09772400  1
  C  C5  1  0.01881700  0.70299300  0.40227600  1
  C  C6  1  0.48118300  0.70299300  0.90227600  1
  C  C7  1  0.98118300  0.29700700  0.59772400  1
  C  C8  1  0.50842200  0.69846000  0.67882300  1
  C  C9  1  0.00842200  0.30154000  0.82117700  1
  C  C10  1  0.49157800  0.30154000  0.32117700  1
  C  C11  1  0.99157800  0.69846000  0.17882300  1
  C  C12  1  0.45272800  0.27982100  0.60877300  1
  C  C13  1  0.95272800  0.72017900  0.89122700  1
  C  C14  1  0.54727200  0.72017900  0.39122700  1
  C  C15  1  0.04727200  0.27982100  0.10877300  1
  C  C16  1  0.39334200  0.29484000  0.51219300  1
  C  C17  1  0.89334200  0.70516000  0.98780700  1
  C  C18  1  0.60665800  0.70516000  0.48780700  1
  C  C19  1  0.10665800  0.29484000  0.01219300  1
  C  C20  1  0.52375300  0.42790000  0.88577800  1
  C  C21  1  0.02375300  0.57210000  0.61422200  1
  C  C22  1  0.47624700  0.57210000  0.11422200  1
  C  C23  1  0.97624700  0.42790000  0.38577800  1
  C  C24  1  0.75945900  0.44484800  0.91225600  1
  C  C25  1  0.25945900  0.55515200  0.58774400  1
  C  C26  1  0.24054100  0.55515200  0.08774400  1
  C  C27  1  0.74054100  0.44484800  0.41225600  1
  C  C28  1  0.07215000  0.85911300  0.59027300  1
  C  C29  1  0.57215000  0.14088700  0.90972700  1
  C  C30  1  0.92785000  0.14088700  0.40972700  1
  C  C31  1  0.42785000  0.85911300  0.09027300  1
  C  C32  1  0.24076600  0.97895800  0.51193700  1
  C  C33  1  0.74076600  0.02104200  0.98806300  1
  C  C34  1  0.75923400  0.02104200  0.48806300  1
  C  C35  1  0.25923400  0.97895800  0.01193700  1
  Ni  Ni36  1  0.74146600  0.90677700  0.67041200  1
  Ni  Ni37  1  0.24146600  0.09322300  0.82958800  1
  Ni  Ni38  1  0.25853400  0.09322300  0.32958800  1
  Ni  Ni39  1  0.75853400  0.90677700  0.17041200  1
  Ni  Ni40  1  0.15352400  0.55685800  0.82664400  1
  Ni  Ni41  1  0.65352400  0.44314200  0.67335600  1
  Ni  Ni42  1  0.84647600  0.44314200  0.17335600  1
  Ni  Ni43  1  0.34647600  0.55685800  0.32664400  1
  Cu  Cu44  1  0.34782700  0.24076200  0.58025600  1
  Cu  Cu45  1  0.84782700  0.75923800  0.91974400  1
  Cu  Cu46  1  0.65217300  0.75923800  0.41974400  1
  Cu  Cu47  1  0.15217300  0.24076200  0.08025600  1
  Cu  Cu48  1  0.60539100  0.44062700  0.93155100  1
  Cu  Cu49  1  0.10539100  0.55937300  0.56844900  1
  Cu  Cu50  1  0.39460900  0.55937300  0.06844900  1
  Cu  Cu51  1  0.89460900  0.44062700  0.43155100  1
  Cu  Cu52  1  0.22649100  0.89015100  0.58176300  1
  Cu  Cu53  1  0.72649100  0.10984900  0.91823700  1
  Cu  Cu54  1  0.77350900  0.10984900  0.41823700  1
  Cu  Cu55  1  0.27350900  0.89015100  0.08176300  1
  Cu  Cu56  1  0.85903600  0.01191600  0.66958200  1
  Cu  Cu57  1  0.35903600  0.98808400  0.83041800  1
  Cu  Cu58  1  0.14096400  0.98808400  0.33041800  1
  Cu  Cu59  1  0.64096400  0.01191600  0.16958200  1
  Cu  Cu60  1  0.58063800  0.83209400  0.73193900  1
  Cu  Cu61  1  0.08063800  0.16790600  0.76806100  1
  Cu  Cu62  1  0.41936200  0.16790600  0.26806100  1
  Cu  Cu63  1  0.91936200  0.83209400  0.23193900  1
  Cu  Cu64  1  0.76565800  0.85876900  0.61107100  1
  Cu  Cu65  1  0.26565800  0.14123100  0.88892900  1
  Cu  Cu66  1  0.23434200  0.14123100  0.38892900  1
  Cu  Cu67  1  0.73434200  0.85876900  0.11107100  1
  Cu  Cu68  1  0.15017600  0.67932800  0.83328200  1
  Cu  Cu69  1  0.65017600  0.32067200  0.66671800  1
  Cu  Cu70  1  0.84982400  0.32067200  0.16671800  1
  Cu  Cu71  1  0.34982400  0.67932800  0.33328200  1
  Cu  Cu72  1  0.02207500  0.43086400  0.87969500  1
  Cu  Cu73  1  0.52207500  0.56913600  0.62030500  1
  Cu  Cu74  1  0.97792500  0.56913600  0.12030500  1
  Cu  Cu75  1  0.47792500  0.43086400  0.37969500  1
  Cu  Cu76  1  0.28608700  0.54319800  0.77045000  1
  Cu  Cu77  1  0.78608700  0.45680200  0.72955000  1
  Cu  Cu78  1  0.71391300  0.45680200  0.22955000  1
  Cu  Cu79  1  0.21391300  0.54319800  0.27045000  1
