# generated using pymatgen
data_CuNiC18
_symmetry_space_group_name_H-M   'P 1'
_cell_length_a   9.08573587
_cell_length_b   9.10103236
_cell_length_c   22.60381245
_cell_angle_alpha   89.69476771
_cell_angle_beta   90.00000000
_cell_angle_gamma   119.94441709
_symmetry_Int_Tables_number   1
_chemical_formula_structural   CuNiC18
_chemical_formula_sum   'Cu6 Ni6 C108'
_cell_volume   1619.56303783
_cell_formula_units_Z   6
loop_
 _symmetry_equiv_pos_site_id
 _symmetry_equiv_pos_as_xyz
  1  'x, y, z'
loop_
 _atom_site_type_symbol
 _atom_site_label
 _atom_site_symmetry_multiplicity
 _atom_site_fract_x
 _atom_site_fract_y
 _atom_site_fract_z
 _atom_site_occupancy
  C  C0  1  0.62650948  0.00569648  0.25296900  1
  C  C1  1  0.00564597  0.64196747  0.24099232  1
  C  C2  1  0.63632149  0.64196747  0.74099232  1
  C  C3  1  0.37918700  0.00569648  0.75296900  1
  C  C4  1  0.31463581  0.34691479  0.58475464  1
  C  C5  1  0.65982764  0.94917407  0.58136848  1
  C  C6  1  0.28934742  0.94917407  0.08136848  1
  C  C7  1  0.03227998  0.34691479  0.08475464  1
  C  C8  1  0.97863498  0.67994659  0.92312652  1
  C  C9  1  0.69218075  0.02857032  0.90724680  1
  C  C10  1  0.33638857  0.02857032  0.40724680  1
  C  C11  1  0.70131061  0.67994659  0.42312652  1
  C  C12  1  0.97935994  0.98829893  0.49657754  1
  C  C13  1  0.00893899  0.98829893  0.99657754  1
  C  C14  1  0.66145947  0.31474769  0.83005866  1
  C  C15  1  0.65328923  0.31474769  0.33005866  1
  C  C16  1  0.33068626  0.66621466  0.16386488  1
  C  C17  1  0.33552741  0.66621466  0.66386488  1
  Ni  Ni18  1  0.00594094  0.01130901  0.34903479  1
  Ni  Ni19  1  0.00536807  0.01130901  0.84903479  1
  Ni  Ni20  1  0.67822403  0.33409789  0.68256875  1
  Ni  Ni21  1  0.65587485  0.33409789  0.18256875  1
  Ni  Ni22  1  0.31121721  0.67446684  0.01524142  1
  Ni  Ni23  1  0.36324863  0.67446684  0.51524142  1
  Cu  Cu24  1  0.98402899  0.98395263  0.65070492  1
  Cu  Cu25  1  -0.00007636  0.98395263  0.15070492  1
  Cu  Cu26  1  0.65773195  0.33419030  0.98492767  1
  Cu  Cu27  1  0.67645935  0.33419030  0.48492767  1
  Cu  Cu28  1  0.33772155  0.67925186  0.31885195  1
  Cu  Cu29  1  0.34152931  0.67925186  0.81885195  1
  C  C30  1  0.30178548  0.00766619  0.25250554  1
  C  C31  1  0.70588071  0.00766619  0.75250554  1
  C  C32  1  0.66658123  0.62350042  0.58462393  1
  C  C33  1  0.95692019  0.62350042  0.08462393  1
  C  C34  1  0.32898715  0.97289322  0.91734160  1
  C  C35  1  0.64390506  0.97289322  0.41734160  1
  C  C36  1  0.70151956  0.70179627  0.25243601  1
  C  C37  1  0.00229296  0.29548768  0.24972053  1
  C  C38  1  0.29319471  0.29548768  0.74972053  1
  C  C39  1  0.00027671  0.70179627  0.75243601  1
  C  C40  1  0.97069649  0.33790713  0.58445423  1
  C  C41  1  0.36537734  0.03432582  0.58490647  1
  C  C42  1  0.66894948  0.03432582  0.08490647  1
  C  C43  1  0.36721164  0.33790713  0.08445423  1
  C  C44  1  0.62406807  0.66394590  0.91802537  1
  C  C45  1  0.04152294  0.37109169  0.91806117  1
  C  C46  1  0.32956775  0.37109169  0.41806117  1
  C  C47  1  0.03987683  0.66394590  0.41802537  1
  C  C48  1  0.20936572  0.02365218  0.31200555  1
  C  C49  1  0.80425509  0.78210795  0.30564050  1
  C  C50  1  0.97593623  0.18453031  0.30073099  1
  C  C51  1  0.20859408  0.18453031  0.80073099  1
  C  C52  1  0.97785287  0.78210795  0.80564050  1
  C  C53  1  0.81428647  0.02365218  0.81200555  1
  C  C54  1  0.77884412  0.96457757  0.69229499  1
  C  C55  1  0.19834863  0.22086167  0.69336650  1
  C  C56  1  0.04136310  0.81515739  0.69925187  1
  C  C57  1  0.77379429  0.81515739  0.19925187  1
  C  C58  1  0.02251304  0.22086167  0.19336650  1
  C  C59  1  0.18573345  0.96457757  0.19229499  1
  C  C60  1  0.88721395  0.35527161  0.63744393  1
  C  C61  1  0.47435330  0.11369853  0.63717107  1
  C  C62  1  0.63839340  0.50485704  0.64287948  1
  C  C63  1  0.86646464  0.50485704  0.14287948  1
  C  C64  1  0.63934623  0.11369853  0.13717107  1
  C  C65  1  0.46805866  0.35527161  0.13744393  1
  C  C66  1  0.43615531  0.29565120  0.03129587  1
  C  C67  1  0.85442261  0.54179429  0.02234060  1
  C  C68  1  0.69884415  0.13908754  0.02999952  1
  C  C69  1  0.44024439  0.13908754  0.52999952  1
  C  C70  1  0.68737268  0.54179429  0.52234060  1
  C  C71  1  0.85949688  0.29565120  0.53129587  1
  C  C72  1  0.53070803  0.67807596  0.96858759  1
  C  C73  1  0.13979794  0.44861131  0.97235497  1
  C  C74  1  0.29687256  0.85479964  0.97600998  1
  C  C75  1  0.55792608  0.85479964  0.47600998  1
  C  C76  1  0.30881238  0.44861131  0.47235497  1
  C  C77  1  0.14736693  0.67807596  0.46858759  1
  C  C78  1  0.10706886  0.63639600  0.36101547  1
  C  C79  1  0.52284812  0.89573032  0.35795868  1
  C  C80  1  0.35296943  0.47784479  0.36469175  1
  C  C81  1  0.12487436  0.47784479  0.86469175  1
  C  C82  1  0.37288120  0.89573032  0.85795868  1
  C  C83  1  0.52932614  0.63639600  0.86101547  1
  C  C84  1  0.02814838  0.82168544  0.41481937  1
  C  C85  1  0.82599734  0.97779600  0.40906473  1
  C  C86  1  0.18336890  0.19753218  0.41380230  1
  C  C87  1  0.01416329  0.19753218  0.91380230  1
  C  C88  1  0.15179867  0.97779600  0.90906473  1
  C  C89  1  0.79353706  0.82168544  0.91481937  1
  C  C90  1  0.99620195  0.18552763  0.58864871  1
  C  C91  1  0.19878628  0.03086646  0.59071735  1
  C  C92  1  0.83186731  0.81946367  0.58401756  1
  C  C93  1  0.98759635  0.81946367  0.08401756  1
  C  C94  1  0.83208018  0.03086646  0.09071735  1
  C  C95  1  0.18932568  0.18552763  0.08864871  1
  C  C96  1  0.67139646  0.16829875  0.74465992  1
  C  C97  1  0.46665383  0.31630228  0.74674383  1
  C  C98  1  0.84244346  0.53740582  0.74500537  1
  C  C99  1  0.69496336  0.53740582  0.24500537  1
  C  C100  1  0.84964945  0.31630228  0.24674383  1
  C  C101  1  0.49690328  0.16829875  0.24465992  1
  C  C102  1  0.65439578  0.51668746  0.92029319  1
  C  C103  1  0.87016598  0.36048904  0.91954425  1
  C  C104  1  0.51247403  0.15534647  0.92227512  1
  C  C105  1  0.64287344  0.15534647  0.42227512  1
  C  C106  1  0.49032406  0.36048904  0.41954425  1
  C  C107  1  0.86229269  0.51668746  0.42029319  1
  C  C108  1  0.35162351  0.49030742  0.07659745  1
  C  C109  1  0.14896027  0.64037859  0.08243905  1
  C  C110  1  0.52009032  0.86287544  0.07855128  1
  C  C111  1  0.34278412  0.86287544  0.57855128  1
  C  C112  1  0.49141732  0.64037859  0.58243905  1
  C  C113  1  0.13868292  0.49030742  0.57659745  1
  C  C114  1  0.31308665  0.82650633  0.25250011  1
  C  C115  1  0.52708520  0.67931928  0.25598329  1
  C  C116  1  0.15688845  0.46779259  0.25493463  1
  C  C117  1  0.31090313  0.46779259  0.75493463  1
  C  C118  1  0.15223308  0.67931928  0.75598329  1
  C  C119  1  0.51341868  0.82650633  0.75250011  1
