# generated using pymatgen
data_CuNiC16
_symmetry_space_group_name_H-M   'P 1'
_cell_length_a   8.71830366
_cell_length_b   8.71872801
_cell_length_c   22.46820683
_cell_angle_alpha   90.98894297
_cell_angle_beta   90.00000000
_cell_angle_gamma   119.99838998
_symmetry_Int_Tables_number   1
_chemical_formula_structural   CuNiC16
_chemical_formula_sum   'Cu6 Ni6 C96'
_cell_volume   1478.78470357
_cell_formula_units_Z   6
loop_
 _symmetry_equiv_pos_site_id
 _symmetry_equiv_pos_as_xyz
  1  'x, y, z'
loop_
 _atom_site_type_symbol
 _atom_site_label
 _atom_site_symmetry_multiplicity
 _atom_site_fract_x
 _atom_site_fract_y
 _atom_site_fract_z
 _atom_site_occupancy
  C  C0  1  0.02285817  0.00718620  0.50106696  1
  C  C1  1  0.98432803  0.00718620  0.00106696  1
  C  C2  1  0.69156903  0.33659906  0.83313578  1
  C  C3  1  0.64503103  0.33659906  0.33313578  1
  C  C4  1  0.33551014  0.69132978  0.16637570  1
  C  C5  1  0.35581864  0.69132978  0.66637570  1
  C  C6  1  0.99579283  0.99599688  0.64480788  1
  C  C7  1  0.00020404  0.99599688  0.14480788  1
  C  C8  1  0.67576047  0.32279815  0.97742190  1
  C  C9  1  0.64703868  0.32279815  0.47742190  1
  C  C10  1  0.33734475  0.66957284  0.31045078  1
  C  C11  1  0.33222709  0.66957284  0.81045078  1
  Ni  Ni12  1  0.29406936  0.00658466  0.24837622  1
  Ni  Ni13  1  0.71251530  0.00658466  0.74837622  1
  Ni  Ni14  1  0.37255856  0.02846473  0.57965805  1
  Ni  Ni15  1  0.65590717  0.02846473  0.07965805  1
  Ni  Ni16  1  0.05604001  0.38024363  0.91558138  1
  Ni  Ni17  1  0.32420262  0.38024363  0.41558138  1
  Cu  Cu18  1  0.02859312  0.02130364  0.35285391  1
  Cu  Cu19  1  0.99271052  0.02130364  0.85285391  1
  Cu  Cu20  1  0.65772245  0.29718748  0.68422732  1
  Cu  Cu21  1  0.63946602  0.29718748  0.18422732  1
  Cu  Cu22  1  0.33489842  0.66795565  0.01740684  1
  Cu  Cu23  1  0.33305623  0.66795565  0.51740684  1
  C  C24  1  0.72193190  0.70516575  0.25028820  1
  C  C25  1  0.98372805  0.28332217  0.25035816  1
  C  C26  1  0.29959412  0.28332217  0.75035816  1
  C  C27  1  0.98323384  0.70516575  0.75028820  1
  C  C28  1  0.96022975  0.34497085  0.58360493  1
  C  C29  1  0.65190163  0.60913380  0.58519827  1
  C  C30  1  0.95723317  0.60913380  0.08519827  1
  C  C31  1  0.38474209  0.34497085  0.08360493  1
  C  C32  1  0.63188873  0.67973468  0.91605121  1
  C  C33  1  0.31367294  0.95276674  0.91594069  1
  C  C34  1  0.63909280  0.95276674  0.41594069  1
  C  C35  1  0.04784495  0.67973468  0.41605121  1
  C  C36  1  0.20679547  0.04189633  0.31015472  1
  C  C37  1  0.82999740  0.79264211  0.30603541  1
  C  C38  1  0.95592076  0.17540755  0.30539662  1
  C  C39  1  0.21948679  0.17540755  0.80539662  1
  C  C40  1  0.96264471  0.79264211  0.80603541  1
  C  C41  1  0.83510086  0.04189633  0.81015472  1
  C  C42  1  0.80544361  0.98573219  0.69088372  1
  C  C43  1  0.19623069  0.19678745  0.69680565  1
  C  C44  1  0.01315185  0.81145357  0.69763389  1
  C  C45  1  0.79830171  0.81145357  0.19763389  1
  C  C46  1  0.00055676  0.19678745  0.19680565  1
  C  C47  1  0.18028858  0.98573219  0.19088372  1
  C  C48  1  0.87835236  0.37261114  0.64002132  1
  C  C49  1  0.49952659  0.11630081  0.64091899  1
  C  C50  1  0.63309487  0.50444747  0.63942872  1
  C  C51  1  0.87135360  0.50444747  0.13942872  1
  C  C52  1  0.61677522  0.11630081  0.14091899  1
  C  C53  1  0.49425977  0.37261114  0.14002132  1
  C  C54  1  0.47168016  0.32775038  0.03099884  1
  C  C55  1  0.85417003  0.53090172  0.03072538  1
  C  C56  1  0.68088461  0.14524899  0.02328627  1
  C  C57  1  0.46436538  0.14524899  0.52328627  1
  C  C58  1  0.67673269  0.53090172  0.53072538  1
  C  C59  1  0.85607122  0.32775038  0.53099884  1
  C  C60  1  0.55405654  0.71563657  0.97140741  1
  C  C61  1  0.18132876  0.47643553  0.97758007  1
  C  C62  1  0.29421150  0.84803979  0.97070957  1
  C  C63  1  0.55382729  0.84803979  0.47070957  1
  C  C64  1  0.29510576  0.47643553  0.47758007  1
  C  C65  1  0.16157904  0.71563657  0.47140741  1
  C  C66  1  0.13211368  0.66266842  0.36267623  1
  C  C67  1  0.52608127  0.87808586  0.36303756  1
  C  C68  1  0.34015362  0.49116406  0.35887252  1
  C  C69  1  0.15100944  0.49116406  0.85887252  1
  C  C70  1  0.35200359  0.87808586  0.86303756  1
  C  C71  1  0.53055375  0.66266842  0.86267623  1
  C  C72  1  0.02535860  0.83974681  0.41237333  1
  C  C73  1  0.80763681  0.94971872  0.40962067  1
  C  C74  1  0.13737136  0.18231139  0.41188492  1
  C  C75  1  0.04494002  0.18231139  0.91188492  1
  C  C76  1  0.14208192  0.94971872  0.90962067  1
  C  C77  1  0.81438821  0.83974681  0.91237333  1
  C  C78  1  0.98051906  0.18862660  0.58830971  1
  C  C79  1  0.17649500  -0.00288649  0.58793233  1
  C  C80  1  0.80535863  0.78986898  0.58961662  1
  C  C81  1  0.98451034  0.78986898  0.08961662  1
  C  C82  1  0.82061851  -0.00288649  0.08793233  1
  C  C83  1  0.20810753  0.18862660  0.08830971  1
  C  C84  1  0.70746175  0.19628736  0.74386860  1
  C  C85  1  0.48009606  0.30287723  0.74624093  1
  C  C86  1  0.81476072  0.53119334  0.74463526  1
  C  C87  1  0.71643362  0.53119334  0.24463526  1
  C  C88  1  0.82278217  0.30287723  0.24624093  1
  C  C89  1  0.48882660  0.19628736  0.24386860  1
  C  C90  1  0.64674817  0.52149536  0.92290207  1
  C  C91  1  0.85875455  0.35140429  0.92042134  1
  C  C92  1  0.45883899  0.13717960  0.92281801  1
  C  C93  1  0.67834161  0.13717960  0.42281801  1
  C  C94  1  0.49265075  0.35140429  0.42042134  1
  C  C95  1  0.87474820  0.52149536  0.42290207  1
  C  C96  1  0.36940606  0.50782360  0.08147569  1
  C  C97  1  0.13417766  0.62031350  0.08081773  1
  C  C98  1  0.46522249  0.83288253  0.07194250  1
  C  C99  1  0.36765904  0.83288253  0.57194250  1
  C  C100  1  0.48613484  0.62031350  0.58081773  1
  C  C101  1  0.13841654  0.50782360  0.58147569  1
  C  C102  1  0.32717220  0.84203191  0.25457886  1
  C  C103  1  0.54132539  0.67587132  0.25565307  1
  C  C104  1  0.14149746  0.45972736  0.25553126  1
  C  C105  1  0.31822890  0.45972736  0.75553126  1
  C  C106  1  0.13454493  0.67587132  0.75565307  1
  C  C107  1  0.51485871  0.84203191  0.75457886  1
