# generated using pymatgen
data_Cu14Ni2C15
_symmetry_space_group_name_H-M   'P 1'
_cell_length_a   6.46504857
_cell_length_b   9.40319937
_cell_length_c   13.01446800
_cell_angle_alpha   90.00000000
_cell_angle_beta   90.00000000
_cell_angle_gamma   106.19661320
_symmetry_Int_Tables_number   1
_chemical_formula_structural   Cu14Ni2C15
_chemical_formula_sum   'Cu28 Ni4 C30'
_cell_volume   759.77567772
_cell_formula_units_Z   2
loop_
 _symmetry_equiv_pos_site_id
 _symmetry_equiv_pos_as_xyz
  1  'x, y, z'
loop_
 _atom_site_type_symbol
 _atom_site_label
 _atom_site_symmetry_multiplicity
 _atom_site_fract_x
 _atom_site_fract_y
 _atom_site_fract_z
 _atom_site_occupancy
  C  C0  1  0.35239200  0.12732200  0.35678600  1
  C  C1  1  0.64760900  0.37267800  0.85678600  1
  C  C2  1  0.64760900  0.87267800  0.64321300  1
  C  C3  1  0.35239100  0.62732200  0.14321400  1
  C  C4  1  0.00000000  0.50000000  0.50000000  1
  C  C5  1  0.00000000  0.00000000  0.00000000  1
  C  C6  1  0.31259500  0.52519100  0.64137000  1
  C  C7  1  0.68740600  0.97480900  0.14137100  1
  C  C8  1  0.68740600  0.47480900  0.35863000  1
  C  C9  1  0.31259500  0.02519100  0.85863000  1
  C  C10  1  0.33396200  0.39922000  0.56557500  1
  C  C11  1  0.66603700  0.10078100  0.06557600  1
  C  C12  1  0.92601600  0.21886700  0.40091500  1
  C  C13  1  0.07398300  0.28113200  0.90091500  1
  C  C14  1  0.07398300  0.78113300  0.59908500  1
  C  C15  1  0.92601700  0.71886700  0.09908500  1
  C  C16  1  0.09329100  0.73848400  0.36954100  1
  C  C17  1  0.90670900  0.76151600  0.86954100  1
  C  C18  1  0.90670800  0.26151600  0.63045900  1
  C  C19  1  0.09329100  0.23848300  0.13045900  1
  C  C20  1  0.32525300  0.71434500  0.39893600  1
  C  C21  1  0.67474700  0.78565500  0.89893600  1
  C  C22  1  0.67474600  0.28565500  0.60106500  1
  C  C23  1  0.32525300  0.21434500  0.10106400  1
  C  C24  1  0.01897200  0.15733900  0.81493100  1
  C  C25  1  0.98102700  0.34266000  0.31493100  1
  C  C26  1  0.33396300  0.89922000  0.93442400  1
  C  C27  1  0.66603700  0.60078000  0.43442400  1
  C  C28  1  0.01897200  0.65734000  0.68506900  1
  C  C29  1  0.98102800  0.84266100  0.18506900  1
  Ni  Ni30  1  0.25915900  0.60514700  0.85245800  1
  Ni  Ni31  1  0.74084000  0.89485300  0.35245800  1
  Ni  Ni32  1  0.25915900  0.10514800  0.64754200  1
  Ni  Ni33  1  0.74084000  0.39485300  0.14754200  1
  Cu  Cu34  1  0.83013300  0.83611800  0.88695800  1
  Cu  Cu35  1  0.83013500  0.33611800  0.61304200  1
  Cu  Cu36  1  0.00751500  0.82387300  0.11159800  1
  Cu  Cu37  1  0.99248500  0.67612700  0.61159900  1
  Cu  Cu38  1  0.99248500  0.17612700  0.88840200  1
  Cu  Cu39  1  0.00751400  0.32387300  0.38840200  1
  Cu  Cu40  1  0.29406900  0.99389000  0.93204800  1
  Cu  Cu41  1  0.16986600  0.16388200  0.11304200  1
  Cu  Cu42  1  0.70593100  0.00611000  0.06795200  1
  Cu  Cu43  1  0.29406800  0.49389000  0.56795200  1
  Cu  Cu44  1  0.94138900  0.85840900  0.31727800  1
  Cu  Cu45  1  0.05861200  0.64159100  0.81727800  1
  Cu  Cu46  1  0.05861200  0.14159100  0.68272300  1
  Cu  Cu47  1  0.94138900  0.35840900  0.18272300  1
  Cu  Cu48  1  0.60582100  0.76893000  0.41561600  1
  Cu  Cu49  1  0.39417900  0.73107000  0.91561600  1
  Cu  Cu50  1  0.39417800  0.23106900  0.58438500  1
  Cu  Cu51  1  0.60582200  0.26893000  0.08438500  1
  Cu  Cu52  1  0.79721600  0.03074800  0.41702800  1
  Cu  Cu53  1  0.20278500  0.46925300  0.91702800  1
  Cu  Cu54  1  0.20278500  0.96925200  0.58297100  1
  Cu  Cu55  1  0.79721400  0.53074700  0.08297100  1
  Cu  Cu56  1  0.61180500  0.91525900  0.26143200  1
  Cu  Cu57  1  0.38819500  0.58474100  0.76143200  1
  Cu  Cu58  1  0.38819600  0.08474100  0.73856900  1
  Cu  Cu59  1  0.61180500  0.41525900  0.23856900  1
  Cu  Cu60  1  0.16986700  0.66388300  0.38695800  1
  Cu  Cu61  1  0.70593100  0.50611000  0.43204800  1
