# generated using pymatgen
data_Cu2Ni4C51
_symmetry_space_group_name_H-M   'P 1'
_cell_length_a   8.88829465
_cell_length_b   8.88829435
_cell_length_c   22.62384714
_cell_angle_alpha   90.00000000
_cell_angle_beta   90.00000000
_cell_angle_gamma   120.00000108
_symmetry_Int_Tables_number   1
_chemical_formula_structural   Cu2Ni4C51
_chemical_formula_sum   'Cu4 Ni8 C102'
_cell_volume   1547.86812320
_cell_formula_units_Z   2
loop_
 _symmetry_equiv_pos_site_id
 _symmetry_equiv_pos_as_xyz
  1  'x, y, z'
loop_
 _atom_site_type_symbol
 _atom_site_label
 _atom_site_symmetry_multiplicity
 _atom_site_fract_x
 _atom_site_fract_y
 _atom_site_fract_z
 _atom_site_occupancy
  C  C0  1  0.98288669  0.68968908  0.91689088  1
  C  C1  1  0.70680139  0.01711331  0.91689088  1
  C  C2  1  0.31031092  0.29319861  0.91689088  1
  C  C3  1  0.98288669  0.29319861  0.41689088  1
  C  C4  1  0.31031092  0.01711331  0.41689088  1
  C  C5  1  0.70680139  0.68968908  0.41689088  1
  C  C6  1  0.00000000  0.00000000  0.49752599  1
  C  C7  1  0.00000000  0.00000000  0.99752599  1
  C  C8  1  0.66666700  0.33333300  0.82431965  1
  C  C9  1  0.66666700  0.33333300  0.32431965  1
  C  C10  1  0.33333300  0.66666700  0.16180345  1
  C  C11  1  0.33333300  0.66666700  0.66180345  1
  Ni  Ni12  1  0.00000000  0.00000000  0.34981127  1
  Ni  Ni13  1  0.00000000  0.00000000  0.84981127  1
  Ni  Ni14  1  0.00000000  0.00000000  0.64935256  1
  Ni  Ni15  1  0.00000000  0.00000000  0.14935256  1
  Ni  Ni16  1  0.66666700  0.33333300  0.68415268  1
  Ni  Ni17  1  0.66666700  0.33333300  0.18415268  1
  Ni  Ni18  1  0.33333300  0.66666700  0.01676385  1
  Ni  Ni19  1  0.33333300  0.66666700  0.51676385  1
  Cu  Cu20  1  0.66666700  0.33333300  0.97919439  1
  Cu  Cu21  1  0.66666700  0.33333300  0.47919439  1
  Cu  Cu22  1  0.33333300  0.66666700  0.31728590  1
  Cu  Cu23  1  0.33333300  0.66666700  0.81728590  1
  C  C24  1  0.62625828  0.67201065  0.92017468  1
  C  C25  1  0.04575136  0.37374172  0.92017468  1
  C  C26  1  0.32798935  0.95424864  0.92017468  1
  C  C27  1  0.62625828  0.95424864  0.42017468  1
  C  C28  1  0.32798935  0.37374172  0.42017468  1
  C  C29  1  0.04575136  0.67201065  0.42017468  1
  C  C30  1  0.29491662  0.00156768  0.24918206  1
  C  C31  1  0.70665106  0.70508338  0.24918206  1
  C  C32  1  0.99843232  0.29334894  0.24918206  1
  C  C33  1  0.29491662  0.29334894  0.74918206  1
  C  C34  1  0.99843232  0.70508338  0.74918206  1
  C  C35  1  0.70665106  0.00156768  0.74918206  1
  C  C36  1  0.95932159  0.33303396  0.58581244  1
  C  C37  1  0.37371337  0.04067841  0.58581244  1
  C  C38  1  0.66696604  0.62628663  0.58581244  1
  C  C39  1  0.95932159  0.62628663  0.08581244  1
  C  C40  1  0.66696604  0.04067841  0.08581244  1
  C  C41  1  0.37371337  0.33303396  0.08581244  1
  C  C42  1  0.21789101  0.01950265  0.30456858  1
  C  C43  1  0.80161164  0.78210899  0.30456858  1
  C  C44  1  0.98049735  0.19838836  0.30456858  1
  C  C45  1  0.21789101  0.19838836  0.80456858  1
  C  C46  1  0.98049735  0.78210899  0.80456858  1
  C  C47  1  0.80161164  0.01950265  0.80456858  1
  C  C48  1  0.79111676  0.97695314  0.69715942  1
  C  C49  1  0.18583638  0.20888324  0.69715942  1
  C  C50  1  0.02304686  0.81416362  0.69715942  1
  C  C51  1  0.79111676  0.81416362  0.19715942  1
  C  C52  1  0.02304686  0.20888324  0.19715942  1
  C  C53  1  0.18583638  0.97695314  0.19715942  1
  C  C54  1  0.86640207  0.35017077  0.63641823  1
  C  C55  1  0.48376970  0.13359793  0.63641823  1
  C  C56  1  0.64982923  0.51623030  0.63641823  1
  C  C57  1  0.86640207  0.51623030  0.13641823  1
  C  C58  1  0.64982923  0.13359793  0.13641823  1
  C  C59  1  0.48376970  0.35017077  0.13641823  1
  C  C60  1  0.46568361  0.31588596  0.02970679  1
  C  C61  1  0.85020335  0.53431639  0.02970679  1
  C  C62  1  0.68411404  0.14979665  0.02970679  1
  C  C63  1  0.46568361  0.14979665  0.52970679  1
  C  C64  1  0.68411404  0.53431639  0.52970679  1
  C  C65  1  0.85020335  0.31588596  0.52970679  1
  C  C66  1  0.54522819  0.71181329  0.97558172  1
  C  C67  1  0.16658410  0.45477181  0.97558172  1
  C  C68  1  0.28818671  0.83341590  0.97558172  1
  C  C69  1  0.54522819  0.83341590  0.47558172  1
  C  C70  1  0.28818671  0.45477181  0.47558172  1
  C  C71  1  0.16658410  0.71181329  0.47558172  1
  C  C72  1  0.13160200  0.62235799  0.36071443  1
  C  C73  1  0.49075499  0.86839800  0.36071443  1
  C  C74  1  0.37764201  0.50924501  0.36071443  1
  C  C75  1  0.13160200  0.50924501  0.86071443  1
  C  C76  1  0.37764201  0.86839800  0.86071443  1
  C  C77  1  0.49075499  0.62235799  0.86071443  1
  C  C78  1  0.00603251  0.82493351  0.40627388  1
  C  C79  1  0.81890100  0.99396749  0.40627388  1
  C  C80  1  0.17506649  0.18109900  0.40627388  1
  C  C81  1  0.00603251  0.18109900  0.90627388  1
  C  C82  1  0.17506649  0.99396749  0.90627388  1
  C  C83  1  0.81890100  0.82493351  0.90627388  1
  C  C84  1  0.96860729  0.17207312  0.58772563  1
  C  C85  1  0.20346583  0.03139271  0.58772563  1
  C  C86  1  0.82792688  0.79653417  0.58772563  1
  C  C87  1  0.96860729  0.79653417  0.08772563  1
  C  C88  1  0.82792688  0.03139271  0.08772563  1
  C  C89  1  0.20346583  0.17207312  0.08772563  1
  C  C90  1  0.68228097  0.15417614  0.74313641  1
  C  C91  1  0.47189616  0.31771903  0.74313641  1
  C  C92  1  0.84582386  0.52810384  0.74313641  1
  C  C93  1  0.68228097  0.52810384  0.24313641  1
  C  C94  1  0.84582386  0.31771903  0.24313641  1
  C  C95  1  0.47189616  0.15417614  0.24313641  1
  C  C96  1  0.63481089  0.48850037  0.92637027  1
  C  C97  1  0.85369048  0.36518911  0.92637027  1
  C  C98  1  0.51149963  0.14630952  0.92637027  1
  C  C99  1  0.63481089  0.14630952  0.42637027  1
  C  C100  1  0.51149963  0.36518911  0.42637027  1
  C  C101  1  0.85369048  0.48850037  0.42637027  1
  C  C102  1  0.35974281  0.48996602  0.07997560  1
  C  C103  1  0.13022221  0.64025719  0.07997560  1
  C  C104  1  0.51003398  0.86977779  0.07997560  1
  C  C105  1  0.35974281  0.86977779  0.57997560  1
  C  C106  1  0.51003398  0.64025719  0.57997560  1
  C  C107  1  0.13022221  0.48996602  0.57997560  1
  C  C108  1  0.31034639  0.83755476  0.25357272  1
  C  C109  1  0.52720736  0.68965361  0.25357272  1
  C  C110  1  0.16244524  0.47279264  0.25357272  1
  C  C111  1  0.31034639  0.47279264  0.75357272  1
  C  C112  1  0.16244524  0.68965361  0.75357272  1
  C  C113  1  0.52720736  0.83755476  0.75357272  1
