# generated using pymatgen
data_Cu2Ni10C7
_symmetry_space_group_name_H-M   'P 1'
_cell_length_a   10.82825951
_cell_length_b   6.87290227
_cell_length_c   3.00408920
_cell_angle_alpha   89.82565767
_cell_angle_beta   90.10553724
_cell_angle_gamma   70.04513933
_symmetry_Int_Tables_number   1
_chemical_formula_structural   Cu2Ni10C7
_chemical_formula_sum   'Cu2 Ni10 C7'
_cell_volume   210.14438698
_cell_formula_units_Z   1
loop_
 _symmetry_equiv_pos_site_id
 _symmetry_equiv_pos_as_xyz
  1  'x, y, z'
loop_
 _atom_site_type_symbol
 _atom_site_label
 _atom_site_symmetry_multiplicity
 _atom_site_fract_x
 _atom_site_fract_y
 _atom_site_fract_z
 _atom_site_occupancy
  C  C0  1  0.49731700  0.00434200  0.01638700  1
  C  C1  1  0.01773600  0.98935900  0.01111100  1
  C  C2  1  0.99739100  0.50128900  0.50971600  1
  C  C3  1  0.30736300  0.37423700  0.01355800  1
  C  C4  1  0.66806600  0.18449400  0.51264000  1
  C  C5  1  0.33006800  0.79636400  0.51466200  1
  C  C6  1  0.68587000  0.63695100  0.00461200  1
  Ni  Ni7  1  0.00493600  0.30667600  0.00722500  1
  Ni  Ni8  1  0.99558000  0.69335000  0.01279400  1
  Ni  Ni9  1  0.18937300  0.41322600  0.51234600  1
  Ni  Ni10  1  0.44708100  0.22914000  0.51369600  1
  Ni  Ni11  1  0.13509700  0.91951600  0.51233700  1
  Ni  Ni12  1  0.34930900  0.62160400  0.01564500  1
  Ni  Ni13  1  0.65973800  0.37084900  0.01104900  1
  Ni  Ni14  1  0.53351300  0.77974500  0.51691700  1
  Ni  Ni15  1  0.80456100  0.58958800  0.50669600  1
  Ni  Ni16  1  0.67952000  0.99080900  0.01314800  1
  Cu  Cu17  1  0.31383600  0.02269000  0.01394500  1
  Cu  Cu18  1  0.87739100  0.07577100  0.51068400  1
