# generated using pymatgen
data_Cu4Ni8C
_symmetry_space_group_name_H-M   'P 1'
_cell_length_a   12.26517765
_cell_length_b   12.26517765
_cell_length_c   12.26517765
_cell_angle_alpha   138.83048374
_cell_angle_beta   138.83048374
_cell_angle_gamma   59.63342519
_symmetry_Int_Tables_number   1
_chemical_formula_structural   Cu4Ni8C
_chemical_formula_sum   'Cu16 Ni32 C4'
_cell_volume   791.57271198
_cell_formula_units_Z   4
loop_
 _symmetry_equiv_pos_site_id
 _symmetry_equiv_pos_as_xyz
  1  'x, y, z'
loop_
 _atom_site_type_symbol
 _atom_site_label
 _atom_site_symmetry_multiplicity
 _atom_site_fract_x
 _atom_site_fract_y
 _atom_site_fract_z
 _atom_site_occupancy
  Ni  Ni0  1  0.15128300  0.87538700  0.15276800  1
  Ni  Ni1  1  0.50148400  0.77738100  0.15276800  1
  Ni  Ni2  1  0.62461300  0.34871700  0.84723200  1
  Ni  Ni3  1  0.09871700  0.75148400  0.22410400  1
  Ni  Ni4  1  0.52738100  0.87461300  0.77589600  1
  Ni  Ni5  1  0.62538700  0.97261900  0.22410400  1
  Ni  Ni6  1  0.74851600  0.40128300  0.77589600  1
  Ni  Ni7  1  0.72261900  0.99851600  0.84723200  1
  Ni  Ni8  1  0.59871700  0.37461300  0.34723200  1
  Ni  Ni9  1  0.24851600  0.47261900  0.34723200  1
  Ni  Ni10  1  0.12538700  0.90128300  0.65276800  1
  Ni  Ni11  1  0.65128300  0.49851600  0.27589600  1
  Ni  Ni12  1  0.25118100  0.03182400  0.65124500  1
  Ni  Ni13  1  0.78182400  0.63057900  0.28064400  1
  Ni  Ni14  1  0.34993600  0.50118100  0.71935600  1
  Ni  Ni15  1  0.99881900  0.15006400  0.28064400  1
  Ni  Ni16  1  0.86942100  0.71817600  0.71935600  1
  Ni  Ni17  1  0.90006400  0.11942100  0.65124500  1
  Ni  Ni18  1  0.46817600  0.24881900  0.34875500  1
  Ni  Ni19  1  0.38057900  0.59993600  0.34875500  1
  Ni  Ni20  1  0.49881900  0.21817600  0.84875500  1
  Ni  Ni21  1  0.96817600  0.61942100  0.21935600  1
  Ni  Ni22  1  0.40006400  0.74881900  0.78064400  1
  Ni  Ni23  1  0.75118100  0.09993600  0.21935600  1
  Ni  Ni24  1  0.88057900  0.53182400  0.78064400  1
  Ni  Ni25  1  0.84993600  0.13057900  0.84875500  1
  Ni  Ni26  1  0.28182400  0.00118100  0.15124500  1
  Ni  Ni27  1  0.36942100  0.65006400  0.15124500  1
  Ni  Ni28  1  0.02738100  0.25148400  0.65276800  1
  Ni  Ni29  1  0.00148400  0.84871700  0.72410400  1
  Ni  Ni30  1  0.12461300  0.27738100  0.27589600  1
  Ni  Ni31  1  0.22261900  0.37538700  0.72410400  1
  C  C32  1  0.50000000  0.00000000  0.50000000  1
  C  C33  1  0.75000000  0.75000000  0.00000000  1
  C  C34  1  0.25000000  0.25000000  0.00000000  1
  C  C35  1  0.00000000  0.50000000  0.50000000  1
  Cu  Cu36  1  0.64798800  0.64798800  0.00000000  1
  Cu  Cu37  1  0.39798800  0.89798800  0.50000000  1
  Cu  Cu38  1  0.60201200  0.10201200  0.50000000  1
  Cu  Cu39  1  0.85201200  0.85201200  0.00000000  1
  Cu  Cu40  1  0.10201200  0.60201200  0.50000000  1
  Cu  Cu41  1  0.35201200  0.35201200  0.00000000  1
  Cu  Cu42  1  0.14798800  0.14798800  0.00000000  1
  Cu  Cu43  1  0.89798800  0.39798800  0.50000000  1
  Cu  Cu44  1  0.07428000  0.42572000  0.00000000  1
  Cu  Cu45  1  0.17572000  0.67572000  0.85144100  1
  Cu  Cu46  1  0.82428000  0.32428000  0.14855900  1
  Cu  Cu47  1  0.42572000  0.07428000  0.00000000  1
  Cu  Cu48  1  0.67572000  0.82428000  0.50000000  1
  Cu  Cu49  1  0.57428000  0.57428000  0.64855900  1
  Cu  Cu50  1  0.92572000  0.92572000  0.35144100  1
  Cu  Cu51  1  0.32428000  0.17572000  0.50000000  1
