# generated using pymatgen
data_Cu2NiC14
_symmetry_space_group_name_H-M   'P 1'
_cell_length_a   7.52078200
_cell_length_b   7.83192022
_cell_length_c   7.87831815
_cell_angle_alpha   60.63998894
_cell_angle_beta   76.66195947
_cell_angle_gamma   64.69769940
_symmetry_Int_Tables_number   1
_chemical_formula_structural   Cu2NiC14
_chemical_formula_sum   'Cu4 Ni2 C28'
_cell_volume   365.51361990
_cell_formula_units_Z   2
loop_
 _symmetry_equiv_pos_site_id
 _symmetry_equiv_pos_as_xyz
  1  'x, y, z'
loop_
 _atom_site_type_symbol
 _atom_site_label
 _atom_site_symmetry_multiplicity
 _atom_site_fract_x
 _atom_site_fract_y
 _atom_site_fract_z
 _atom_site_occupancy
  C  C0  1  0.80597200  0.74773800  0.54794500  1
  C  C1  1  0.19402800  0.25226200  0.45205500  1
  Ni  Ni2  1  0.69652200  0.08413400  0.99666700  1
  Ni  Ni3  1  0.30347800  0.91586600  0.00333300  1
  Cu  Cu4  1  0.54058100  0.08685600  0.70078200  1
  Cu  Cu5  1  0.02783300  0.72757400  0.16606100  1
  Cu  Cu6  1  0.97216700  0.27242600  0.83393900  1
  Cu  Cu7  1  0.45941900  0.91314400  0.29921800  1
  C  C8  1  0.39033300  0.48183400  0.74842900  1
  C  C9  1  0.60966700  0.51816600  0.25157100  1
  C  C10  1  0.85658200  0.43616300  0.22668100  1
  C  C11  1  0.14341800  0.56383700  0.77331900  1
  C  C12  1  0.73169700  0.35769800  0.14097600  1
  C  C13  1  0.25335000  0.73971400  0.61801900  1
  C  C14  1  0.26830300  0.64230200  0.85902400  1
  C  C15  1  0.74665000  0.26028600  0.38198100  1
  C  C16  1  0.73560800  0.39316800  0.25030100  1
  C  C17  1  0.26439200  0.60683200  0.74969900  1
  C  C18  1  0.15755200  0.12788300  0.96649000  1
  C  C19  1  0.01030600  0.77159500  0.33784900  1
  C  C20  1  0.26965100  0.01411700  0.39410900  1
  C  C21  1  0.58453100  0.17551900  0.82060300  1
  C  C22  1  0.41546900  0.82448100  0.17939700  1
  C  C23  1  0.84244800  0.87211700  0.03351000  1
  C  C24  1  0.98969400  0.22840500  0.66215100  1
  C  C25  1  0.73034900  0.98588300  0.60589100  1
  C  C26  1  0.94202100  0.49886200  0.78370000  1
  C  C27  1  0.05797900  0.50113800  0.21630000  1
  C  C28  1  0.78721100  0.23185200  0.96807800  1
  C  C29  1  0.21278900  0.76814800  0.03192200  1
  C  C30  1  0.60604300  0.72063700  0.45205000  1
  C  C31  1  0.39395700  0.27936300  0.54795000  1
  C  C32  1  0.55216200  0.08440500  0.16151300  1
  C  C33  1  0.44783800  0.91559500  0.83848700  1
