# generated using pymatgen
data_Cu14Ni6C
_symmetry_space_group_name_H-M   'P 1'
_cell_length_a   8.64038500
_cell_length_b   8.73668000
_cell_length_c   13.08332553
_cell_angle_alpha   56.00204844
_cell_angle_beta   90.00000000
_cell_angle_gamma   90.00000000
_symmetry_Int_Tables_number   1
_chemical_formula_structural   Cu14Ni6C
_chemical_formula_sum   'Cu56 Ni24 C4'
_cell_volume   818.80852737
_cell_formula_units_Z   4
loop_
 _symmetry_equiv_pos_site_id
 _symmetry_equiv_pos_as_xyz
  1  'x, y, z'
loop_
 _atom_site_type_symbol
 _atom_site_label
 _atom_site_symmetry_multiplicity
 _atom_site_fract_x
 _atom_site_fract_y
 _atom_site_fract_z
 _atom_site_occupancy
  C  C0  1  0.16782700  0.52066100  0.82331700  1
  C  C1  1  0.66782700  0.47933900  0.67668300  1
  C  C2  1  0.83217300  0.47933900  0.17668300  1
  C  C3  1  0.33217300  0.52066100  0.32331700  1
  Ni  Ni4  1  0.24795800  0.60098700  0.42647400  1
  Ni  Ni5  1  0.74795800  0.39901300  0.07352600  1
  Ni  Ni6  1  0.75204200  0.39901300  0.57352600  1
  Ni  Ni7  1  0.25204200  0.60098700  0.92647400  1
  Ni  Ni8  1  0.23621300  0.84420900  0.34412800  1
  Ni  Ni9  1  0.73621300  0.15579100  0.15587200  1
  Ni  Ni10  1  0.76378700  0.15579100  0.65587200  1
  Ni  Ni11  1  0.26378700  0.84420900  0.84412800  1
  Ni  Ni12  1  0.31025500  0.94332200  0.19700900  1
  Ni  Ni13  1  0.81025500  0.05667800  0.30299100  1
  Ni  Ni14  1  0.68974500  0.05667800  0.80299100  1
  Ni  Ni15  1  0.18974500  0.94332200  0.69700900  1
  Ni  Ni16  1  0.37304000  0.76951900  0.17729300  1
  Ni  Ni17  1  0.87304000  0.23048100  0.32270700  1
  Ni  Ni18  1  0.62696000  0.23048100  0.82270700  1
  Ni  Ni19  1  0.12696000  0.76951900  0.67729300  1
  Ni  Ni20  1  0.39577200  0.74633800  0.32097100  1
  Ni  Ni21  1  0.89577200  0.25366200  0.17902900  1
  Ni  Ni22  1  0.60422800  0.25366200  0.67902900  1
  Ni  Ni23  1  0.10422800  0.74633800  0.82097100  1
  Ni  Ni24  1  0.09744800  0.29111500  0.85469100  1
  Ni  Ni25  1  0.59744800  0.70888500  0.64530900  1
  Ni  Ni26  1  0.90255200  0.70888500  0.14530900  1
  Ni  Ni27  1  0.40255200  0.29111500  0.35469100  1
  Cu  Cu28  1  0.45729300  0.29113100  0.26989500  1
  Cu  Cu29  1  0.95729300  0.70886900  0.23010500  1
  Cu  Cu30  1  0.54270700  0.70886900  0.73010500  1
  Cu  Cu31  1  0.04270700  0.29113100  0.76989500  1
  Cu  Cu32  1  0.39927600  0.14671400  0.45386800  1
  Cu  Cu33  1  0.89927600  0.85328600  0.04613200  1
  Cu  Cu34  1  0.60072400  0.85328600  0.54613200  1
  Cu  Cu35  1  0.10072400  0.14671400  0.95386800  1
  Cu  Cu36  1  0.26604000  0.35119200  0.32528500  1
  Cu  Cu37  1  0.76604000  0.64880800  0.17471500  1
  Cu  Cu38  1  0.73396000  0.64880800  0.67471500  1
  Cu  Cu39  1  0.23396000  0.35119200  0.82528500  1
  Cu  Cu40  1  0.47922100  0.40251700  0.36742000  1
  Cu  Cu41  1  0.97922100  0.59748300  0.13258000  1
  Cu  Cu42  1  0.52077900  0.59748300  0.63258000  1
  Cu  Cu43  1  0.02077900  0.40251700  0.86742000  1
  Cu  Cu44  1  0.17993300  0.50463500  0.39746800  1
  Cu  Cu45  1  0.67993300  0.49536500  0.10253200  1
  Cu  Cu46  1  0.82006700  0.49536500  0.60253200  1
  Cu  Cu47  1  0.32006700  0.50463500  0.89746800  1
  Cu  Cu48  1  0.26731700  0.90256000  0.11609700  1
  Cu  Cu49  1  0.12621200  0.71320400  0.39580400  1
  Cu  Cu50  1  0.87378800  0.28679600  0.60419600  1
  Cu  Cu51  1  0.37378800  0.71320400  0.89580400  1
  Cu  Cu52  1  0.16494600  0.94454500  0.23368000  1
  Cu  Cu53  1  0.66494600  0.05545500  0.26632000  1
  Cu  Cu54  1  0.83505400  0.05545500  0.76632000  1
  Cu  Cu55  1  0.33505400  0.94454500  0.73368000  1
  Cu  Cu56  1  0.97981000  0.75618800  0.85674700  1
  Cu  Cu57  1  0.47981000  0.24381200  0.64325300  1
  Cu  Cu58  1  0.02019000  0.24381200  0.14325300  1
  Cu  Cu59  1  0.52019000  0.75618800  0.35674700  1
  Cu  Cu60  1  0.02198400  0.80802400  0.60732000  1
  Cu  Cu61  1  0.52198400  0.19197600  0.89268000  1
  Cu  Cu62  1  0.97801600  0.19197600  0.39268000  1
  Cu  Cu63  1  0.47801600  0.80802400  0.10732000  1
  Cu  Cu64  1  0.14265800  0.09779600  0.63847000  1
  Cu  Cu65  1  0.64265800  0.90220400  0.86153000  1
  Cu  Cu66  1  0.85734200  0.90220400  0.36153000  1
  Cu  Cu67  1  0.35734200  0.09779600  0.13847000  1
  Cu  Cu68  1  0.27003500  0.92725300  0.89142100  1
  Cu  Cu69  1  0.77003500  0.07274700  0.60857900  1
  Cu  Cu70  1  0.72996500  0.07274700  0.10857900  1
  Cu  Cu71  1  0.22996500  0.92725300  0.39142100  1
  Cu  Cu72  1  0.23876000  0.51951600  0.03587000  1
  Cu  Cu73  1  0.73876000  0.48048400  0.46413000  1
  Cu  Cu74  1  0.76124000  0.48048400  0.96413000  1
  Cu  Cu75  1  0.26124000  0.51951600  0.53587000  1
  Cu  Cu76  1  0.21297800  0.65054400  0.68255000  1
  Cu  Cu77  1  0.71297800  0.34945600  0.81745000  1
  Cu  Cu78  1  0.78702200  0.34945600  0.31745000  1
  Cu  Cu79  1  0.28702200  0.65054400  0.18255000  1
  Cu  Cu80  1  0.23268300  0.90256000  0.61609700  1
  Cu  Cu81  1  0.73268300  0.09744000  0.88390300  1
  Cu  Cu82  1  0.76731700  0.09744000  0.38390300  1
  Cu  Cu83  1  0.62621200  0.28679600  0.10419600  1
