# generated using pymatgen
data_CuNi3C16
_symmetry_space_group_name_H-M   'P 1'
_cell_length_a   9.07615898
_cell_length_b   9.07409125
_cell_length_c   22.59820320
_cell_angle_alpha   90.00000000
_cell_angle_beta   90.10849212
_cell_angle_gamma   119.99246635
_symmetry_Int_Tables_number   1
_chemical_formula_structural   CuNi3C16
_chemical_formula_sum   'Cu6 Ni18 C96'
_cell_volume   1611.91339289
_cell_formula_units_Z   6
loop_
 _symmetry_equiv_pos_site_id
 _symmetry_equiv_pos_as_xyz
  1  'x, y, z'
loop_
 _atom_site_type_symbol
 _atom_site_label
 _atom_site_symmetry_multiplicity
 _atom_site_fract_x
 _atom_site_fract_y
 _atom_site_fract_z
 _atom_site_occupancy
  C  C0  1  0.99265876  0.98349211  0.49762198  1
  C  C1  1  0.99265876  0.00916665  0.99762198  1
  C  C2  1  0.66678422  0.33457897  0.83092766  1
  C  C3  1  0.66678422  0.33220425  0.33092766  1
  C  C4  1  0.33160209  0.66534338  0.16429474  1
  C  C5  1  0.33160209  0.66625971  0.66429474  1
  C  C6  1  0.36823970  0.36535627  0.24946884  1
  C  C7  1  0.99341462  0.63100679  0.24898728  1
  C  C8  1  0.99341462  0.36240783  0.74898728  1
  C  C9  1  0.36823970  0.00288343  0.74946884  1
  C  C10  1  0.30302724  0.33936829  0.58282249  1
  C  C11  1  0.66393417  0.96644902  0.58218555  1
  C  C12  1  0.30302724  0.96365795  0.08282249  1
  C  C13  1  0.66393417  0.69748415  0.08218555  1
  C  C14  1  0.96970755  0.67322566  0.91548587  1
  C  C15  1  0.33017522  0.29890016  0.91630078  1
  C  C16  1  0.96970755  0.29648289  0.41548587  1
  C  C17  1  0.33017522  0.03127606  0.41630078  1
  C  C18  1  0.99946085  0.99656021  0.64558419  1
  C  C19  1  0.99946085  0.00290065  0.14558419  1
  C  C20  1  0.66768938  0.32831563  0.97880400  1
  C  C21  1  0.66768938  0.33937276  0.47880400  1
  C  C22  1  0.33769739  0.67075232  0.31224693  1
  C  C23  1  0.33769739  0.66694607  0.81224693  1
  Ni  Ni24  1  0.29272906  0.00202259  0.25033131  1
  Ni  Ni25  1  0.70884234  0.70944899  0.24905724  1
  Ni  Ni26  1  0.99605621  0.28971668  0.25148703  1
  Ni  Ni27  1  0.29272906  0.29070647  0.75033131  1
  Ni  Ni28  1  0.99605621  0.70633953  0.75148703  1
  Ni  Ni29  1  0.70884234  0.99939335  0.74905724  1
  Ni  Ni30  1  0.95949384  0.33752692  0.58389282  1
  Ni  Ni31  1  0.37583471  0.04076997  0.58367814  1
  Ni  Ni32  1  0.66713068  0.62530501  0.58338175  1
  Ni  Ni33  1  0.95949384  0.62196592  0.08389282  1
  Ni  Ni34  1  0.66713068  0.04182467  0.08338175  1
  Ni  Ni35  1  0.37583471  0.33506374  0.08367814  1
  Ni  Ni36  1  0.62719183  0.67099975  0.91849969  1
  Ni  Ni37  1  0.04204698  0.37370766  0.91563754  1
  Ni  Ni38  1  0.33388296  0.95749597  0.91663632  1
  Ni  Ni39  1  0.62719183  0.95619308  0.41849969  1
  Ni  Ni40  1  0.33388296  0.37638798  0.41663632  1
  Ni  Ni41  1  0.04204698  0.66834032  0.41563754  1
  Cu  Cu42  1  0.99548735  0.99622302  0.35218283  1
  Cu  Cu43  1  0.99548735  0.99926433  0.85218283  1
  Cu  Cu44  1  0.66703212  0.33778469  0.68559002  1
  Cu  Cu45  1  0.66703212  0.32924643  0.18559002  1
  Cu  Cu46  1  0.32987736  0.66217607  0.01898064  1
  Cu  Cu47  1  0.32987736  0.66770229  0.51898064  1
  C  C48  1  0.21316050  0.03937249  0.30937592  1
  C  C49  1  0.83455496  0.78899435  0.30573174  1
  C  C50  1  0.96927944  0.18220767  0.31181059  1
  C  C51  1  0.21316050  0.17378800  0.80937592  1
  C  C52  1  0.96927944  0.78707177  0.81181059  1
  C  C53  1  0.83455496  0.04556060  0.80573174  1
  C  C54  1  0.80046665  0.97124536  0.69018173  1
  C  C55  1  0.16630173  0.19944690  0.69216608  1
  C  C56  1  0.02982112  0.83798991  0.69518424  1
  C  C57  1  0.80046665  0.82922129  0.19018173  1
  C  C58  1  0.02982112  0.19183121  0.19518424  1
  C  C59  1  0.16630173  0.96685483  0.19216608  1
  C  C60  1  0.87801208  0.36404954  0.64403714  1
  C  C61  1  0.49245130  0.12045898  0.64290595  1
  C  C62  1  0.62041549  0.49977363  0.64001401  1
  C  C63  1  0.87801208  0.51396154  0.14403714  1
  C  C64  1  0.62041549  0.12064086  0.14001401  1
  C  C65  1  0.49245130  0.37199131  0.14290595  1
  C  C66  1  0.46807838  0.30098924  0.02575206  1
  C  C67  1  0.83324781  0.53099933  0.02590667  1
  C  C68  1  0.69548117  0.16694339  0.02586463  1
  C  C69  1  0.46807838  0.16708813  0.52575206  1
  C  C70  1  0.69548117  0.52853678  0.52586463  1
  C  C71  1  0.83324781  0.30224748  0.52590667  1
  C  C72  1  0.54646353  0.69922765  0.97850110  1
  C  C73  1  0.16586170  0.45633933  0.97284169  1
  C  C74  1  0.29382815  0.84018167  0.97571867  1
  C  C75  1  0.54646353  0.84723688  0.47850110  1
  C  C76  1  0.29382815  0.45364747  0.47571867  1
  C  C77  1  0.16586170  0.70952337  0.47284169  1
  C  C78  1  0.13170513  0.63290232  0.35721393  1
  C  C79  1  0.49536106  0.85905928  0.36194024  1
  C  C80  1  0.36074014  0.49726572  0.35831254  1
  C  C81  1  0.13170513  0.49880381  0.85721393  1
  C  C82  1  0.36074014  0.86347542  0.85831254  1
  C  C83  1  0.49536106  0.63630278  0.86194024  1
  C  C84  1  0.03043799  0.84083559  0.41074156  1
  C  C85  1  0.81952609  0.98989331  0.41245234  1
  C  C86  1  0.16643286  0.18634623  0.41138745  1
  C  C87  1  0.03043799  0.18960241  0.91074156  1
  C  C88  1  0.16643286  0.98008663  0.91138745  1
  C  C89  1  0.81952609  0.82963278  0.91245234  1
  C  C90  1  0.97169288  0.16056668  0.58850390  1
  C  C91  1  0.19198969  0.03517807  0.58924951  1
  C  C92  1  0.83606080  0.81503977  0.58858980  1
  C  C93  1  0.97169288  0.81112620  0.08850390  1
  C  C94  1  0.83606080  0.02102103  0.08858980  1
  C  C95  1  0.19198969  0.15681162  0.08924951  1
  C  C96  1  0.68519458  0.16623176  0.74414339  1
  C  C97  1  0.47621182  0.30156749  0.74463096  1
  C  C98  1  0.83719185  0.51352193  0.74580071  1
  C  C99  1  0.68519458  0.51896182  0.24414339  1
  C  C100  1  0.83719185  0.32366892  0.24580071  1
  C  C101  1  0.47621182  0.17464333  0.24463096  1
  C  C102  1  0.63704561  0.49343611  0.92222005  1
  C  C103  1  0.85895452  0.36899028  0.92214418  1
  C  C104  1  0.50210373  0.14930655  0.92177029  1
  C  C105  1  0.63704561  0.14360849  0.42222005  1
  C  C106  1  0.50210373  0.35279618  0.42177029  1
  C  C107  1  0.85895452  0.48996324  0.42214418  1
  C  C108  1  0.36381960  0.50735486  0.07855511  1
  C  C109  1  0.15335880  0.65732442  0.07884002  1
  C  C110  1  0.49946906  0.85305040  0.07723199  1
  C  C111  1  0.36381960  0.85646574  0.57855511  1
  C  C112  1  0.49946906  0.64641966  0.57723199  1
  C  C113  1  0.15335880  0.49603539  0.57884002  1
  C  C114  1  0.29852168  0.82383794  0.25582578  1
  C  C115  1  0.51799939  0.68740523  0.25546247  1
  C  C116  1  0.17346208  0.47736999  0.25490593  1
  C  C117  1  0.29852168  0.47468474  0.75582578  1
  C  C118  1  0.17346208  0.69609309  0.75490593  1
  C  C119  1  0.51799939  0.83059515  0.75546247  1
