# generated using pymatgen
data_Cu4NiC2
_symmetry_space_group_name_H-M   'P 1'
_cell_length_a   5.62605900
_cell_length_b   6.78433500
_cell_length_c   6.78433500
_cell_angle_alpha   90.00000000
_cell_angle_beta   90.00000000
_cell_angle_gamma   90.00000000
_symmetry_Int_Tables_number   1
_chemical_formula_structural   Cu4NiC2
_chemical_formula_sum   'Cu8 Ni2 C4'
_cell_volume   258.95175064
_cell_formula_units_Z   2
loop_
 _symmetry_equiv_pos_site_id
 _symmetry_equiv_pos_as_xyz
  1  'x, y, z'
loop_
 _atom_site_type_symbol
 _atom_site_label
 _atom_site_symmetry_multiplicity
 _atom_site_fract_x
 _atom_site_fract_y
 _atom_site_fract_z
 _atom_site_occupancy
  C  C0  1  0.73246100  0.75000000  0.75000000  1
  C  C1  1  0.26753900  0.25000000  0.25000000  1
  C  C2  1  0.00000000  0.75000000  0.25000000  1
  C  C3  1  0.00000000  0.25000000  0.75000000  1
  Ni  Ni4  1  0.66448800  0.25000000  0.25000000  1
  Ni  Ni5  1  0.33551200  0.75000000  0.75000000  1
  Cu  Cu6  1  0.18515500  0.96512300  0.25000000  1
  Cu  Cu7  1  0.18515500  0.53487700  0.25000000  1
  Cu  Cu8  1  0.18515500  0.25000000  0.53487700  1
  Cu  Cu9  1  0.18515500  0.25000000  0.96512300  1
  Cu  Cu10  1  0.81484500  0.75000000  0.46512300  1
  Cu  Cu11  1  0.81484500  0.03487700  0.75000000  1
  Cu  Cu12  1  0.81484500  0.75000000  0.03487700  1
  Cu  Cu13  1  0.81484500  0.46512300  0.75000000  1
