# generated using pymatgen
data_Cu3NiC36
_symmetry_space_group_name_H-M   'P 1'
_cell_length_a   15.42141685
_cell_length_b   8.87521315
_cell_length_c   8.88246462
_cell_angle_alpha   90.35940028
_cell_angle_beta   124.78287607
_cell_angle_gamma   89.99584273
_symmetry_Int_Tables_number   1
_chemical_formula_structural   Cu3NiC36
_chemical_formula_sum   'Cu6 Ni2 C72'
_cell_volume   998.47297718
_cell_formula_units_Z   2
loop_
 _symmetry_equiv_pos_site_id
 _symmetry_equiv_pos_as_xyz
  1  'x, y, z'
loop_
 _atom_site_type_symbol
 _atom_site_label
 _atom_site_symmetry_multiplicity
 _atom_site_fract_x
 _atom_site_fract_y
 _atom_site_fract_z
 _atom_site_occupancy
  C  C0  1  0.24971170  0.74779769  0.99847410  1
  C  C1  1  0.74806213  0.74735730  0.49002809  1
  C  C2  1  0.74971170  0.24779769  0.99847410  1
  C  C3  1  0.24806213  0.24735730  0.49002809  1
  C  C4  1  0.50985148  0.10360330  0.77058737  1
  C  C5  1  0.49790896  0.88306605  0.23605820  1
  C  C6  1  0.00985148  0.60360330  0.77058737  1
  C  C7  1  0.99790896  0.38306605  0.23605820  1
  C  C8  1  0.80081584  0.93179867  0.22187517  1
  C  C9  1  0.18461580  0.07066065  0.79092897  1
  C  C10  1  0.30081584  0.43179867  0.22187517  1
  C  C11  1  0.68461580  0.57066065  0.79092897  1
  Ni  Ni12  1  0.10431799  0.24470409  0.06299700  1
  Ni  Ni13  1  0.60431799  0.74470409  0.06299700  1
  Cu  Cu14  1  0.10314318  0.74507201  0.55838209  1
  Cu  Cu15  1  0.89230732  0.75492157  0.93491563  1
  Cu  Cu16  1  0.89793416  0.25496460  0.44356640  1
  Cu  Cu17  1  0.60314318  0.24507201  0.55838209  1
  Cu  Cu18  1  0.39230732  0.25492157  0.93491563  1
  Cu  Cu19  1  0.39793416  0.75496460  0.44356640  1
  C  C20  1  0.64916920  0.89816522  0.75169510  1
  C  C21  1  0.35400172  0.10071280  0.25262160  1
  C  C22  1  0.14916920  0.39816522  0.75169510  1
  C  C23  1  0.85400172  0.60071280  0.25262160  1
  C  C24  1  0.99622850  0.95812614  0.74460882  1
  C  C25  1  0.00148931  0.03975302  0.25647090  1
  C  C26  1  0.49622850  0.45812614  0.74460882  1
  C  C27  1  0.50148931  0.53975302  0.25647090  1
  C  C28  1  0.35560180  0.89463784  0.75959328  1
  C  C29  1  0.64476516  0.11426783  0.24387267  1
  C  C30  1  0.85560180  0.39463784  0.75959328  1
  C  C31  1  0.14476516  0.61426783  0.24387267  1
  C  C32  1  0.15584221  0.58064094  0.72813285  1
  C  C33  1  0.85187468  0.57113250  0.75201733  1
  C  C34  1  0.85428388  0.41517445  0.26270805  1
  C  C35  1  0.15154189  0.44168975  0.25407431  1
  C  C36  1  0.65584221  0.08064094  0.72813285  1
  C  C37  1  0.35187468  0.07113250  0.75201733  1
  C  C38  1  0.35428388  0.91517445  0.26270805  1
  C  C39  1  0.65154189  0.94168975  0.25407431  1
  C  C40  1  0.42809101  0.55239355  0.56589635  1
  C  C41  1  0.56482527  0.55777644  0.91011877  1
  C  C42  1  0.56356831  0.44475767  0.43192247  1
  C  C43  1  0.44011861  0.42907563  0.08635983  1
  C  C44  1  0.92809101  0.05239355  0.56589635  1
  C  C45  1  0.06482527  0.05777644  0.91011877  1
  C  C46  1  0.06356831  0.94475767  0.43192247  1
  C  C47  1  0.94011861  0.92907563  0.08635983  1
  C  C48  1  0.25332852  0.84117921  0.73730704  1
  C  C49  1  0.74725820  0.81242065  0.76053626  1
  C  C50  1  0.74144173  0.17919171  0.25425194  1
  C  C51  1  0.26209285  0.18548780  0.24897522  1
  C  C52  1  0.75332852  0.34117921  0.73730704  1
  C  C53  1  0.24725820  0.31242065  0.76053626  1
  C  C54  1  0.24144173  0.67919171  0.25425194  1
  C  C55  1  0.76209285  0.68548780  0.24897522  1
  C  C56  1  0.36100169  0.84510877  0.59393248  1
  C  C57  1  0.64822608  0.87383001  0.92831339  1
  C  C58  1  0.64407016  0.17144843  0.40879597  1
  C  C59  1  0.35714663  0.13959076  0.07097095  1
  C  C60  1  0.86100169  0.34510877  0.59393248  1
  C  C61  1  0.14822608  0.37383001  0.92831339  1
  C  C62  1  0.14407016  0.67144843  0.40879597  1
  C  C63  1  0.85714663  0.63959076  0.07097095  1
  C  C64  1  0.45202663  0.83726878  0.93736434  1
  C  C65  1  0.53806473  0.82239188  0.56933952  1
  C  C66  1  0.54222684  0.16847162  0.06401552  1
  C  C67  1  0.46995633  0.16111329  0.42997824  1
  C  C68  1  0.95202663  0.33726878  0.93736434  1
  C  C69  1  0.03806473  0.32239188  0.56933952  1
  C  C70  1  0.04222684  0.66847162  0.06401552  1
  C  C71  1  0.96995633  0.66111329  0.42997824  1
  C  C72  1  0.07548271  0.85370213  0.73291786  1
  C  C73  1  0.92157637  0.84825856  0.75621054  1
  C  C74  1  0.91236466  0.12927800  0.25213051  1
  C  C75  1  0.07366575  0.14900868  0.24705484  1
  C  C76  1  0.57548271  0.35370213  0.73291786  1
  C  C77  1  0.42157637  0.34825856  0.75621054  1
  C  C78  1  0.41236466  0.62927800  0.25213051  1
  C  C79  1  0.57366575  0.64900868  0.24705484  1
