# generated using pymatgen
data_Cu2NiC9
_symmetry_space_group_name_H-M   'P 1'
_cell_length_a   6.00390100
_cell_length_b   6.00390100
_cell_length_c   20.97179400
_cell_angle_alpha   90.00000000
_cell_angle_beta   90.00000000
_cell_angle_gamma   90.00000000
_symmetry_Int_Tables_number   1
_chemical_formula_structural   Cu2NiC9
_chemical_formula_sum   'Cu8 Ni4 C36'
_cell_volume   755.96663477
_cell_formula_units_Z   4
loop_
 _symmetry_equiv_pos_site_id
 _symmetry_equiv_pos_as_xyz
  1  'x, y, z'
loop_
 _atom_site_type_symbol
 _atom_site_label
 _atom_site_symmetry_multiplicity
 _atom_site_fract_x
 _atom_site_fract_y
 _atom_site_fract_z
 _atom_site_occupancy
  Ni  Ni0  1  0.24150100  0.75849900  0.50000000  1
  Ni  Ni1  1  0.75849900  0.24150100  0.50000000  1
  Ni  Ni2  1  0.25849900  0.25849900  0.00000000  1
  Ni  Ni3  1  0.74150100  0.74150100  0.00000000  1
  Cu  Cu4  1  0.77698200  0.22301800  0.31449500  1
  Cu  Cu5  1  0.77698200  0.22301800  0.68550500  1
  Cu  Cu6  1  0.22301800  0.77698200  0.68550500  1
  Cu  Cu7  1  0.27698200  0.27698200  0.18550500  1
  Cu  Cu8  1  0.22301800  0.77698200  0.31449500  1
  Cu  Cu9  1  0.27698200  0.27698200  0.81449500  1
  Cu  Cu10  1  0.72301800  0.72301800  0.81449500  1
  Cu  Cu11  1  0.72301800  0.72301800  0.18550500  1
  C  C12  1  0.74155100  0.74155100  0.60180300  1
  C  C13  1  0.25844900  0.25844900  0.60180300  1
  C  C14  1  0.74155100  0.74155100  0.39819700  1
  C  C15  1  0.24155100  0.75844900  0.10180300  1
  C  C16  1  0.75844900  0.24155100  0.10180300  1
  C  C17  1  0.75844900  0.24155100  0.89819700  1
  C  C18  1  0.24155100  0.75844900  0.89819700  1
  C  C19  1  0.25844900  0.25844900  0.39819700  1
  C  C20  1  0.00000000  0.00000000  0.59161500  1
  C  C21  1  0.50000000  0.50000000  0.09161500  1
  C  C22  1  0.50000000  0.50000000  0.90838500  1
  C  C23  1  0.00000000  0.00000000  0.40838500  1
  C  C24  1  0.00000000  0.00000000  0.86625500  1
  C  C25  1  0.50000000  0.50000000  0.36625500  1
  C  C26  1  0.50000000  0.50000000  0.63374500  1
  C  C27  1  0.00000000  0.00000000  0.13374500  1
  C  C28  1  0.50000000  0.00000000  0.11510900  1
  C  C29  1  0.50000000  0.00000000  0.61510900  1
  C  C30  1  0.00000000  0.50000000  0.38489100  1
  C  C31  1  0.00000000  0.50000000  0.88489100  1
  C  C32  1  0.50000000  0.00000000  0.88489100  1
  C  C33  1  0.50000000  0.00000000  0.38489100  1
  C  C34  1  0.00000000  0.50000000  0.61510900  1
  C  C35  1  0.00000000  0.50000000  0.11510900  1
  C  C36  1  0.81742100  0.81742100  0.71122100  1
  C  C37  1  0.18257900  0.18257900  0.71122100  1
  C  C38  1  0.81742100  0.81742100  0.28877900  1
  C  C39  1  0.31742100  0.68257900  0.21122100  1
  C  C40  1  0.79673700  0.20326300  0.00000000  1
  C  C41  1  0.29673700  0.29673700  0.50000000  1
  C  C42  1  0.70326300  0.70326300  0.50000000  1
  C  C43  1  0.20326300  0.79673700  0.00000000  1
  C  C44  1  0.18257900  0.18257900  0.28877900  1
  C  C45  1  0.31742100  0.68257900  0.78877900  1
  C  C46  1  0.68257900  0.31742100  0.78877900  1
  C  C47  1  0.68257900  0.31742100  0.21122100  1
