# generated using pymatgen
data_Cu2Ni2C13
_symmetry_space_group_name_H-M   'P 1'
_cell_length_a   5.67813686
_cell_length_b   6.15563854
_cell_length_c   13.91093200
_cell_angle_alpha   90.00000000
_cell_angle_beta   90.00000000
_cell_angle_gamma   95.05372917
_symmetry_Int_Tables_number   1
_chemical_formula_structural   Cu2Ni2C13
_chemical_formula_sum   'Cu4 Ni4 C26'
_cell_volume   484.33248227
_cell_formula_units_Z   2
loop_
 _symmetry_equiv_pos_site_id
 _symmetry_equiv_pos_as_xyz
  1  'x, y, z'
loop_
 _atom_site_type_symbol
 _atom_site_label
 _atom_site_symmetry_multiplicity
 _atom_site_fract_x
 _atom_site_fract_y
 _atom_site_fract_z
 _atom_site_occupancy
  C  C0  1  0.50907800  0.74157400  0.00350300  1
  C  C1  1  0.05313000  0.43345300  0.31191800  1
  C  C2  1  0.94687000  0.56654600  0.68808200  1
  C  C3  1  0.50000000  0.50000000  0.50000000  1
  C  C4  1  0.55313000  0.43345300  0.18808200  1
  C  C5  1  0.44687000  0.56654600  0.81191800  1
  C  C6  1  0.00907800  0.74157400  0.49649700  1
  C  C7  1  0.49092200  0.25842600  0.99649700  1
  C  C8  1  0.00000000  0.50000000  0.00000000  1
  C  C9  1  0.99092200  0.25842600  0.50350300  1
  Ni  Ni10  1  0.59964000  0.93390000  0.63465500  1
  Ni  Ni11  1  0.90036000  0.06610000  0.13465500  1
  Ni  Ni12  1  0.09964000  0.93390000  0.86534500  1
  Ni  Ni13  1  0.40036000  0.06610000  0.36534500  1
  Cu  Cu14  1  0.22941000  0.32992800  0.67571100  1
  Cu  Cu15  1  0.72941000  0.32992800  0.82428900  1
  Cu  Cu16  1  0.77059000  0.67007200  0.32428900  1
  Cu  Cu17  1  0.27059000  0.67007200  0.17571100  1
  C  C18  1  0.42686300  0.77002400  0.55645100  1
  C  C19  1  0.18191900  0.50515100  0.44098600  1
  C  C20  1  0.63047200  0.02565100  0.07358200  1
  C  C21  1  0.68191900  0.50515100  0.05901400  1
  C  C22  1  0.31411000  0.24928500  0.27769100  1
  C  C23  1  0.07313700  0.22997600  0.05645100  1
  C  C24  1  0.57313700  0.22997600  0.44354900  1
  C  C25  1  0.81808100  0.49484900  0.55901400  1
  C  C26  1  0.86952800  0.97434900  0.57358200  1
  C  C27  1  0.18589000  0.75071500  0.77769100  1
  C  C28  1  0.68589000  0.75071500  0.72230900  1
  C  C29  1  0.31808100  0.49484900  0.94098600  1
  C  C30  1  0.81411000  0.24928500  0.22230900  1
  C  C31  1  0.92686300  0.77002400  0.94354900  1
  C  C32  1  0.13047200  0.02565100  0.42641800  1
  C  C33  1  0.36952800  0.97434900  0.92641800  1
