# generated using pymatgen
data_Cu8Ni8C9
_symmetry_space_group_name_H-M   'P 1'
_cell_length_a   9.79413721
_cell_length_b   10.11170573
_cell_length_c   3.12537400
_cell_angle_alpha   90.00000000
_cell_angle_beta   90.00000000
_cell_angle_gamma   93.65458066
_symmetry_Int_Tables_number   1
_chemical_formula_structural   Cu8Ni8C9
_chemical_formula_sum   'Cu8 Ni8 C9'
_cell_volume   308.89334181
_cell_formula_units_Z   1
loop_
 _symmetry_equiv_pos_site_id
 _symmetry_equiv_pos_as_xyz
  1  'x, y, z'
loop_
 _atom_site_type_symbol
 _atom_site_label
 _atom_site_symmetry_multiplicity
 _atom_site_fract_x
 _atom_site_fract_y
 _atom_site_fract_z
 _atom_site_occupancy
  C  C0  1  0.76092300  0.01296100  0.00000000  1
  C  C1  1  0.12109000  0.98494600  0.00000000  1
  C  C2  1  0.00741900  0.49667000  0.00000000  1
  C  C3  1  0.21275800  0.27314200  0.50000000  1
  C  C4  1  0.23448900  0.72148100  0.50000000  1
  C  C5  1  0.51183100  0.49821400  0.00000000  1
  C  C6  1  0.46352900  0.01154000  0.00000000  1
  C  C7  1  0.74442400  0.30599800  0.50000000  1
  C  C8  1  0.76183100  0.68891400  0.50000000  1
  Ni  Ni9  1  0.09149000  0.40776200  0.50000000  1
  Ni  Ni10  1  0.13399300  0.87820100  0.50000000  1
  Ni  Ni11  1  0.15303300  0.17151900  0.00000000  1
  Ni  Ni12  1  0.16188900  0.63620200  0.00000000  1
  Ni  Ni13  1  0.58591000  0.40810600  0.50000000  1
  Ni  Ni14  1  0.65056100  0.64200000  0.00000000  1
  Ni  Ni15  1  0.84270300  0.35574000  0.00000000  1
  Ni  Ni16  1  0.91059400  0.58951100  0.50000000  1
  Cu  Cu17  1  0.34382200  0.36298500  0.00000000  1
  Cu  Cu18  1  0.37252900  0.82909300  0.00000000  1
  Cu  Cu19  1  0.38538700  0.11105900  0.50000000  1
  Cu  Cu20  1  0.40555200  0.59336400  0.50000000  1
  Cu  Cu21  1  0.61625000  0.94882200  0.50000000  1
  Cu  Cu22  1  0.63741000  0.16503100  0.00000000  1
  Cu  Cu23  1  0.82721700  0.83677100  0.00000000  1
  Cu  Cu24  1  0.84809000  0.09774200  0.50000000  1
