# generated using pymatgen
data_CuNi2C5
_symmetry_space_group_name_H-M   'P 1'
_cell_length_a   6.13531000
_cell_length_b   10.19366300
_cell_length_c   10.59534500
_cell_angle_alpha   90.00000000
_cell_angle_beta   90.00000000
_cell_angle_gamma   90.00000000
_symmetry_Int_Tables_number   1
_chemical_formula_structural   CuNi2C5
_chemical_formula_sum   'Cu8 Ni16 C40'
_cell_volume   662.64646526
_cell_formula_units_Z   8
loop_
 _symmetry_equiv_pos_site_id
 _symmetry_equiv_pos_as_xyz
  1  'x, y, z'
loop_
 _atom_site_type_symbol
 _atom_site_label
 _atom_site_symmetry_multiplicity
 _atom_site_fract_x
 _atom_site_fract_y
 _atom_site_fract_z
 _atom_site_occupancy
  C  C0  1  0.94060300  0.16449700  0.57344200  1
  C  C1  1  0.44060300  0.33550300  0.92655800  1
  C  C2  1  0.55939700  0.66449700  0.42655800  1
  C  C3  1  0.05939700  0.83550300  0.07344200  1
  C  C4  1  0.05939700  0.83550300  0.42655800  1
  C  C5  1  0.55939700  0.66449700  0.07344200  1
  C  C6  1  0.44060300  0.33550300  0.57344200  1
  C  C7  1  0.94060300  0.16449700  0.92655800  1
  Ni  Ni8  1  0.29714200  0.74878600  0.89280200  1
  Ni  Ni9  1  0.79714200  0.75121400  0.60719800  1
  Ni  Ni10  1  0.20285800  0.24878600  0.10719800  1
  Ni  Ni11  1  0.70285800  0.25121400  0.39280200  1
  Ni  Ni12  1  0.70285800  0.25121400  0.10719800  1
  Ni  Ni13  1  0.20285800  0.24878600  0.39280200  1
  Ni  Ni14  1  0.79714200  0.75121400  0.89280200  1
  Ni  Ni15  1  0.29714200  0.74878600  0.60719800  1
  Ni  Ni16  1  0.20848800  0.61924600  0.95164400  1
  Ni  Ni17  1  0.70848800  0.88075400  0.54835600  1
  Ni  Ni18  1  0.29151200  0.11924600  0.04835600  1
  Ni  Ni19  1  0.79151200  0.38075400  0.45164400  1
  Ni  Ni20  1  0.79151200  0.38075400  0.04835600  1
  Ni  Ni21  1  0.29151200  0.11924600  0.45164400  1
  Ni  Ni22  1  0.70848800  0.88075400  0.95164400  1
  Ni  Ni23  1  0.20848800  0.61924600  0.54835600  1
  Cu  Cu24  1  0.96651500  0.59121100  0.25000000  1
  Cu  Cu25  1  0.46651500  0.90878900  0.25000000  1
  Cu  Cu26  1  0.53348500  0.09121100  0.75000000  1
  Cu  Cu27  1  0.03348500  0.40878900  0.75000000  1
  Cu  Cu28  1  0.26069300  0.46608800  0.25000000  1
  Cu  Cu29  1  0.76069300  0.03391200  0.25000000  1
  Cu  Cu30  1  0.23930700  0.96608800  0.75000000  1
  Cu  Cu31  1  0.73930700  0.53391200  0.75000000  1
  C  C32  1  0.76592000  0.79408400  0.52520100  1
  C  C33  1  0.26592000  0.70591600  0.97479900  1
  C  C34  1  0.73408000  0.29408400  0.47479900  1
  C  C35  1  0.23408000  0.20591600  0.02520100  1
  C  C36  1  0.23408000  0.20591600  0.47479900  1
  C  C37  1  0.73408000  0.29408400  0.02520100  1
  C  C38  1  0.26592000  0.70591600  0.52520100  1
  C  C39  1  0.76592000  0.79408400  0.97479900  1
  C  C40  1  0.04467900  0.72851800  0.25000000  1
  C  C41  1  0.54467900  0.77148200  0.25000000  1
  C  C42  1  0.45532100  0.22851800  0.75000000  1
  C  C43  1  0.95532100  0.27148200  0.75000000  1
  C  C44  1  0.14678300  0.44437800  0.63284000  1
  C  C45  1  0.64678300  0.05562200  0.86716000  1
  C  C46  1  0.35321700  0.94437800  0.36716000  1
  C  C47  1  0.85321700  0.55562200  0.13284000  1
  C  C48  1  0.85321700  0.55562200  0.36716000  1
  C  C49  1  0.35321700  0.94437800  0.13284000  1
  C  C50  1  0.64678300  0.05562200  0.63284000  1
  C  C51  1  0.14678300  0.44437800  0.86716000  1
  C  C52  1  0.16588400  0.33249300  0.25000000  1
  C  C53  1  0.66588400  0.16750700  0.25000000  1
  C  C54  1  0.33411600  0.83249300  0.75000000  1
  C  C55  1  0.83411600  0.66750700  0.75000000  1
  C  C56  1  0.62294800  0.50313200  0.63324200  1
  C  C57  1  0.12294800  0.99686800  0.86675800  1
  C  C58  1  0.87705200  0.00313200  0.36675800  1
  C  C59  1  0.37705200  0.49686800  0.13324200  1
  C  C60  1  0.37705200  0.49686800  0.36675800  1
  C  C61  1  0.87705200  0.00313200  0.13324200  1
  C  C62  1  0.12294800  0.99686800  0.63324200  1
  C  C63  1  0.62294800  0.50313200  0.86675800  1
