# generated using pymatgen
data_Cu6Ni3C61
_symmetry_space_group_name_H-M   'P 1'
_cell_length_a   17.61801376
_cell_length_b   8.76018411
_cell_length_c   22.62670544
_cell_angle_alpha   89.77323913
_cell_angle_beta   90.15772344
_cell_angle_gamma   120.18407829
_symmetry_Int_Tables_number   1
_chemical_formula_structural   Cu6Ni3C61
_chemical_formula_sum   'Cu18 Ni9 C183'
_cell_volume   3018.63080674
_cell_formula_units_Z   3
loop_
 _symmetry_equiv_pos_site_id
 _symmetry_equiv_pos_as_xyz
  1  'x, y, z'
loop_
 _atom_site_type_symbol
 _atom_site_label
 _atom_site_symmetry_multiplicity
 _atom_site_fract_x
 _atom_site_fract_y
 _atom_site_fract_z
 _atom_site_occupancy
  C  C0  1  0.99374064  0.97982995  0.49765881  1
  C  C1  1  0.50171225  0.99694432  0.99816847  1
  C  C2  1  0.33409256  0.31751288  0.84105133  1
  C  C3  1  0.83086248  0.33728441  0.84018705  1
  C  C4  1  0.32458848  0.32203867  0.33913423  1
  C  C5  1  0.83708859  0.34141230  0.34607695  1
  C  C6  1  0.49449044  0.99538422  0.36197301  1
  C  C7  1  0.00536189  0.00346852  0.86429374  1
  C  C8  1  0.49960370  0.00068416  0.64066174  1
  C  C9  1  0.99970071  0.01105460  0.14624756  1
  C  C10  1  0.32708242  0.33320569  0.69098174  1
  C  C11  1  0.82761317  0.32786797  0.68409168  1
  C  C12  1  0.34038546  0.34441102  0.19092720  1
  C  C13  1  0.83322328  0.32041081  0.18953163  1
  C  C14  1  0.16457906  0.66423073  0.02073649  1
  C  C15  1  0.66582496  0.66103531  0.02520486  1
  C  C16  1  0.16789386  0.67419067  0.52170518  1
  C  C17  1  0.67327689  0.66313010  0.52448667  1
  C  C18  1  0.16344982  0.67863870  0.30788184  1
  C  C19  1  0.16770060  0.67329864  0.80849317  1
  C  C20  1  0.66432148  0.64687349  0.81266079  1
  Ni  Ni21  1  0.00927642  0.00167902  0.35303392  1
  Ni  Ni22  1  0.50721934  0.04772093  0.85137718  1
  Ni  Ni23  1  0.99626999  0.00669488  0.64796063  1
  Ni  Ni24  1  0.49256304  0.96989985  0.14542870  1
  Ni  Ni25  1  0.34520374  0.33981879  0.97528859  1
  Ni  Ni26  1  0.83735676  0.32942689  0.97368207  1
  Ni  Ni27  1  0.33142076  0.33268827  0.48019293  1
  Ni  Ni28  1  0.82990561  0.36710129  0.47838356  1
  Ni  Ni29  1  0.67229128  0.66914129  0.31676532  1
  Cu  Cu30  1  0.14216677  0.00589083  0.24981413  1
  Cu  Cu31  1  0.35897686  0.72197336  0.25012455  1
  Cu  Cu32  1  0.99800303  0.27566379  0.25822368  1
  Cu  Cu33  1  0.13514984  0.27693595  0.74835934  1
  Cu  Cu34  1  0.64346059  0.27886293  0.75051051  1
  Cu  Cu35  1  0.36125131  0.00233850  0.75044633  1
  Cu  Cu36  1  0.69215572  0.05359345  0.57619821  1
  Cu  Cu37  1  0.33250935  0.61276552  0.57808460  1
  Cu  Cu38  1  0.84546351  0.63972600  0.58306859  1
  Cu  Cu39  1  0.47325018  0.62463381  0.07799214  1
  Cu  Cu40  1  0.83422675  0.05130174  0.07771402  1
  Cu  Cu41  1  0.80772162  0.65314336  0.91997033  1
  Cu  Cu42  1  0.01949936  0.38334515  0.91580960  1
  Cu  Cu43  1  0.52016935  0.36965589  0.91860169  1
  Cu  Cu44  1  0.17577989  0.96704400  0.91788174  1
  Cu  Cu45  1  0.30648965  0.96742096  0.41766746  1
  Cu  Cu46  1  0.67109373  0.38666419  0.41273560  1
  Cu  Cu47  1  0.01707571  0.66568305  0.41660336  1
  C  C48  1  0.64262836  0.99132671  0.25171370  1
  C  C49  1  0.85202375  0.71106280  0.24983999  1
  C  C50  1  0.50607218  0.29072128  0.24893468  1
  C  C51  1  0.99874484  0.71181207  0.74937511  1
  C  C52  1  0.50052258  0.71747017  0.75167800  1
  C  C53  1  0.85672287  0.00180804  0.75129092  1
  C  C54  1  0.47521801  0.33430358  0.58156937  1
  C  C55  1  0.97630158  0.33024269  0.58175391  1
  C  C56  1  0.18806254  0.04628283  0.58300397  1
  C  C57  1  0.97654447  0.62097623  0.08278396  1
  C  C58  1  0.33631554  0.04620060  0.08291246  1
  C  C59  1  0.19187881  0.33302054  0.08284403  1
  C  C60  1  0.68647943  0.32437498  0.08454654  1
  C  C61  1  0.31108515  0.66734369  0.91642489  1
  C  C62  1  0.66230937  0.94876993  0.91609730  1
  C  C63  1  0.81085737  0.95446932  0.41515317  1
  C  C64  1  0.16557813  0.37786560  0.41751426  1
  C  C65  1  0.52362000  0.66256193  0.41475663  1
  C  C66  1  0.10653289  0.05213246  0.30759449  1
  C  C67  1  0.60575878  0.03027467  0.30367510  1
  C  C68  1  0.42441432  0.80965007  0.30681572  1
  C  C69  1  0.90647865  0.77542967  0.30264972  1
  C  C70  1  0.48850609  0.17617669  0.30197213  1
  C  C71  1  0.97240774  0.14295366  0.31264932  1
  C  C72  1  0.09173179  0.14959093  0.80585234  1
  C  C73  1  0.60915816  0.16450644  0.80984732  1
  C  C74  1  0.48076938  0.78572913  0.80396761  1
  C  C75  1  0.98197962  0.78587115  0.80300296  1
  C  C76  1  0.41598043  0.03794683  0.81034353  1
  C  C77  1  0.91200320  0.02621717  0.80332368  1
  C  C78  1  0.40505374  0.97173655  0.69190219  1
  C  C79  1  0.88920679  0.96485599  0.69674076  1
  C  C80  1  0.08052755  0.19112240  0.68945446  1
  C  C81  1  0.58343299  0.18818314  0.69290806  1
  C  C82  1  0.01128179  0.81452818  0.69599078  1
  C  C83  1  0.51305159  0.82010126  0.69682449  1
  C  C84  1  0.39860450  0.84038852  0.19203646  1
  C  C85  1  0.89664783  0.81991559  0.19561298  1
  C  C86  1  0.00762517  0.18640180  0.19590025  1
  C  C87  1  0.51922643  0.21335166  0.19552094  1
  C  C88  1  0.08133870  0.97509192  0.19110792  1
  C  C89  1  0.59275127  0.96728323  0.19699331  1
  C  C90  1  0.43461732  0.35853796  0.63499627  1
  C  C91  1  0.93723029  0.35763466  0.63755912  1
  C  C92  1  0.24436833  0.12765659  0.63690551  1
  C  C93  1  0.75254585  0.13509992  0.63853876  1
  C  C94  1  0.31997052  0.49170945  0.63787090  1
  C  C95  1  0.82569976  0.50730386  0.64112660  1
  C  C96  1  0.42806306  0.50045377  0.13802046  1
  C  C97  1  0.93441928  0.50952468  0.13669848  1
  C  C98  1  0.31910300  0.12327360  0.13616528  1
  C  C99  1  0.82137422  0.14527322  0.13908953  1
  C  C100  1  0.24543036  0.35764863  0.13665938  1
  C  C101  1  0.74371259  0.35496722  0.13802047  1
  C  C102  1  0.22634014  0.29876548  0.02985231  1
  C  C103  1  0.72483654  0.29572430  0.03156825  1
  C  C104  1  0.40674296  0.52988102  0.02388128  1
  C  C105  1  0.92478046  0.54798716  0.02962753  1
  C  C106  1  0.34552385  0.14819980  0.02917904  1
  C  C107  1  0.85227553  0.18258676  0.02406200  1
  C  C108  1  0.22941346  0.15078362  0.52978141  1
  C  C109  1  0.74173142  0.18065720  0.52282987  1
  C  C110  1  0.35078380  0.52492809  0.52194802  1
  C  C111  1  0.86445373  0.56392684  0.52517348  1
  C  C112  1  0.42238381  0.30043185  0.52832341  1
  C  C113  1  0.92229622  0.30191739  0.53031152  1
  C  C114  1  0.26555856  0.68916052  0.97116483  1
  C  C115  1  0.76442678  0.69570458  0.97588300  1
  C  C116  1  0.08182710  0.47416187  0.97596392  1
  C  C117  1  0.58379546  0.47481081  0.97424898  1
  C  C118  1  0.15977489  0.83755420  0.97644230  1
  C  C119  1  0.65432741  0.84336190  0.97003798  1
  C  C120  1  0.26394842  0.84309181  0.47648502  1
  C  C121  1  0.76156389  0.83629730  0.46803929  1
  C  C122  1  0.15683922  0.46843151  0.47139035  1
  C  C123  1  0.65264178  0.47483570  0.47163720  1
  C  C124  1  0.08290277  0.69270852  0.47459273  1
  C  C125  1  0.57542112  0.68723461  0.46829663  1
  C  C126  1  0.06933888  0.64525763  0.35944511  1
  C  C127  1  0.56481340  0.64367528  0.36052005  1
  C  C128  1  0.24772370  0.87082957  0.36016812  1
  C  C129  1  0.75626575  0.87643010  0.36071706  1
  C  C130  1  0.17820267  0.48508824  0.36450217  1
  C  C131  1  0.68467901  0.50248614  0.35395806  1
  C  C132  1  0.07385907  0.51040614  0.86097652  1
  C  C133  1  0.56900213  0.48980810  0.85829195  1
  C  C134  1  0.18741989  0.87063365  0.86020775  1
  C  C135  1  0.67593099  0.86470866  0.86256937  1
  C  C136  1  0.25700353  0.64889027  0.86341703  1
  C  C137  1  0.74690687  0.63254004  0.86057303  1
  C  C138  1  0.00917418  0.84356369  0.40992123  1
  C  C139  1  0.51784920  0.82955504  0.40930508  1
  C  C140  1  0.40311648  0.98038991  0.40740565  1
  C  C141  1  0.89397691  0.95480749  0.41360679  1
  C  C142  1  0.08454529  0.20369461  0.41612293  1
  C  C143  1  0.58152233  0.19240592  0.40254555  1
  C  C144  1  0.01438750  0.19246311  0.90842202  1
  C  C145  1  0.51529390  0.18007833  0.91683131  1
  C  C146  1  0.08271905  0.96467024  0.90994805  1
  C  C147  1  0.58074040  0.95480435  0.91133112  1
  C  C148  1  0.39796093  0.82366905  0.91383800  1
  C  C149  1  0.90234618  0.82439190  0.90262328  1
  C  C150  1  0.48827909  0.17986795  0.58932731  1
  C  C151  1  0.98883162  0.17623062  0.58965563  1
  C  C152  1  0.10091726  0.02455096  0.59008275  1
  C  C153  1  0.59672202  0.02955530  0.59380207  1
  C  C154  1  0.41706209  0.80631226  0.59296407  1
  C  C155  1  0.92681983  0.83559868  0.59502873  1
  C  C156  1  0.49061691  0.82447011  0.08618132  1
  C  C157  1  0.98949921  0.79843730  0.09317643  1
  C  C158  1  0.41651903  0.03421481  0.08945631  1
  C  C159  1  0.91751481  0.02301029  0.09275261  1
  C  C160  1  0.10050311  0.18060671  0.09262371  1
  C  C161  1  0.59733119  0.17413532  0.09475427  1
  C  C162  1  0.34885381  0.17451797  0.73745118  1
  C  C163  1  0.85241271  0.16820306  0.74527558  1
  C  C164  1  0.23595039  0.30254106  0.74164958  1
  C  C165  1  0.74419335  0.31163522  0.74134239  1
  C  C166  1  0.42322959  0.53089410  0.74182335  1
  C  C167  1  0.92329020  0.52706734  0.74380322  1
  C  C168  1  0.35062727  0.52373597  0.24175637  1
  C  C169  1  0.83923305  0.52907725  0.23745066  1
  C  C170  1  0.42057949  0.29791034  0.24302939  1
  C  C171  1  0.91337065  0.30988533  0.24239614  1
  C  C172  1  0.24185731  0.17090484  0.23617489  1
  C  C173  1  0.73395870  0.15897740  0.24376586  1
  C  C174  1  0.31134920  0.50112294  0.92149496  1
  C  C175  1  0.81282711  0.47644071  0.92740231  1
  C  C176  1  0.42743156  0.36329659  0.91913448  1
  C  C177  1  0.92450501  0.36249804  0.91875453  1
  C  C178  1  0.25537911  0.16187506  0.92834404  1
  C  C179  1  0.74124566  0.12638592  0.92029557  1
  C  C180  1  0.32151626  0.16410025  0.42596752  1
  C  C181  1  0.82009945  0.12709311  0.42255101  1
  C  C182  1  0.24447732  0.35879788  0.42288865  1
  C  C183  1  0.75246041  0.35608315  0.41932906  1
  C  C184  1  0.43389245  0.51014991  0.41856954  1
  C  C185  1  0.92598269  0.48197413  0.42387976  1
  C  C186  1  0.18342410  0.49448891  0.07742717  1
  C  C187  1  0.68178475  0.49034825  0.07955897  1
  C  C188  1  0.06564823  0.63616325  0.07781630  1
  C  C189  1  0.56821498  0.63596097  0.07052838  1
  C  C190  1  0.25772430  0.86223059  0.07645254  1
  C  C191  1  0.74666751  0.86027819  0.07303281  1
  C  C192  1  0.18131596  0.86912170  0.57881491  1
  C  C193  1  0.67604601  0.85410548  0.56726254  1
  C  C194  1  0.24431099  0.62783554  0.57107378  1
  C  C195  1  0.75344247  0.64806910  0.57465969  1
  C  C196  1  0.06517585  0.49273701  0.57641903  1
  C  C197  1  0.56359647  0.49470101  0.57524819  1
  C  C198  1  0.15175626  0.83116856  0.25468404  1
  C  C199  1  0.65734685  0.84157103  0.26086261  1
  C  C200  1  0.26270583  0.68653975  0.26587386  1
  C  C201  1  0.76616380  0.69927299  0.25370592  1
  C  C202  1  0.08365532  0.46714631  0.26339312  1
  C  C203  1  0.57766250  0.47148202  0.25819688  1
  C  C204  1  0.15137166  0.47328933  0.76227154  1
  C  C205  1  0.65487867  0.47756292  0.75773012  1
  C  C206  1  0.07940228  0.69781462  0.75735020  1
  C  C207  1  0.58008102  0.70084008  0.75812606  1
  C  C208  1  0.26214714  0.83310424  0.75871429  1
  C  C209  1  0.76559073  0.85409546  0.76122308  1
