# generated using pymatgen
data_Cu8NiC8
_symmetry_space_group_name_H-M   'P 1'
_cell_length_a   4.04454349
_cell_length_b   4.00654407
_cell_length_c   17.62126858
_cell_angle_alpha   90.05260258
_cell_angle_beta   90.07962249
_cell_angle_gamma   90.46061562
_symmetry_Int_Tables_number   1
_chemical_formula_structural   Cu8NiC8
_chemical_formula_sum   'Cu8 Ni1 C8'
_cell_volume   285.53671728
_cell_formula_units_Z   1
loop_
 _symmetry_equiv_pos_site_id
 _symmetry_equiv_pos_as_xyz
  1  'x, y, z'
loop_
 _atom_site_type_symbol
 _atom_site_label
 _atom_site_symmetry_multiplicity
 _atom_site_fract_x
 _atom_site_fract_y
 _atom_site_fract_z
 _atom_site_occupancy
  C  C0  1  0.86718300  0.99796900  0.11873400  1
  C  C1  1  0.49388500  0.49414400  0.84717000  1
  C  C2  1  0.48846200  0.48901400  0.39042900  1
  C  C3  1  0.48679400  0.50551400  0.61874200  1
  C  C4  1  0.04660600  0.95783900  0.72153000  1
  C  C5  1  0.98790800  0.98946900  0.28402400  1
  C  C6  1  0.03511300  0.94640100  0.51603800  1
  C  C7  1  0.99444100  0.99503400  0.95369200  1
  Ni  Ni8  1  0.48722300  0.49362100  0.11879500  1
  Cu  Cu9  1  0.43124600  0.02184800  0.61912200  1
  Cu  Cu10  1  0.44543900  0.53515500  0.73642200  1
  Cu  Cu11  1  0.99059400  0.49539300  0.89310300  1
  Cu  Cu12  1  0.45195400  0.54240000  0.50116600  1
  Cu  Cu13  1  0.48446700  0.99230500  0.34325800  1
  Cu  Cu14  1  0.96690400  0.55631500  0.61838800  1
  Cu  Cu15  1  0.98525200  0.49058900  0.34480000  1
  Cu  Cu16  1  0.48986500  0.99698800  0.89425500  1
