# generated using pymatgen
data_Cu6NiC12
_symmetry_space_group_name_H-M   'P 1'
_cell_length_a   5.25667293
_cell_length_b   14.48427659
_cell_length_c   3.07163527
_cell_angle_alpha   90.03239600
_cell_angle_beta   89.62682227
_cell_angle_gamma   84.46629742
_symmetry_Int_Tables_number   1
_chemical_formula_structural   Cu6NiC12
_chemical_formula_sum   'Cu6 Ni1 C12'
_cell_volume   232.77653032
_cell_formula_units_Z   1
loop_
 _symmetry_equiv_pos_site_id
 _symmetry_equiv_pos_as_xyz
  1  'x, y, z'
loop_
 _atom_site_type_symbol
 _atom_site_label
 _atom_site_symmetry_multiplicity
 _atom_site_fract_x
 _atom_site_fract_y
 _atom_site_fract_z
 _atom_site_occupancy
  Ni  Ni0  1  0.61850408  0.65396614  0.47346159  1
  Cu  Cu1  1  0.08468611  0.01209490  0.98868882  1
  Cu  Cu2  1  0.88062771  0.31945453  0.99502582  1
  Cu  Cu3  1  0.13058077  0.67796432  0.97645618  1
  Cu  Cu4  1  0.46265972  0.17221303  0.49087788  1
  Cu  Cu5  1  0.29280324  0.46195334  0.49364966  1
  Cu  Cu6  1  0.50839565  0.84940970  0.48587538  1
  C  C7  1  0.30064822  0.59318025  0.48569597  1
  C  C8  1  0.20785741  0.93042426  0.48797691  1
  C  C9  1  0.32638834  0.09741077  0.99143529  1
  C  C10  1  0.44312070  0.75763221  0.98876057  1
  C  C11  1  0.13471465  0.42183986  0.99507599  1
  C  C12  1  0.61666752  0.23082926  0.98960974  1
  C  C13  1  0.12680486  0.25748751  0.49356828  1
  C  C14  1  0.80454738  0.59859307  0.97197080  1
  C  C15  1  0.69116938  0.90600803  0.98319627  1
  C  C16  1  0.84908722  0.06352896  0.48941311  1
  C  C17  1  0.64758153  0.41111193  0.49491848  1
  C  C18  1  0.88704453  0.74693593  0.47434324  1
