# generated using pymatgen
data_Cu3(Ni2C3)2
_symmetry_space_group_name_H-M   'P 1'
_cell_length_a   8.89458400
_cell_length_b   10.26143300
_cell_length_c   13.29265510
_cell_angle_alpha   89.62605865
_cell_angle_beta   90.00000000
_cell_angle_gamma   90.00000000
_symmetry_Int_Tables_number   1
_chemical_formula_structural   Cu3(Ni2C3)2
_chemical_formula_sum   'Cu12 Ni16 C24'
_cell_volume   1213.21044791
_cell_formula_units_Z   4
loop_
 _symmetry_equiv_pos_site_id
 _symmetry_equiv_pos_as_xyz
  1  'x, y, z'
loop_
 _atom_site_type_symbol
 _atom_site_label
 _atom_site_symmetry_multiplicity
 _atom_site_fract_x
 _atom_site_fract_y
 _atom_site_fract_z
 _atom_site_occupancy
  Ni  Ni0  1  0.56197700  0.59931700  0.29614000  1
  Ni  Ni1  1  0.06197700  0.90068300  0.70386000  1
  Ni  Ni2  1  0.43802300  0.40068300  0.70386000  1
  Ni  Ni3  1  0.93802300  0.09931700  0.29614000  1
  Ni  Ni4  1  0.48092600  0.66987600  0.63321500  1
  Ni  Ni5  1  0.01907400  0.16987600  0.63321500  1
  Ni  Ni6  1  0.51907400  0.33012400  0.36678500  1
  Ni  Ni7  1  0.41159500  0.62133700  0.84332500  1
  Ni  Ni8  1  0.08840500  0.12133700  0.84332500  1
  Ni  Ni9  1  0.58840500  0.37866300  0.15667500  1
  Ni  Ni10  1  0.20387100  0.94893000  0.23638000  1
  Ni  Ni11  1  0.70387100  0.55107000  0.76362000  1
  Ni  Ni12  1  0.79612900  0.05107000  0.76362000  1
  Ni  Ni13  1  0.29612900  0.44893000  0.23638000  1
  Ni  Ni14  1  0.91159500  0.87866300  0.15667500  1
  Ni  Ni15  1  0.98092600  0.83012400  0.36678500  1
  Cu  Cu16  1  0.30142300  0.69416800  0.96457100  1
  Cu  Cu17  1  0.80142300  0.80583200  0.03542900  1
  Cu  Cu18  1  0.69857700  0.30583200  0.03542900  1
  Cu  Cu19  1  0.19857700  0.19416800  0.96457100  1
  Cu  Cu20  1  0.94933600  0.70173500  0.48278900  1
  Cu  Cu21  1  0.44933600  0.79826500  0.51721100  1
  Cu  Cu22  1  0.05066400  0.29826500  0.51721100  1
  Cu  Cu23  1  0.55066400  0.20173500  0.48278900  1
  Cu  Cu24  1  0.42719100  0.95804700  0.20284600  1
  Cu  Cu25  1  0.92719100  0.54195300  0.79715400  1
  Cu  Cu26  1  0.57280900  0.04195300  0.79715400  1
  Cu  Cu27  1  0.07280900  0.45804700  0.20284600  1
  C  C28  1  0.86280600  0.02167600  0.19693400  1
  C  C29  1  0.36280600  0.47832400  0.80306600  1
  C  C30  1  0.13719400  0.97832400  0.80306600  1
  C  C31  1  0.63719400  0.52167600  0.19693400  1
  C  C32  1  0.12088100  0.08386600  0.26672300  1
  C  C33  1  0.62088100  0.41613400  0.73327700  1
  C  C34  1  0.87911900  0.91613400  0.73327700  1
  C  C35  1  0.37911900  0.58386600  0.26672300  1
  C  C36  1  0.92369300  0.97879300  0.38229000  1
  C  C37  1  0.42369300  0.52120700  0.61771000  1
  C  C38  1  0.07630700  0.02120700  0.61771000  1
  C  C39  1  0.57630700  0.47879300  0.38229000  1
  C  C40  1  0.84456400  0.14726900  0.66974300  1
  C  C41  1  0.34456400  0.35273100  0.33025700  1
  C  C42  1  0.89931800  0.79094500  0.26061800  1
  C  C43  1  0.39931800  0.70905500  0.73938200  1
  C  C44  1  0.10068200  0.20905500  0.73938200  1
  C  C45  1  0.60068200  0.29094500  0.26061800  1
  C  C46  1  0.09490000  0.89434000  0.14629400  1
  C  C47  1  0.65543600  0.64726900  0.66974300  1
  C  C48  1  0.59490000  0.60566000  0.85370600  1
  C  C49  1  0.90510000  0.10566000  0.85370600  1
  C  C50  1  0.40510000  0.39434000  0.14629400  1
  C  C51  1  0.15543600  0.85273100  0.33025700  1
