# generated using pymatgen
data_Cu(NiC3)3
_symmetry_space_group_name_H-M   'P 1'
_cell_length_a   6.21870742
_cell_length_b   6.30858025
_cell_length_c   6.72072894
_cell_angle_alpha   75.27717864
_cell_angle_beta   104.45846621
_cell_angle_gamma   143.49806828
_symmetry_Int_Tables_number   1
_chemical_formula_structural   Cu(NiC3)3
_chemical_formula_sum   'Cu1 Ni3 C9'
_cell_volume   151.21715051
_cell_formula_units_Z   1
loop_
 _symmetry_equiv_pos_site_id
 _symmetry_equiv_pos_as_xyz
  1  'x, y, z'
loop_
 _atom_site_type_symbol
 _atom_site_label
 _atom_site_symmetry_multiplicity
 _atom_site_fract_x
 _atom_site_fract_y
 _atom_site_fract_z
 _atom_site_occupancy
  C  C0  1  0.92128300  0.10924400  0.98664200  1
  Ni  Ni1  1  0.42084400  0.59396600  0.30793600  1
  Ni  Ni2  1  0.60411400  0.37692900  0.72750500  1
  Ni  Ni3  1  0.30042000  0.71055100  0.66484600  1
  Cu  Cu4  1  0.71408000  0.29426500  0.28448300  1
  C  C5  1  0.13386000  0.84899700  0.69704300  1
  C  C6  1  0.25002900  0.74837600  0.36517500  1
  C  C7  1  0.39660500  0.62943800  0.00073700  1
  C  C8  1  0.44668500  0.56017000  0.63096200  1
  C  C9  1  0.56917600  0.43423400  0.38293400  1
  C  C10  1  0.58374000  0.34407600  0.98036900  1
  C  C11  1  0.78570900  0.22083800  0.71284800  1
  C  C12  1  0.88387100  0.12891900  0.26852100  1
