# generated using pymatgen
data_CuNiC3
_symmetry_space_group_name_H-M   'P 1'
_cell_length_a   5.36238300
_cell_length_b   9.22956900
_cell_length_c   18.70561400
_cell_angle_alpha   90.00000000
_cell_angle_beta   90.00000000
_cell_angle_gamma   90.00000000
_symmetry_Int_Tables_number   1
_chemical_formula_structural   CuNiC3
_chemical_formula_sum   'Cu16 Ni16 C48'
_cell_volume   925.78729979
_cell_formula_units_Z   16
loop_
 _symmetry_equiv_pos_site_id
 _symmetry_equiv_pos_as_xyz
  1  'x, y, z'
loop_
 _atom_site_type_symbol
 _atom_site_label
 _atom_site_symmetry_multiplicity
 _atom_site_fract_x
 _atom_site_fract_y
 _atom_site_fract_z
 _atom_site_occupancy
  Ni  Ni0  1  0.61147700  0.00886100  0.12459300  1
  Ni  Ni1  1  0.11147700  0.99113900  0.37540700  1
  Ni  Ni2  1  0.88852300  0.50886100  0.87540700  1
  Ni  Ni3  1  0.38852300  0.49113900  0.62459300  1
  Ni  Ni4  1  0.38852300  0.99113900  0.87540700  1
  Ni  Ni5  1  0.88852300  0.00886100  0.62459300  1
  Ni  Ni6  1  0.11147700  0.49113900  0.12459300  1
  Ni  Ni7  1  0.61147700  0.50886100  0.37540700  1
  Ni  Ni8  1  0.10976600  0.84698700  0.12455200  1
  Ni  Ni9  1  0.60976600  0.15301300  0.37544800  1
  Ni  Ni10  1  0.39023400  0.34698700  0.87544800  1
  Ni  Ni11  1  0.89023400  0.65301300  0.62455200  1
  Ni  Ni12  1  0.89023400  0.15301300  0.87544800  1
  Ni  Ni13  1  0.39023400  0.84698700  0.62455200  1
  Ni  Ni14  1  0.60976600  0.65301300  0.12455200  1
  Ni  Ni15  1  0.10976600  0.34698700  0.37544800  1
  Cu  Cu16  1  0.22534800  0.16523600  0.02454100  1
  Cu  Cu17  1  0.72534800  0.83476400  0.47545900  1
  Cu  Cu18  1  0.27465200  0.66523600  0.97545900  1
  Cu  Cu19  1  0.77465200  0.33476400  0.52454100  1
  Cu  Cu20  1  0.77465200  0.83476400  0.97545900  1
  Cu  Cu21  1  0.27465200  0.16523600  0.52454100  1
  Cu  Cu22  1  0.72534800  0.33476400  0.02454100  1
  Cu  Cu23  1  0.22534800  0.66523600  0.47545900  1
  Cu  Cu24  1  0.93105000  0.16265300  0.22633300  1
  Cu  Cu25  1  0.43105000  0.83734700  0.27366700  1
  Cu  Cu26  1  0.56895000  0.66265300  0.77366700  1
  Cu  Cu27  1  0.06895000  0.33734700  0.72633300  1
  Cu  Cu28  1  0.06895000  0.83734700  0.77366700  1
  Cu  Cu29  1  0.56895000  0.16265300  0.72633300  1
  Cu  Cu30  1  0.43105000  0.33734700  0.22633300  1
  Cu  Cu31  1  0.93105000  0.66265300  0.27366700  1
  C  C32  1  0.44052200  0.28544100  0.05035300  1
  C  C33  1  0.94052200  0.71455900  0.44964700  1
  C  C34  1  0.05947800  0.78544100  0.94964700  1
  C  C35  1  0.55947800  0.21455900  0.55035300  1
  C  C36  1  0.55947800  0.71455900  0.94964700  1
  C  C37  1  0.05947800  0.28544100  0.55035300  1
  C  C38  1  0.94052200  0.21455900  0.05035300  1
  C  C39  1  0.44052200  0.78544100  0.44964700  1
  C  C40  1  0.29741500  0.01637100  0.06586600  1
  C  C41  1  0.79741500  0.98362900  0.43413400  1
  C  C42  1  0.20258500  0.51637100  0.93413400  1
  C  C43  1  0.70258500  0.48362900  0.56586600  1
  C  C44  1  0.70258500  0.98362900  0.93413400  1
  C  C45  1  0.20258500  0.01637100  0.56586600  1
  C  C46  1  0.79741500  0.48362900  0.06586600  1
  C  C47  1  0.29741500  0.51637100  0.43413400  1
  C  C48  1  0.22831100  0.16325500  0.93678700  1
  C  C49  1  0.72831100  0.83674500  0.56321300  1
  C  C50  1  0.27168900  0.66325500  0.06321300  1
  C  C51  1  0.92618900  0.00689900  0.18612600  1
  C  C52  1  0.77168900  0.33674500  0.43678700  1
  C  C53  1  0.27168900  0.16325500  0.43678700  1
  C  C54  1  0.72831100  0.33674500  0.93678700  1
  C  C55  1  0.22831100  0.66325500  0.56321300  1
  C  C56  1  0.16181400  0.26676100  0.19742000  1
  C  C57  1  0.66181400  0.73323900  0.30258000  1
  C  C58  1  0.33818600  0.76676100  0.80258000  1
  C  C59  1  0.83818600  0.23323900  0.69742000  1
  C  C60  1  0.83818600  0.73323900  0.80258000  1
  C  C61  1  0.33818600  0.26676100  0.69742000  1
  C  C62  1  0.66181400  0.23323900  0.19742000  1
  C  C63  1  0.16181400  0.76676100  0.30258000  1
  C  C64  1  0.94195700  0.66095500  0.18645100  1
  C  C65  1  0.44195700  0.33904500  0.31354900  1
  C  C66  1  0.55804300  0.16095500  0.81354900  1
  C  C67  1  0.05804300  0.83904500  0.68645100  1
  C  C68  1  0.05804300  0.33904500  0.81354900  1
  C  C69  1  0.55804300  0.66095500  0.68645100  1
  C  C70  1  0.44195700  0.83904500  0.18645100  1
  C  C71  1  0.94195700  0.16095500  0.31354900  1
  C  C72  1  0.92618900  0.50689900  0.31387400  1
  C  C73  1  0.42618900  0.49310100  0.18612600  1
  C  C74  1  0.57381100  0.00689900  0.68612600  1
  C  C75  1  0.07381100  0.99310100  0.81387400  1
  C  C76  1  0.07381100  0.49310100  0.68612600  1
  C  C77  1  0.57381100  0.50689900  0.81387400  1
  C  C78  1  0.42618900  0.99310100  0.31387400  1
  C  C79  1  0.77168900  0.83674500  0.06321300  1
