# generated using pymatgen
data_CuNiC19
_symmetry_space_group_name_H-M   'P 1'
_cell_length_a   9.26709028
_cell_length_b   9.26708995
_cell_length_c   23.04055955
_cell_angle_alpha   90.00000000
_cell_angle_beta   90.00000000
_cell_angle_gamma   120.00000118
_symmetry_Int_Tables_number   1
_chemical_formula_structural   CuNiC19
_chemical_formula_sum   'Cu6 Ni6 C114'
_cell_volume   1713.60381686
_cell_formula_units_Z   6
loop_
 _symmetry_equiv_pos_site_id
 _symmetry_equiv_pos_as_xyz
  1  'x, y, z'
loop_
 _atom_site_type_symbol
 _atom_site_label
 _atom_site_symmetry_multiplicity
 _atom_site_fract_x
 _atom_site_fract_y
 _atom_site_fract_z
 _atom_site_occupancy
  C  C0  1  0.63407695  0.00006989  0.24996432  1
  C  C1  1  0.36599294  0.36592305  0.24996432  1
  C  C2  1  0.99993011  0.63400706  0.24996432  1
  C  C3  1  0.63365287  0.63382207  0.75018259  1
  C  C4  1  0.00016919  0.36634713  0.75018259  1
  C  C5  1  0.36617793  0.99983081  0.75018259  1
  C  C6  1  0.30032412  0.33332570  0.58334131  1
  C  C7  1  0.03300258  0.69967588  0.58334131  1
  C  C8  1  0.66667430  0.96699742  0.58334131  1
  C  C9  1  0.30028994  0.96691963  0.08315056  1
  C  C10  1  0.66663069  0.69971006  0.08315056  1
  C  C11  1  0.03308037  0.33336931  0.08315056  1
  C  C12  1  0.96705235  0.66660760  0.91669375  1
  C  C13  1  0.69955426  0.03294765  0.91669375  1
  C  C14  1  0.33339240  0.30044574  0.91669375  1
  C  C15  1  0.96696917  0.30016475  0.41666553  1
  C  C16  1  0.33319458  0.03303083  0.41666553  1
  C  C17  1  0.69983525  0.66680542  0.41666553  1
  C  C18  1  -0.00000000  0.00000000  0.50005385  1
  C  C19  1  -0.00000000  0.00000000  0.99992578  1
  C  C20  1  0.66666700  0.33333300  0.83342300  1
  C  C21  1  0.66666700  0.33333300  0.33328962  1
  C  C22  1  0.33333300  0.66666700  0.16655806  1
  C  C23  1  0.33333300  0.66666700  0.66674632  1
  Ni  Ni24  1  -0.00000000  0.00000000  0.85178947  1
  Ni  Ni25  1  0.66666700  0.33333300  0.18423258  1
  Ni  Ni26  1  0.66666700  0.33333300  0.98171991  1
  Ni  Ni27  1  0.33333300  0.66666700  0.01786041  1
  Ni  Ni28  1  0.33333300  0.66666700  0.31525047  1
  Ni  Ni29  1  0.33333300  0.66666700  0.81579387  1
  Cu  Cu30  1  -0.00000000  0.00000000  0.35076703  1
  Cu  Cu31  1  -0.00000000  0.00000000  0.64944211  1
  Cu  Cu32  1  -0.00000000  0.00000000  0.14873359  1
  Cu  Cu33  1  0.66666700  0.33333300  0.68485295  1
  Cu  Cu34  1  0.66666700  0.33333300  0.48196161  1
  Cu  Cu35  1  0.33333300  0.66666700  0.51759919  1
  C  C36  1  0.29546044  0.00014809  0.24990080  1
  C  C37  1  0.70468765  0.70453956  0.24990080  1
  C  C38  1  0.99985191  0.29531235  0.24990080  1
  C  C39  1  0.29262596  0.29394692  0.75091789  1
  C  C40  1  0.00132096  0.70737404  0.75091789  1
  C  C41  1  0.70605308  0.99867904  0.75091789  1
  C  C42  1  0.96065574  0.33320871  0.58337651  1
  C  C43  1  0.37255398  0.03934426  0.58337651  1
  C  C44  1  0.66679129  0.62744602  0.58337651  1
  C  C45  1  0.95914755  0.62457067  0.08297859  1
  C  C46  1  0.66542411  0.04085245  0.08297859  1
  C  C47  1  0.37542933  0.33457589  0.08297859  1
  C  C48  1  0.62579066  0.66663264  0.91672075  1
  C  C49  1  0.04084098  0.37420934  0.91672075  1
  C  C50  1  0.33336736  0.95915902  0.91672075  1
  C  C51  1  0.62613431  0.95937254  0.41610811  1
  C  C52  1  0.33323723  0.37386569  0.41610811  1
  C  C53  1  0.04062746  0.66676277  0.41610811  1
  C  C54  1  0.20924077  0.03454777  0.30668161  1
  C  C55  1  0.82530700  0.79075923  0.30668161  1
  C  C56  1  0.96545223  0.17469300  0.30668161  1
  C  C57  1  0.20385022  0.17209240  0.80714151  1
  C  C58  1  0.96824218  0.79614978  0.80714151  1
  C  C59  1  0.82790760  0.03175782  0.80714151  1
  C  C60  1  0.79093805  0.96527953  0.69344815  1
  C  C61  1  0.17434148  0.20906195  0.69344815  1
  C  C62  1  0.03472047  0.82565852  0.69344815  1
  C  C63  1  0.79125230  0.82566392  0.19319150  1
  C  C64  1  0.03441162  0.20874770  0.19319150  1
  C  C65  1  0.17433608  0.96558838  0.19319150  1
  C  C66  1  0.87416479  0.36665203  0.64028580  1
  C  C67  1  0.49248825  0.12583521  0.64028580  1
  C  C68  1  0.63334797  0.50751175  0.64028580  1
  C  C69  1  0.87197316  0.50543711  0.14006054  1
  C  C70  1  0.63346495  0.12802684  0.14006054  1
  C  C71  1  0.49456289  0.36653505  0.14006054  1
  C  C72  1  0.46292565  0.30159091  0.02633082  1
  C  C73  1  0.83866626  0.53707435  0.02633082  1
  C  C74  1  0.69840909  0.16133374  0.02633082  1
  C  C75  1  0.45897807  0.15910496  0.52641284  1
  C  C76  1  0.70012789  0.54102193  0.52641284  1
  C  C77  1  0.84089504  0.29987211  0.52641284  1
  C  C78  1  0.53831860  0.69963963  0.97349600  1
  C  C79  1  0.16132003  0.46168140  0.97349600  1
  C  C80  1  0.30036037  0.83867997  0.97349600  1
  C  C81  1  0.54114654  0.84096351  0.47341164  1
  C  C82  1  0.29981598  0.45885346  0.47341164  1
  C  C83  1  0.15903649  0.70018402  0.47341164  1
  C  C84  1  0.12917449  0.63469968  0.35960681  1
  C  C85  1  0.50552419  0.87082551  0.35960681  1
  C  C86  1  0.36530032  0.49447581  0.35960681  1
  C  C87  1  0.12806571  0.49436298  0.85993717  1
  C  C88  1  0.36629627  0.87193429  0.85993717  1
  C  C89  1  0.50563702  0.63370373  0.85993717  1
  C  C90  1  0.02312109  0.83440292  0.41073980  1
  C  C91  1  0.81128183  0.97687891  0.41073980  1
  C  C92  1  0.16559708  0.18871817  0.41073980  1
  C  C93  1  0.02318285  0.18867281  0.91029961  1
  C  C94  1  0.16548996  0.97681715  0.91029961  1
  C  C95  1  0.81132719  0.83451004  0.91029961  1
  C  C96  1  0.97725450  0.16526765  0.58889377  1
  C  C97  1  0.18801315  0.02274550  0.58889377  1
  C  C98  1  0.83473235  0.81198685  0.58889377  1
  C  C99  1  0.97675973  0.81013108  0.08877344  1
  C  C100  1  0.83337135  0.02324027  0.08877344  1
  C  C101  1  0.18986892  0.16662865  0.08877344  1
  C  C102  1  0.68938546  0.16688679  0.74505724  1
  C  C103  1  0.47750233  0.31061454  0.74505724  1
  C  C104  1  0.83311321  0.52249767  0.74505724  1
  C  C105  1  0.68815267  0.51998760  0.24329616  1
  C  C106  1  0.83183593  0.31184733  0.24329616  1
  C  C107  1  0.48001240  0.16816407  0.24329616  1
  C  C108  1  0.64356077  0.49887289  0.92312128  1
  C  C109  1  0.85531312  0.35643923  0.92312128  1
  C  C110  1  0.50112711  0.14468688  0.92312128  1
  C  C111  1  0.64287268  0.14419593  0.42161916  1
  C  C112  1  0.50132425  0.35712732  0.42161916  1
  C  C113  1  0.85580407  0.49867575  0.42161916  1
  C  C114  1  0.35759350  0.50232262  0.07678707  1
  C  C115  1  0.14472812  0.64240650  0.07678707  1
  C  C116  1  0.49767738  0.85527188  0.07678707  1
  C  C117  1  0.35599300  0.85483685  0.57792044  1
  C  C118  1  0.49884285  0.64400700  0.57792044  1
  C  C119  1  0.14516315  0.50115715  0.57792044  1
  C  C120  1  0.31185642  0.83201219  0.25646649  1
  C  C121  1  0.52015478  0.68814358  0.25646649  1
  C  C122  1  0.16798781  0.47984522  0.25646649  1
  C  C123  1  0.31020974  0.47912328  0.75702050  1
  C  C124  1  0.16891254  0.68979026  0.75702050  1
  C  C125  1  0.52087672  0.83108746  0.75702050  1
