# generated using pymatgen
data_Cu3NiC31
_symmetry_space_group_name_H-M   'P 1'
_cell_length_a   8.49285767
_cell_length_b   8.49285742
_cell_length_c   22.25034420
_cell_angle_alpha   90.00000000
_cell_angle_beta   90.00000000
_cell_angle_gamma   120.00000102
_symmetry_Int_Tables_number   1
_chemical_formula_structural   Cu3NiC31
_chemical_formula_sum   'Cu9 Ni3 C93'
_cell_volume   1389.87274893
_cell_formula_units_Z   3
loop_
 _symmetry_equiv_pos_site_id
 _symmetry_equiv_pos_as_xyz
  1  'x, y, z'
loop_
 _atom_site_type_symbol
 _atom_site_label
 _atom_site_symmetry_multiplicity
 _atom_site_fract_x
 _atom_site_fract_y
 _atom_site_fract_z
 _atom_site_occupancy
  C  C0  1  0.00000000  0.00000000  0.99827152  1
  C  C1  1  0.66666700  0.33333300  0.83514691  1
  C  C2  1  0.66666700  0.33333300  0.33319193  1
  Ni  Ni3  1  0.00000000  0.00000000  0.35437261  1
  Ni  Ni4  1  0.00000000  0.00000000  0.85089593  1
  Ni  Ni5  1  0.66666700  0.33333300  0.98223136  1
  Cu  Cu6  1  0.00000000  0.00000000  0.64773216  1
  Cu  Cu7  1  0.00000000  0.00000000  0.15136097  1
  Cu  Cu8  1  0.66666700  0.33333300  0.68318916  1
  Cu  Cu9  1  0.66666700  0.33333300  0.18205677  1
  Cu  Cu10  1  0.66666700  0.33333300  0.48252632  1
  Cu  Cu11  1  0.33333300  0.66666700  0.02067390  1
  Cu  Cu12  1  0.33333300  0.66666700  0.52030709  1
  Cu  Cu13  1  0.33333300  0.66666700  0.31329260  1
  Cu  Cu14  1  0.33333300  0.66666700  0.81249149  1
  C  C15  1  0.29524898  0.00037702  0.24996367  1
  C  C16  1  0.70512804  0.70475102  0.24996367  1
  C  C17  1  -0.00037702  0.29487196  0.24996367  1
  C  C18  1  0.29462388  0.29424680  0.74926940  1
  C  C19  1  0.99962292  0.70537612  0.74926940  1
  C  C20  1  0.70575320  0.00037708  0.74926940  1
  C  C21  1  0.95845420  0.33282433  0.58329195  1
  C  C22  1  0.37437113  0.04154580  0.58329195  1
  C  C23  1  0.66717567  0.62562887  0.58329195  1
  C  C24  1  0.96184384  0.62928111  0.08364824  1
  C  C25  1  0.66743828  0.03815616  0.08364824  1
  C  C26  1  0.37071889  0.33256172  0.08364824  1
  C  C27  1  0.62011761  0.66671847  0.91664565  1
  C  C28  1  0.04659986  0.37988239  0.91664565  1
  C  C29  1  0.33328153  0.95340014  0.91664565  1
  C  C30  1  0.61982163  0.95650528  0.41764822  1
  C  C31  1  0.33668265  0.38017837  0.41764822  1
  C  C32  1  0.04349472  0.66331735  0.41764822  1
  C  C33  1  0.22069644  0.03832519  0.30369660  1
  C  C34  1  0.81762875  0.77930356  0.30369660  1
  C  C35  1  0.96167481  0.18237125  0.30369660  1
  C  C36  1  0.22187687  0.18316865  0.80338300  1
  C  C37  1  0.96129178  0.77812313  0.80338300  1
  C  C38  1  0.81683135  0.03870822  0.80338300  1
  C  C39  1  0.78684602  0.96792903  0.69460602  1
  C  C40  1  0.18108301  0.21315398  0.69460602  1
  C  C41  1  0.03207097  0.81891699  0.69460602  1
  C  C42  1  0.78489298  0.81746709  0.19500796  1
  C  C43  1  0.03257411  0.21510702  0.19500796  1
  C  C44  1  0.18253291  0.96742589  0.19500796  1
  C  C45  1  0.87922820  0.36983252  0.63729207  1
  C  C46  1  0.49060532  0.12077180  0.63729207  1
  C  C47  1  0.63016748  0.50939468  0.63729207  1
  C  C48  1  0.88119087  0.51556469  0.13836571  1
  C  C49  1  0.63437482  0.11880913  0.13836571  1
  C  C50  1  0.48443531  0.36562518  0.13836571  1
  C  C51  1  0.44453601  0.29451696  0.02974595  1
  C  C52  1  0.84998194  0.55546399  0.02974595  1
  C  C53  1  0.70548304  0.15001806  0.02974595  1
  C  C54  1  0.45368257  0.15757344  0.52914184  1
  C  C55  1  0.70389187  0.54631743  0.52914184  1
  C  C56  1  0.84242656  0.29610813  0.52914184  1
  C  C57  1  0.53752564  0.69450872  0.97186248  1
  C  C58  1  0.15698208  0.46247436  0.97186248  1
  C  C59  1  0.30549128  0.84301792  0.97186248  1
  C  C60  1  0.53677517  0.84560400  0.47219193  1
  C  C61  1  0.30882783  0.46322483  0.47219193  1
  C  C62  1  0.15439600  0.69117217  0.47219193  1
  C  C63  1  0.12101929  0.62589604  0.36277559  1
  C  C64  1  0.50487575  0.87898071  0.36277559  1
  C  C65  1  0.37410396  0.49512425  0.36277559  1
  C  C66  1  0.12918675  0.49034236  0.86143045  1
  C  C67  1  0.36115460  0.87081325  0.86143045  1
  C  C68  1  0.50965764  0.63884540  0.86143045  1
  C  C69  1  0.02494156  0.82337684  0.41092506  1
  C  C70  1  0.79843527  0.97505844  0.41092506  1
  C  C71  1  0.17662316  0.20156473  0.41092506  1
  C  C72  1  0.03167882  0.19985002  0.91239000  1
  C  C73  1  0.16817120  0.96832118  0.91239000  1
  C  C74  1  0.80014998  0.83182880  0.91239000  1
  C  C75  1  0.97536578  0.16962053  0.59202114  1
  C  C76  1  0.19425474  0.02463422  0.59202114  1
  C  C77  1  0.83037947  0.80574526  0.59202114  1
  C  C78  1  0.98169712  0.81323192  0.09238303  1
  C  C79  1  0.83153479  0.01830288  0.09238303  1
  C  C80  1  0.18676808  0.16846521  0.09238303  1
  C  C81  1  0.68553432  0.16467310  0.74081941  1
  C  C82  1  0.47913979  0.31446568  0.74081941  1
  C  C83  1  0.83532690  0.52086021  0.74081941  1
  C  C84  1  0.68469992  0.52033035  0.24117257  1
  C  C85  1  0.83563143  0.31530008  0.24117257  1
  C  C86  1  0.47966965  0.16436857  0.24117257  1
  C  C87  1  0.63495249  0.50154770  0.92092415  1
  C  C88  1  0.86659621  0.36504751  0.92092415  1
  C  C89  1  0.49845230  0.13340379  0.92092415  1
  C  C90  1  0.63415742  0.13963174  0.42406238  1
  C  C91  1  0.50547533  0.36584258  0.42406238  1
  C  C92  1  0.86036826  0.49452467  0.42406238  1
  C  C93  1  0.35337352  0.49637891  0.07690124  1
  C  C94  1  0.14300439  0.64662648  0.07690124  1
  C  C95  1  0.50362109  0.85699561  0.07690124  1
  C  C96  1  0.35723759  0.86137740  0.57497205  1
  C  C97  1  0.50413881  0.64276241  0.57497205  1
  C  C98  1  0.13862260  0.49586119  0.57497205  1
  C  C99  1  0.31259771  0.83637729  0.25696425  1
  C  C100  1  0.52377858  0.68740229  0.25696425  1
  C  C101  1  0.16362271  0.47622142  0.25696425  1
  C  C102  1  0.31277788  0.47583424  0.75613977  1
  C  C103  1  0.16305536  0.68722212  0.75613977  1
  C  C104  1  0.52416576  0.83694464  0.75613977  1
