# generated using pymatgen
data_Cu2NiC16
_symmetry_space_group_name_H-M   'P 1'
_cell_length_a   5.48510900
_cell_length_b   6.87885300
_cell_length_c   6.87885300
_cell_angle_alpha   90.00000000
_cell_angle_beta   90.00000000
_cell_angle_gamma   90.00000000
_symmetry_Int_Tables_number   1
_chemical_formula_structural   Cu2NiC16
_chemical_formula_sum   'Cu2 Ni1 C16'
_cell_volume   259.54778073
_cell_formula_units_Z   1
loop_
 _symmetry_equiv_pos_site_id
 _symmetry_equiv_pos_as_xyz
  1  'x, y, z'
loop_
 _atom_site_type_symbol
 _atom_site_label
 _atom_site_symmetry_multiplicity
 _atom_site_fract_x
 _atom_site_fract_y
 _atom_site_fract_z
 _atom_site_occupancy
  C  C0  1  0.00000000  0.96690500  0.03309500  1
  C  C1  1  0.00000000  0.53309500  0.03309500  1
  C  C2  1  0.00000000  0.53309500  0.46690500  1
  C  C3  1  0.00000000  0.96690500  0.46690500  1
  Ni  Ni4  1  0.00000000  0.25000000  0.75000000  1
  C  C5  1  0.62568900  0.75000000  0.75000000  1
  C  C6  1  0.37431100  0.25000000  0.25000000  1
  Cu  Cu7  1  0.50000000  0.25000000  0.75000000  1
  Cu  Cu8  1  0.50000000  0.75000000  0.25000000  1
  C  C9  1  0.69469900  0.75000000  0.45639600  1
  C  C10  1  0.69469900  0.75000000  0.04360400  1
  C  C11  1  0.77725300  0.48170100  0.75000000  1
  C  C12  1  0.77725300  0.01829900  0.75000000  1
  C  C13  1  0.30530100  0.95639600  0.25000000  1
  C  C14  1  0.22274700  0.25000000  0.98170100  1
  C  C15  1  0.22274700  0.25000000  0.51829900  1
  C  C16  1  0.30530100  0.54360400  0.25000000  1
  C  C17  1  0.68720700  0.25000000  0.25000000  1
  C  C18  1  0.31279300  0.75000000  0.75000000  1
