# generated using pymatgen
data_Cu4Ni3C47
_symmetry_space_group_name_H-M   'P 1'
_cell_length_a   9.08239666
_cell_length_b   9.08239634
_cell_length_c   23.70497886
_cell_angle_alpha   90.00000000
_cell_angle_beta   90.00000000
_cell_angle_gamma   120.00000115
_symmetry_Int_Tables_number   1
_chemical_formula_structural   Cu4Ni3C47
_chemical_formula_sum   'Cu8 Ni6 C94'
_cell_volume   1693.44507043
_cell_formula_units_Z   2
loop_
 _symmetry_equiv_pos_site_id
 _symmetry_equiv_pos_as_xyz
  1  'x, y, z'
loop_
 _atom_site_type_symbol
 _atom_site_label
 _atom_site_symmetry_multiplicity
 _atom_site_fract_x
 _atom_site_fract_y
 _atom_site_fract_z
 _atom_site_occupancy
  Ni  Ni0  1  0.00000000  0.00000000  0.49468854  1
  Ni  Ni1  1  0.00000000  0.00000000  0.99468854  1
  Ni  Ni2  1  0.66666700  0.33333300  0.82945175  1
  Ni  Ni3  1  0.66666700  0.33333300  0.32945175  1
  Ni  Ni4  1  0.33333300  0.66666700  0.16504333  1
  Ni  Ni5  1  0.33333300  0.66666700  0.66504333  1
  Cu  Cu6  1  0.00000000  0.00000000  0.35203025  1
  Cu  Cu7  1  0.00000000  0.00000000  0.85203025  1
  Cu  Cu8  1  0.00000000  0.00000000  0.64819202  1
  Cu  Cu9  1  0.00000000  0.00000000  0.14819202  1
  Cu  Cu10  1  0.66666700  0.33333300  0.68687160  1
  Cu  Cu11  1  0.66666700  0.33333300  0.18687160  1
  Cu  Cu12  1  0.33333300  0.66666700  0.01875446  1
  Cu  Cu13  1  0.33333300  0.66666700  0.51875446  1
  C  C14  1  0.66666700  0.33333300  0.97599327  1
  C  C15  1  0.66666700  0.33333300  0.47599327  1
  C  C16  1  0.33333300  0.66666700  0.32319715  1
  C  C17  1  0.33333300  0.66666700  0.82319715  1
  C  C18  1  0.62503816  0.66046898  0.91967062  1
  C  C19  1  0.03542983  0.37496184  0.91967062  1
  C  C20  1  0.33953102  0.96457017  0.91967062  1
  C  C21  1  0.62503816  0.96457017  0.41967062  1
  C  C22  1  0.33953102  0.37496184  0.41967062  1
  C  C23  1  0.03542983  0.66046898  0.41967062  1
  C  C24  1  0.30008636  0.98846963  0.25347866  1
  C  C25  1  0.68838327  0.69991364  0.25347866  1
  C  C26  1  0.01153037  0.31161673  0.25347866  1
  C  C27  1  0.30008636  0.31161673  0.75347866  1
  C  C28  1  0.01153037  0.69991364  0.75347866  1
  C  C29  1  0.68838327  0.98846963  0.75347866  1
  C  C30  1  0.95066159  0.32825116  0.58042289  1
  C  C31  1  0.37759057  0.04933841  0.58042289  1
  C  C32  1  0.67174884  0.62240943  0.58042289  1
  C  C33  1  0.95066159  0.62240943  0.08042289  1
  C  C34  1  0.67174884  0.04933841  0.08042289  1
  C  C35  1  0.37759057  0.32825116  0.08042289  1
  C  C36  1  0.21786506  0.01076654  0.30228897  1
  C  C37  1  0.79290148  0.78213494  0.30228897  1
  C  C38  1  0.98923346  0.20709852  0.30228897  1
  C  C39  1  0.21786506  0.20709852  0.80228897  1
  C  C40  1  0.98923346  0.78213494  0.80228897  1
  C  C41  1  0.79290148  0.01076654  0.80228897  1
  C  C42  1  0.75576945  0.95858521  0.70055440  1
  C  C43  1  0.20281576  0.24423055  0.70055440  1
  C  C44  1  0.04141479  0.79718424  0.70055440  1
  C  C45  1  0.75576945  0.79718424  0.20055440  1
  C  C46  1  0.04141479  0.24423055  0.20055440  1
  C  C47  1  0.20281576  0.95858521  0.20055440  1
  C  C48  1  0.86707849  0.33794286  0.63132914  1
  C  C49  1  0.47086537  0.13292151  0.63132914  1
  C  C50  1  0.66205714  0.52913463  0.63132914  1
  C  C51  1  0.86707849  0.52913463  0.13132914  1
  C  C52  1  0.66205714  0.13292151  0.13132914  1
  C  C53  1  0.47086537  0.33794286  0.13132914  1
  C  C54  1  0.47981833  0.32376999  0.02844283  1
  C  C55  1  0.84395265  0.52018167  0.02844283  1
  C  C56  1  0.67623001  0.15604735  0.02844283  1
  C  C57  1  0.47981833  0.15604735  0.52844283  1
  C  C58  1  0.67623001  0.52018167  0.52844283  1
  C  C59  1  0.84395265  0.32376999  0.52844283  1
  C  C60  1  0.54621824  0.68308971  0.97173911  1
  C  C61  1  0.13687047  0.45378176  0.97173911  1
  C  C62  1  0.31691029  0.86312953  0.97173911  1
  C  C63  1  0.54621824  0.86312953  0.47173911  1
  C  C64  1  0.31691029  0.45378176  0.47173911  1
  C  C65  1  0.13687047  0.68308971  0.47173911  1
  C  C66  1  0.13329643  0.63257392  0.36613708  1
  C  C67  1  0.49927649  0.86670357  0.36613708  1
  C  C68  1  0.36742608  0.50072351  0.36613708  1
  C  C69  1  0.13329643  0.50072351  0.86613708  1
  C  C70  1  0.36742608  0.86670357  0.86613708  1
  C  C71  1  0.49927649  0.63257392  0.86613708  1
  C  C72  1  -0.00156948  0.80060614  0.40743315  1
  C  C73  1  0.80217563  0.00156948  0.40743315  1
  C  C74  1  0.19939386  0.19782437  0.40743315  1
  C  C75  1  -0.00156948  0.19782437  0.90743315  1
  C  C76  1  0.19939386  0.00156948  0.90743315  1
  C  C77  1  0.80217563  0.80060614  0.90743315  1
  C  C78  1  0.95817367  0.16960238  0.57763638  1
  C  C79  1  0.21142871  0.04182633  0.57763638  1
  C  C80  1  0.83039762  0.78857129  0.57763638  1
  C  C81  1  0.95817367  0.78857129  0.07763638  1
  C  C82  1  0.83039762  0.04182633  0.07763638  1
  C  C83  1  0.21142871  0.16960238  0.07763638  1
  C  C84  1  0.65663658  0.13275215  0.74899156  1
  C  C85  1  0.47611657  0.34336342  0.74899156  1
  C  C86  1  0.86724785  0.52388343  0.74899156  1
  C  C87  1  0.65663658  0.52388343  0.24899156  1
  C  C88  1  0.86724785  0.34336342  0.24899156  1
  C  C89  1  0.47611657  0.13275215  0.24899156  1
  C  C90  1  0.62792121  0.48506110  0.92410619  1
  C  C91  1  0.85714089  0.37207879  0.92410619  1
  C  C92  1  0.51493890  0.14285911  0.92410619  1
  C  C93  1  0.62792121  0.14285911  0.42410619  1
  C  C94  1  0.51493890  0.37207879  0.42410619  1
  C  C95  1  0.85714089  0.48506110  0.42410619  1
  C  C96  1  0.36051279  0.48014949  0.07729293  1
  C  C97  1  0.11963570  0.63948721  0.07729293  1
  C  C98  1  0.51985051  0.88036430  0.07729293  1
  C  C99  1  0.36051279  0.88036430  0.57729293  1
  C  C100  1  0.51985051  0.63948721  0.57729293  1
  C  C101  1  0.11963570  0.48014949  0.57729293  1
  C  C102  1  0.31425220  0.82741934  0.26240196  1
  C  C103  1  0.51316614  0.68574780  0.26240196  1
  C  C104  1  0.17258066  0.48683386  0.26240196  1
  C  C105  1  0.31425220  0.48683386  0.76240196  1
  C  C106  1  0.17258066  0.68574780  0.76240196  1
  C  C107  1  0.51316614  0.82741934  0.76240196  1
