# generated using pymatgen
data_Cu4Ni6C31
_symmetry_space_group_name_H-M   'P 1'
_cell_length_a   6.53596100
_cell_length_b   7.93098860
_cell_length_c   9.60072749
_cell_angle_alpha   104.47928669
_cell_angle_beta   108.95625833
_cell_angle_gamma   101.37810467
_symmetry_Int_Tables_number   1
_chemical_formula_structural   Cu4Ni6C31
_chemical_formula_sum   'Cu4 Ni6 C31'
_cell_volume   434.14126436
_cell_formula_units_Z   1
loop_
 _symmetry_equiv_pos_site_id
 _symmetry_equiv_pos_as_xyz
  1  'x, y, z'
loop_
 _atom_site_type_symbol
 _atom_site_label
 _atom_site_symmetry_multiplicity
 _atom_site_fract_x
 _atom_site_fract_y
 _atom_site_fract_z
 _atom_site_occupancy
  C  C0  1  0.05092100  0.71284700  0.51392200  1
  C  C1  1  0.94907900  0.28715300  0.48607800  1
  C  C2  1  0.28928100  0.81106200  0.28689200  1
  C  C3  1  0.71071900  0.18893800  0.71310800  1
  C  C4  1  0.38794100  0.45858000  0.10874800  1
  C  C5  1  0.61205900  0.54142000  0.89125200  1
  C  C6  1  0.00000000  0.00000000  0.00000000  1
  Ni  Ni7  1  0.22375400  0.14549300  0.77859400  1
  Ni  Ni8  1  0.77624600  0.85450700  0.22140600  1
  Ni  Ni9  1  0.41399600  0.23260800  0.37249800  1
  Ni  Ni10  1  0.58600400  0.76739200  0.62750200  1
  Ni  Ni11  1  0.08361200  0.58017300  0.82618300  1
  Ni  Ni12  1  0.91638800  0.41982700  0.17381700  1
  Cu  Cu13  1  0.82536100  0.12698000  0.19173100  1
  Cu  Cu14  1  0.17463900  0.87302000  0.80826900  1
  Cu  Cu15  1  0.37383200  0.42131600  0.56316200  1
  Cu  Cu16  1  0.62616800  0.57868400  0.43683800  1
  C  C17  1  0.20298500  0.93334000  0.72506100  1
  C  C18  1  0.79701500  0.06666000  0.27493900  1
  C  C19  1  0.22221100  0.18697000  0.94596200  1
  C  C20  1  0.77778900  0.81303000  0.05403800  1
  C  C21  1  0.37626300  0.79210300  0.50956300  1
  C  C22  1  0.62373700  0.20789700  0.49043700  1
  C  C23  1  0.98499800  0.82726100  0.33579700  1
  C  C24  1  0.01500200  0.17273900  0.66420300  1
  C  C25  1  0.12760600  0.54099400  0.16501600  1
  C  C26  1  0.73562200  0.94971600  0.75961200  1
  C  C27  1  0.26437800  0.05028400  0.24038800  1
  C  C28  1  0.69923700  0.46321200  0.08785700  1
  C  C29  1  0.30076300  0.53678800  0.91214300  1
  C  C30  1  0.72412900  0.70308800  0.52311300  1
  C  C31  1  0.27587100  0.29691200  0.47688700  1
  C  C32  1  0.51916400  0.61351700  0.68865800  1
  C  C33  1  0.48083600  0.38648300  0.31134200  1
  C  C34  1  0.55236300  0.75445200  0.22682600  1
  C  C35  1  0.44763700  0.24554800  0.77317400  1
  C  C36  1  0.94763500  0.45695400  0.34745700  1
  C  C37  1  0.05236500  0.54304600  0.65254300  1
  C  C38  1  0.89273100  0.21475700  0.09924900  1
  C  C39  1  0.10726900  0.78524300  0.90075100  1
  C  C40  1  0.87239400  0.45900600  0.83498400  1
