# generated using pymatgen
data_CuNiC16
_symmetry_space_group_name_H-M   'P 1'
_cell_length_a   9.09134964
_cell_length_b   9.08312683
_cell_length_c   23.93043956
_cell_angle_alpha   90.09682500
_cell_angle_beta   90.08737305
_cell_angle_gamma   119.89434141
_symmetry_Int_Tables_number   1
_chemical_formula_structural   CuNiC16
_chemical_formula_sum   'Cu6 Ni6 C96'
_cell_volume   1713.18479254
_cell_formula_units_Z   6
loop_
 _symmetry_equiv_pos_site_id
 _symmetry_equiv_pos_as_xyz
  1  'x, y, z'
loop_
 _atom_site_type_symbol
 _atom_site_label
 _atom_site_symmetry_multiplicity
 _atom_site_fract_x
 _atom_site_fract_y
 _atom_site_fract_z
 _atom_site_occupancy
  Ni  Ni0  1  0.00474491  0.00237581  0.49879273  1
  Ni  Ni1  1  0.99846028  0.99359984  0.99708218  1
  Ni  Ni2  1  0.66836536  0.31531135  0.82264823  1
  Ni  Ni3  1  0.65167513  0.32295045  0.33877279  1
  Ni  Ni4  1  0.31705897  0.67088873  0.16361058  1
  Ni  Ni5  1  0.33896621  0.67321459  0.66197858  1
  Cu  Cu6  1  0.01019820  0.00367590  0.34981470  1
  Cu  Cu7  1  0.99699747  0.00166453  0.85051890  1
  Cu  Cu8  1  0.66530897  0.32699584  0.68382136  1
  Cu  Cu9  1  0.66280641  0.33096242  0.48380294  1
  Cu  Cu10  1  0.32674069  0.66721973  0.02160037  1
  Cu  Cu11  1  0.33413476  0.66751271  0.51892381  1
  C  C12  1  0.98686012  0.99767935  0.65108831  1
  C  C13  1  0.00948390  0.98702003  0.14853850  1
  C  C14  1  0.67097728  0.33427841  0.18646334  1
  C  C15  1  0.67826755  0.34605424  0.98069039  1
  C  C16  1  0.33107308  0.67573593  0.31566798  1
  C  C17  1  0.34342026  0.67710243  0.81030323  1
  C  C18  1  0.29951783  0.00050779  0.25097574  1
  C  C19  1  0.70689906  0.00681637  0.75300787  1
  C  C20  1  0.95868868  0.62516235  0.08546378  1
  C  C21  1  0.70399186  0.70515455  0.24898483  1
  C  C22  1  0.00154764  0.29397934  0.24870880  1
  C  C23  1  0.29174342  0.29619378  0.75115213  1
  C  C24  1  0.00328210  0.70809309  0.75096035  1
  C  C25  1  0.96603011  0.32991064  0.58467977  1
  C  C26  1  0.36067339  0.03400612  0.58485014  1
  C  C27  1  0.67128986  0.63535474  0.58497100  1
  C  C28  1  0.67376835  0.04994231  0.08412926  1
  C  C29  1  0.37800721  0.32874904  0.08433800  1
  C  C30  1  0.62277567  0.66215713  0.91786986  1
  C  C31  1  0.03939424  0.37479369  0.91771903  1
  C  C32  1  0.33823433  0.96269006  0.91731006  1
  C  C33  1  0.62658180  0.96004299  0.41559800  1
  C  C34  1  0.33434547  0.37740412  0.41513983  1
  C  C35  1  0.03828544  0.66455680  0.41613151  1
  C  C36  1  0.22561924  0.03790937  0.30460693  1
  C  C37  1  0.80379660  0.77518313  0.29926927  1
  C  C38  1  0.96740528  0.19428246  0.29906315  1
  C  C39  1  0.21888547  0.19640972  0.80125122  1
  C  C40  1  0.98583067  0.78616373  0.80149768  1
  C  C41  1  0.80882821  0.01820669  0.80772759  1
  C  C42  1  0.80024236  0.97442948  0.69647549  1
  C  C43  1  0.18347072  0.21244990  0.70039951  1
  C  C44  1  0.03262188  0.81786546  0.70030067  1
  C  C45  1  0.78656280  0.81438986  0.19876825  1
  C  C46  1  0.02367976  0.21044416  0.19847722  1
  C  C47  1  0.17478427  0.96911405  0.19432524  1
  C  C48  1  0.88533976  0.35173745  0.63428451  1
  C  C49  1  0.46466783  0.11583664  0.63421508  1
  C  C50  1  0.65178182  0.53491089  0.63485680  1
  C  C51  1  0.84909264  0.50757240  0.13791779  1
  C  C52  1  0.65111541  0.13380503  0.13424027  1
  C  C53  1  0.48024721  0.34291670  0.13437514  1
  C  C54  1  0.45640343  0.30211406  0.03299553  1
  C  C55  1  0.83723092  0.52854036  0.02864335  1
  C  C56  1  0.69083230  0.15344514  0.03303380  1
  C  C57  1  0.43358231  0.13357453  0.53349443  1
  C  C58  1  0.69793747  0.56220558  0.53372812  1
  C  C59  1  0.86527457  0.29972096  0.53345167  1
  C  C60  1  0.54348501  0.68145515  0.96799243  1
  C  C61  1  0.13717961  0.45576351  0.96816165  1
  C  C62  1  0.31850588  0.86276226  0.96721074  1
  C  C63  1  0.54552404  0.86250952  0.46581647  1
  C  C64  1  0.32131129  0.46008910  0.46570649  1
  C  C65  1  0.13767934  0.68201472  0.46611423  1
  C  C66  1  0.13464883  0.65271063  0.36461223  1
  C  C67  1  0.51630963  0.86397532  0.36427136  1
  C  C68  1  0.34561182  0.48363428  0.36408282  1
  C  C69  1  0.11718805  0.47885269  0.86704377  1
  C  C70  1  0.35969599  0.87641833  0.86621057  1
  C  C71  1  0.51658492  0.63917068  0.86685688  1
  C  C72  1  0.01932131  0.81487046  0.41078219  1
  C  C73  1  0.79373152  0.97541396  0.40891584  1
  C  C74  1  0.18080301  0.20889507  0.41119644  1
  C  C75  1  0.01451192  0.20287692  0.91370124  1
  C  C76  1  0.19148961  0.98642183  0.91121065  1
  C  C77  1  0.79596679  0.80459630  0.91257311  1
  C  C78  1  0.98459129  0.17186083  0.59231391  1
  C  C79  1  0.18725911  0.01703656  0.59254103  1
  C  C80  1  0.83216687  0.81004343  0.59158830  1
  C  C81  1  0.96437728  0.81205983  0.09062659  1
  C  C82  1  0.83195449  0.04134748  0.09025649  1
  C  C83  1  0.20478793  0.17494330  0.09021301  1
  C  C84  1  0.67029427  0.15962983  0.74662343  1
  C  C85  1  0.46427305  0.32848911  0.74323608  1
  C  C86  1  0.85653363  0.53930966  0.74328471  1
  C  C87  1  0.68161835  0.53202498  0.23936365  1
  C  C88  1  0.85270122  0.32074473  0.23954634  1
  C  C89  1  0.48850877  0.16093070  0.23591857  1
  C  C90  1  0.63212379  0.49830971  0.92265313  1
  C  C91  1  0.86247546  0.35809648  0.92380846  1
  C  C92  1  0.49758824  0.13427950  0.92249934  1
  C  C93  1  0.63587430  0.12697755  0.41544332  1
  C  C94  1  0.49082443  0.36472612  0.41508701  1
  C  C95  1  0.87254536  0.50600233  0.41558701  1
  C  C96  1  0.36426392  0.48168495  0.08027706  1
  C  C97  1  0.14336061  0.64682470  0.08445160  1
  C  C98  1  0.52517023  0.88045123  0.07986405  1
  C  C99  1  0.33848590  0.86140758  0.58020966  1
  C  C100  1  0.52506968  0.66281556  0.58046044  1
  C  C101  1  0.13857903  0.47722743  0.58005595  1
  C  C102  1  0.31740704  0.82627787  0.25705342  1
  C  C103  1  0.53063843  0.68453747  0.25429826  1
  C  C104  1  0.15659769  0.46673704  0.25482389  1
  C  C105  1  0.29849058  0.46676042  0.75742645  1
  C  C106  1  0.16201466  0.69191849  0.75651703  1
  C  C107  1  0.51404686  0.82112945  0.75800508  1
