# generated using pymatgen
data_Cu6NiC12
_symmetry_space_group_name_H-M   'P 1'
_cell_length_a   4.87094606
_cell_length_b   4.87849607
_cell_length_c   9.09890600
_cell_angle_alpha   90.00068736
_cell_angle_beta   90.00087799
_cell_angle_gamma   89.89449920
_symmetry_Int_Tables_number   1
_chemical_formula_structural   Cu6NiC12
_chemical_formula_sum   'Cu6 Ni1 C12'
_cell_volume   216.21594694
_cell_formula_units_Z   1
loop_
 _symmetry_equiv_pos_site_id
 _symmetry_equiv_pos_as_xyz
  1  'x, y, z'
loop_
 _atom_site_type_symbol
 _atom_site_label
 _atom_site_symmetry_multiplicity
 _atom_site_fract_x
 _atom_site_fract_y
 _atom_site_fract_z
 _atom_site_occupancy
  Ni  Ni0  1  0.00000000  0.49999800  0.58527700  1
  Cu  Cu1  1  0.99998900  0.99998000  0.02088700  1
  Cu  Cu2  1  0.00000000  0.00000400  0.32259600  1
  Cu  Cu3  1  0.00000300  0.00000400  0.65928100  1
  Cu  Cu4  1  0.50002300  0.49999000  0.15115300  1
  Cu  Cu5  1  0.50000300  0.50000200  0.84732200  1
  Cu  Cu6  1  0.49999500  0.49999900  0.50501600  1
  C  C7  1  0.20015800  0.80038400  0.17149500  1
  C  C8  1  0.19256400  0.79807100  0.49858700  1
  C  C9  1  0.30664600  0.30425200  0.99862500  1
  C  C10  1  0.30108200  0.30487800  0.66618300  1
  C  C11  1  0.69336900  0.69577600  0.99862500  1
  C  C12  1  0.69892100  0.69512500  0.66618200  1
  C  C13  1  0.79983800  0.19961400  0.17149600  1
  C  C14  1  0.80742800  0.20192600  0.49858600  1
  C  C15  1  0.18477300  0.80485400  0.82853500  1
  C  C16  1  0.30658000  0.31403000  0.33367000  1
  C  C17  1  0.69339500  0.68596000  0.33366300  1
  C  C18  1  0.81523100  0.19515500  0.82853500  1
