# generated using pymatgen
data_Cu2NiC11
_symmetry_space_group_name_H-M   'P 1'
_cell_length_a   3.86148888
_cell_length_b   3.86148888
_cell_length_c   15.44063428
_cell_angle_alpha   90.00000000
_cell_angle_beta   90.00000000
_cell_angle_gamma   90.00000000
_symmetry_Int_Tables_number   1
_chemical_formula_structural   Cu2NiC11
_chemical_formula_sum   'Cu2 Ni1 C11'
_cell_volume   230.23678577
_cell_formula_units_Z   1
loop_
 _symmetry_equiv_pos_site_id
 _symmetry_equiv_pos_as_xyz
  1  'x, y, z'
loop_
 _atom_site_type_symbol
 _atom_site_label
 _atom_site_symmetry_multiplicity
 _atom_site_fract_x
 _atom_site_fract_y
 _atom_site_fract_z
 _atom_site_occupancy
  C  C0  1  0.50000000  0.50000000  0.79588424  1
  C  C1  1  0.50000000  0.50000000  0.10799876  1
  C  C2  1  0.50000000  0.50000000  0.56040518  1
  Ni  Ni3  1  0.50000000  0.50000000  0.36950392  1
  C  C4  1  0.00000000  0.00000000  0.95551503  1
  Cu  Cu5  1  -0.00000000  -0.00000000  0.66165793  1
  Cu  Cu6  1  -0.00000000  -0.00000000  0.42861341  1
  C  C7  1  0.50000000  -0.00000000  0.63253352  1
  C  C8  1  -0.00000000  0.50000000  0.63253352  1
  C  C9  1  0.50000000  -0.00000000  0.42093752  1
  C  C10  1  -0.00000000  0.50000000  0.42093752  1
  C  C11  1  0.00000000  0.00000000  0.79939596  1
  C  C12  1  0.00000000  0.00000000  0.11382116  1
  C  C13  1  0.50000000  0.50000000  0.95442934  1
