# generated using pymatgen
data_CuNi2C33
_symmetry_space_group_name_H-M   'P 1'
_cell_length_a   8.77391544
_cell_length_b   8.74064159
_cell_length_c   23.25874769
_cell_angle_alpha   89.56888443
_cell_angle_beta   90.49052538
_cell_angle_gamma   119.71889235
_symmetry_Int_Tables_number   1
_chemical_formula_structural   CuNi2C33
_chemical_formula_sum   'Cu3 Ni6 C99'
_cell_volume   1549.02326199
_cell_formula_units_Z   3
loop_
 _symmetry_equiv_pos_site_id
 _symmetry_equiv_pos_as_xyz
  1  'x, y, z'
loop_
 _atom_site_type_symbol
 _atom_site_label
 _atom_site_symmetry_multiplicity
 _atom_site_fract_x
 _atom_site_fract_y
 _atom_site_fract_z
 _atom_site_occupancy
  C  C0  1  0.98881535  0.98556571  0.50189584  1
  C  C1  1  0.99931972  -0.00003791  0.00071788  1
  C  C2  1  0.67136583  0.32305527  0.83693501  1
  C  C3  1  0.63513471  0.30821910  0.32193790  1
  C  C4  1  0.32895509  0.68001604  0.17180752  1
  C  C5  1  0.38772343  0.69301933  0.67085516  1
  C  C6  1  0.01302948  0.00159150  0.34005636  1
  C  C7  1  0.97627925  0.98480845  0.64763951  1
  C  C8  1  0.66784374  0.32980200  0.69092271  1
  C  C9  1  0.66279359  0.34209783  0.47594030  1
  C  C10  1  0.34968698  0.66938775  0.52138316  1
  C  C11  1  0.34807423  0.67530667  0.82268284  1
  Ni  Ni12  1  0.99718820  0.00022357  0.84234508  1
  Ni  Ni13  1  0.00512261  0.99018602  0.15822820  1
  Ni  Ni14  1  0.65874059  0.32416739  0.17986082  1
  Ni  Ni15  1  0.66801493  0.33209176  0.98929363  1
  Ni  Ni16  1  0.33384809  0.66466186  0.01828436  1
  Ni  Ni17  1  0.33129739  0.68761125  0.31252045  1
  Cu  Cu18  1  0.31093060  0.00305221  0.24369285  1
  Cu  Cu19  1  0.70744744  0.00582935  0.75921304  1
  Cu  Cu20  1  0.67050054  0.63361255  0.58400111  1
  C  C21  1  0.70317445  0.69422960  0.23997850  1
  C  C22  1  0.99445082  0.29492820  0.23942819  1
  C  C23  1  0.28582252  0.28280859  0.75845891  1
  C  C24  1  0.99715364  0.70998722  0.76088332  1
  C  C25  1  0.96531796  0.33605500  0.58132877  1
  C  C26  1  0.36602129  0.03808518  0.58208141  1
  C  C27  1  0.95322179  0.61751245  0.08289771  1
  C  C28  1  0.66402803  0.04222000  0.08209378  1
  C  C29  1  0.38223961  0.33969820  0.08191966  1
  C  C30  1  0.62990380  0.65512453  0.92908329  1
  C  C31  1  0.03066542  0.37307818  0.92797912  1
  C  C32  1  0.34059558  0.97090981  0.92789871  1
  C  C33  1  0.62216689  0.95719417  0.40607153  1
  C  C34  1  0.33335483  0.39020916  0.40340450  1
  C  C35  1  0.04373274  0.65996794  0.40839053  1
  C  C36  1  0.24680433  0.05498584  0.30228091  1
  C  C37  1  0.80717337  0.75967828  0.29347060  1
  C  C38  1  0.94555932  0.18869289  0.29293516  1
  C  C39  1  0.19275035  0.17601046  0.81175468  1
  C  C40  1  0.00400333  0.81418543  0.81362711  1
  C  C41  1  0.81580856  -0.00102176  0.81737732  1
  C  C42  1  0.79260593  0.99393632  0.69955254  1
  C  C43  1  0.19775796  0.19610461  0.70559663  1
  C  C44  1  0.02457119  0.81106516  0.70833451  1
  C  C45  1  0.79312730  0.82464863  0.19174417  1
  C  C46  1  0.01994430  0.19447604  0.19150941  1
  C  C47  1  0.16646959  0.96248536  0.19161817  1
  C  C48  1  0.87037512  0.32813036  0.63390472  1
  C  C49  1  0.46861526  0.12247134  0.63432145  1
  C  C50  1  0.67677783  0.53762686  0.64294138  1
  C  C51  1  0.87018511  0.50178146  0.13338192  1
  C  C52  1  0.63194742  0.12489917  0.13248168  1
  C  C53  1  0.49711848  0.37455835  0.13310454  1
  C  C54  1  0.46625423  0.30781989  0.03142949  1
  C  C55  1  0.84190814  0.53358524  0.03110686  1
  C  C56  1  0.69384959  0.15636736  0.03048276  1
  C  C57  1  0.46147920  0.12407658  0.52836272  1
  C  C58  1  0.65762946  0.52944425  0.52421809  1
  C  C59  1  0.86261288  0.31950482  0.52824965  1
  C  C60  1  0.52876610  0.68342301  0.97583675  1
  C  C61  1  0.15443551  0.47292343  0.97689739  1
  C  C62  1  0.31279420  0.84442746  0.97637680  1
  C  C63  1  0.54086392  0.87038891  0.46039595  1
  C  C64  1  0.33109686  0.47289285  0.45748977  1
  C  C65  1  0.13387970  0.66707115  0.46204141  1
  C  C66  1  0.14640550  0.66396685  0.35682049  1
  C  C67  1  0.51756064  0.85090959  0.35571352  1
  C  C68  1  0.33476799  0.49548834  0.35209229  1
  C  C69  1  0.09336158  0.47568517  0.87452725  1
  C  C70  1  0.38008871  0.90749415  0.87458882  1
  C  C71  1  0.52986633  0.61661075  0.87475735  1
  C  C72  1  0.01724592  0.81494249  0.40684204  1
  C  C73  1  0.79850089  0.97628106  0.40404712  1
  C  C74  1  0.17244329  0.21547771  0.40324764  1
  C  C75  1  0.01914927  0.19933540  0.92349335  1
  C  C76  1  0.18154672  0.98721379  0.92090841  1
  C  C77  1  0.80500796  0.81135897  0.92462231  1
  C  C78  1  0.00505184  0.19126842  0.58021200  1
  C  C79  1  0.20209782  0.04337167  0.58156271  1
  C  C80  1  0.84376229  0.82465022  0.57604033  1
  C  C81  1  0.96878889  0.79466012  0.09042414  1
  C  C82  1  0.82115280  0.02192005  0.09045474  1
  C  C83  1  0.20493551  0.18435854  0.08990516  1
  C  C84  1  0.69663278  0.18437717  0.76329985  1
  C  C85  1  0.46357207  0.30674586  0.76167794  1
  C  C86  1  0.82664448  0.54764383  0.76213835  1
  C  C87  1  0.69336873  0.52367210  0.22648031  1
  C  C88  1  0.84721485  0.32630968  0.22504320  1
  C  C89  1  0.50256811  0.17197068  0.22828836  1
  C  C90  1  0.64554567  0.49502147  0.94092440  1
  C  C91  1  0.85252693  0.35118571  0.93949416  1
  C  C92  1  0.49682160  0.14715912  0.93994384  1
  C  C93  1  0.63165555  0.13042168  0.40267296  1
  C  C94  1  0.49109916  0.37019258  0.40080875  1
  C  C95  1  0.87180342  0.49617428  0.40450013  1
  C  C96  1  0.36464643  0.50161709  0.07196793  1
  C  C97  1  0.13277252  0.63841367  0.07467827  1
  C  C98  1  0.50342859  0.86401567  0.07304786  1
  C  C99  1  0.32944491  0.85446820  0.58292002  1
  C  C100  1  0.49663448  0.65495052  0.58834373  1
  C  C101  1  0.12979482  0.50547132  0.58123702  1
  C  C102  1  0.32452400  0.82236611  0.25593938  1
  C  C103  1  0.52698402  0.67171812  0.24715663  1
  C  C104  1  0.15728852  0.46439576  0.24737508  1
  C  C105  1  0.29066357  0.45302691  0.76224441  1
  C  C106  1  0.14036930  0.67018893  0.76582269  1
  C  C107  1  0.51113586  0.83058455  0.75879889  1
