# generated using pymatgen
data_Cu3Ni3C11
_symmetry_space_group_name_H-M   'P 1'
_cell_length_a   8.43540163
_cell_length_b   8.43540163
_cell_length_c   7.80501000
_cell_angle_alpha   90.00000000
_cell_angle_beta   90.00000000
_cell_angle_gamma   119.99999713
_symmetry_Int_Tables_number   1
_chemical_formula_structural   Cu3Ni3C11
_chemical_formula_sum   'Cu6 Ni6 C22'
_cell_volume   480.96739787
_cell_formula_units_Z   2
loop_
 _symmetry_equiv_pos_site_id
 _symmetry_equiv_pos_as_xyz
  1  'x, y, z'
loop_
 _atom_site_type_symbol
 _atom_site_label
 _atom_site_symmetry_multiplicity
 _atom_site_fract_x
 _atom_site_fract_y
 _atom_site_fract_z
 _atom_site_occupancy
  C  C0  1  0.33333300  0.66666700  0.45448800  1
  C  C1  1  0.66666700  0.33333300  0.95448800  1
  C  C2  1  0.66666700  0.33333300  0.54551200  1
  C  C3  1  0.33333300  0.66666700  0.04551200  1
  Ni  Ni4  1  0.64488200  0.95686900  0.75000000  1
  Ni  Ni5  1  0.68801300  0.64488200  0.25000000  1
  Ni  Ni6  1  0.95686900  0.31198700  0.25000000  1
  Ni  Ni7  1  0.04313100  0.68801300  0.75000000  1
  Ni  Ni8  1  0.31198700  0.35511800  0.75000000  1
  Ni  Ni9  1  0.35511800  0.04313100  0.25000000  1
  Cu  Cu10  1  0.83050700  0.00483400  0.75000000  1
  Cu  Cu11  1  0.99516600  0.82567300  0.75000000  1
  Cu  Cu12  1  0.16949300  0.99516600  0.25000000  1
  Cu  Cu13  1  0.82567300  0.83050700  0.25000000  1
  Cu  Cu14  1  0.17432700  0.16949300  0.75000000  1
  Cu  Cu15  1  0.00483400  0.17432700  0.25000000  1
  C  C16  1  0.43960100  0.15200600  0.41423500  1
  C  C17  1  0.28759500  0.43960100  0.91423500  1
  C  C18  1  0.15200600  0.71240500  0.91423500  1
  C  C19  1  0.84799400  0.28759500  0.41423500  1
  C  C20  1  0.13923400  0.49802500  0.25000000  1
  C  C21  1  0.86076600  0.50197500  0.75000000  1
  C  C22  1  0.64120900  0.13923400  0.75000000  1
  C  C23  1  0.49802500  0.35879100  0.75000000  1
  C  C24  1  0.50197500  0.64120900  0.25000000  1
  C  C25  1  0.35879100  0.86076600  0.25000000  1
  C  C26  1  0.43960100  0.15200600  0.08576500  1
  C  C27  1  0.28759500  0.43960100  0.58576500  1
  C  C28  1  0.15200600  0.71240500  0.58576500  1
  C  C29  1  0.84799400  0.28759500  0.08576500  1
  C  C30  1  0.71240500  0.56039900  0.08576500  1
  C  C31  1  0.56039900  0.84799400  0.58576500  1
  C  C32  1  0.56039900  0.84799400  0.91423500  1
  C  C33  1  0.71240500  0.56039900  0.41423500  1
