# generated using pymatgen
data_Cu4Ni8C7
_symmetry_space_group_name_H-M   'P 1'
_cell_length_a   4.92587118
_cell_length_b   7.86954646
_cell_length_c   5.67829496
_cell_angle_alpha   96.37187813
_cell_angle_beta   90.57554936
_cell_angle_gamma   86.76093109
_symmetry_Int_Tables_number   1
_chemical_formula_structural   Cu4Ni8C7
_chemical_formula_sum   'Cu4 Ni8 C7'
_cell_volume   218.40472800
_cell_formula_units_Z   1
loop_
 _symmetry_equiv_pos_site_id
 _symmetry_equiv_pos_as_xyz
  1  'x, y, z'
loop_
 _atom_site_type_symbol
 _atom_site_label
 _atom_site_symmetry_multiplicity
 _atom_site_fract_x
 _atom_site_fract_y
 _atom_site_fract_z
 _atom_site_occupancy
  C  C0  1  0.49916970  0.99700681  0.99598545  1
  C  C1  1  0.49823795  0.99870536  0.49627356  1
  C  C2  1  0.52925122  0.64148780  0.17326508  1
  C  C3  1  0.47329648  0.35425140  0.82531207  1
  C  C4  1  0.99530458  0.68581675  0.66865160  1
  C  C5  1  0.00520610  0.31226669  0.32813209  1
  C  C6  1  0.99920245  0.99867460  0.99804873  1
  Ni  Ni7  1  0.79113151  0.80043137  0.93180389  1
  Ni  Ni8  1  0.75200225  0.08104171  0.26156262  1
  Ni  Ni9  1  0.70738243  0.76610263  0.45006644  1
  Ni  Ni10  1  0.70771756  0.42417015  0.10813024  1
  Ni  Ni11  1  0.29730566  0.57135820  0.89095570  1
  Ni  Ni12  1  0.29043841  0.23118946  0.54712976  1
  Ni  Ni13  1  0.20944133  0.19554096  0.06489909  1
  Ni  Ni14  1  0.24390827  0.91549239  0.73222246  1
  Cu  Cu15  1  0.80468085  0.43171971  0.60341290  1
  Cu  Cu16  1  0.70528199  0.13189537  0.78812297  1
  Cu  Cu17  1  0.29404088  0.86310693  0.20449809  1
  Cu  Cu18  1  0.19700037  0.56640872  0.39581325  1
