# generated using pymatgen
data_Cu2NiC16
_symmetry_space_group_name_H-M   'P 1'
_cell_length_a   5.39029742
_cell_length_b   6.08892500
_cell_length_c   8.62740191
_cell_angle_alpha   89.99987414
_cell_angle_beta   92.56907914
_cell_angle_gamma   90.00010281
_symmetry_Int_Tables_number   1
_chemical_formula_structural   Cu2NiC16
_chemical_formula_sum   'Cu2 Ni1 C16'
_cell_volume   282.87636137
_cell_formula_units_Z   1
loop_
 _symmetry_equiv_pos_site_id
 _symmetry_equiv_pos_as_xyz
  1  'x, y, z'
loop_
 _atom_site_type_symbol
 _atom_site_label
 _atom_site_symmetry_multiplicity
 _atom_site_fract_x
 _atom_site_fract_y
 _atom_site_fract_z
 _atom_site_occupancy
  Ni  Ni0  1  0.96719200  0.25000000  0.60751500  1
  Cu  Cu1  1  0.47694800  0.50367200  0.50119500  1
  Cu  Cu2  1  0.47694800  0.99632800  0.50119500  1
  C  C3  1  0.53318600  0.75000000  0.16269300  1
  C  C4  1  0.04346600  0.25000000  0.22934200  1
  C  C5  1  0.97775200  0.75000000  0.77595400  1
  C  C6  1  0.45716400  0.25000000  0.86709600  1
  C  C7  1  0.77836900  0.98645000  0.69003300  1
  C  C8  1  0.25195200  0.02600900  0.30474500  1
  C  C9  1  0.34459300  0.25000000  0.64340500  1
  C  C10  1  0.63967400  0.75000000  0.37321400  1
  C  C11  1  0.83469600  0.25000000  0.39381200  1
  C  C12  1  0.24788800  0.47255400  0.92200600  1
  C  C13  1  0.25195200  0.47399100  0.30474600  1
  C  C14  1  0.24788800  0.02744600  0.92200600  1
  C  C15  1  0.72733300  0.52162600  0.09204300  1
  C  C16  1  0.72733300  0.97837400  0.09204300  1
  C  C17  1  0.77836900  0.51355000  0.69003200  1
  C  C18  1  0.21229700  0.75000000  0.63005000  1
