# generated using pymatgen
data_Cu2NiC5
_symmetry_space_group_name_H-M   'P 1'
_cell_length_a   8.84714879
_cell_length_b   8.84714879
_cell_length_c   7.78500338
_cell_angle_alpha   88.89808353
_cell_angle_beta   88.89808353
_cell_angle_gamma   45.21675338
_symmetry_Int_Tables_number   1
_chemical_formula_structural   Cu2NiC5
_chemical_formula_sum   'Cu4 Ni2 C10'
_cell_volume   432.40726171
_cell_formula_units_Z   2
loop_
 _symmetry_equiv_pos_site_id
 _symmetry_equiv_pos_as_xyz
  1  'x, y, z'
loop_
 _atom_site_type_symbol
 _atom_site_label
 _atom_site_symmetry_multiplicity
 _atom_site_fract_x
 _atom_site_fract_y
 _atom_site_fract_z
 _atom_site_occupancy
  Ni  Ni0  1  0.50000000  0.00000000  0.50000000  1
  Ni  Ni1  1  0.00000000  0.50000000  0.00000000  1
  Cu  Cu2  1  0.73848100  0.11872100  0.06721300  1
  Cu  Cu3  1  0.88127900  0.26151900  0.43278700  1
  Cu  Cu4  1  0.26151900  0.88127900  0.93278700  1
  Cu  Cu5  1  0.11872100  0.73848100  0.56721300  1
  C  C6  1  0.26466600  0.14291400  0.16268400  1
  C  C7  1  0.85708600  0.73533400  0.33731600  1
  C  C8  1  0.87732600  0.12267400  0.75000000  1
  C  C9  1  0.12267400  0.87732600  0.25000000  1
  C  C10  1  0.31358900  0.50705800  0.89896800  1
  C  C11  1  0.49294200  0.68641100  0.60103200  1
  C  C12  1  0.68641100  0.49294200  0.10103200  1
  C  C13  1  0.50705800  0.31358900  0.39896800  1
  C  C14  1  0.14291400  0.26466600  0.66268400  1
  C  C15  1  0.73533400  0.85708600  0.83731600  1
