# generated using pymatgen
data_Cu3NiC9
_symmetry_space_group_name_H-M   'P 1'
_cell_length_a   5.69546292
_cell_length_b   5.85704141
_cell_length_c   5.85705269
_cell_angle_alpha   59.66353052
_cell_angle_beta   63.53504069
_cell_angle_gamma   63.53506120
_symmetry_Int_Tables_number   1
_chemical_formula_structural   Cu3NiC9
_chemical_formula_sum   'Cu3 Ni1 C9'
_cell_volume   144.67696861
_cell_formula_units_Z   1
loop_
 _symmetry_equiv_pos_site_id
 _symmetry_equiv_pos_as_xyz
  1  'x, y, z'
loop_
 _atom_site_type_symbol
 _atom_site_label
 _atom_site_symmetry_multiplicity
 _atom_site_fract_x
 _atom_site_fract_y
 _atom_site_fract_z
 _atom_site_occupancy
  Ni  Ni0  1  0.50000000  0.00000000  0.00000000  1
  Cu  Cu1  1  0.50000000  0.00000000  0.50000000  1
  Cu  Cu2  1  0.50000000  0.50000000  0.00000000  1
  Cu  Cu3  1  0.00000000  0.50000000  0.50000000  1
  C  C4  1  0.50000000  0.50000000  0.50000000  1
  C  C5  1  0.29547700  0.23394900  0.23395100  1
  C  C6  1  0.69845600  0.27707200  0.27707300  1
  C  C7  1  0.27965700  0.70045300  0.24586500  1
  C  C8  1  0.27965600  0.24586400  0.70045300  1
  C  C9  1  0.72034400  0.75413600  0.29954700  1
  C  C10  1  0.72034300  0.29954700  0.75413500  1
  C  C11  1  0.30154400  0.72292800  0.72292700  1
  C  C12  1  0.70452300  0.76605100  0.76604900  1
