# generated using pymatgen
data_Cu8Ni2C
_symmetry_space_group_name_H-M   'P 1'
_cell_length_a   9.17119200
_cell_length_b   9.57062300
_cell_length_c   13.70778200
_cell_angle_alpha   90.00000000
_cell_angle_beta   90.00000000
_cell_angle_gamma   90.00000000
_symmetry_Int_Tables_number   1
_chemical_formula_structural   Cu8Ni2C
_chemical_formula_sum   'Cu64 Ni16 C8'
_cell_volume   1203.18714640
_cell_formula_units_Z   8
loop_
 _symmetry_equiv_pos_site_id
 _symmetry_equiv_pos_as_xyz
  1  'x, y, z'
loop_
 _atom_site_type_symbol
 _atom_site_label
 _atom_site_symmetry_multiplicity
 _atom_site_fract_x
 _atom_site_fract_y
 _atom_site_fract_z
 _atom_site_occupancy
  C  C0  1  0.72007100  0.96244200  0.60318600  1
  C  C1  1  0.22007100  0.53755800  0.60318600  1
  C  C2  1  0.77992900  0.46244200  0.39681400  1
  C  C3  1  0.27992900  0.03755800  0.39681400  1
  C  C4  1  0.27992900  0.53755800  0.10318600  1
  C  C5  1  0.77992900  0.96244200  0.10318600  1
  C  C6  1  0.22007100  0.03755800  0.89681400  1
  C  C7  1  0.72007100  0.46244200  0.89681400  1
  Ni  Ni8  1  0.50065600  0.27854500  0.55582600  1
  Ni  Ni9  1  0.00065600  0.22145500  0.55582600  1
  Ni  Ni10  1  0.32666200  0.89650400  0.65719300  1
  Ni  Ni11  1  0.32666200  0.39650400  0.84280700  1
  Ni  Ni12  1  0.67333800  0.10349600  0.34280700  1
  Ni  Ni13  1  0.99934400  0.27854500  0.05582600  1
  Ni  Ni14  1  0.82666200  0.10349600  0.84280700  1
  Ni  Ni15  1  0.17333800  0.39650400  0.34280700  1
  Ni  Ni16  1  0.67333800  0.60349600  0.15719300  1
  Ni  Ni17  1  0.50065600  0.77854500  0.94417400  1
  Ni  Ni18  1  0.00065600  0.72145500  0.94417400  1
  Ni  Ni19  1  0.49934400  0.22145500  0.05582600  1
  Ni  Ni20  1  0.82666200  0.60349600  0.65719300  1
  Ni  Ni21  1  0.49934400  0.72145500  0.44417400  1
  Ni  Ni22  1  0.99934400  0.77854500  0.44417400  1
  Ni  Ni23  1  0.17333800  0.89650400  0.15719300  1
  Cu  Cu24  1  0.08396500  0.87636700  0.38207800  1
  Cu  Cu25  1  0.21665700  0.93204600  0.05609400  1
  Cu  Cu26  1  0.21665700  0.43204600  0.44390600  1
  Cu  Cu27  1  0.40356000  0.80901700  0.38267900  1
  Cu  Cu28  1  0.91514000  0.36002500  0.98340000  1
  Cu  Cu29  1  0.01290200  0.91132400  0.16856800  1
  Cu  Cu30  1  0.91603500  0.12363300  0.61792200  1
  Cu  Cu31  1  0.90356000  0.19098300  0.11732100  1
  Cu  Cu32  1  0.10385500  0.18625300  0.00292500  1
  Cu  Cu33  1  0.74762400  0.00886900  0.27284000  1
  Cu  Cu34  1  0.28334300  0.93204600  0.55609400  1
  Cu  Cu35  1  0.98709800  0.08867600  0.83143200  1
  Cu  Cu36  1  0.78148700  0.24968700  0.82083800  1
  Cu  Cu37  1  0.78334300  0.06795400  0.94390600  1
  Cu  Cu38  1  0.58486000  0.86002500  0.01660000  1
  Cu  Cu39  1  0.41514000  0.63997500  0.51660000  1
  Cu  Cu40  1  0.28148700  0.75031300  0.67916200  1
  Cu  Cu41  1  0.08486000  0.13997500  0.48340000  1
  Cu  Cu42  1  0.71851300  0.74968700  0.17916200  1
  Cu  Cu43  1  0.48709800  0.91132400  0.66856800  1
  Cu  Cu44  1  0.75237600  0.00886900  0.77284000  1
  Cu  Cu45  1  0.60385500  0.31374700  0.00292500  1
  Cu  Cu46  1  0.78148700  0.74968700  0.67916200  1
  Cu  Cu47  1  0.01290200  0.41132400  0.33143200  1
  Cu  Cu48  1  0.28148700  0.25031300  0.82083800  1
  Cu  Cu49  1  0.91514000  0.86002500  0.51660000  1
  Cu  Cu50  1  0.40356000  0.30901700  0.11732100  1
  Cu  Cu51  1  0.98709800  0.58867600  0.66856800  1
  Cu  Cu52  1  0.41603500  0.37636700  0.61792200  1
  Cu  Cu53  1  0.60385500  0.81374700  0.49707500  1
  Cu  Cu54  1  0.24762400  0.49113100  0.27284000  1
  Cu  Cu55  1  0.39614500  0.68625300  0.99707500  1
  Cu  Cu56  1  0.74762400  0.50886900  0.22716000  1
  Cu  Cu57  1  0.91603500  0.62363300  0.88207800  1
  Cu  Cu58  1  0.21851300  0.25031300  0.32083800  1
  Cu  Cu59  1  0.09644000  0.80901700  0.88267900  1
  Cu  Cu60  1  0.71851300  0.24968700  0.32083800  1
  Cu  Cu61  1  0.21851300  0.75031300  0.17916200  1
  Cu  Cu62  1  0.89614500  0.81374700  0.99707500  1
  Cu  Cu63  1  0.48709800  0.41132400  0.83143200  1
  Cu  Cu64  1  0.51290200  0.58867600  0.16856800  1
  Cu  Cu65  1  0.28334300  0.43204600  0.94390600  1
  Cu  Cu66  1  0.89614500  0.31374700  0.50292500  1
  Cu  Cu67  1  0.58396500  0.12363300  0.11792200  1
  Cu  Cu68  1  0.59644000  0.19098300  0.61732100  1
  Cu  Cu69  1  0.08486000  0.63997500  0.01660000  1
  Cu  Cu70  1  0.78334300  0.56795400  0.55609400  1
  Cu  Cu71  1  0.41603500  0.87636700  0.88207800  1
  Cu  Cu72  1  0.10385500  0.68625300  0.49707500  1
  Cu  Cu73  1  0.25237600  0.49113100  0.77284000  1
  Cu  Cu74  1  0.71665700  0.06795400  0.44390600  1
  Cu  Cu75  1  0.71665700  0.56795400  0.05609400  1
  Cu  Cu76  1  0.51290200  0.08867600  0.33143200  1
  Cu  Cu77  1  0.41514000  0.13997500  0.98340000  1
  Cu  Cu78  1  0.58396500  0.62363300  0.38207800  1
  Cu  Cu79  1  0.59644000  0.69098300  0.88267900  1
  Cu  Cu80  1  0.08396500  0.37636700  0.11792200  1
  Cu  Cu81  1  0.75237600  0.50886900  0.72716000  1
  Cu  Cu82  1  0.90356000  0.69098300  0.38267900  1
  Cu  Cu83  1  0.39614500  0.18625300  0.50292500  1
  Cu  Cu84  1  0.25237600  0.99113100  0.72716000  1
  Cu  Cu85  1  0.24762400  0.99113100  0.22716000  1
  Cu  Cu86  1  0.09644000  0.30901700  0.61732100  1
  Cu  Cu87  1  0.58486000  0.36002500  0.48340000  1
