# generated using pymatgen
data_CuNiC19
_symmetry_space_group_name_H-M   'P 1'
_cell_length_a   9.33904139
_cell_length_b   9.33671623
_cell_length_c   22.44063397
_cell_angle_alpha   90.35003026
_cell_angle_beta   90.00000000
_cell_angle_gamma   120.00823836
_symmetry_Int_Tables_number   1
_chemical_formula_structural   CuNiC19
_chemical_formula_sum   'Cu6 Ni6 C114'
_cell_volume   1694.39767399
_cell_formula_units_Z   6
loop_
 _symmetry_equiv_pos_site_id
 _symmetry_equiv_pos_as_xyz
  1  'x, y, z'
loop_
 _atom_site_type_symbol
 _atom_site_label
 _atom_site_symmetry_multiplicity
 _atom_site_fract_x
 _atom_site_fract_y
 _atom_site_fract_z
 _atom_site_occupancy
  C  C0  1  0.63538340  0.00980035  0.24913687  1
  C  C1  1  0.36951564  0.35025239  0.24952626  1
  C  C2  1  0.99247758  0.63267933  0.24141030  1
  C  C3  1  0.64020175  0.63267933  0.74141030  1
  C  C4  1  0.98073675  0.35025239  0.74952626  1
  C  C5  1  0.37441695  0.00980035  0.74913687  1
  C  C6  1  0.31471461  0.35216248  0.58269473  1
  C  C7  1  0.02961318  0.68975519  0.57932760  1
  C  C8  1  0.65556045  0.95566529  0.57812372  1
  C  C9  1  0.30010584  0.95566529  0.07812372  1
  C  C10  1  0.66014301  0.68975519  0.07932760  1
  C  C11  1  0.03744887  0.35216248  0.08269473  1
  C  C12  1  0.98211215  0.68501938  0.91815378  1
  C  C13  1  0.70130643  0.02788876  0.90824706  1
  C  C14  1  0.32247512  0.29312612  0.91398928  1
  C  C15  1  0.97065000  0.29312612  0.41398928  1
  C  C16  1  0.32658133  0.02788876  0.40824706  1
  C  C17  1  0.70290623  0.68501938  0.41815378  1
  C  C18  1  0.98843001  0.99705132  0.49669181  1
  C  C19  1  0.00862131  0.99705132  0.99669181  1
  C  C20  1  0.66527443  0.32240579  0.83020127  1
  C  C21  1  0.65713236  0.32240579  0.33020127  1
  C  C22  1  0.32341175  0.66886007  0.16338866  1
  C  C23  1  0.34544732  0.66886007  0.66338866  1
  C  C24  1  0.00032123  0.99895846  0.34948017  1
  C  C25  1  0.99863724  0.99895846  0.84948017  1
  C  C26  1  0.66560801  0.33159882  0.68285395  1
  C  C27  1  0.66599180  0.33159882  0.18285395  1
  C  C28  1  0.33380040  0.67047570  0.01633041  1
  C  C29  1  0.33667430  0.67047570  0.51633041  1
  Ni  Ni30  1  0.29872499  0.99123079  0.25290885  1
  Ni  Ni31  1  0.69250580  0.99123079  0.75290885  1
  Ni  Ni32  1  0.67454629  0.63812113  0.58601746  1
  Ni  Ni33  1  0.96357584  0.63812113  0.08601746  1
  Ni  Ni34  1  0.34241593  0.97565177  0.92022307  1
  Ni  Ni35  1  0.63323483  0.97565177  0.42022307  1
  Cu  Cu36  1  0.99309934  0.99520917  0.65079602  1
  Cu  Cu37  1  0.00210984  0.99520917  0.15079602  1
  Cu  Cu38  1  0.66818304  0.33387264  0.98427683  1
  Cu  Cu39  1  0.66569060  0.33387264  0.48427683  1
  Cu  Cu40  1  0.33529054  0.67391331  0.31755762  1
  Cu  Cu41  1  0.33862177  0.67391331  0.81755762  1
  C  C42  1  0.69247459  0.70434950  0.25131152  1
  C  C43  1  0.01193039  0.30392664  0.25155523  1
  C  C44  1  0.29199625  0.30392664  0.75155523  1
  C  C45  1  0.01187491  0.70434950  0.75131152  1
  C  C46  1  0.96242648  0.32310195  0.58494160  1
  C  C47  1  0.35764931  0.03862022  0.58501261  1
  C  C48  1  0.68097192  0.03862022  0.08501261  1
  C  C49  1  0.36067647  0.32310195  0.08494160  1
  C  C50  1  0.62723051  0.65391141  0.91801461  1
  C  C51  1  0.03134112  0.37457649  0.91746355  1
  C  C52  1  0.34323437  0.37457649  0.41746355  1
  C  C53  1  0.02667990  0.65391141  0.41801461  1
  C  C54  1  0.22189624  0.01911209  0.31218523  1
  C  C55  1  0.79150554  0.78193082  0.30722166  1
  C  C56  1  0.98490404  0.20239025  0.30666127  1
  C  C57  1  0.21748621  0.20239025  0.80666127  1
  C  C58  1  0.99042528  0.78193082  0.80722166  1
  C  C59  1  0.79721585  0.01911209  0.81218523  1
  C  C60  1  0.78569666  0.96152769  0.69279532  1
  C  C61  1  0.17998986  0.21656567  0.69411296  1
  C  C62  1  0.04201315  0.81919715  0.69475584  1
  C  C63  1  0.77718401  0.81919715  0.19475584  1
  C  C64  1  0.03657581  0.21656567  0.19411296  1
  C  C65  1  0.17583103  0.96152769  0.19279532  1
  C  C66  1  0.88577186  0.34462943  0.64093638  1
  C  C67  1  0.46132741  0.11100789  0.64041736  1
  C  C68  1  0.65164879  0.53473618  0.64492861  1
  C  C69  1  0.88308839  0.53473618  0.14492861  1
  C  C70  1  0.64968148  0.11100789  0.14041736  1
  C  C71  1  0.45885856  0.34462943  0.14093638  1
  C  C72  1  0.44666519  0.29482081  0.02814061  1
  C  C73  1  0.83937874  0.54529135  0.02540325  1
  C  C74  1  0.70736766  0.15143098  0.02837853  1
  C  C75  1  0.44406432  0.15143098  0.52837853  1
  C  C76  1  0.70591362  0.54529135  0.52540325  1
  C  C77  1  0.84815662  0.29482081  0.52814061  1
  C  C78  1  0.55110933  0.67589845  0.97393235  1
  C  C79  1  0.13182417  0.45010824  0.97311581  1
  C  C80  1  0.31417520  0.87019273  0.97903000  1
  C  C81  1  0.55601654  0.87019273  0.47903000  1
  C  C82  1  0.31828307  0.45010824  0.47311581  1
  C  C83  1  0.12478811  0.67589845  0.47393235  1
  C  C84  1  0.11294344  0.62548081  0.36137327  1
  C  C85  1  0.50976765  0.88439836  0.35980071  1
  C  C86  1  0.36732850  0.48638675  0.36037634  1
  C  C87  1  0.11905725  0.48638675  0.86037634  1
  C  C88  1  0.37462971  0.88439836  0.85980071  1
  C  C89  1  0.51253637  0.62548081  0.86137327  1
  C  C90  1  0.00055855  0.80278064  0.41193209  1
  C  C91  1  0.81911127  0.00631113  0.41455560  1
  C  C92  1  0.19629942  0.19864066  0.41152001  1
  C  C93  1  0.00234125  0.19864066  0.91152001  1
  C  C94  1  0.18719986  0.00631113  0.91455560  1
  C  C95  1  0.80222208  0.80278064  0.91193209  1
  C  C96  1  0.97475054  0.15993149  0.58646579  1
  C  C97  1  0.18800414  0.03936404  0.58867511  1
  C  C98  1  0.85420801  0.82086220  0.58593525  1
  C  C99  1  0.96665419  0.82086220  0.08593525  1
  C  C100  1  0.85135990  0.03936404  0.08867511  1
  C  C101  1  0.18518095  0.15993149  0.08646579  1
  C  C102  1  0.66159172  0.14660287  0.74786873  1
  C  C103  1  0.46833786  0.33412104  0.74524946  1
  C  C104  1  0.86275179  0.53005354  0.74494243  1
  C  C105  1  0.66730275  0.53005354  0.24494243  1
  C  C106  1  0.86578418  0.33412104  0.24524946  1
  C  C107  1  0.48501215  0.14660287  0.24786873  1
  C  C108  1  0.63557753  0.48840125  0.91922595  1
  C  C109  1  0.85915385  0.36993676  0.91927218  1
  C  C110  1  0.52260471  0.15858536  0.92206268  1
  C  C111  1  0.63598165  0.15858536  0.42206268  1
  C  C112  1  0.51078391  0.36993676  0.41927218  1
  C  C113  1  0.85282472  0.48840125  0.41922595  1
  C  C114  1  0.33776789  0.47363657  0.07846096  1
  C  C115  1  0.14796908  0.66425065  0.08181597  1
  C  C116  1  0.53923154  0.86068687  0.07796648  1
  C  C117  1  0.32145433  0.86068687  0.57796648  1
  C  C118  1  0.51628058  0.66425065  0.58181597  1
  C  C119  1  0.13586769  0.47363657  0.57846096  1
  C  C120  1  0.29965441  0.81053311  0.25299375  1
  C  C121  1  0.51713370  0.69279974  0.25335036  1
  C  C122  1  0.18068866  0.47521196  0.25450685  1
  C  C123  1  0.29452230  0.47521196  0.75450685  1
  C  C124  1  0.17566503  0.69279974  0.75335036  1
  C  C125  1  0.51087770  0.81053311  0.75299375  1
