# generated using pymatgen
data_Cu2NiC10
_symmetry_space_group_name_H-M   'P 1'
_cell_length_a   5.58812153
_cell_length_b   4.82734715
_cell_length_c   6.42715983
_cell_angle_alpha   95.91028824
_cell_angle_beta   90.88674644
_cell_angle_gamma   71.00865877
_symmetry_Int_Tables_number   1
_chemical_formula_structural   Cu2NiC10
_chemical_formula_sum   'Cu2 Ni1 C10'
_cell_volume   163.03902604
_cell_formula_units_Z   1
loop_
 _symmetry_equiv_pos_site_id
 _symmetry_equiv_pos_as_xyz
  1  'x, y, z'
loop_
 _atom_site_type_symbol
 _atom_site_label
 _atom_site_symmetry_multiplicity
 _atom_site_fract_x
 _atom_site_fract_y
 _atom_site_fract_z
 _atom_site_occupancy
  Ni  Ni0  1  0.48109200  0.51636900  0.00336100  1
  Cu  Cu1  1  0.88842900  0.78409300  0.70377600  1
  Cu  Cu2  1  0.07671600  0.24525400  0.29958900  1
  C  C3  1  0.27004900  0.13636200  0.78953600  1
  C  C4  1  0.69592800  0.89209600  0.21324600  1
  C  C5  1  0.71289400  0.20504300  0.19770300  1
  C  C6  1  0.53365000  0.14621200  0.72595400  1
  C  C7  1  0.21567300  0.31814100  0.00891800  1
  C  C8  1  0.06126500  0.29166900  0.63600300  1
  C  C9  1  0.75046000  0.70956500  0.99409900  1
  C  C10  1  0.25222100  0.82385200  0.80547300  1
  C  C11  1  0.90466300  0.73733400  0.36697400  1
  C  C12  1  0.43195800  0.88151100  0.27620300  1
