# generated using pymatgen
data_Cu4Ni8C7
_symmetry_space_group_name_H-M   'P 1'
_cell_length_a   5.07090835
_cell_length_b   5.07891023
_cell_length_c   8.56939289
_cell_angle_alpha   87.63141441
_cell_angle_beta   92.43463429
_cell_angle_gamma   103.21771602
_symmetry_Int_Tables_number   1
_chemical_formula_structural   Cu4Ni8C7
_chemical_formula_sum   'Cu4 Ni8 C7'
_cell_volume   214.54788783
_cell_formula_units_Z   1
loop_
 _symmetry_equiv_pos_site_id
 _symmetry_equiv_pos_as_xyz
  1  'x, y, z'
loop_
 _atom_site_type_symbol
 _atom_site_label
 _atom_site_symmetry_multiplicity
 _atom_site_fract_x
 _atom_site_fract_y
 _atom_site_fract_z
 _atom_site_occupancy
  C  C0  1  0.95486797  0.47219622  0.66076822  1
  C  C1  1  0.97363680  0.03421037  0.02882267  1
  C  C2  1  0.00966663  0.99517891  0.33249037  1
  C  C3  1  0.03456144  0.98780813  0.66744234  1
  C  C4  1  0.55747269  0.44877520  0.17270748  1
  C  C5  1  0.48533030  0.52427918  0.84289124  1
  C  C6  1  0.42977975  0.58673760  0.48988601  1
  Ni  Ni7  1  0.16954208  0.78685766  0.49754280  1
  Ni  Ni8  1  0.32066339  0.30535455  0.33306302  1
  Ni  Ni9  1  0.32803031  0.29588760  0.00808528  1
  Ni  Ni10  1  0.29757128  0.33296961  0.67104498  1
  Ni  Ni11  1  0.69005230  0.69808064  0.67095424  1
  Ni  Ni12  1  0.69981821  0.68690795  0.01003268  1
  Ni  Ni13  1  0.69480768  0.69558740  0.33067169  1
  Ni  Ni14  1  0.82310897  0.19212366  0.17611484  1
  Cu  Cu15  1  0.17642747  0.82640553  0.16242937  1
  Cu  Cu16  1  0.17283517  0.74685372  0.82866524  1
  Cu  Cu17  1  0.83462908  0.19153903  0.83058648  1
  Cu  Cu18  1  0.83330948  0.19224703  0.50722905  1
