# generated using pymatgen
data_Cu3NiC16
_symmetry_space_group_name_H-M   'P 1'
_cell_length_a   15.55677239
_cell_length_b   9.02512384
_cell_length_c   8.90722811
_cell_angle_alpha   90.00000000
_cell_angle_beta   124.90539314
_cell_angle_gamma   90.00000000
_symmetry_Int_Tables_number   1
_chemical_formula_structural   Cu3NiC16
_chemical_formula_sum   'Cu12 Ni4 C64'
_cell_volume   1025.60706460
_cell_formula_units_Z   4
loop_
 _symmetry_equiv_pos_site_id
 _symmetry_equiv_pos_as_xyz
  1  'x, y, z'
loop_
 _atom_site_type_symbol
 _atom_site_label
 _atom_site_symmetry_multiplicity
 _atom_site_fract_x
 _atom_site_fract_y
 _atom_site_fract_z
 _atom_site_occupancy
  C  C0  1  0.25074009  0.72610720  0.98379822  1
  C  C1  1  0.75074009  0.77389280  0.48379822  1
  C  C2  1  0.75074009  0.22610720  0.98379822  1
  C  C3  1  0.25074009  0.27389280  0.48379822  1
  C  C4  1  0.50406561  0.11175929  0.74858766  1
  C  C5  1  0.50406561  0.88824071  0.24858766  1
  C  C6  1  0.00406561  0.61175929  0.74858766  1
  C  C7  1  0.00406561  0.38824071  0.24858766  1
  C  C8  1  0.18280694  0.94197594  0.28659326  1
  C  C9  1  0.18280694  0.05802406  0.78659326  1
  C  C10  1  0.68280694  0.44197594  0.28659326  1
  C  C11  1  0.68280694  0.55802406  0.78659326  1
  C  C12  1  0.09933974  0.75093147  0.55337394  1
  C  C13  1  0.09933974  0.24906853  0.05337394  1
  C  C14  1  0.59933974  0.25093147  0.55337394  1
  C  C15  1  0.59933974  0.74906853  0.05337394  1
  Ni  Ni16  1  0.89725506  0.75658428  0.94735792  1
  Ni  Ni17  1  0.89725506  0.24341572  0.44735792  1
  Ni  Ni18  1  0.39725506  0.25658428  0.94735792  1
  Ni  Ni19  1  0.39725506  0.74341572  0.44735792  1
  Cu  Cu20  1  0.99932389  0.95054951  0.75875091  1
  Cu  Cu21  1  0.99932389  0.04945049  0.25875091  1
  Cu  Cu22  1  0.49932389  0.45054951  0.75875091  1
  Cu  Cu23  1  0.49932389  0.54945049  0.25875091  1
  Cu  Cu24  1  0.35316477  0.90225122  0.76233822  1
  Cu  Cu25  1  0.64809897  0.89169146  0.74904104  1
  Cu  Cu26  1  0.64809897  0.10830854  0.24904104  1
  Cu  Cu27  1  0.35316477  0.09774878  0.26233822  1
  Cu  Cu28  1  0.85316477  0.40225122  0.76233822  1
  Cu  Cu29  1  0.14809897  0.39169146  0.74904104  1
  Cu  Cu30  1  0.14809897  0.60830854  0.24904104  1
  Cu  Cu31  1  0.85316477  0.59774878  0.26233822  1
  C  C32  1  0.15410479  0.56042237  0.74276527  1
  C  C33  1  0.84703531  0.57850414  0.75644066  1
  C  C34  1  0.84703531  0.42149586  0.25644066  1
  C  C35  1  0.15410479  0.43957763  0.24276527  1
  C  C36  1  0.65410479  0.06042237  0.74276527  1
  C  C37  1  0.34703531  0.07850414  0.75644066  1
  C  C38  1  0.34703531  0.92149586  0.25644066  1
  C  C39  1  0.65410479  0.93957763  0.24276527  1
  C  C40  1  0.43278899  0.54763273  0.58213078  1
  C  C41  1  0.56390874  0.54302078  0.93222635  1
  C  C42  1  0.56390874  0.45697922  0.43222635  1
  C  C43  1  0.43278899  0.45236727  0.08213078  1
  C  C44  1  0.93278899  0.04763273  0.58213078  1
  C  C45  1  0.06390874  0.04302078  0.93222635  1
  C  C46  1  0.06390874  0.95697922  0.43222635  1
  C  C47  1  0.93278899  0.95236727  0.08213078  1
  C  C48  1  0.25712005  0.84349728  0.74962837  1
  C  C49  1  0.73968805  0.81242630  0.75266852  1
  C  C50  1  0.73968805  0.18757370  0.25266852  1
  C  C51  1  0.25712005  0.15650272  0.24962837  1
  C  C52  1  0.75712005  0.34349728  0.74962837  1
  C  C53  1  0.23968805  0.31242630  0.75266852  1
  C  C54  1  0.23968805  0.68757370  0.25266852  1
  C  C55  1  0.75712005  0.65650272  0.24962837  1
  C  C56  1  0.34980803  0.86998659  0.58344579  1
  C  C57  1  0.64662422  0.84241365  0.91022066  1
  C  C58  1  0.64662422  0.15758635  0.41022066  1
  C  C59  1  0.34980803  0.13001341  0.08344579  1
  C  C60  1  0.84980803  0.36998659  0.58344579  1
  C  C61  1  0.14662422  0.34241365  0.91022066  1
  C  C62  1  0.14662422  0.65758635  0.41022066  1
  C  C63  1  0.84980803  0.63001341  0.08344579  1
  C  C64  1  0.45530530  0.85076776  0.93499765  1
  C  C65  1  0.54762290  0.82906397  0.56382428  1
  C  C66  1  0.54762290  0.17093603  0.06382428  1
  C  C67  1  0.45530530  0.14923224  0.43499765  1
  C  C68  1  0.95530530  0.35076776  0.93499765  1
  C  C69  1  0.04762290  0.32906397  0.56382428  1
  C  C70  1  0.04762290  0.67093603  0.06382428  1
  C  C71  1  0.95530530  0.64923224  0.43499765  1
  C  C72  1  0.07563259  0.84812602  0.74884821  1
  C  C73  1  0.91556594  0.84839682  0.75296229  1
  C  C74  1  0.91556594  0.15160318  0.25296229  1
  C  C75  1  0.07563259  0.15187398  0.24884821  1
  C  C76  1  0.57563259  0.34812602  0.74884821  1
  C  C77  1  0.41556594  0.34839682  0.75296229  1
  C  C78  1  0.41556594  0.65160318  0.25296229  1
  C  C79  1  0.57563259  0.65187398  0.24884821  1
