# generated using pymatgen
data_CuNi2C13
_symmetry_space_group_name_H-M   'P 1'
_cell_length_a   3.73930500
_cell_length_b   3.95893089
_cell_length_c   15.11083395
_cell_angle_alpha   96.75566900
_cell_angle_beta   90.00000000
_cell_angle_gamma   90.00000000
_symmetry_Int_Tables_number   1
_chemical_formula_structural   CuNi2C13
_chemical_formula_sum   'Cu1 Ni2 C13'
_cell_volume   222.14234068
_cell_formula_units_Z   1
loop_
 _symmetry_equiv_pos_site_id
 _symmetry_equiv_pos_as_xyz
  1  'x, y, z'
loop_
 _atom_site_type_symbol
 _atom_site_label
 _atom_site_symmetry_multiplicity
 _atom_site_fract_x
 _atom_site_fract_y
 _atom_site_fract_z
 _atom_site_occupancy
  Ni  Ni0  1  0.50000000  0.38689200  0.75416400  1
  Ni  Ni1  1  0.50000000  0.61310800  0.24583600  1
  Cu  Cu2  1  0.50000000  0.50000000  0.00000000  1
  C  C3  1  0.50000000  0.50000000  0.50000000  1
  C  C4  1  0.00000000  0.94852300  0.89494500  1
  C  C5  1  0.00000000  0.05147700  0.10505500  1
  C  C6  1  0.00000000  0.83997200  0.59184100  1
  C  C7  1  0.00000000  0.16002800  0.40815900  1
  C  C8  1  0.00000000  0.29906500  0.55417600  1
  C  C9  1  0.00000000  0.70093500  0.44582400  1
  C  C10  1  0.00000000  0.45278800  0.90441100  1
  C  C11  1  0.00000000  0.54721200  0.09558900  1
  C  C12  1  0.50000000  0.95471500  0.90706400  1
  C  C13  1  0.50000000  0.04528500  0.09293600  1
  C  C14  1  0.00000000  0.87427700  0.71655400  1
  C  C15  1  0.00000000  0.12572200  0.28344600  1
