# generated using pymatgen
data_CuNi5C31
_symmetry_space_group_name_H-M   'P 1'
_cell_length_a   9.07255809
_cell_length_b   9.06921798
_cell_length_c   22.76366440
_cell_angle_alpha   90.57380528
_cell_angle_beta   89.50553325
_cell_angle_gamma   119.84864320
_symmetry_Int_Tables_number   1
_chemical_formula_structural   CuNi5C31
_chemical_formula_sum   'Cu3 Ni15 C93'
_cell_volume   1624.45297244
_cell_formula_units_Z   3
loop_
 _symmetry_equiv_pos_site_id
 _symmetry_equiv_pos_as_xyz
  1  'x, y, z'
loop_
 _atom_site_type_symbol
 _atom_site_label
 _atom_site_symmetry_multiplicity
 _atom_site_fract_x
 _atom_site_fract_y
 _atom_site_fract_z
 _atom_site_occupancy
  C  C0  1  0.01827823  0.36218965  0.75473724  1
  C  C1  1  0.68938851  0.99796762  0.58733088  1
  C  C2  1  0.68877643  0.69645116  0.08761369  1
  C  C3  1  0.02478348  0.00587048  0.50666810  1
  C  C4  1  0.01952139  0.01964748  0.00545590  1
  C  C5  1  0.66168988  0.34677557  0.84204266  1
  C  C6  1  0.65130526  0.31871838  0.33932811  1
  C  C7  1  0.32873486  0.68380464  0.17622088  1
  C  C8  1  0.33441369  0.67511207  0.67605924  1
  C  C9  1  0.00712075  0.99456683  0.64688384  1
  C  C10  1  0.00568624  0.00698177  0.14764252  1
  C  C11  1  0.67128533  0.33045134  0.97864189  1
  C  C12  1  0.66455886  0.33379397  0.47747373  1
  C  C13  1  0.33993661  0.66984219  0.31215265  1
  C  C14  1  0.34133166  0.67515033  0.81460051  1
  C  C15  1  0.99870519  0.99585189  0.35141136  1
  C  C16  1  0.99218208  0.99778077  0.85024740  1
  C  C17  1  0.66269795  0.33802895  0.68493530  1
  C  C18  1  0.65957493  0.33177962  0.18413456  1
  C  C19  1  0.33153054  0.66113903  0.01875198  1
  C  C20  1  0.33861536  0.65752812  0.51948661  1
  Ni  Ni21  1  0.30307332  0.01492498  0.24818073  1
  Ni  Ni22  1  0.71225473  0.69522197  0.24540884  1
  Ni  Ni23  1  0.29833808  0.28615026  0.74946579  1
  Ni  Ni24  1  0.98412335  0.69442472  0.74936019  1
  Ni  Ni25  1  0.70803511  0.01596571  0.74547783  1
  Ni  Ni26  1  0.96635346  0.34852081  0.58253272  1
  Ni  Ni27  1  0.37982837  0.02922449  0.58092519  1
  Ni  Ni28  1  0.65480427  0.62181368  0.58147172  1
  Ni  Ni29  1  0.96534192  0.61761920  0.08244843  1
  Ni  Ni30  1  0.64991653  0.02917686  0.08171558  1
  Ni  Ni31  1  0.37638328  0.34542850  0.08064007  1
  Ni  Ni32  1  0.63806172  0.68114597  0.91572514  1
  Ni  Ni33  1  0.04679294  0.36222618  0.91184291  1
  Ni  Ni34  1  0.63777569  0.95208663  0.41586567  1
  Ni  Ni35  1  0.31588272  0.35978367  0.41268672  1
  Cu  Cu36  1  0.97881282  0.28652832  0.25179749  1
  Cu  Cu37  1  0.31162237  0.95254870  0.91787736  1
  Cu  Cu38  1  0.05025576  0.68428851  0.41602403  1
  C  C39  1  0.19986120  0.03276847  0.30419158  1
  C  C40  1  0.83741345  0.80679360  0.29915219  1
  C  C41  1  0.96711948  0.17497105  0.30427298  1
  C  C42  1  0.19923822  0.16470644  0.80441673  1
  C  C43  1  0.96898905  0.79808223  0.80515185  1
  C  C44  1  0.83542301  0.03111101  0.79958308  1
  C  C45  1  0.78606448  0.00096437  0.68886888  1
  C  C46  1  0.19091616  0.21043437  0.69608017  1
  C  C47  1  0.01074919  0.79360950  0.69463043  1
  C  C48  1  0.78443179  0.78653460  0.18855325  1
  C  C49  1  0.00018923  0.21329910  0.19798228  1
  C  C50  1  0.20596355  0.00024844  0.19393034  1
  C  C51  1  0.87251526  0.37156954  0.64036823  1
  C  C52  1  0.50154907  0.13618433  0.63693720  1
  C  C53  1  0.63694707  0.50582045  0.63730105  1
  C  C54  1  0.86575596  0.49664806  0.13787511  1
  C  C55  1  0.63227007  0.13131845  0.13783555  1
  C  C56  1  0.49896177  0.36845062  0.13668479  1
  C  C57  1  0.46071212  0.32817225  0.02697253  1
  C  C58  1  0.85687954  0.54063822  0.02955256  1
  C  C59  1  0.67735418  0.12964756  0.02742305  1
  C  C60  1  0.46603491  0.12860813  0.52737568  1
  C  C61  1  0.68169047  0.54769804  0.52686453  1
  C  C62  1  0.85512514  0.32065248  0.53103164  1
  C  C63  1  0.53903315  0.70000734  0.97314530  1
  C  C64  1  0.17155914  0.47415904  0.96622116  1
  C  C65  1  0.30114865  0.84213824  0.97017584  1
  C  C66  1  0.53741596  0.83372380  0.47310059  1
  C  C67  1  0.30109625  0.46519186  0.47004540  1
  C  C68  1  0.15865845  0.70242659  0.46907521  1
  C  C69  1  0.12509360  0.66520858  0.36241947  1
  C  C70  1  0.53117134  0.86876936  0.36336982  1
  C  C71  1  0.32785706  0.46020005  0.36006274  1
  C  C72  1  0.12107832  0.45425796  0.85539834  1
  C  C73  1  0.32956131  0.87820862  0.86372410  1
  C  C74  1  0.53572005  0.66539145  0.86285331  1
  C  C75  1  0.04599786  0.85160037  0.41349468  1
  C  C76  1  0.81134481  0.94737190  0.40952617  1
  C  C77  1  0.14152459  0.18378824  0.41068416  1
  C  C78  1  0.04846752  0.18758648  0.91062651  1
  C  C79  1  0.14531476  0.95288589  0.91789137  1
  C  C80  1  0.81390743  0.85719611  0.91064217  1
  C  C81  1  0.99517019  0.19863920  0.59028897  1
  C  C82  1  0.19882066  0.99005561  0.58686449  1
  C  C83  1  0.78606584  0.80705971  0.59014903  1
  C  C84  1  0.99523164  0.79636383  0.09126423  1
  C  C85  1  0.78715457  0.98256051  0.09091461  1
  C  C86  1  0.19487587  0.20863348  0.08855835  1
  C  C87  1  0.71750547  0.19525792  0.74694302  1
  C  C88  1  0.47437548  0.29063612  0.74353676  1
  C  C89  1  0.80758390  0.52126771  0.74603781  1
  C  C90  1  0.71488902  0.52072668  0.24376512  1
  C  C91  1  0.81166427  0.28470821  0.25126808  1
  C  C92  1  0.48011836  0.18936856  0.24488557  1
  C  C93  1  0.67549773  0.53808962  0.92186912  1
  C  C94  1  0.86693127  0.32430495  0.92074501  1
  C  C95  1  0.45253765  0.12572893  0.92411011  1
  C  C96  1  0.68305980  0.13470655  0.42311507  1
  C  C97  1  0.46055218  0.32522066  0.41980886  1
  C  C98  1  0.87580162  0.54610789  0.42223168  1
  C  C99  1  0.38302769  0.52577051  0.07842898  1
  C  C100  1  0.14108821  0.62117183  0.07602393  1
  C  C101  1  0.47376701  0.85402784  0.07697500  1
  C  C102  1  0.38726984  0.85714808  0.58047921  1
  C  C103  1  0.47483804  0.61630951  0.57792229  1
  C  C104  1  0.14300040  0.51923567  0.57550961  1
  C  C105  1  0.33758210  0.87001733  0.25532070  1
  C  C106  1  0.53181644  0.65602799  0.25451576  1
  C  C107  1  0.11812142  0.46018379  0.25888698  1
  C  C108  1  0.32833383  0.46494006  0.75803372  1
  C  C109  1  0.12185091  0.64782106  0.75735296  1
  C  C110  1  0.52892433  0.87432196  0.75410349  1
