# generated using pymatgen
data_Cu3NiC11
_symmetry_space_group_name_H-M   'P 1'
_cell_length_a   3.82677614
_cell_length_b   3.99076499
_cell_length_c   14.98241179
_cell_angle_alpha   90.00004725
_cell_angle_beta   89.99997689
_cell_angle_gamma   90.00002890
_symmetry_Int_Tables_number   1
_chemical_formula_structural   Cu3NiC11
_chemical_formula_sum   'Cu3 Ni1 C11'
_cell_volume   228.80786066
_cell_formula_units_Z   1
loop_
 _symmetry_equiv_pos_site_id
 _symmetry_equiv_pos_as_xyz
  1  'x, y, z'
loop_
 _atom_site_type_symbol
 _atom_site_label
 _atom_site_symmetry_multiplicity
 _atom_site_fract_x
 _atom_site_fract_y
 _atom_site_fract_z
 _atom_site_occupancy
  C  C0  1  0.49999900  0.50000000  0.24121514  1
  C  C1  1  0.49999900  0.50000000  0.73098754  1
  C  C2  1  0.50000100  0.50000000  0.48681212  1
  Ni  Ni3  1  0.50000000  0.50000000  0.01740067  1
  Cu  Cu4  1  0.00000000  0.00000100  0.36272189  1
  Cu  Cu5  1  0.00000000  -0.00000000  0.08615575  1
  Cu  Cu6  1  1.00000000  0.99999900  0.60960890  1
  C  C7  1  -0.00000000  0.50000100  0.38651239  1
  C  C8  1  0.50000000  0.00000100  0.38485724  1
  C  C9  1  0.50000100  0.00000000  0.02344897  1
  C  C10  1  0.99999900  1.00000000  0.21464255  1
  C  C11  1  1.00000000  0.50000000  0.58306016  1
  C  C12  1  0.50000100  0.99999900  0.57211468  1
  C  C13  1  0.99999900  0.00000000  0.74013349  1
  C  C14  1  0.00000100  0.50000000  0.06032551  1
