# generated using pymatgen
data_Cu2NiC16
_symmetry_space_group_name_H-M   'P 1'
_cell_length_a   5.21405466
_cell_length_b   5.48327665
_cell_length_c   10.48257598
_cell_angle_alpha   87.73151485
_cell_angle_beta   91.93927683
_cell_angle_gamma   95.01143222
_symmetry_Int_Tables_number   1
_chemical_formula_structural   Cu2NiC16
_chemical_formula_sum   'Cu2 Ni1 C16'
_cell_volume   298.17931240
_cell_formula_units_Z   1
loop_
 _symmetry_equiv_pos_site_id
 _symmetry_equiv_pos_as_xyz
  1  'x, y, z'
loop_
 _atom_site_type_symbol
 _atom_site_label
 _atom_site_symmetry_multiplicity
 _atom_site_fract_x
 _atom_site_fract_y
 _atom_site_fract_z
 _atom_site_occupancy
  Ni  Ni0  1  0.31732193  0.66350312  0.38243975  1
  Cu  Cu1  1  0.99489693  0.97652181  0.99457277  1
  Cu  Cu2  1  0.78026964  0.50658386  0.52907033  1
  C  C3  1  0.95288808  0.03281740  0.32818168  1
  C  C4  1  0.01382913  0.01250857  0.67682775  1
  C  C5  1  0.50358486  0.45666802  0.14846307  1
  C  C6  1  0.48921239  0.49308947  0.81708993  1
  C  C7  1  0.20642211  0.79429047  0.81802036  1
  C  C8  1  0.17934359  0.83248541  0.22052806  1
  C  C9  1  0.13443034  0.83036203  0.50591922  1
  C  C10  1  0.29926430  0.29480553  0.97808373  1
  C  C11  1  0.25019812  0.32304438  0.33145847  1
  C  C12  1  0.28506059  0.32596678  0.65449347  1
  C  C13  1  0.67935016  0.70359914  0.33251953  1
  C  C14  1  0.67802776  0.74292203  0.67579882  1
  C  C15  1  0.68972413  0.66376744  0.98214109  1
  C  C16  1  0.77339880  0.13141471  0.50116264  1
  C  C17  1  0.77255902  0.18052082  0.16250379  1
  C  C18  1  0.80021811  0.22262902  0.80447554  1
