# generated using pymatgen
data_Cu(NiC9)4
_symmetry_space_group_name_H-M   'P 1'
_cell_length_a   8.63640620
_cell_length_b   8.63517373
_cell_length_c   21.57682741
_cell_angle_alpha   90.15483509
_cell_angle_beta   89.70610032
_cell_angle_gamma   120.02022555
_symmetry_Int_Tables_number   1
_chemical_formula_structural   Cu(NiC9)4
_chemical_formula_sum   'Cu3 Ni12 C108'
_cell_volume   1393.24692317
_cell_formula_units_Z   3
loop_
 _symmetry_equiv_pos_site_id
 _symmetry_equiv_pos_as_xyz
  1  'x, y, z'
loop_
 _atom_site_type_symbol
 _atom_site_label
 _atom_site_symmetry_multiplicity
 _atom_site_fract_x
 _atom_site_fract_y
 _atom_site_fract_z
 _atom_site_occupancy
  C  C0  1  0.36505528  0.36571697  0.25032049  1
  C  C1  1  0.99793905  0.63335171  0.24911179  1
  C  C2  1  0.63487094  0.63764145  0.74971597  1
  C  C3  1  0.99699348  0.36199835  0.75068630  1
  C  C4  1  0.36956084  0.00103219  0.74919077  1
  C  C5  1  0.30157242  0.32991051  0.58276519  1
  C  C6  1  0.03460393  0.70167118  0.58302930  1
  C  C7  1  0.66428291  0.96746806  0.58460341  1
  C  C8  1  0.29883788  0.96550135  0.08331332  1
  C  C9  1  0.66978849  0.69871600  0.08306724  1
  C  C10  1  0.03195695  0.33636671  0.08366889  1
  C  C11  1  0.96667707  0.66524112  0.91783155  1
  C  C12  1  0.69982005  0.03177994  0.91552994  1
  C  C13  1  0.96824761  0.30093107  0.41625604  1
  C  C14  1  0.33540683  0.03331505  0.41755960  1
  C  C15  1  0.99704154  0.99475353  0.49949062  1
  C  C16  1  0.00493750  0.00276146  0.99938528  1
  C  C17  1  0.66153571  0.33079473  0.83392945  1
  C  C18  1  0.66666556  0.33332888  0.33332497  1
  C  C19  1  0.33617359  0.67166236  0.16723402  1
  C  C20  1  0.33645779  0.67093923  0.66664730  1
  Ni  Ni21  1  0.99390791  0.99472960  0.35142984  1
  Ni  Ni22  1  0.00214653  0.00661006  0.85156203  1
  Ni  Ni23  1  0.00003019  0.99895513  0.64854684  1
  Ni  Ni24  1  0.99815902  0.99519345  0.14879207  1
  Ni  Ni25  1  0.66389086  0.32501405  0.68495913  1
  Ni  Ni26  1  0.67040297  0.33102154  0.18486267  1
  Ni  Ni27  1  0.66442219  0.33712043  0.98189860  1
  Ni  Ni28  1  0.66221034  0.33562820  0.48165529  1
  Ni  Ni29  1  0.32883437  0.66537330  0.01799796  1
  Ni  Ni30  1  0.33566981  0.67175476  0.51779806  1
  Ni  Ni31  1  0.33942654  0.67191763  0.31524502  1
  Ni  Ni32  1  0.33859621  0.66990286  0.81541345  1
  Cu  Cu33  1  0.71080813  0.00029709  0.75016381  1
  Cu  Cu34  1  0.37502565  0.04239776  0.58291920  1
  Cu  Cu35  1  0.95672336  0.62339724  0.08328862  1
  C  C36  1  0.29288250  0.00070148  0.25038130  1
  C  C37  1  0.70899035  0.71353599  0.25037871  1
  C  C38  1  0.99555785  0.28528510  0.25032802  1
  C  C39  1  0.28815144  0.28863472  0.75037480  1
  C  C40  1  0.99930671  0.71080906  0.75049469  1
  C  C41  1  0.95539347  0.33383521  0.58258135  1
  C  C42  1  0.66683827  0.62026006  0.58326804  1
  C  C43  1  0.66668719  0.04573194  0.08311392  1
  C  C44  1  0.37893783  0.33334290  0.08366467  1
  C  C45  1  0.61914298  0.66162511  0.91694435  1
  C  C46  1  0.04767321  0.37608944  0.91642309  1
  C  C47  1  0.33329267  0.96038706  0.91671177  1
  C  C48  1  0.62442091  0.95321114  0.41626681  1
  C  C49  1  0.33767953  0.38135489  0.41631643  1
  C  C50  1  0.04038868  0.66590570  0.41626937  1
  C  C51  1  0.20604934  0.03637394  0.30790129  1
  C  C52  1  0.83441578  0.79794849  0.30608300  1
  C  C53  1  0.96964855  0.17131396  0.30840484  1
  C  C54  1  0.20477627  0.16504186  0.80634737  1
  C  C55  1  0.96489613  0.79480343  0.80826172  1
  C  C56  1  0.83697927  0.03825883  0.81050287  1
  C  C57  1  0.79903393  0.96094902  0.68942584  1
  C  C58  1  0.17079587  0.20810462  0.69194207  1
  C  C59  1  0.03836528  0.83015185  0.69254834  1
  C  C60  1  0.79346342  0.82775523  0.19157717  1
  C  C61  1  0.03541152  0.20316573  0.19231812  1
  C  C62  1  0.17136746  0.96465688  0.19282868  1
  C  C63  1  0.87543520  0.37412844  0.64075825  1
  C  C64  1  0.50153384  0.12951006  0.64327620  1
  C  C65  1  0.63162209  0.50350233  0.64199103  1
  C  C66  1  0.86923820  0.49629165  0.14378733  1
  C  C67  1  0.62648025  0.12820079  0.13965650  1
  C  C68  1  0.49584156  0.36898052  0.14187630  1
  C  C69  1  0.46152091  0.29313607  0.02703567  1
  C  C70  1  0.82982538  0.53596667  0.02289605  1
  C  C71  1  0.70240705  0.16283803  0.02469828  1
  C  C72  1  0.46325735  0.16974187  0.52263118  1
  C  C73  1  0.70538103  0.53662049  0.52690006  1
  C  C74  1  0.83675345  0.29882506  0.52526254  1
  C  C75  1  0.53604975  0.70166077  0.97451658  1
  C  C76  1  0.16214824  0.46315148  0.97451713  1
  C  C77  1  0.29797125  0.83836226  0.97411934  1
  C  C78  1  0.53993531  0.83891821  0.47507087  1
  C  C79  1  0.29778759  0.46348319  0.47436136  1
  C  C80  1  0.16195441  0.70188796  0.47383977  1
  C  C81  1  0.12730561  0.63029436  0.35875861  1
  C  C82  1  0.49894814  0.86878697  0.36057398  1
  C  C83  1  0.36367006  0.49540707  0.35825924  1
  C  C84  1  0.13065775  0.49897162  0.85886250  1
  C  C85  1  0.36856165  0.87331136  0.85916146  1
  C  C86  1  0.50472461  0.63413528  0.85882699  1
  C  C87  1  0.02761427  0.83758467  0.40851581  1
  C  C88  1  0.81432854  0.97936483  0.40864142  1
  C  C89  1  0.16688981  0.19086521  0.40953865  1
  C  C90  1  0.02366767  0.18742124  0.91021638  1
  C  C91  1  0.16208741  0.97266798  0.90869827  1
  C  C92  1  0.80931181  0.83170439  0.91035933  1
  C  C93  1  0.97489266  0.16597844  0.58994253  1
  C  C94  1  0.17580649  0.02085314  0.59153067  1
  C  C95  1  0.83335308  0.80931203  0.58969938  1
  C  C96  1  0.97933256  0.82344887  0.09131064  1
  C  C97  1  0.83567813  0.02728644  0.09099732  1
  C  C98  1  0.18869652  0.16774328  0.09137698  1
  C  C99  1  0.69123123  0.17937480  0.74352201  1
  C  C100  1  0.47824049  0.31423781  0.74302239  1
  C  C101  1  0.83059016  0.52413831  0.74239336  1
  C  C102  1  0.68813893  0.52322450  0.24339331  1
  C  C103  1  0.83140829  0.30990356  0.24381081  1
  C  C104  1  0.47703527  0.17128012  0.24206281  1
  C  C105  1  0.64305856  0.49695942  0.92310557  1
  C  C106  1  0.85746523  0.35581677  0.92302147  1
  C  C107  1  0.50474910  0.14400548  0.92470948  1
  C  C108  1  0.64535641  0.14354546  0.42329785  1
  C  C109  1  0.50179634  0.35677694  0.42276983  1
  C  C110  1  0.85634502  0.49536040  0.42459368  1
  C  C111  1  0.36035804  0.50226353  0.07563903  1
  C  C112  1  0.15673256  0.64582315  0.07536946  1
  C  C113  1  0.50122798  0.85555546  0.07543072  1
  C  C114  1  0.35360372  0.84285535  0.57515803  1
  C  C115  1  0.49759896  0.63882658  0.57573460  1
  C  C116  1  0.14523751  0.50008610  0.57533772  1
  C  C117  1  0.30573862  0.82906070  0.25813887  1
  C  C118  1  0.51902893  0.68735046  0.25800042  1
  C  C119  1  0.16640553  0.47579938  0.25711840  1
  C  C120  1  0.30603327  0.47607977  0.75804206  1
  C  C121  1  0.16543345  0.68746463  0.75778819  1
  C  C122  1  0.51062488  0.82240575  0.75788869  1
