# generated using pymatgen
data_Cu2Ni5C32
_symmetry_space_group_name_H-M   'P 1'
_cell_length_a   18.81705361
_cell_length_b   9.46411342
_cell_length_c   22.74575505
_cell_angle_alpha   90.04796197
_cell_angle_beta   86.62757255
_cell_angle_gamma   120.00276513
_symmetry_Int_Tables_number   1
_chemical_formula_structural   Cu2Ni5C32
_chemical_formula_sum   'Cu12 Ni30 C192'
_cell_volume   3499.93740114
_cell_formula_units_Z   6
loop_
 _symmetry_equiv_pos_site_id
 _symmetry_equiv_pos_as_xyz
  1  'x, y, z'
loop_
 _atom_site_type_symbol
 _atom_site_label
 _atom_site_symmetry_multiplicity
 _atom_site_fract_x
 _atom_site_fract_y
 _atom_site_fract_z
 _atom_site_occupancy
  Ni  Ni0  1  0.18384830  0.36633056  0.23963749  1
  Ni  Ni1  1  0.68488039  0.36890684  0.23955726  1
  Ni  Ni2  1  0.99260911  0.64542890  0.25155224  1
  Ni  Ni3  1  0.49454430  0.64523038  0.25073502  1
  Ni  Ni4  1  0.49223150  0.33621218  0.75835627  1
  Ni  Ni5  1  0.18401374  0.00311831  0.74154964  1
  Ni  Ni6  1  0.67922721  0.00518929  0.74183333  1
  Ni  Ni7  1  0.65714659  0.33698578  0.58199708  1
  Ni  Ni8  1  0.01304079  0.69778292  0.57473030  1
  Ni  Ni9  1  0.82606367  0.97212046  0.58673531  1
  Ni  Ni10  1  0.49482454  0.67612659  0.91771176  1
  Ni  Ni11  1  0.99355754  0.67493041  0.91608058  1
  Ni  Ni12  1  0.84718702  0.03456637  0.91247618  1
  Ni  Ni13  1  0.15325153  0.30786220  0.91961938  1
  Ni  Ni14  1  0.49194480  0.30952981  0.41550068  1
  Ni  Ni15  1  0.98368962  0.29876838  0.41559483  1
  Ni  Ni16  1  0.34318538  0.65790888  0.40874603  1
  Ni  Ni17  1  0.84706801  0.66595036  0.40929387  1
  Ni  Ni18  1  0.02744443  0.02226020  0.50285709  1
  Ni  Ni19  1  0.52009182  0.99133816  0.50159014  1
  Ni  Ni20  1  0.01362120  0.01470136  0.00600954  1
  Ni  Ni21  1  0.51805913  0.04090933  0.00311697  1
  Ni  Ni22  1  0.34571354  0.33913135  0.83583191  1
  Ni  Ni23  1  0.85151038  0.35114265  0.83222539  1
  Ni  Ni24  1  0.34081624  0.32296008  0.33072378  1
  Ni  Ni25  1  0.83886286  0.32021379  0.33678040  1
  Ni  Ni26  1  0.18107650  0.66897203  0.16763496  1
  Ni  Ni27  1  0.68150465  0.67103273  0.16821704  1
  Ni  Ni28  1  0.18104212  0.67391356  0.67411136  1
  Ni  Ni29  1  0.67930398  0.67904787  0.67033220  1
  Cu  Cu30  1  0.00230942  0.99561489  0.34707577  1
  Cu  Cu31  1  0.50269707  0.99901886  0.34585937  1
  Cu  Cu32  1  0.99871563  0.00693742  0.84094908  1
  Cu  Cu33  1  0.49098573  0.00023048  0.85536948  1
  Cu  Cu34  1  0.33641540  0.33586379  0.67972283  1
  Cu  Cu35  1  0.83860992  0.34075315  0.68672595  1
  Cu  Cu36  1  0.33788118  0.34217484  0.17600868  1
  Cu  Cu37  1  0.83798822  0.33934846  0.17798209  1
  Cu  Cu38  1  0.16013639  0.65208258  0.02006365  1
  Cu  Cu39  1  0.65898011  0.64617651  0.02264080  1
  Cu  Cu40  1  0.16689332  0.67691324  0.51808832  1
  Cu  Cu41  1  0.65726330  0.67499714  0.51704985  1
  C  C42  1  0.98794093  0.95360369  0.64974651  1
  C  C43  1  0.49242405  0.95760741  0.64955563  1
  C  C44  1  0.99246011  0.02715057  0.14956258  1
  C  C45  1  0.49235705  0.02420744  0.14941029  1
  C  C46  1  0.31837168  0.29451360  0.97587317  1
  C  C47  1  0.81681834  0.31316926  0.97395481  1
  C  C48  1  0.31624727  0.32306210  0.47317894  1
  C  C49  1  0.82085011  0.35910889  0.47908991  1
  C  C50  1  0.15669155  0.61950083  0.31214386  1
  C  C51  1  0.65663340  0.62228054  0.31323186  1
  C  C52  1  0.15624543  0.69404982  0.81104412  1
  C  C53  1  0.65517985  0.69445081  0.81173077  1
  C  C54  1  0.34635863  0.71352413  0.25189739  1
  C  C55  1  0.84697389  0.71419784  0.25169889  1
  C  C56  1  0.00197341  0.30801607  0.25396891  1
  C  C57  1  0.50234531  0.30879981  0.25331674  1
  C  C58  1  0.00428552  0.69862776  0.75450463  1
  C  C59  1  0.50187536  0.69781755  0.75432983  1
  C  C60  1  0.34765642  0.98161969  0.74787859  1
  C  C61  1  0.84172945  0.97155222  0.75372204  1
  C  C62  1  0.17747041  0.04728238  0.58864442  1
  C  C63  1  0.68269384  0.05351373  0.58875252  1
  C  C64  1  0.83431554  0.63957937  0.58150421  1
  C  C65  1  0.17802870  0.30836456  0.08831370  1
  C  C66  1  0.67781913  0.30723329  0.09009650  1
  C  C67  1  0.01432043  0.37997671  0.91532402  1
  C  C68  1  0.51053291  0.38187454  0.91670837  1
  C  C69  1  0.16745138  0.96903724  0.91518451  1
  C  C70  1  0.66917540  0.96896518  0.91799026  1
  C  C71  1  0.16708585  0.36602948  0.41672608  1
  C  C72  1  0.66730796  0.36608352  0.42042943  1
  C  C73  1  0.01212556  0.64483601  0.41896567  1
  C  C74  1  0.50811819  0.64482609  0.41456199  1
  C  C75  1  0.14702263  0.97547150  0.24490080  1
  C  C76  1  0.64658857  0.97444877  0.24474570  1
  C  C77  1  0.14686729  0.32007468  0.74970096  1
  C  C78  1  0.64069781  0.30766916  0.74421331  1
  C  C79  1  0.48212167  0.29916324  0.58080080  1
  C  C80  1  0.98051268  0.30372229  0.57690189  1
  C  C81  1  0.34542297  0.64890665  0.57817198  1
  C  C82  1  0.48266302  0.67208803  0.08317185  1
  C  C83  1  0.98157040  0.66648996  0.08160277  1
  C  C84  1  0.34418134  0.04195334  0.08016440  1
  C  C85  1  0.84415775  0.03856493  0.07915823  1
  C  C86  1  0.30976682  0.62905249  0.91730637  1
  C  C87  1  0.81418559  0.64139881  0.91709560  1
  C  C88  1  0.31425249  0.98960926  0.41566393  1
  C  C89  1  0.81204285  0.98051216  0.41673313  1
  C  C90  1  0.11952518  0.00215491  0.30441522  1
  C  C91  1  0.61926820  0.00062721  0.30439638  1
  C  C92  1  0.39377970  0.76776633  0.31220604  1
  C  C93  1  0.89610808  0.76520609  0.31130844  1
  C  C94  1  0.49217252  0.21899824  0.31526259  1
  C  C95  1  0.99391604  0.21810532  0.31544275  1
  C  C96  1  0.12077125  0.25115918  0.81119776  1
  C  C97  1  0.60187321  0.21312838  0.79992302  1
  C  C98  1  0.49495649  0.77630657  0.81465637  1
  C  C99  1  0.00165086  0.77862328  0.81587415  1
  C  C100  1  0.40793123  0.04236113  0.80094208  1
  C  C101  1  0.88354568  0.99716937  0.81539111  1
  C  C102  1  0.40548173  0.96030343  0.69106585  1
  C  C103  1  0.90337511  0.96254865  0.69697025  1
  C  C104  1  0.09075072  0.20455574  0.70759116  1
  C  C105  1  0.59366305  0.21056210  0.69335683  1
  C  C106  1  0.00829543  0.82031197  0.69710458  1
  C  C107  1  0.50807320  0.82087913  0.69677107  1
  C  C108  1  0.40773899  0.85130489  0.19773976  1
  C  C109  1  0.90814603  0.85302901  0.19772937  1
  C  C110  1  0.00964563  0.19704476  0.19755002  1
  C  C111  1  0.50931458  0.19475655  0.19761362  1
  C  C112  1  0.09189424  0.97522760  0.20066863  1
  C  C113  1  0.59095734  0.97412998  0.20085292  1
  C  C114  1  0.44352162  0.30598358  0.63831831  1
  C  C115  1  0.94059547  0.32159552  0.63207374  1
  C  C116  1  0.22442460  0.11885244  0.64736526  1
  C  C117  1  0.72676804  0.12287907  0.64848402  1
  C  C118  1  0.33176122  0.55405360  0.63269907  1
  C  C119  1  0.81671203  0.51302751  0.63355408  1
  C  C120  1  0.44699013  0.58845293  0.14205268  1
  C  C121  1  0.94416075  0.58356077  0.14014736  1
  C  C122  1  0.33039391  0.10348704  0.13649838  1
  C  C123  1  0.83093163  0.10817752  0.13351168  1
  C  C124  1  0.22132486  0.31906710  0.14860216  1
  C  C125  1  0.72112233  0.31355255  0.14950398  1
  C  C126  1  0.23790929  0.29144535  0.03103683  1
  C  C127  1  0.74006455  0.29740325  0.03173949  1
  C  C128  1  0.43638394  0.56622218  0.03498715  1
  C  C129  1  0.93579166  0.56169801  0.03257164  1
  C  C130  1  0.35012217  0.14961017  0.02954641  1
  C  C131  1  0.85095266  0.13762866  0.02589455  1
  C  C132  1  0.23977229  0.17967710  0.53013590  1
  C  C133  1  0.74094283  0.19665144  0.53249072  1
  C  C134  1  0.34965934  0.56002792  0.52497505  1
  C  C135  1  0.84571649  0.54800761  0.51894864  1
  C  C136  1  0.43880200  0.31267462  0.53094978  1
  C  C137  1  0.93565125  0.30663356  0.52560409  1
  C  C138  1  0.27438543  0.64746247  0.97407316  1
  C  C139  1  0.77793730  0.66118695  0.97343044  1
  C  C140  1  0.07512576  0.44270762  0.96818089  1
  C  C141  1  0.56246312  0.46752136  0.97192530  1
  C  C142  1  0.14864945  0.84475074  0.96858986  1
  C  C143  1  0.67366302  0.86451189  0.97058568  1
  C  C144  1  0.28005941  0.90306344  0.47292673  1
  C  C145  1  0.78101934  0.90271245  0.47603500  1
  C  C146  1  0.16911093  0.47461980  0.47028294  1
  C  C147  1  0.66384620  0.45355998  0.47968588  1
  C  C148  1  0.05656123  0.66644827  0.47957545  1
  C  C149  1  0.55804890  0.67447363  0.47197328  1
  C  C150  1  0.07166966  0.62504250  0.36248611  1
  C  C151  1  0.56433525  0.62220371  0.35693816  1
  C  C152  1  0.26634475  0.90175319  0.36631302  1
  C  C153  1  0.76145854  0.87767975  0.37022698  1
  C  C154  1  0.17952796  0.48088427  0.35503467  1
  C  C155  1  0.67531474  0.48923378  0.36158374  1
  C  C156  1  0.06987000  0.52206574  0.85932843  1
  C  C157  1  0.56413323  0.51301394  0.85691659  1
  C  C158  1  0.17627055  0.87811007  0.85309913  1
  C  C159  1  0.67887890  0.87597768  0.85555622  1
  C  C160  1  0.26502019  0.63347609  0.86699207  1
  C  C161  1  0.76746657  0.62901907  0.86672054  1
  C  C162  1  0.99140436  0.79017668  0.41075662  1
  C  C163  1  0.48432472  0.78553360  0.40781031  1
  C  C164  1  0.39997660  0.02188660  0.41072943  1
  C  C165  1  0.89745431  0.00436476  0.41092482  1
  C  C166  1  0.08803222  0.18818420  0.41708879  1
  C  C167  1  0.58815680  0.18745966  0.41621899  1
  C  C168  1  0.99199134  0.19206072  0.90611947  1
  C  C169  1  0.49153635  0.19775833  0.91228754  1
  C  C170  1  0.09738583  0.02209965  0.91257450  1
  C  C171  1  0.58892043  0.98711996  0.91830531  1
  C  C172  1  0.39742992  0.75592294  0.91404526  1
  C  C173  1  0.90070101  0.77865098  0.91224022  1
  C  C174  1  0.48612633  0.14617296  0.57851887  1
  C  C175  1  0.97802392  0.14462632  0.57931890  1
  C  C176  1  0.08467296  0.03524640  0.59467806  1
  C  C177  1  0.58975341  0.03915104  0.59307315  1
  C  C178  1  0.42797382  0.80557702  0.58136781  1
  C  C179  1  0.92664211  0.81055210  0.59017708  1
  C  C180  1  0.48062058  0.82612775  0.08178266  1
  C  C181  1  0.98063371  0.82137426  0.07978998  1
  C  C182  1  0.42626849  0.04840776  0.08251284  1
  C  C183  1  0.92652610  0.04494822  0.08354989  1
  C  C184  1  0.08483216  0.13774748  0.09506356  1
  C  C185  1  0.58487382  0.13727916  0.09503997  1
  C  C186  1  0.32666483  0.12765583  0.73828615  1
  C  C187  1  0.81940331  0.11437366  0.74398052  1
  C  C188  1  0.23133005  0.34215507  0.74067108  1
  C  C189  1  0.72559502  0.33809750  0.74222207  1
  C  C190  1  0.43456066  0.50675884  0.74836556  1
  C  C191  1  0.93164239  0.51452181  0.75180775  1
  C  C192  1  0.32769959  0.52719535  0.24100546  1
  C  C193  1  0.82823789  0.52851105  0.23972660  1
  C  C194  1  0.43441655  0.36258419  0.24625302  1
  C  C195  1  0.93431929  0.36218887  0.24787568  1
  C  C196  1  0.23316588  0.11022406  0.23618077  1
  C  C197  1  0.73266102  0.10826455  0.23601750  1
  C  C198  1  0.30389278  0.46193861  0.91837825  1
  C  C199  1  0.81931086  0.48479820  0.92220809  1
  C  C200  1  0.41998361  0.38161982  0.92732389  1
  C  C201  1  0.92422033  0.37705181  0.92812482  1
  C  C202  1  0.25746145  0.14228924  0.92328132  1
  C  C203  1  0.75806582  0.15265235  0.92148526  1
  C  C204  1  0.31833341  0.15375603  0.41901518  1
  C  C205  1  0.81887438  0.14428652  0.41568373  1
  C  C206  1  0.25645082  0.36167408  0.42088137  1
  C  C207  1  0.75857349  0.36986864  0.41906421  1
  C  C208  1  0.41836835  0.46474952  0.42463358  1
  C  C209  1  0.92106163  0.46597079  0.42401350  1
  C  C210  1  0.16576023  0.46493140  0.08250260  1
  C  C211  1  0.66590603  0.46334850  0.08563731  1
  C  C212  1  0.06646751  0.69476114  0.08095840  1
  C  C213  1  0.56865929  0.70449205  0.08151265  1
  C  C214  1  0.27844077  0.87354949  0.07452881  1
  C  C215  1  0.77880926  0.86819486  0.07670943  1
  C  C216  1  0.15671717  0.85987240  0.58098778  1
  C  C217  1  0.67747923  0.88005661  0.58004354  1
  C  C218  1  0.27989293  0.69002329  0.57596686  1
  C  C219  1  0.76408469  0.68870890  0.57963727  1
  C  C220  1  0.06586903  0.44391682  0.57565915  1
  C  C221  1  0.56820487  0.44121468  0.58177828  1
  C  C222  1  0.14182300  0.81270417  0.24501700  1
  C  C223  1  0.64194473  0.81211965  0.24441608  1
  C  C224  1  0.25442838  0.70436916  0.26066516  1
  C  C225  1  0.75461548  0.70273306  0.26144783  1
  C  C226  1  0.09615867  0.48112561  0.25263044  1
  C  C227  1  0.59707837  0.48017539  0.25298847  1
  C  C228  1  0.15036602  0.47944419  0.74622997  1
  C  C229  1  0.63833661  0.46192988  0.74425843  1
  C  C230  1  0.09811687  0.71407209  0.74991252  1
  C  C231  1  0.59662798  0.71418260  0.75122116  1
  C  C232  1  0.25723145  0.80827382  0.76011050  1
  C  C233  1  0.75108823  0.79184212  0.75982800  1
