# generated using pymatgen
data_Cu2Ni10C7
_symmetry_space_group_name_H-M   'P 1'
_cell_length_a   4.95146249
_cell_length_b   14.04618346
_cell_length_c   3.02736398
_cell_angle_alpha   88.00701430
_cell_angle_beta   89.84335272
_cell_angle_gamma   95.53515950
_symmetry_Int_Tables_number   1
_chemical_formula_structural   Cu2Ni10C7
_chemical_formula_sum   'Cu2 Ni10 C7'
_cell_volume   209.43814373
_cell_formula_units_Z   1
loop_
 _symmetry_equiv_pos_site_id
 _symmetry_equiv_pos_as_xyz
  1  'x, y, z'
loop_
 _atom_site_type_symbol
 _atom_site_label
 _atom_site_symmetry_multiplicity
 _atom_site_fract_x
 _atom_site_fract_y
 _atom_site_fract_z
 _atom_site_occupancy
  C  C0  1  0.44095500  0.32661300  0.51196900  1
  C  C1  1  0.02812000  0.98738100  0.99377900  1
  C  C2  1  0.93309400  0.35413000  0.01405200  1
  C  C3  1  0.03664200  0.66677700  0.04049200  1
  C  C4  1  0.56167300  0.13097600  0.46732800  1
  C  C5  1  0.50063600  0.52292400  0.56202400  1
  C  C6  1  0.49147700  0.84082100  0.51219700  1
  Ni  Ni7  1  0.19228100  0.60172300  0.54768300  1
  Ni  Ni8  1  0.18888000  0.92489800  0.50312700  1
  Ni  Ni9  1  0.35333400  0.07972800  0.97517400  1
  Ni  Ni10  1  0.34487900  0.76317900  0.02386500  1
  Ni  Ni11  1  0.30244300  0.41982600  0.99422200  1
  Ni  Ni12  1  0.61622900  0.25250900  0.01898100  1
  Ni  Ni13  1  0.69209300  0.58319100  0.06134800  1
  Ni  Ni14  1  0.69852200  0.89816200  0.00384000  1
  Ni  Ni15  1  0.88358700  0.05633000  0.48405000  1
  Ni  Ni16  1  0.77445800  0.41886500  0.53338700  1
  Cu  Cu17  1  0.08089500  0.26497200  0.47554700  1
  Cu  Cu18  1  0.86591300  0.73569900  0.52693600  1
