# generated using pymatgen
data_Cu4Ni4C3
_symmetry_space_group_name_H-M   'P 1'
_cell_length_a   3.92499044
_cell_length_b   3.92499044
_cell_length_c   10.12436320
_cell_angle_alpha   89.83679237
_cell_angle_beta   89.83679237
_cell_angle_gamma   90.86499016
_symmetry_Int_Tables_number   1
_chemical_formula_structural   Cu4Ni4C3
_chemical_formula_sum   'Cu4 Ni4 C3'
_cell_volume   155.95232459
_cell_formula_units_Z   1
loop_
 _symmetry_equiv_pos_site_id
 _symmetry_equiv_pos_as_xyz
  1  'x, y, z'
loop_
 _atom_site_type_symbol
 _atom_site_label
 _atom_site_symmetry_multiplicity
 _atom_site_fract_x
 _atom_site_fract_y
 _atom_site_fract_z
 _atom_site_occupancy
  C  C0  1  0.23557400  0.23557400  0.86683100  1
  C  C1  1  0.26824000  0.26824000  0.25558100  1
  C  C2  1  0.74078900  0.74078900  0.73022900  1
  Ni  Ni3  1  0.24080500  0.73878200  0.76955000  1
  Ni  Ni4  1  0.26391900  0.75847500  0.24868300  1
  Ni  Ni5  1  0.73878200  0.24080500  0.76955000  1
  Ni  Ni6  1  0.75847500  0.26391900  0.24868300  1
  Cu  Cu7  1  0.25142000  0.25142000  0.05786400  1
  Cu  Cu8  1  0.25020200  0.25020200  0.43995300  1
  Cu  Cu9  1  0.74137600  0.74137600  0.53905800  1
  Cu  Cu10  1  0.74375100  0.74375100  0.93651900  1
