# generated using pymatgen
data_Cu(NiC8)2
_symmetry_space_group_name_H-M   'P 1'
_cell_length_a   9.20037410
_cell_length_b   9.21790741
_cell_length_c   23.30455623
_cell_angle_alpha   90.29158412
_cell_angle_beta   89.59396159
_cell_angle_gamma   120.06850526
_symmetry_Int_Tables_number   1
_chemical_formula_structural   Cu(NiC8)2
_chemical_formula_sum   'Cu6 Ni12 C96'
_cell_volume   1710.39924478
_cell_formula_units_Z   6
loop_
 _symmetry_equiv_pos_site_id
 _symmetry_equiv_pos_as_xyz
  1  'x, y, z'
loop_
 _atom_site_type_symbol
 _atom_site_label
 _atom_site_symmetry_multiplicity
 _atom_site_fract_x
 _atom_site_fract_y
 _atom_site_fract_z
 _atom_site_occupancy
  Ni  Ni0  1  0.00237794  0.63817890  0.23692722  1
  Ni  Ni1  1  0.99161378  0.35166041  0.75983998  1
  Ni  Ni2  1  0.37772872  0.00238020  0.74743389  1
  Ni  Ni3  1  0.65581148  0.97595765  0.59427534  1
  Ni  Ni4  1  0.68475616  0.68326565  0.07550561  1
  Ni  Ni5  1  0.33468061  0.03433896  0.42796722  1
  Ni  Ni6  1  0.02426278  0.00520141  0.50582702  1
  Ni  Ni7  1  0.01928711  0.99449570  0.00425294  1
  Ni  Ni8  1  0.66531561  0.33013000  0.84172182  1
  Ni  Ni9  1  0.66560278  0.33370373  0.32786628  1
  Ni  Ni10  1  0.31296945  0.66138148  0.15732849  1
  Ni  Ni11  1  0.35700950  0.68534844  0.66614287  1
  Cu  Cu12  1  0.99507736  0.00554594  0.35212740  1
  Cu  Cu13  1  0.67242571  0.33228202  0.17534146  1
  Cu  Cu14  1  0.67686460  0.33862593  0.98708122  1
  Cu  Cu15  1  0.66063531  0.33200187  0.48560162  1
  Cu  Cu16  1  0.33806696  0.66076095  0.31293070  1
  Cu  Cu17  1  0.35206585  0.67782377  0.81632305  1
  C  C18  1  0.98217491  0.99537175  0.85150676  1
  C  C19  1  -0.00016872  0.99304746  0.64936167  1
  C  C20  1  0.00799540  0.00648277  0.14903803  1
  C  C21  1  0.66192009  0.32387402  0.67909484  1
  C  C22  1  0.32033132  0.67126690  0.01379457  1
  C  C23  1  0.32819321  0.66631711  0.51892621  1
  C  C24  1  0.70857025  0.00737265  0.74392906  1
  C  C25  1  0.35380073  0.02102535  0.58149478  1
  C  C26  1  0.97856379  0.64747631  0.08768297  1
  C  C27  1  0.30006102  0.00316775  0.25271574  1
  C  C28  1  0.70418087  0.70194014  0.24742575  1
  C  C29  1  0.99735188  0.29830472  0.24773691  1
  C  C30  1  0.29360837  0.28598309  0.74975047  1
  C  C31  1  0.99145786  0.69820735  0.75068038  1
  C  C32  1  0.97267085  0.33715084  0.58485567  1
  C  C33  1  0.66345897  0.63151216  0.58568348  1
  C  C34  1  0.66430110  0.01808089  0.08173776  1
  C  C35  1  0.35930831  0.33704467  0.08176864  1
  C  C36  1  0.63815454  0.67312360  0.91962833  1
  C  C37  1  0.03778958  0.36196883  0.91260034  1
  C  C38  1  0.32218382  0.97134096  0.91132210  1
  C  C39  1  0.62861818  0.96001504  0.42054262  1
  C  C40  1  0.33130369  0.36941046  0.42040138  1
  C  C41  1  0.03714989  0.66788008  0.41606602  1
  C  C42  1  0.22625230  0.01426755  0.30820057  1
  C  C43  1  0.80625792  0.79491718  0.29748110  1
  C  C44  1  0.99907982  0.21018849  0.29970064  1
  C  C45  1  0.21852382  0.17559178  0.80065880  1
  C  C46  1  0.97376871  0.77694325  0.80355541  1
  C  C47  1  0.83919614  0.04624435  0.79752354  1
  C  C48  1  0.79417722  0.99325254  0.68351486  1
  C  C49  1  0.19588472  0.20651796  0.69701166  1
  C  C50  1  0.02830956  0.80831576  0.70004773  1
  C  C51  1  0.78834172  0.79565487  0.19289246  1
  C  C52  1  0.00185148  0.20818219  0.19484266  1
  C  C53  1  0.19056278  0.99288758  0.20395202  1
  C  C54  1  0.90394580  0.36288603  0.64053506  1
  C  C55  1  0.47928630  0.11239531  0.63793391  1
  C  C56  1  0.65759171  0.54048733  0.63905877  1
  C  C57  1  0.91305272  0.55329388  0.14908354  1
  C  C58  1  0.63303218  0.08761420  0.13417199  1
  C  C59  1  0.45827834  0.35802467  0.13384113  1
  C  C60  1  0.43098730  0.30401822  0.03023242  1
  C  C61  1  0.83807289  0.55094283  0.03833402  1
  C  C62  1  0.67742313  0.11384952  0.02993357  1
  C  C63  1  0.43046677  0.11919211  0.52192046  1
  C  C64  1  0.68231596  0.55388120  0.53393660  1
  C  C65  1  0.86629606  0.32443038  0.53647486  1
  C  C66  1  0.55103917  0.68284277  0.97321521  1
  C  C67  1  0.14295380  0.45639654  0.96232654  1
  C  C68  1  0.30730872  0.86522871  0.96127267  1
  C  C69  1  0.54945971  0.87040899  0.47640851  1
  C  C70  1  0.32874537  0.45895345  0.47408526  1
  C  C71  1  0.14339306  0.67932195  0.46654166  1
  C  C72  1  0.11553205  0.65752258  0.36187891  1
  C  C73  1  0.52390252  0.86317480  0.37180114  1
  C  C74  1  0.32984192  0.45856513  0.36903742  1
  C  C75  1  0.11467394  0.44677428  0.85764923  1
  C  C76  1  0.33452565  0.89617550  0.85663840  1
  C  C77  1  0.54571667  0.66911009  0.86809558  1
  C  C78  1  0.03397286  0.82890625  0.41799928  1
  C  C79  1  0.79894089  0.98366356  0.41869146  1
  C  C80  1  0.18208118  0.19589109  0.42267631  1
  C  C81  1  0.02628615  0.19310672  0.91453176  1
  C  C82  1  0.16172857  0.98111768  0.91126241  1
  C  C83  1  0.80935230  0.83029632  0.91929572  1
  C  C84  1  0.97484910  0.17605521  0.58636582  1
  C  C85  1  0.16400477  -0.00550740  0.58986173  1
  C  C86  1  0.80676750  0.80860769  0.58722406  1
  C  C87  1  0.99797312  0.83951377  0.08814894  1
  C  C88  1  0.82116011  0.00744043  0.08674172  1
  C  C89  1  0.18200721  0.20134835  0.08838405  1
  C  C90  1  0.69580800  0.18441303  0.74463033  1
  C  C91  1  0.46735916  0.31192287  0.74448283  1
  C  C92  1  0.83586896  0.53133701  0.74326527  1
  C  C93  1  0.69456082  0.53581091  0.24712988  1
  C  C94  1  0.84438058  0.31411622  0.24865460  1
  C  C95  1  0.47099509  0.14819119  0.24692280  1
  C  C96  1  0.65657277  0.52390426  0.92013262  1
  C  C97  1  0.86710288  0.33974212  0.91676242  1
  C  C98  1  0.46928801  0.14025010  0.91682508  1
  C  C99  1  0.63605142  0.12494355  0.42008941  1
  C  C100  1  0.48352389  0.35156823  0.41860279  1
  C  C101  1  0.86694145  0.52228311  0.42100562  1
  C  C102  1  0.36204951  0.50216322  0.07489515  1
  C  C103  1  0.16778813  0.67150310  0.07671639  1
  C  C104  1  0.52391505  0.83826790  0.07577493  1
  C  C105  1  0.35177751  0.83714780  0.58238782  1
  C  C106  1  0.50581967  0.64341160  0.58430166  1
  C  C107  1  0.14674392  0.47860153  0.57991631  1
  C  C108  1  0.30186119  0.84155575  0.25040221  1
  C  C109  1  0.53522600  0.68077603  0.24893762  1
  C  C110  1  0.14661940  0.47163700  0.24570483  1
  C  C111  1  0.29894539  0.44809229  0.75585030  1
  C  C112  1  0.13659242  0.66847494  0.75489535  1
  C  C113  1  0.51747248  0.84917767  0.74783662  1
