# generated using pymatgen
data_Cu6NiC12
_symmetry_space_group_name_H-M   'P 1'
_cell_length_a   4.89344669
_cell_length_b   13.67467773
_cell_length_c   2.88751278
_cell_angle_alpha   90.00000424
_cell_angle_beta   89.99999968
_cell_angle_gamma   92.68041640
_symmetry_Int_Tables_number   1
_chemical_formula_structural   Cu6NiC12
_chemical_formula_sum   'Cu6 Ni1 C12'
_cell_volume   193.01028950
_cell_formula_units_Z   1
loop_
 _symmetry_equiv_pos_site_id
 _symmetry_equiv_pos_as_xyz
  1  'x, y, z'
loop_
 _atom_site_type_symbol
 _atom_site_label
 _atom_site_symmetry_multiplicity
 _atom_site_fract_x
 _atom_site_fract_y
 _atom_site_fract_z
 _atom_site_occupancy
  Ni  Ni0  1  0.60455136  0.68031279  0.00000000  1
  Cu  Cu1  1  0.91396177  0.01171136  0.00000000  1
  Cu  Cu2  1  0.03495086  0.33829019  1.00000000  1
  Cu  Cu3  1  0.10857987  0.62495825  0.00000000  1
  Cu  Cu4  1  0.42014973  0.16113154  0.50000000  1
  Cu  Cu5  1  0.58090357  0.48299058  0.50000000  1
  Cu  Cu6  1  0.39537027  0.86931654  0.50000000  1
  C  C7  1  0.17178864  0.26544814  0.50000000  1
  C  C8  1  0.06822248  0.94304535  0.50000000  1
  C  C9  1  0.37142249  0.60282599  0.50000000  1
  C  C10  1  0.31631602  0.77854677  1.00000000  1
  C  C11  1  0.22964304  0.09529121  0.00000000  1
  C  C12  1  0.37607602  0.43095879  0.00000000  1
  C  C13  1  0.77565022  0.54726368  0.00000000  1
  C  C14  1  0.59639919  0.92414141  1.00000000  1
  C  C15  1  0.75238011  0.07513279  0.50000000  1
  C  C16  1  0.84984899  0.39310682  0.50000000  1
  C  C17  1  0.63450974  0.23040192  0.00000000  1
  C  C18  1  0.85483064  0.71950987  0.50000000  1
