# generated using pymatgen
data_CuNiC3
_symmetry_space_group_name_H-M   'P 1'
_cell_length_a   5.57030200
_cell_length_b   6.90710200
_cell_length_c   8.05401800
_cell_angle_alpha   90.00000000
_cell_angle_beta   90.00000000
_cell_angle_gamma   90.00000000
_symmetry_Int_Tables_number   1
_chemical_formula_structural   CuNiC3
_chemical_formula_sum   'Cu4 Ni4 C12'
_cell_volume   309.87547600
_cell_formula_units_Z   4
loop_
 _symmetry_equiv_pos_site_id
 _symmetry_equiv_pos_as_xyz
  1  'x, y, z'
loop_
 _atom_site_type_symbol
 _atom_site_label
 _atom_site_symmetry_multiplicity
 _atom_site_fract_x
 _atom_site_fract_y
 _atom_site_fract_z
 _atom_site_occupancy
  Ni  Ni0  1  0.25000000  0.35836300  0.68350800  1
  Ni  Ni1  1  0.75000000  0.64163700  0.31649200  1
  Ni  Ni2  1  0.75000000  0.85836300  0.81649200  1
  Ni  Ni3  1  0.25000000  0.14163700  0.18350800  1
  Cu  Cu4  1  0.75000000  0.35117900  0.96510800  1
  Cu  Cu5  1  0.25000000  0.64882100  0.03489200  1
  Cu  Cu6  1  0.25000000  0.85117900  0.53489200  1
  Cu  Cu7  1  0.75000000  0.14882100  0.46510800  1
  C  C8  1  0.03034500  0.78417300  0.06227800  1
  C  C9  1  0.53034500  0.21582700  0.93772200  1
  C  C10  1  0.96965500  0.28417300  0.43772200  1
  C  C11  1  0.46965500  0.71582700  0.56227800  1
  C  C12  1  0.96965500  0.21582700  0.93772200  1
  C  C13  1  0.46965500  0.78417300  0.06227800  1
  C  C14  1  0.03034500  0.71582700  0.56227800  1
  C  C15  1  0.53034500  0.28417300  0.43772200  1
  C  C16  1  0.75000000  0.01600400  0.31222700  1
  C  C17  1  0.25000000  0.98399600  0.68777300  1
  C  C18  1  0.25000000  0.51600400  0.18777300  1
  C  C19  1  0.75000000  0.48399600  0.81222700  1
