# generated using pymatgen
data_CuNiC11
_symmetry_space_group_name_H-M   'P 1'
_cell_length_a   5.97319291
_cell_length_b   5.97319212
_cell_length_c   6.64938251
_cell_angle_alpha   63.31058794
_cell_angle_beta   116.68940199
_cell_angle_gamma   119.99999073
_symmetry_Int_Tables_number   1
_chemical_formula_structural   CuNiC11
_chemical_formula_sum   'Cu1 Ni1 C11'
_cell_volume   175.66611225
_cell_formula_units_Z   1
loop_
 _symmetry_equiv_pos_site_id
 _symmetry_equiv_pos_as_xyz
  1  'x, y, z'
loop_
 _atom_site_type_symbol
 _atom_site_label
 _atom_site_symmetry_multiplicity
 _atom_site_fract_x
 _atom_site_fract_y
 _atom_site_fract_z
 _atom_site_occupancy
  Ni  Ni0  1  0.00000000  0.00000000  0.00000000  1
  C  C1  1  0.50000000  0.50000000  0.00000000  1
  C  C2  1  0.50000000  0.00000000  0.00000000  1
  C  C3  1  0.00000000  0.50000000  0.00000000  1
  Cu  Cu4  1  0.50000000  0.50000000  0.50000000  1
  C  C5  1  0.76253600  0.71230400  0.81276700  1
  C  C6  1  0.76253600  0.23746400  0.81276700  1
  C  C7  1  0.27740300  0.72259700  0.83221000  1
  C  C8  1  0.28769600  0.23746400  0.81276700  1
  C  C9  1  0.71230400  0.76253600  0.18723300  1
  C  C10  1  0.72259700  0.27740300  0.16779000  1
  C  C11  1  0.23746400  0.76253600  0.18723300  1
  C  C12  1  0.23746400  0.28769600  0.18723300  1
