# generated using pymatgen
data_Cu12NiC8
_symmetry_space_group_name_H-M   'P 1'
_cell_length_a   9.12403483
_cell_length_b   9.08126019
_cell_length_c   22.00050212
_cell_angle_alpha   89.66795214
_cell_angle_beta   90.00000000
_cell_angle_gamma   120.15593522
_symmetry_Int_Tables_number   1
_chemical_formula_structural   Cu12NiC8
_chemical_formula_sum   'Cu72 Ni6 C48'
_cell_volume   1576.16604189
_cell_formula_units_Z   6
loop_
 _symmetry_equiv_pos_site_id
 _symmetry_equiv_pos_as_xyz
  1  'x, y, z'
loop_
 _atom_site_type_symbol
 _atom_site_label
 _atom_site_symmetry_multiplicity
 _atom_site_fract_x
 _atom_site_fract_y
 _atom_site_fract_z
 _atom_site_occupancy
  C  C0  1  0.63296266  0.00634974  0.25424012  1
  C  C1  1  0.35865618  0.35802495  0.24714601  1
  C  C2  1  0.00627216  0.63073530  0.24841205  1
  C  C3  1  0.62446313  0.63073530  0.74841205  1
  C  C4  1  0.99936877  0.35802495  0.74714601  1
  C  C5  1  0.37338708  0.00634974  0.75424012  1
  C  C6  1  0.29962966  0.33968274  0.58757312  1
  C  C7  1  0.02532318  0.69135795  0.58047901  1
  C  C8  1  0.67293916  0.96406830  0.58174505  1
  C  C9  1  0.29113013  0.96406830  0.08174505  1
  C  C10  1  0.66603577  0.69135795  0.08047901  1
  C  C11  1  0.04005408  0.33968274  0.08757312  1
  C  C12  1  0.96629566  0.67301674  0.92090712  1
  C  C13  1  0.69198918  0.02469195  0.91381301  1
  C  C14  1  0.33960516  0.29740230  0.91507905  1
  C  C15  1  0.95779613  0.29740230  0.41507905  1
  C  C16  1  0.33270177  0.02469195  0.41381301  1
  C  C17  1  0.70672008  0.67301674  0.42090712  1
  C  C18  1  0.98763860  0.99278153  0.49997615  1
  C  C19  1  0.00514293  0.99278153  0.99997615  1
  C  C20  1  0.65430560  0.32611453  0.83330915  1
  C  C21  1  0.67180993  0.32611453  0.33330915  1
  C  C22  1  0.32097160  0.65944853  0.16664315  1
  C  C23  1  0.33847593  0.65944853  0.66664315  1
  C  C24  1  0.00048299  0.00111171  0.34565099  1
  C  C25  1  0.00062872  0.00111171  0.84565099  1
  C  C26  1  0.99001915  0.01022236  0.65408505  1
  C  C27  1  0.02020321  0.01022236  0.15408505  1
  C  C28  1  0.66714999  0.33444471  0.67898399  1
  C  C29  1  0.66729572  0.33444471  0.17898399  1
  C  C30  1  0.65668615  0.34355536  0.98741805  1
  C  C31  1  0.68687021  0.34355536  0.48741805  1
  C  C32  1  0.33381599  0.66777871  0.01231799  1
  C  C33  1  0.33396172  0.66777871  0.51231799  1
  C  C34  1  0.32335215  0.67688936  0.32075205  1
  C  C35  1  0.35353621  0.67688936  0.82075205  1
  C  C36  1  0.30001269  0.00112139  0.25039478  1
  C  C37  1  0.99967477  0.29641858  0.25001902  1
  C  C38  1  0.29674381  0.29641858  0.75001902  1
  C  C39  1  0.70110870  0.00112139  0.75039478  1
  C  C40  1  0.96667969  0.33445439  0.58372778  1
  C  C41  1  0.66634177  0.62975158  0.58335202  1
  C  C42  1  0.96341081  0.62975158  0.08335202  1
  C  C43  1  0.36777570  0.33445439  0.08372778  1
  C  C44  1  0.63334569  0.66778839  0.91706178  1
  C  C45  1  0.33300777  0.96308558  0.91668602  1
  C  C46  1  0.63007681  0.96308558  0.41668602  1
  C  C47  1  0.03444170  0.66778839  0.41706178  1
  Ni  Ni48  1  0.70266483  0.70388543  0.24979141  1
  Ni  Ni49  1  0.00122060  0.70388543  0.74979141  1
  Ni  Ni50  1  0.36933183  0.03721843  0.58312441  1
  Ni  Ni51  1  0.66788760  0.03721843  0.08312441  1
  Ni  Ni52  1  0.03599783  0.37055243  0.91645841  1
  Ni  Ni53  1  0.33455360  0.37055243  0.41645841  1
  Cu  Cu54  1  0.21825738  0.02989065  0.30740877  1
  Cu  Cu55  1  0.80710067  0.78209931  0.30486517  1
  Cu  Cu56  1  0.96885041  0.18446819  0.30738117  1
  Cu  Cu57  1  0.21561778  0.18446819  0.80738117  1
  Cu  Cu58  1  0.97499864  0.78209931  0.80486517  1
  Cu  Cu59  1  0.81163327  0.02989065  0.80740877  1
  Cu  Cu60  1  0.77779727  0.96589919  0.69347541  1
  Cu  Cu61  1  0.18903024  0.21375126  0.69242669  1
  Cu  Cu62  1  0.02732659  0.81028858  0.69470694  1
  Cu  Cu63  1  0.78296198  0.81028858  0.19470694  1
  Cu  Cu64  1  0.02472102  0.21375126  0.19242669  1
  Cu  Cu65  1  0.18810192  0.96589919  0.19347541  1
  Cu  Cu66  1  0.88492438  0.36322365  0.64074177  1
  Cu  Cu67  1  0.47376767  0.11543231  0.63819817  1
  Cu  Cu68  1  0.63551741  0.51780119  0.64071417  1
  Cu  Cu69  1  0.88228478  0.51780119  0.14071417  1
  Cu  Cu70  1  0.64166564  0.11543231  0.13819817  1
  Cu  Cu71  1  0.47830027  0.36322365  0.14074177  1
  Cu  Cu72  1  0.44446427  0.29923219  0.02680841  1
  Cu  Cu73  1  0.85569724  0.54708426  0.02575969  1
  Cu  Cu74  1  0.69399359  0.14362158  0.02803994  1
  Cu  Cu75  1  0.44962898  0.14362158  0.52803994  1
  Cu  Cu76  1  0.69138802  0.54708426  0.52575969  1
  Cu  Cu77  1  0.85476892  0.29923219  0.52680841  1
  Cu  Cu78  1  0.55159038  0.69655765  0.97407577  1
  Cu  Cu79  1  0.14043367  0.44876631  0.97153217  1
  Cu  Cu80  1  0.30218341  0.85113519  0.97404817  1
  Cu  Cu81  1  0.54895078  0.85113519  0.47404817  1
  Cu  Cu82  1  0.30833164  0.44876631  0.47153217  1
  Cu  Cu83  1  0.14496627  0.69655765  0.47407577  1
  Cu  Cu84  1  0.11113027  0.63256619  0.36014241  1
  Cu  Cu85  1  0.52236324  0.88041826  0.35909369  1
  Cu  Cu86  1  0.36065959  0.47695558  0.36137394  1
  Cu  Cu87  1  0.11629498  0.47695558  0.86137394  1
  Cu  Cu88  1  0.35805402  0.88041826  0.85909369  1
  Cu  Cu89  1  0.52143492  0.63256619  0.86014241  1
  Cu  Cu90  1  0.01886741  0.83141426  0.41154886  1
  Cu  Cu91  1  0.81086297  0.98406180  0.41255554  1
  Cu  Cu92  1  0.17866403  0.19795417  0.41250371  1
  Cu  Cu93  1  0.01929014  0.19795417  0.91250371  1
  Cu  Cu94  1  0.17319883  0.98406180  0.91255554  1
  Cu  Cu95  1  0.81254685  0.83141426  0.91154886  1
  Cu  Cu96  1  0.98780531  0.17386106  0.58758974  1
  Cu  Cu97  1  0.19752470  0.01734257  0.58812696  1
  Cu  Cu98  1  0.83186733  0.80831798  0.58769546  1
  Cu  Cu99  1  0.97645066  0.80831798  0.08769546  1
  Cu  Cu100  1  0.81981788  0.01734257  0.08812696  1
  Cu  Cu101  1  0.18605574  0.17386106  0.08758974  1
  Cu  Cu102  1  0.68553441  0.16474726  0.74488186  1
  Cu  Cu103  1  0.47752997  0.31739480  0.74588854  1
  Cu  Cu104  1  0.84533103  0.53128717  0.74583671  1
  Cu  Cu105  1  0.68595714  0.53128717  0.24583671  1
  Cu  Cu106  1  0.83986583  0.31739480  0.24588854  1
  Cu  Cu107  1  0.47921385  0.16474726  0.24488186  1
  Cu  Cu108  1  0.65447231  0.50719406  0.92092274  1
  Cu  Cu109  1  0.86419170  0.35067557  0.92145996  1
  Cu  Cu110  1  0.49853433  0.14165098  0.92102846  1
  Cu  Cu111  1  0.64311766  0.14165098  0.42102846  1
  Cu  Cu112  1  0.48648488  0.35067557  0.42145996  1
  Cu  Cu113  1  0.85272274  0.50719406  0.42092274  1
  Cu  Cu114  1  0.35220041  0.49808126  0.07821586  1
  Cu  Cu115  1  0.14419597  0.65072880  0.07922254  1
  Cu  Cu116  1  0.51199703  0.86462117  0.07917071  1
  Cu  Cu117  1  0.35262314  0.86462117  0.57917071  1
  Cu  Cu118  1  0.50653183  0.65072880  0.57922254  1
  Cu  Cu119  1  0.14587985  0.49808126  0.57821586  1
  Cu  Cu120  1  0.32113831  0.84052806  0.25425674  1
  Cu  Cu121  1  0.53085770  0.68400957  0.25479396  1
  Cu  Cu122  1  0.16520033  0.47498498  0.25436246  1
  Cu  Cu123  1  0.30978366  0.47498498  0.75436246  1
  Cu  Cu124  1  0.15315088  0.68400957  0.75479396  1
  Cu  Cu125  1  0.51938874  0.84052806  0.75425674  1
