# generated using pymatgen
data_CuNiC5
_symmetry_space_group_name_H-M   'P 1'
_cell_length_a   3.14207197
_cell_length_b   6.33040872
_cell_length_c   6.32304031
_cell_angle_alpha   92.61781731
_cell_angle_beta   60.23660803
_cell_angle_gamma   119.77722527
_symmetry_Int_Tables_number   1
_chemical_formula_structural   CuNiC5
_chemical_formula_sum   'Cu1 Ni1 C5'
_cell_volume   91.33308791
_cell_formula_units_Z   1
loop_
 _symmetry_equiv_pos_site_id
 _symmetry_equiv_pos_as_xyz
  1  'x, y, z'
loop_
 _atom_site_type_symbol
 _atom_site_label
 _atom_site_symmetry_multiplicity
 _atom_site_fract_x
 _atom_site_fract_y
 _atom_site_fract_z
 _atom_site_occupancy
  Ni  Ni0  1  0.00076229  0.69622639  0.69496593  1
  Cu  Cu1  1  0.50260530  0.42959318  0.42602734  1
  C  C2  1  0.00117195  0.03181489  0.02936272  1
  C  C3  1  0.50159841  0.18615294  0.18358564  1
  C  C4  1  0.38126709  0.70189460  0.31990828  1
  C  C5  1  0.50114047  0.84285899  0.84133469  1
  C  C6  1  0.62200149  0.32198601  0.69905040  1
