# generated using pymatgen
data_Cu6NiC33
_symmetry_space_group_name_H-M   'P 1'
_cell_length_a   15.67170226
_cell_length_b   9.02259579
_cell_length_c   9.00794486
_cell_angle_alpha   90.66672363
_cell_angle_beta   124.92165551
_cell_angle_gamma   89.71445842
_symmetry_Int_Tables_number   1
_chemical_formula_structural   Cu6NiC33
_chemical_formula_sum   'Cu12 Ni2 C66'
_cell_volume   1044.29405504
_cell_formula_units_Z   2
loop_
 _symmetry_equiv_pos_site_id
 _symmetry_equiv_pos_as_xyz
  1  'x, y, z'
loop_
 _atom_site_type_symbol
 _atom_site_label
 _atom_site_symmetry_multiplicity
 _atom_site_fract_x
 _atom_site_fract_y
 _atom_site_fract_z
 _atom_site_occupancy
  C  C0  1  0.24983925  0.75041381  0.99875647  1
  C  C1  1  0.74374211  0.74892535  0.48122849  1
  C  C2  1  0.74983925  0.25041381  0.99875647  1
  C  C3  1  0.24374211  0.24892535  0.48122849  1
  C  C4  1  0.50229431  0.07895218  0.76027373  1
  C  C5  1  0.50183594  0.90206187  0.23833322  1
  C  C6  1  0.00229431  0.57895218  0.76027373  1
  C  C7  1  0.00183594  0.40206187  0.23833322  1
  C  C8  1  0.80919700  0.92176774  0.20290497  1
  C  C9  1  0.18162085  0.08134838  0.80575716  1
  C  C10  1  0.30919700  0.42176774  0.20290497  1
  C  C11  1  0.68162085  0.58134838  0.80575716  1
  C  C12  1  0.10540129  0.75252490  0.56443059  1
  C  C13  1  0.89439815  0.75181917  0.92804255  1
  C  C14  1  0.89334923  0.24827705  0.43271779  1
  C  C15  1  0.60540129  0.25252490  0.56443059  1
  C  C16  1  0.39439815  0.25181917  0.92804255  1
  C  C17  1  0.39334923  0.74827705  0.43271779  1
  Ni  Ni18  1  0.10418570  0.24708690  0.06807778  1
  Ni  Ni19  1  0.60418570  0.74708690  0.06807778  1
  Cu  Cu20  1  0.99902220  0.96424349  0.75447329  1
  Cu  Cu21  1  0.00438846  0.04414943  0.25018526  1
  Cu  Cu22  1  0.49902220  0.46424349  0.75447329  1
  Cu  Cu23  1  0.50438846  0.54414943  0.25018526  1
  Cu  Cu24  1  0.35681324  0.88804916  0.76031720  1
  Cu  Cu25  1  0.64662986  0.89582534  0.75184556  1
  Cu  Cu26  1  0.64643891  0.10528462  0.24470651  1
  Cu  Cu27  1  0.35176113  0.10397732  0.25033211  1
  Cu  Cu28  1  0.85681324  0.38804916  0.76031720  1
  Cu  Cu29  1  0.14662986  0.39582534  0.75184556  1
  Cu  Cu30  1  0.14643891  0.60528462  0.24470651  1
  Cu  Cu31  1  0.85176113  0.60397732  0.25033211  1
  C  C32  1  0.14810615  0.57673491  0.73391935  1
  C  C33  1  0.84904533  0.57239470  0.76107943  1
  C  C34  1  0.85367553  0.42222837  0.25959650  1
  C  C35  1  0.15352844  0.42668953  0.24322892  1
  C  C36  1  0.64810615  0.07673491  0.73391935  1
  C  C37  1  0.34904533  0.07239470  0.76107943  1
  C  C38  1  0.35367553  0.92222837  0.25959650  1
  C  C39  1  0.65352844  0.92668953  0.24322892  1
  C  C40  1  0.42952638  0.56525504  0.56967366  1
  C  C41  1  0.57654279  0.56891914  0.92686069  1
  C  C42  1  0.56682632  0.43576389  0.42871083  1
  C  C43  1  0.43156453  0.42861371  0.07743089  1
  C  C44  1  0.92952638  0.06525504  0.56967366  1
  C  C45  1  0.07654279  0.06891914  0.92686069  1
  C  C46  1  0.06682632  0.93576389  0.42871083  1
  C  C47  1  0.93156453  0.92861371  0.07743089  1
  C  C48  1  0.25214210  0.82687009  0.74016722  1
  C  C49  1  0.74284916  0.81282468  0.75957105  1
  C  C50  1  0.74549893  0.17902572  0.25592271  1
  C  C51  1  0.25896970  0.18909694  0.24316167  1
  C  C52  1  0.75214210  0.32687009  0.74016722  1
  C  C53  1  0.24284916  0.31282468  0.75957105  1
  C  C54  1  0.24549893  0.67902572  0.25592271  1
  C  C55  1  0.75896970  0.68909694  0.24316167  1
  C  C56  1  0.35999613  0.85393060  0.58207019  1
  C  C57  1  0.64878544  0.86660770  0.93120683  1
  C  C58  1  0.64133710  0.15013318  0.41775428  1
  C  C59  1  0.35377893  0.14085794  0.07120719  1
  C  C60  1  0.85999613  0.35393060  0.58207019  1
  C  C61  1  0.14878544  0.36660770  0.93120683  1
  C  C62  1  0.14133710  0.65013318  0.41775428  1
  C  C63  1  0.85377893  0.64085794  0.07120719  1
  C  C64  1  0.46191050  0.83178018  0.94263858  1
  C  C65  1  0.53841829  0.82517343  0.57102219  1
  C  C66  1  0.53720791  0.17122859  0.06462705  1
  C  C67  1  0.46293571  0.17007207  0.42763157  1
  C  C68  1  0.96191050  0.33178018  0.94263858  1
  C  C69  1  0.03841829  0.32517343  0.57102219  1
  C  C70  1  0.03720791  0.67122859  0.06462705  1
  C  C71  1  0.96293571  0.67007207  0.42763157  1
  C  C72  1  0.07771092  0.85417039  0.73539399  1
  C  C73  1  0.91932625  0.85055670  0.76054151  1
  C  C74  1  0.91671871  0.14097289  0.25800825  1
  C  C75  1  0.08268112  0.15539291  0.24619278  1
  C  C76  1  0.57771092  0.35417039  0.73539399  1
  C  C77  1  0.41932625  0.35055670  0.76054151  1
  C  C78  1  0.41671871  0.64097289  0.25800825  1
  C  C79  1  0.58268112  0.65539291  0.24619278  1
