# generated using pymatgen
data_CuNiC19
_symmetry_space_group_name_H-M   'P 1'
_cell_length_a   9.30189807
_cell_length_b   9.30213223
_cell_length_c   22.80796361
_cell_angle_alpha   90.03722474
_cell_angle_beta   89.93373892
_cell_angle_gamma   120.00664552
_symmetry_Int_Tables_number   1
_chemical_formula_structural   CuNiC19
_chemical_formula_sum   'Cu6 Ni6 C114'
_cell_volume   1708.99916415
_cell_formula_units_Z   6
loop_
 _symmetry_equiv_pos_site_id
 _symmetry_equiv_pos_as_xyz
  1  'x, y, z'
loop_
 _atom_site_type_symbol
 _atom_site_label
 _atom_site_symmetry_multiplicity
 _atom_site_fract_x
 _atom_site_fract_y
 _atom_site_fract_z
 _atom_site_occupancy
  C  C0  1  0.63788738  0.00089784  0.25438389  1
  C  C1  1  0.35925944  0.36655641  0.25023361  1
  C  C2  1  0.00283351  0.62789975  0.25064168  1
  C  C3  1  0.63804388  0.63767765  0.74443572  1
  C  C4  1  0.98876713  0.35606588  0.74902018  1
  C  C5  1  0.37668271  0.00579892  0.74768290  1
  C  C6  1  0.30031641  0.32511855  0.58277467  1
  C  C7  1  0.03939970  0.70913926  0.58145530  1
  C  C8  1  0.66422153  0.96841378  0.58855094  1
  C  C9  1  0.29190827  0.96365233  0.08221061  1
  C  C10  1  0.67918122  0.69956652  0.08349771  1
  C  C11  1  0.02979603  0.33630883  0.09047582  1
  C  C12  1  0.97686117  0.67546683  0.92230317  1
  C  C13  1  0.69039273  0.03144681  0.91065730  1
  C  C14  1  0.33310407  0.29431904  0.91658158  1
  C  C15  1  0.96681816  0.30494534  0.41171706  1
  C  C16  1  0.32564237  0.02524071  0.41954039  1
  C  C17  1  0.70575773  0.66786393  0.41562135  1
  C  C18  1  0.00688028  0.99424741  0.49946776  1
  C  C19  1  0.00663452  0.99196057  0.00168825  1
  C  C20  1  0.66093664  0.31932519  0.83215059  1
  C  C21  1  0.67833331  0.33693285  0.33668391  1
  C  C22  1  0.32078921  0.65979561  0.16854800  1
  C  C23  1  0.34132264  0.67952783  0.66573624  1
  Ni  Ni24  1  0.99927607  0.99987713  0.84529191  1
  Ni  Ni25  1  0.67183888  0.33470303  0.18553198  1
  Ni  Ni26  1  0.66928565  0.33551780  0.98759013  1
  Ni  Ni27  1  0.33019964  0.67034346  0.01573340  1
  Ni  Ni28  1  0.33027940  0.67040898  0.51507269  1
  Ni  Ni29  1  0.33701806  0.67435903  0.81482106  1
  Cu  Cu30  1  0.99929596  0.00009574  0.34966019  1
  Cu  Cu31  1  0.99922293  0.99869191  0.64831668  1
  Cu  Cu32  1  0.00167591  0.00190808  0.15343422  1
  Cu  Cu33  1  0.66315325  0.32523013  0.68130000  1
  Cu  Cu34  1  0.66440122  0.33138416  0.48354223  1
  Cu  Cu35  1  0.32158559  0.65999221  0.31770145  1
  C  C36  1  0.00555029  0.29703099  0.25219793  1
  C  C37  1  0.70154437  0.00511337  0.74615250  1
  C  C38  1  0.36890712  0.04021340  0.58338941  1
  C  C39  1  0.97494769  0.64761894  0.08575022  1
  C  C40  1  0.33409270  0.97813716  0.91622980  1
  C  C41  1  0.02645829  0.66599795  0.41572229  1
  C  C42  1  0.29024145  0.99448241  0.25200435  1
  C  C43  1  0.70234052  0.71018458  0.25175214  1
  C  C44  1  0.30236206  0.29877906  0.74573258  1
  C  C45  1  0.99372880  0.69580213  0.74584513  1
  C  C46  1  0.95710611  0.32821720  0.58370961  1
  C  C47  1  0.67124047  0.62647670  0.58409360  1
  C  C48  1  0.67316543  0.02752300  0.08562144  1
  C  C49  1  0.35695232  0.32782003  0.08596465  1
  C  C50  1  0.63660291  0.66471455  0.91638975  1
  C  C51  1  0.02999095  0.36204674  0.91593901  1
  C  C52  1  0.63420137  0.96711323  0.41445802  1
  C  C53  1  0.33450031  0.36560626  0.41505439  1
  C  C54  1  0.20203676  0.01362653  0.30626334  1
  C  C55  1  0.81231540  0.79451416  0.30592440  1
  C  C56  1  0.98450873  0.18191083  0.30906247  1
  C  C57  1  0.23033150  0.19807450  0.80316797  1
  C  C58  1  0.97088094  0.77147907  0.80336273  1
  C  C59  1  0.80350005  0.03317886  0.80738441  1
  C  C60  1  0.80454362  0.98401755  0.69143936  1
  C  C61  1  0.18851023  0.20206124  0.69352087  1
  C  C62  1  0.01864200  0.81280766  0.69368426  1
  C  C63  1  0.78846038  0.81316974  0.19602949  1
  C  C64  1  0.02742359  0.20900488  0.19313903  1
  C  C65  1  0.18609116  0.97219237  0.19629491  1
  C  C66  1  0.87509263  0.35389749  0.63862468  1
  C  C67  1  0.48325282  0.13269982  0.64078214  1
  C  C68  1  0.65235267  0.52257406  0.63909557  1
  C  C69  1  0.88239984  0.52705601  0.14195874  1
  C  C70  1  0.64133855  0.11053550  0.13927775  1
  C  C71  1  0.46631317  0.34999840  0.14016517  1
  C  C72  1  0.43838135  0.30287627  0.03033965  1
  C  C73  1  0.86459070  0.56735346  0.02606436  1
  C  C74  1  0.69623057  0.13292122  0.03010683  1
  C  C75  1  0.46030025  0.15355803  0.52493110  1
  C  C76  1  0.69160027  0.54118994  0.52866837  1
  C  C77  1  0.85169920  0.30984199  0.52862681  1
  C  C78  1  0.55240378  0.68243812  0.97198016  1
  C  C79  1  0.13546282  0.44596633  0.97083907  1
  C  C80  1  0.31145813  0.86719749  0.97472536  1
  C  C81  1  0.55981496  0.86043753  0.47085868  1
  C  C82  1  0.30527966  0.44146965  0.47166235  1
  C  C83  1  0.14040659  0.70358413  0.47483406  1
  C  C84  1  0.12311850  0.63681201  0.36003929  1
  C  C85  1  0.52026909  0.87711016  0.36157531  1
  C  C86  1  0.35918623  0.48115297  0.36230964  1
  C  C87  1  0.11616453  0.46555809  0.86036730  1
  C  C88  1  0.35588278  0.88750581  0.85782983  1
  C  C89  1  0.52963972  0.64391877  0.86149599  1
  C  C90  1  0.00456072  0.83030511  0.40920874  1
  C  C91  1  0.81081357  0.98988989  0.40843706  1
  C  C92  1  0.17941013  0.18978530  0.40877710  1
  C  C93  1  0.00937704  0.18649003  0.91313031  1
  C  C94  1  0.16668804  0.99484854  0.91465887  1
  C  C95  1  0.80987477  0.82353602  0.91251526  1
  C  C96  1  0.97137823  0.16855792  0.58777831  1
  C  C97  1  0.18255762  0.02115234  0.58682982  1
  C  C98  1  0.82886035  0.80259367  0.58754930  1
  C  C99  1  0.99224945  0.83162346  0.09130651  1
  C  C100  1  0.83334504  0.01744491  0.09190765  1
  C  C101  1  0.18318354  0.17097243  0.09069601  1
  C  C102  1  0.68202826  0.17162206  0.74195500  1
  C  C103  1  0.48013133  0.32437242  0.74032034  1
  C  C104  1  0.83514967  0.52335181  0.74008394  1
  C  C105  1  0.67751746  0.53156172  0.24868650  1
  C  C106  1  0.83758828  0.31497788  0.25186954  1
  C  C107  1  0.46445894  0.15376248  0.24896042  1
  C  C108  1  0.65630168  0.50942740  0.91896410  1
  C  C109  1  0.85718716  0.34817341  0.91970050  1
  C  C110  1  0.50155932  0.16203114  0.91806992  1
  C  C111  1  0.64814084  0.14053298  0.42012703  1
  C  C112  1  0.49312687  0.35065761  0.41960900  1
  C  C113  1  0.84276220  0.49627956  0.42063837  1
  C  C114  1  0.34066464  0.48481166  0.08188352  1
  C  C115  1  0.15917088  0.66397418  0.08457035  1
  C  C116  1  0.52265147  0.84981174  0.08123694  1
  C  C117  1  0.35269974  0.85501591  0.58280726  1
  C  C118  1  0.51249608  0.64313441  0.58055159  1
  C  C119  1  0.13565705  0.48222277  0.58003882  1
  C  C120  1  0.31157349  0.83898391  0.25651752  1
  C  C121  1  0.52988709  0.69821082  0.25654299  1
  C  C122  1  0.17504496  0.48322714  0.25547468  1
  C  C123  1  0.31282570  0.46998614  0.74823666  1
  C  C124  1  0.14834899  0.67400382  0.74824775  1
  C  C125  1  0.51791042  0.83541962  0.74561943  1
