# generated using pymatgen
data_Cu2Ni4C11
_symmetry_space_group_name_H-M   'P 1'
_cell_length_a   5.22660644
_cell_length_b   6.03507206
_cell_length_c   7.33868761
_cell_angle_alpha   106.85851294
_cell_angle_beta   90.59750615
_cell_angle_gamma   117.46822798
_symmetry_Int_Tables_number   1
_chemical_formula_structural   Cu2Ni4C11
_chemical_formula_sum   'Cu2 Ni4 C11'
_cell_volume   193.70621578
_cell_formula_units_Z   1
loop_
 _symmetry_equiv_pos_site_id
 _symmetry_equiv_pos_as_xyz
  1  'x, y, z'
loop_
 _atom_site_type_symbol
 _atom_site_label
 _atom_site_symmetry_multiplicity
 _atom_site_fract_x
 _atom_site_fract_y
 _atom_site_fract_z
 _atom_site_occupancy
  C  C0  1  0.50012100  0.50006900  0.00000100  1
  Ni  Ni1  1  0.62707000  0.24895200  0.22161700  1
  Ni  Ni2  1  0.34417100  0.75256800  0.30379700  1
  Ni  Ni3  1  0.65581200  0.24735900  0.69620400  1
  Ni  Ni4  1  0.37287300  0.75097700  0.77838200  1
  Cu  Cu5  1  0.99996800  0.00003900  0.99996500  1
  Cu  Cu6  1  0.00004800  0.00001800  0.50004500  1
  C  C7  1  0.79637200  0.00251800  0.74669100  1
  C  C8  1  0.20359800  0.99749400  0.25331500  1
  C  C9  1  0.26190900  0.84652800  0.56170800  1
  C  C10  1  0.42691700  0.14213700  0.93707300  1
  C  C11  1  0.73809400  0.15346600  0.43830400  1
  C  C12  1  0.57310500  0.85791300  0.06292200  1
  C  C13  1  0.41649100  0.43762800  0.71213600  1
  C  C14  1  0.97650100  0.57589700  0.82598000  1
  C  C15  1  0.58352100  0.56238500  0.28786100  1
  C  C16  1  0.02342900  0.42405100  0.17400000  1
