# generated using pymatgen
data_CuNi3C35
_symmetry_space_group_name_H-M   'P 1'
_cell_length_a   8.98352575
_cell_length_b   8.97925442
_cell_length_c   22.53026860
_cell_angle_alpha   90.25367198
_cell_angle_beta   89.83333098
_cell_angle_gamma   120.18205252
_symmetry_Int_Tables_number   1
_chemical_formula_structural   CuNi3C35
_chemical_formula_sum   'Cu3 Ni9 C105'
_cell_volume   1571.01405723
_cell_formula_units_Z   3
loop_
 _symmetry_equiv_pos_site_id
 _symmetry_equiv_pos_as_xyz
  1  'x, y, z'
loop_
 _atom_site_type_symbol
 _atom_site_label
 _atom_site_symmetry_multiplicity
 _atom_site_fract_x
 _atom_site_fract_y
 _atom_site_fract_z
 _atom_site_occupancy
  C  C0  1  0.36886455  0.36375360  0.24821553  1
  C  C1  1  0.99245910  0.62924195  0.24789705  1
  C  C2  1  0.63696958  0.62923180  0.74824222  1
  C  C3  1  0.99524157  0.36650391  0.74836386  1
  C  C4  1  0.03090429  0.69722234  0.58426609  1
  C  C5  1  0.30272369  0.96958212  0.08405847  1
  C  C6  1  0.69871681  0.03247857  0.91754811  1
  C  C7  1  0.96965120  0.29558275  0.41466397  1
  C  C8  1  0.32845697  0.03327830  0.41484506  1
  C  C9  1  0.99314641  0.99873292  0.49738988  1
  C  C10  1  0.00008221  0.00000119  0.00077769  1
  C  C11  1  0.65992676  0.33222436  0.83159833  1
  C  C12  1  0.66653446  0.33266609  0.32908412  1
  C  C13  1  0.34023413  0.66757020  0.16530513  1
  C  C14  1  0.34000106  0.67325074  0.66555156  1
  Ni  Ni15  1  0.00494877  0.00063339  0.85448553  1
  Ni  Ni16  1  0.99984712  0.00372688  0.64486881  1
  Ni  Ni17  1  0.99495051  0.99979815  0.14538518  1
  Ni  Ni18  1  0.66758546  0.33844736  0.97925045  1
  Ni  Ni19  1  0.66707885  0.33672414  0.47976552  1
  Ni  Ni20  1  0.33236330  0.66196180  0.02205391  1
  Ni  Ni21  1  0.33802946  0.66699720  0.52151077  1
  Ni  Ni22  1  0.33630966  0.66985462  0.31226831  1
  Ni  Ni23  1  0.33335579  0.66980422  0.81293352  1
  Cu  Cu24  1  0.99558894  0.99579069  0.35136800  1
  Cu  Cu25  1  0.66075618  0.32731592  0.68574769  1
  Cu  Cu26  1  0.66600887  0.32786098  0.18559143  1
  C  C27  1  0.29119176  0.00318206  0.25033704  1
  C  C28  1  0.71130322  0.71115012  0.25037259  1
  C  C29  1  0.99236126  0.28402387  0.25123891  1
  C  C30  1  0.29451566  0.28784993  0.74963295  1
  C  C31  1  0.00077200  0.71057292  0.74871250  1
  C  C32  1  0.70940846  0.00322458  0.75004309  1
  C  C33  1  0.95210385  0.33061011  0.58443409  1
  C  C34  1  0.38022893  0.04688250  0.58402811  1
  C  C35  1  0.66297767  0.61934163  0.58588212  1
  C  C36  1  0.95277335  0.61935697  0.08533010  1
  C  C37  1  0.67010302  0.04814012  0.08303348  1
  C  C38  1  0.38170391  0.33637488  0.08542035  1
  C  C39  1  0.62116665  0.66326119  0.91624773  1
  C  C40  1  0.04397582  0.37811754  0.91642995  1
  C  C41  1  0.33055346  0.95562269  0.91832368  1
  C  C42  1  0.62831077  0.95491583  0.41670169  1
  C  C43  1  0.33418742  0.37675199  0.41592334  1
  C  C44  1  0.04248795  0.67011640  0.41668049  1
  C  C45  1  0.20012195  0.03337590  0.30894983  1
  C  C46  1  0.83893625  0.80655588  0.30702758  1
  C  C47  1  0.97198520  0.16985082  0.31018805  1
  C  C48  1  0.19483667  0.16687935  0.80726882  1
  C  C49  1  0.96781525  0.80608647  0.80571790  1
  C  C50  1  0.83128128  0.03282318  0.80867360  1
  C  C51  1  0.80323741  0.96437865  0.69373142  1
  C  C52  1  0.16219946  0.19720612  0.69335863  1
  C  C53  1  0.03139893  0.83125614  0.69030820  1
  C  C54  1  0.80417545  0.83501758  0.19271450  1
  C  C55  1  0.03591909  0.19645783  0.19425129  1
  C  C56  1  0.16616318  0.96443691  0.19188228  1
  C  C57  1  0.86763803  0.36928800  0.64226347  1
  C  C58  1  0.50355817  0.14113323  0.64072065  1
  C  C59  1  0.63793421  0.50379251  0.64408104  1
  C  C60  1  0.86505711  0.50280718  0.14397484  1
  C  C61  1  0.63218999  0.13891820  0.13971671  1
  C  C62  1  0.49745134  0.36328619  0.14425024  1
  C  C63  1  0.47091061  0.29940085  0.02749270  1
  C  C64  1  0.83282966  0.52756992  0.02682448  1
  C  C65  1  0.69573319  0.16217828  0.02332882  1
  C  C66  1  0.46763693  0.16290512  0.52417137  1
  C  C67  1  0.69947533  0.52899921  0.52769475  1
  C  C68  1  0.83589256  0.30434486  0.52453736  1
  C  C69  1  0.52889881  0.70131167  0.97263663  1
  C  C70  1  0.16819588  0.47323310  0.97340331  1
  C  C71  1  0.30422675  0.83749583  0.97664364  1
  C  C72  1  0.52781081  0.83335154  0.47401432  1
  C  C73  1  0.30148087  0.47289190  0.47256840  1
  C  C74  1  0.16541378  0.69864962  0.47484413  1
  C  C75  1  0.13219771  0.63137186  0.35878298  1
  C  C76  1  0.49541995  0.86388910  0.36033267  1
  C  C77  1  0.36412575  0.49827895  0.35755881  1
  C  C78  1  0.13422478  0.49577612  0.85727716  1
  C  C79  1  0.36568294  0.86205316  0.86090789  1
  C  C80  1  0.50356108  0.63743753  0.85701156  1
  C  C81  1  0.03231061  0.84356745  0.41012793  1
  C  C82  1  0.81944101  0.98373071  0.41048980  1
  C  C83  1  0.16348468  0.18767070  0.41108224  1
  C  C84  1  0.01759286  0.18433812  0.91008228  1
  C  C85  1  0.16095977  0.97450039  0.90983983  1
  C  C86  1  0.80787861  0.84065364  0.90921570  1
  C  C87  1  0.97384171  0.16119456  0.59020958  1
  C  C88  1  0.18552482  0.01935952  0.59036485  1
  C  C89  1  0.84050371  0.80806812  0.59019863  1
  C  C90  1  0.98237532  0.81554335  0.09000788  1
  C  C91  1  0.83891494  0.02629996  0.09014239  1
  C  C92  1  0.19252759  0.15945285  0.09067714  1
  C  C93  1  0.69904617  0.17650028  0.74314055  1
  C  C94  1  0.48598297  0.31713957  0.74399246  1
  C  C95  1  0.83032688  0.52097881  0.74433393  1
  C  C96  1  0.69108100  0.52132784  0.24481897  1
  C  C97  1  0.83125269  0.31621540  0.24392802  1
  C  C98  1  0.47813552  0.17603569  0.24382093  1
  C  C99  1  0.64078488  0.49441237  0.92326367  1
  C  C100  1  0.85084496  0.35128493  0.92287532  1
  C  C101  1  0.50743618  0.14203206  0.92316123  1
  C  C102  1  0.64044537  0.14419679  0.42340138  1
  C  C103  1  0.50305387  0.35360312  0.42336637  1
  C  C104  1  0.85688755  0.49063235  0.42324850  1
  C  C105  1  0.35942335  0.50483418  0.07641855  1
  C  C106  1  0.14827072  0.64827967  0.07697713  1
  C  C107  1  0.49347499  0.85882936  0.07654085  1
  C  C108  1  0.35096111  0.85142538  0.57703303  1
  C  C109  1  0.49484194  0.64134372  0.57672197  1
  C  C110  1  0.14099474  0.50678633  0.57590398  1
  C  C111  1  0.29983336  0.82434262  0.25726856  1
  C  C112  1  0.51785760  0.68733383  0.25675149  1
  C  C113  1  0.17027142  0.47708988  0.25705376  1
  C  C114  1  0.30737082  0.47770570  0.75644546  1
  C  C115  1  0.16965403  0.68673207  0.75654169  1
  C  C116  1  0.52326801  0.82410539  0.75630253  1
