# generated using pymatgen
data_Cu(NiC2)2
_symmetry_space_group_name_H-M   'P 1'
_cell_length_a   7.44288544
_cell_length_b   7.44288544
_cell_length_c   5.06804819
_cell_angle_alpha   75.36244985
_cell_angle_beta   75.36244985
_cell_angle_gamma   106.35305872
_symmetry_Int_Tables_number   1
_chemical_formula_structural   Cu(NiC2)2
_chemical_formula_sum   'Cu2 Ni4 C8'
_cell_volume   244.27853611
_cell_formula_units_Z   2
loop_
 _symmetry_equiv_pos_site_id
 _symmetry_equiv_pos_as_xyz
  1  'x, y, z'
loop_
 _atom_site_type_symbol
 _atom_site_label
 _atom_site_symmetry_multiplicity
 _atom_site_fract_x
 _atom_site_fract_y
 _atom_site_fract_z
 _atom_site_occupancy
  Ni  Ni0  1  0.47175200  0.24284200  0.47595500  1
  Ni  Ni1  1  0.75715800  0.52824800  0.02404500  1
  Ni  Ni2  1  0.52824800  0.75715800  0.52404500  1
  Ni  Ni3  1  0.24284200  0.47175200  0.97595500  1
  Cu  Cu4  1  0.09384500  0.90615500  0.25000000  1
  Cu  Cu5  1  0.90615500  0.09384500  0.75000000  1
  C  C6  1  0.33314100  0.95229800  0.29696300  1
  C  C7  1  0.04770200  0.66685900  0.20303700  1
  C  C8  1  0.66685900  0.04770200  0.70303700  1
  C  C9  1  0.95229800  0.33314100  0.79696300  1
  C  C10  1  0.18046800  0.08494300  0.84701700  1
  C  C11  1  0.91505700  0.81953200  0.65298300  1
  C  C12  1  0.08494300  0.18046800  0.34701700  1
  C  C13  1  0.81953200  0.91505700  0.15298300  1
