# generated using pymatgen
data_Cu3NiC35
_symmetry_space_group_name_H-M   'P 1'
_cell_length_a   8.89028865
_cell_length_b   8.89760899
_cell_length_c   22.38975988
_cell_angle_alpha   90.06463893
_cell_angle_beta   89.86025655
_cell_angle_gamma   119.86247700
_symmetry_Int_Tables_number   1
_chemical_formula_structural   Cu3NiC35
_chemical_formula_sum   'Cu9 Ni3 C105'
_cell_volume   1535.91831647
_cell_formula_units_Z   3
loop_
 _symmetry_equiv_pos_site_id
 _symmetry_equiv_pos_as_xyz
  1  'x, y, z'
loop_
 _atom_site_type_symbol
 _atom_site_label
 _atom_site_symmetry_multiplicity
 _atom_site_fract_x
 _atom_site_fract_y
 _atom_site_fract_z
 _atom_site_occupancy
  C  C0  1  0.00177128  0.63584858  0.25508216  1
  C  C1  1  0.30078000  0.33986876  0.58870768  1
  C  C2  1  0.02612887  0.69148758  0.58146239  1
  C  C3  1  0.67182697  0.96296178  0.58015676  1
  C  C4  1  0.67002542  0.69945267  0.08248188  1
  C  C5  1  0.03386537  0.34065157  0.08543544  1
  C  C6  1  0.97947117  0.67965596  0.91214461  1
  C  C7  1  0.32398146  0.29564250  0.90668575  1
  C  C8  1  0.70186513  0.67954955  0.41671106  1
  C  C9  1  0.99683297  0.00282201  0.49453408  1
  C  C10  1  0.00042017  0.99383286  0.99498541  1
  C  C11  1  0.65672018  0.32026811  0.82177862  1
  C  C12  1  0.65697362  0.30609604  0.33204206  1
  C  C13  1  0.33516109  0.67815029  0.17160268  1
  C  C14  1  0.33200249  0.65239047  0.66529850  1
  Ni  Ni15  1  0.66969990  0.33334248  0.97911719  1
  Ni  Ni16  1  0.68024855  0.33411857  0.47910454  1
  Ni  Ni17  1  0.33549291  0.66385158  0.81252357  1
  Cu  Cu18  1  0.00223420  0.00521341  0.35297109  1
  Cu  Cu19  1  0.00042507  0.00685576  0.84826089  1
  Cu  Cu20  1  0.99907232  0.00664748  0.65265709  1
  Cu  Cu21  1  0.00493665  0.99407757  0.15330368  1
  Cu  Cu22  1  0.66608715  0.34185494  0.68574846  1
  Cu  Cu23  1  0.66615888  0.33056717  0.18663108  1
  Cu  Cu24  1  0.32745342  0.67252318  0.01469959  1
  Cu  Cu25  1  0.33261445  0.66731511  0.51265015  1
  Cu  Cu26  1  0.33596564  0.67408725  0.32006033  1
  C  C27  1  0.29813562  0.28999018  0.74996253  1
  C  C28  1  0.96315202  0.33438455  0.58690958  1
  C  C29  1  0.66501799  0.62775850  0.58419292  1
  C  C30  1  0.96481214  0.63076253  0.08613591  1
  C  C31  1  0.62919986  0.67449070  0.92039121  1
  C  C32  1  0.04354908  0.37053515  0.91913192  1
  C  C33  1  0.33008412  0.95730259  0.91720662  1
  C  C34  1  0.62740740  0.95722937  0.41658422  1
  C  C35  1  0.04392709  0.67393597  0.41548891  1
  C  C36  1  0.29513754  0.00183491  0.25010329  1
  C  C37  1  0.70115825  0.70401289  0.24911177  1
  C  C38  1  0.00193835  0.29383133  0.24851422  1
  C  C39  1  0.99751436  0.70615072  0.75025567  1
  C  C40  1  0.70825379  0.00395031  0.74935862  1
  C  C41  1  0.37451947  0.04032721  0.58492112  1
  C  C42  1  0.66416798  0.03730919  0.08564753  1
  C  C43  1  0.37104085  0.33120756  0.08482338  1
  C  C44  1  0.32977467  0.37140845  0.41682693  1
  C  C45  1  0.21155504  0.02429982  0.30316598  1
  C  C46  1  0.81338544  0.78776992  0.30164030  1
  C  C47  1  0.98233766  0.18607246  0.30018130  1
  C  C48  1  0.21173192  0.19027385  0.80762357  1
  C  C49  1  0.97936069  0.78857652  0.80509591  1
  C  C50  1  0.81065393  0.01960200  0.80246142  1
  C  C51  1  0.77984529  0.97290124  0.69401275  1
  C  C52  1  0.19023289  0.21280306  0.69309738  1
  C  C53  1  0.02196877  0.80973287  0.69594850  1
  C  C54  1  0.78161754  0.80711422  0.19358959  1
  C  C55  1  0.02023317  0.21493122  0.19182046  1
  C  C56  1  0.18725151  0.97390075  0.19590438  1
  C  C57  1  0.87306996  0.36340068  0.63957843  1
  C  C58  1  0.48435843  0.12089150  0.63703861  1
  C  C59  1  0.63188444  0.50673663  0.63646921  1
  C  C60  1  0.87361031  0.51278181  0.14004464  1
  C  C61  1  0.64048115  0.12247537  0.13798784  1
  C  C62  1  0.48418474  0.35487846  0.13582285  1
  C  C63  1  0.45185258  0.30725461  0.02873133  1
  C  C64  1  0.84503944  0.53625966  0.02908770  1
  C  C65  1  0.68913321  0.14800939  0.03115261  1
  C  C66  1  0.45589971  0.15124667  0.53063671  1
  C  C67  1  0.69166272  0.54135147  0.52609134  1
  C  C68  1  0.84452753  0.30389725  0.53009610  1
  C  C69  1  0.54865350  0.69243505  0.97819662  1
  C  C70  1  0.14861392  0.44878625  0.97620117  1
  C  C71  1  0.30055079  0.84695744  0.97223264  1
  C  C72  1  0.55130263  0.85249682  0.47482289  1
  C  C73  1  0.30859003  0.44767475  0.47280614  1
  C  C74  1  0.14244829  0.68930118  0.47326687  1
  C  C75  1  0.11770580  0.63934884  0.35861724  1
  C  C76  1  0.51589199  0.87265630  0.36206283  1
  C  C77  1  0.36390483  0.48497509  0.36479189  1
  C  C78  1  0.12974797  0.49609734  0.86537461  1
  C  C79  1  0.36111409  0.87351689  0.86151811  1
  C  C80  1  0.50603736  0.63684359  0.86629563  1
  C  C81  1  0.01075175  0.82808860  0.41034495  1
  C  C82  1  0.81102170  0.98002240  0.41022735  1
  C  C83  1  0.17964577  0.19770351  0.40969274  1
  C  C84  1  0.02169657  0.19153069  0.91012658  1
  C  C85  1  0.17116194  0.98217031  0.91012887  1
  C  C86  1  0.81388900  0.82221227  0.91062920  1
  C  C87  1  0.98021922  0.16918010  0.58878107  1
  C  C88  1  0.19869703  0.02145424  0.58954618  1
  C  C89  1  0.83309857  0.80755542  0.58894056  1
  C  C90  1  0.97046804  0.80699374  0.08869451  1
  C  C91  1  0.82716192  0.02760508  0.08880695  1
  C  C92  1  0.19447690  0.18012354  0.08923542  1
  C  C93  1  0.68636890  0.15662017  0.74431329  1
  C  C94  1  0.48124091  0.31480018  0.74566111  1
  C  C95  1  0.84680846  0.53042833  0.74611452  1
  C  C96  1  0.69109400  0.53064319  0.24350534  1
  C  C97  1  0.84501800  0.31668584  0.24502667  1
  C  C98  1  0.47036200  0.15647637  0.24308845  1
  C  C99  1  0.64041551  0.50004253  0.92396206  1
  C  C100  1  0.86155203  0.36085607  0.92375199  1
  C  C101  1  0.49292547  0.14456841  0.92376983  1
  C  C102  1  0.64352692  0.14161313  0.42307846  1
  C  C103  1  0.49314372  0.35739045  0.42270386  1
  C  C104  1  0.85153445  0.50747530  0.42122026  1
  C  C105  1  0.35894456  0.49199837  0.07936508  1
  C  C106  1  0.14163160  0.64113493  0.07848656  1
  C  C107  1  0.51522263  0.86166795  0.07891964  1
  C  C108  1  0.35481868  0.86508952  0.57747061  1
  C  C109  1  0.50396729  0.65090536  0.57729679  1
  C  C110  1  0.14398782  0.49717836  0.57788765  1
  C  C111  1  0.30847690  0.84035363  0.25434453  1
  C  C112  1  0.52613001  0.68225526  0.25500468  1
  C  C113  1  0.15690041  0.47211051  0.25289767  1
  C  C114  1  0.31534951  0.47818066  0.75659339  1
  C  C115  1  0.16009648  0.69093934  0.75542743  1
  C  C116  1  0.52938412  0.84350595  0.75575311  1
