# generated using pymatgen
data_Cu12NiC4
_symmetry_space_group_name_H-M   'P 1'
_cell_length_a   8.81970548
_cell_length_b   8.83286161
_cell_length_c   22.72451869
_cell_angle_alpha   90.31583701
_cell_angle_beta   90.00000000
_cell_angle_gamma   119.95074151
_symmetry_Int_Tables_number   1
_chemical_formula_structural   Cu12NiC4
_chemical_formula_sum   'Cu72 Ni6 C24'
_cell_volume   1533.86591928
_cell_formula_units_Z   6
loop_
 _symmetry_equiv_pos_site_id
 _symmetry_equiv_pos_as_xyz
  1  'x, y, z'
loop_
 _atom_site_type_symbol
 _atom_site_label
 _atom_site_symmetry_multiplicity
 _atom_site_fract_x
 _atom_site_fract_y
 _atom_site_fract_z
 _atom_site_occupancy
  C  C0  1  0.99896502  0.00236427  0.35620518  1
  C  C1  1  0.00339925  0.00236427  0.85620518  1
  C  C2  1  0.66563202  0.33569727  0.68953818  1
  C  C3  1  0.67006625  0.33569727  0.18953818  1
  C  C4  1  0.33229802  0.66903127  0.02287218  1
  C  C5  1  0.33673225  0.66903127  0.52287218  1
  C  C6  1  0.99328590  0.00526677  0.64350304  1
  C  C7  1  0.01198087  0.00526677  0.14350304  1
  C  C8  1  0.65995290  0.33859977  0.97683604  1
  C  C9  1  0.67864787  0.33859977  0.47683604  1
  C  C10  1  0.32661890  0.67193377  0.31017004  1
  C  C11  1  0.34531387  0.67193377  0.81017004  1
  C  C12  1  0.28802308  0.00345841  0.25095553  1
  C  C13  1  0.00081694  0.28585788  0.25084592  1
  C  C14  1  0.28504095  0.28585788  0.75084592  1
  C  C15  1  0.71543533  0.00345841  0.75095553  1
  C  C16  1  0.95469008  0.33679141  0.58428853  1
  C  C17  1  0.66748394  0.61919088  0.58417892  1
  C  C18  1  0.95170795  0.61919088  0.08417892  1
  C  C19  1  0.38210233  0.33679141  0.08428853  1
  C  C20  1  0.62135608  0.67012541  0.91762253  1
  C  C21  1  0.33414994  0.95252488  0.91751292  1
  C  C22  1  0.61837395  0.95252488  0.41751292  1
  C  C23  1  0.04876833  0.67012541  0.41762253  1
  Ni  Ni24  1  0.71124537  0.71484557  0.25007163  1
  Ni  Ni25  1  0.00360020  0.71484557  0.75007163  1
  Ni  Ni26  1  0.37791237  0.04817857  0.58340463  1
  Ni  Ni27  1  0.67026720  0.04817857  0.08340463  1
  Ni  Ni28  1  0.04457837  0.38151257  0.91673863  1
  Ni  Ni29  1  0.33693320  0.38151257  0.41673863  1
  Cu  Cu30  1  0.20078062  0.02527641  0.30448870  1
  Cu  Cu31  1  0.81760257  0.79293894  0.30257184  1
  Cu  Cu32  1  0.97481320  0.17540034  0.30441866  1
  Cu  Cu33  1  0.20058714  0.17540034  0.80441866  1
  Cu  Cu34  1  0.97533637  0.79293894  0.80257184  1
  Cu  Cu35  1  0.82449579  0.02527641  0.80448870  1
  Cu  Cu36  1  0.80076744  0.96599888  0.69494329  1
  Cu  Cu37  1  0.16361333  0.19532387  0.69512811  1
  Cu  Cu38  1  0.03602016  0.82644387  0.69713592  1
  Cu  Cu39  1  0.79042371  0.82644387  0.19713592  1
  Cu  Cu40  1  0.03171054  0.19532387  0.19512811  1
  Cu  Cu41  1  0.16523144  0.96599888  0.19494329  1
  Cu  Cu42  1  0.86744762  0.35860941  0.63782170  1
  Cu  Cu43  1  0.48426957  0.12627194  0.63590484  1
  Cu  Cu44  1  0.64148020  0.50873334  0.63775166  1
  Cu  Cu45  1  0.86725414  0.50873334  0.13775166  1
  Cu  Cu46  1  0.64200337  0.12627194  0.13590484  1
  Cu  Cu47  1  0.49116279  0.35860941  0.13782170  1
  Cu  Cu48  1  0.46743444  0.29933188  0.02827629  1
  Cu  Cu49  1  0.83028033  0.52865687  0.02846111  1
  Cu  Cu50  1  0.70268716  0.15977687  0.03046892  1
  Cu  Cu51  1  0.45709071  0.15977687  0.53046892  1
  Cu  Cu52  1  0.69837754  0.52865687  0.52846111  1
  Cu  Cu53  1  0.83189844  0.29933188  0.52827629  1
  Cu  Cu54  1  0.53411362  0.69194341  0.97115570  1
  Cu  Cu55  1  0.15093557  0.45960594  0.96923884  1
  Cu  Cu56  1  0.30814620  0.84206734  0.97108566  1
  Cu  Cu57  1  0.53392014  0.84206734  0.47108566  1
  Cu  Cu58  1  0.30866937  0.45960594  0.46923884  1
  Cu  Cu59  1  0.15782879  0.69194341  0.47115570  1
  Cu  Cu60  1  0.13410044  0.63266588  0.36161029  1
  Cu  Cu61  1  0.49694633  0.86199087  0.36179511  1
  Cu  Cu62  1  0.36935316  0.49311087  0.36380292  1
  Cu  Cu63  1  0.12375671  0.49311087  0.86380292  1
  Cu  Cu64  1  0.36504354  0.86199087  0.86179511  1
  Cu  Cu65  1  0.49856444  0.63266588  0.86161029  1
  Cu  Cu66  1  0.01859583  0.82013096  0.40596938  1
  Cu  Cu67  1  0.79964642  0.98198722  0.40628902  1
  Cu  Cu68  1  0.18709873  0.20670776  0.40827380  1
  Cu  Cu69  1  0.01960903  0.20670776  0.90827380  1
  Cu  Cu70  1  0.18234080  0.98198722  0.90628902  1
  Cu  Cu71  1  0.80153513  0.82013096  0.90596938  1
  Cu  Cu72  1  0.96756316  0.16412862  0.59265392  1
  Cu  Cu73  1  0.19950928  0.03082684  0.59228749  1
  Cu  Cu74  1  0.83921276  0.80304338  0.59425855  1
  Cu  Cu75  1  0.96383062  0.80304338  0.09425855  1
  Cu  Cu76  1  0.83131757  0.03082684  0.09228749  1
  Cu  Cu77  1  0.19656546  0.16412862  0.09265392  1
  Cu  Cu78  1  0.68526283  0.15346396  0.73930238  1
  Cu  Cu79  1  0.46631342  0.31532022  0.73962202  1
  Cu  Cu80  1  0.85376573  0.54004076  0.74160680  1
  Cu  Cu81  1  0.68627603  0.54004076  0.24160680  1
  Cu  Cu82  1  0.84900780  0.31532022  0.23962202  1
  Cu  Cu83  1  0.46820213  0.15346396  0.23930238  1
  Cu  Cu84  1  0.63423016  0.49746162  0.92598692  1
  Cu  Cu85  1  0.86617628  0.36415984  0.92562049  1
  Cu  Cu86  1  0.50587976  0.13637638  0.92759155  1
  Cu  Cu87  1  0.63049762  0.13637638  0.42759155  1
  Cu  Cu88  1  0.49798457  0.36415984  0.42562049  1
  Cu  Cu89  1  0.86323246  0.49746162  0.42598692  1
  Cu  Cu90  1  0.35192883  0.48679796  0.07263638  1
  Cu  Cu91  1  0.13297942  0.64865422  0.07295602  1
  Cu  Cu92  1  0.52043173  0.87337476  0.07494080  1
  Cu  Cu93  1  0.35294203  0.87337476  0.57494080  1
  Cu  Cu94  1  0.51567380  0.64865422  0.57295602  1
  Cu  Cu95  1  0.13486813  0.48679796  0.57263638  1
  Cu  Cu96  1  0.30089616  0.83079562  0.25932092  1
  Cu  Cu97  1  0.53284228  0.69749384  0.25895449  1
  Cu  Cu98  1  0.17254576  0.46971038  0.26092555  1
  Cu  Cu99  1  0.29716362  0.46971038  0.76092555  1
  Cu  Cu100  1  0.16465057  0.69749384  0.75895449  1
  Cu  Cu101  1  0.52989846  0.83079562  0.75932092  1
