# generated using pymatgen
data_Cu4Ni2C45
_symmetry_space_group_name_H-M   'P 1'
_cell_length_a   8.76863398
_cell_length_b   8.76863370
_cell_length_c   22.58136802
_cell_angle_alpha   90.00000000
_cell_angle_beta   90.00000000
_cell_angle_gamma   120.00000106
_symmetry_Int_Tables_number   1
_chemical_formula_structural   Cu4Ni2C45
_chemical_formula_sum   'Cu8 Ni4 C90'
_cell_volume   1503.64303259
_cell_formula_units_Z   2
loop_
 _symmetry_equiv_pos_site_id
 _symmetry_equiv_pos_as_xyz
  1  'x, y, z'
loop_
 _atom_site_type_symbol
 _atom_site_label
 _atom_site_symmetry_multiplicity
 _atom_site_fract_x
 _atom_site_fract_y
 _atom_site_fract_z
 _atom_site_occupancy
  Ni  Ni0  1  0.00000000  0.00000000  0.35763056  1
  Ni  Ni1  1  0.00000000  0.00000000  0.85763056  1
  Ni  Ni2  1  0.66666700  0.33333300  0.68654584  1
  Ni  Ni3  1  0.66666700  0.33333300  0.18654584  1
  Cu  Cu4  1  0.00000000  0.00000000  0.64090035  1
  Cu  Cu5  1  0.00000000  0.00000000  0.14090035  1
  Cu  Cu6  1  0.66666700  0.33333300  0.97541833  1
  Cu  Cu7  1  0.66666700  0.33333300  0.47541833  1
  Cu  Cu8  1  0.33333300  0.66666700  0.02286111  1
  Cu  Cu9  1  0.33333300  0.66666700  0.52286111  1
  Cu  Cu10  1  0.33333300  0.66666700  0.31216557  1
  Cu  Cu11  1  0.33333300  0.66666700  0.81216557  1
  C  C12  1  0.94981348  0.33589789  0.58495730  1
  C  C13  1  0.38608541  0.05018652  0.58495730  1
  C  C14  1  0.66410211  0.61391459  0.58495730  1
  C  C15  1  0.94981348  0.61391459  0.08495730  1
  C  C16  1  0.66410211  0.05018652  0.08495730  1
  C  C17  1  0.38608541  0.33589789  0.08495730  1
  C  C18  1  0.62496880  0.67212890  0.91647797  1
  C  C19  1  0.04715910  0.37503120  0.91647797  1
  C  C20  1  0.32787110  0.95284090  0.91647797  1
  C  C21  1  0.62496880  0.95284090  0.41647797  1
  C  C22  1  0.32787110  0.37503120  0.41647797  1
  C  C23  1  0.04715910  0.67212890  0.41647797  1
  C  C24  1  0.29057175  0.00540389  0.25099633  1
  C  C25  1  0.71483213  0.70942825  0.25099633  1
  C  C26  1  0.99459611  0.28516787  0.25099633  1
  C  C27  1  0.29057175  0.28516787  0.75099633  1
  C  C28  1  0.99459611  0.70942825  0.75099633  1
  C  C29  1  0.71483213  0.00540389  0.75099633  1
  C  C30  1  0.20567316  0.02638384  0.30290928  1
  C  C31  1  0.82071068  0.79432684  0.30290928  1
  C  C32  1  0.97361616  0.17928932  0.30290928  1
  C  C33  1  0.20567316  0.17928932  0.80290928  1
  C  C34  1  0.97361616  0.79432684  0.80290928  1
  C  C35  1  0.82071068  0.02638384  0.80290928  1
  C  C36  1  0.79513007  0.96940115  0.69675026  1
  C  C37  1  0.17427108  0.20486993  0.69675026  1
  C  C38  1  0.03059885  0.82572892  0.69675026  1
  C  C39  1  0.79513007  0.82572892  0.19675026  1
  C  C40  1  0.03059885  0.20486993  0.19675026  1
  C  C41  1  0.17427108  0.96940115  0.19675026  1
  C  C42  1  0.87571889  0.36753145  0.63965784  1
  C  C43  1  0.49181356  0.12428111  0.63965784  1
  C  C44  1  0.63246855  0.50818644  0.63965784  1
  C  C45  1  0.87571889  0.50818644  0.13965784  1
  C  C46  1  0.63246855  0.12428111  0.13965784  1
  C  C47  1  0.49181356  0.36753145  0.13965784  1
  C  C48  1  0.46402204  0.30111834  0.02816011  1
  C  C49  1  0.83709730  0.53597796  0.02816011  1
  C  C50  1  0.69888166  0.16290270  0.02816011  1
  C  C51  1  0.46402204  0.16290270  0.52816011  1
  C  C52  1  0.69888166  0.53597796  0.52816011  1
  C  C53  1  0.83709730  0.30111834  0.52816011  1
  C  C54  1  0.52833411  0.69039464  0.97114613  1
  C  C55  1  0.16205953  0.47166589  0.97114613  1
  C  C56  1  0.30960536  0.83794047  0.97114613  1
  C  C57  1  0.52833411  0.83794047  0.47114613  1
  C  C58  1  0.30960536  0.47166589  0.47114613  1
  C  C59  1  0.16205953  0.69039464  0.47114613  1
  C  C60  1  0.13512760  0.63325125  0.36171243  1
  C  C61  1  0.49812265  0.86487240  0.36171243  1
  C  C62  1  0.36674875  0.50187735  0.36171243  1
  C  C63  1  0.13512760  0.50187735  0.86171243  1
  C  C64  1  0.36674875  0.86487240  0.86171243  1
  C  C65  1  0.49812265  0.63325125  0.86171243  1
  C  C66  1  0.02596219  0.82751435  0.40726166  1
  C  C67  1  0.80155216  0.97403781  0.40726166  1
  C  C68  1  0.17248565  0.19844784  0.40726166  1
  C  C69  1  0.02596219  0.19844784  0.90726166  1
  C  C70  1  0.17248565  0.97403781  0.90726166  1
  C  C71  1  0.80155216  0.82751435  0.90726166  1
  C  C72  1  0.97618917  0.17075709  0.59370312  1
  C  C73  1  0.19456792  0.02381083  0.59370312  1
  C  C74  1  0.82924291  0.80543208  0.59370312  1
  C  C75  1  0.97618917  0.80543208  0.09370312  1
  C  C76  1  0.82924291  0.02381083  0.09370312  1
  C  C77  1  0.19456792  0.17075709  0.09370312  1
  C  C78  1  0.68851455  0.15281807  0.74103421  1
  C  C79  1  0.46430452  0.31148545  0.74103421  1
  C  C80  1  0.84718193  0.53569548  0.74103421  1
  C  C81  1  0.68851455  0.53569548  0.24103421  1
  C  C82  1  0.84718193  0.31148545  0.24103421  1
  C  C83  1  0.46430452  0.15281807  0.24103421  1
  C  C84  1  0.63316949  0.49997119  0.92671467  1
  C  C85  1  0.86680270  0.36683051  0.92671467  1
  C  C86  1  0.50002881  0.13319730  0.92671467  1
  C  C87  1  0.63316949  0.13319730  0.42671467  1
  C  C88  1  0.50002881  0.36683051  0.42671467  1
  C  C89  1  0.86680270  0.49997119  0.42671467  1
  C  C90  1  0.35284270  0.49102804  0.07184962  1
  C  C91  1  0.13818434  0.64715730  0.07184962  1
  C  C92  1  0.50897196  0.86181566  0.07184962  1
  C  C93  1  0.35284270  0.86181566  0.57184962  1
  C  C94  1  0.50897196  0.64715730  0.57184962  1
  C  C95  1  0.13818434  0.49102804  0.57184962  1
  C  C96  1  0.30388145  0.83891679  0.25816182  1
  C  C97  1  0.53503434  0.69611855  0.25816182  1
  C  C98  1  0.16108321  0.46496566  0.25816182  1
  C  C99  1  0.30388145  0.46496566  0.75816182  1
  C  C100  1  0.16108321  0.69611855  0.75816182  1
  C  C101  1  0.53503434  0.83891679  0.75816182  1
