# generated using pymatgen
data_CuNiC9
_symmetry_space_group_name_H-M   'P 1'
_cell_length_a   7.24717814
_cell_length_b   7.24717814
_cell_length_c   24.36833139
_cell_angle_alpha   81.95452583
_cell_angle_beta   81.95452583
_cell_angle_gamma   60.47556985
_symmetry_Int_Tables_number   1
_chemical_formula_structural   CuNiC9
_chemical_formula_sum   'Cu8 Ni8 C72'
_cell_volume   1098.95692994
_cell_formula_units_Z   8
loop_
 _symmetry_equiv_pos_site_id
 _symmetry_equiv_pos_as_xyz
  1  'x, y, z'
loop_
 _atom_site_type_symbol
 _atom_site_label
 _atom_site_symmetry_multiplicity
 _atom_site_fract_x
 _atom_site_fract_y
 _atom_site_fract_z
 _atom_site_occupancy
  C  C0  1  0.50000000  0.00000000  0.00000000  1
  C  C1  1  0.69973500  0.79628200  0.75155400  1
  C  C2  1  0.88123800  0.86556000  0.37804400  1
  C  C3  1  0.21073100  0.78926900  0.75000000  1
  C  C4  1  0.20371800  0.30026500  0.74844600  1
  C  C5  1  0.50000000  0.50000000  0.00000000  1
  C  C6  1  0.78926900  0.21073100  0.25000000  1
  C  C7  1  0.86556000  0.88123800  0.87804400  1
  C  C8  1  0.00000000  0.00000000  0.50000000  1
  C  C9  1  0.00000000  0.00000000  0.00000000  1
  C  C10  1  0.00000000  0.50000000  0.50000000  1
  C  C11  1  0.13444000  0.11876200  0.12195600  1
  C  C12  1  0.30026500  0.20371800  0.24844600  1
  C  C13  1  0.50000000  0.50000000  0.50000000  1
  C  C14  1  0.79628200  0.69973500  0.25155400  1
  C  C15  1  0.11876200  0.13444000  0.62195600  1
  Ni  Ni16  1  0.89198100  0.36115400  0.37432200  1
  Ni  Ni17  1  0.25206500  0.74793500  0.25000000  1
  Ni  Ni18  1  0.10801900  0.63884600  0.62567800  1
  Ni  Ni19  1  0.00000000  0.50000000  0.00000000  1
  Ni  Ni20  1  0.50000000  0.00000000  0.50000000  1
  Ni  Ni21  1  0.36115400  0.89198100  0.87432200  1
  Ni  Ni22  1  0.74793500  0.25206500  0.75000000  1
  Ni  Ni23  1  0.63884600  0.10801900  0.12567800  1
  Cu  Cu24  1  0.60962900  0.13731200  0.62591900  1
  Cu  Cu25  1  0.39037100  0.86268800  0.37408100  1
  Cu  Cu26  1  0.36653700  0.38913000  0.87237400  1
  Cu  Cu27  1  0.86268800  0.39037100  0.87408100  1
  Cu  Cu28  1  0.61087000  0.63346300  0.62762600  1
  Cu  Cu29  1  0.38913000  0.36653700  0.37237400  1
  Cu  Cu30  1  0.13731200  0.60962900  0.12591900  1
  Cu  Cu31  1  0.63346300  0.61087000  0.12762600  1
  C  C32  1  0.55091100  0.92417300  0.11178700  1
  C  C33  1  0.97468900  0.35407100  0.29905800  1
  C  C34  1  0.15052200  0.00517300  0.20982800  1
  C  C35  1  0.70506400  0.35491300  0.59410800  1
  C  C36  1  0.44908900  0.07582700  0.88821300  1
  C  C37  1  0.27697000  0.70533600  0.85990100  1
  C  C38  1  0.02531100  0.64592900  0.70094200  1
  C  C39  1  0.70533600  0.27697000  0.35990100  1
  C  C40  1  0.92356700  0.92158300  0.61104000  1
  C  C41  1  0.75975400  0.57594300  0.04668100  1
  C  C42  1  0.24024600  0.42405700  0.95331900  1
  C  C43  1  0.15100300  0.63694000  0.20690600  1
  C  C44  1  0.48596500  0.36198200  0.79055800  1
  C  C45  1  0.36306000  0.84899700  0.29309400  1
  C  C46  1  0.35407100  0.97468900  0.79905800  1
  C  C47  1  0.57471000  0.12901300  0.54486000  1
  C  C48  1  0.36578600  0.81290800  0.94985300  1
  C  C49  1  0.42529000  0.87098700  0.45514000  1
  C  C50  1  0.42405700  0.24024600  0.45331900  1
  C  C51  1  0.77980300  0.87509400  0.46897700  1
  C  C52  1  0.35575600  0.29492400  0.13994100  1
  C  C53  1  0.35491300  0.70506400  0.09410800  1
  C  C54  1  0.07841700  0.07643300  0.88896000  1
  C  C55  1  0.87509400  0.77980300  0.96897700  1
  C  C56  1  0.64592900  0.02531100  0.20094200  1
  C  C57  1  0.57594300  0.75975400  0.54668100  1
  C  C58  1  0.63694000  0.15100300  0.70690600  1
  C  C59  1  0.64508700  0.29493600  0.90589200  1
  C  C60  1  0.72303000  0.29466400  0.14009900  1
  C  C61  1  0.29492400  0.35575600  0.63994100  1
  C  C62  1  0.63421400  0.18709200  0.05014700  1
  C  C63  1  0.12901300  0.57471000  0.04486000  1
  C  C64  1  0.87098700  0.42529000  0.95514000  1
  C  C65  1  0.92158300  0.92356700  0.11104000  1
  C  C66  1  0.29466400  0.72303000  0.64009900  1
  C  C67  1  0.18709200  0.63421400  0.55014700  1
  C  C68  1  0.91753000  0.51639200  0.15845700  1
  C  C69  1  0.63801800  0.51403500  0.70944200  1
  C  C70  1  0.00517300  0.15052200  0.70982800  1
  C  C71  1  0.48360800  0.08247000  0.34154300  1
  C  C72  1  0.84899700  0.36306000  0.79309400  1
  C  C73  1  0.36198200  0.48596500  0.29055800  1
  C  C74  1  0.92417300  0.55091100  0.61178700  1
  C  C75  1  0.51403500  0.63801800  0.20944200  1
  C  C76  1  0.81290800  0.36578600  0.44985300  1
  C  C77  1  0.99482700  0.84947800  0.29017200  1
  C  C78  1  0.64424400  0.70507600  0.86005900  1
  C  C79  1  0.22019700  0.12490600  0.53102300  1
  C  C80  1  0.29493600  0.64508700  0.40589200  1
  C  C81  1  0.84947800  0.99482700  0.79017200  1
  C  C82  1  0.08247000  0.48360800  0.84154300  1
  C  C83  1  0.12490600  0.22019700  0.03102300  1
  C  C84  1  0.07582700  0.44908900  0.38821300  1
  C  C85  1  0.51639200  0.91753000  0.65845700  1
  C  C86  1  0.07643300  0.07841700  0.38896000  1
  C  C87  1  0.70507600  0.64424400  0.36005900  1
