# generated using pymatgen
data_Cu4Ni2C9
_symmetry_space_group_name_H-M   'P 1'
_cell_length_a   7.04366866
_cell_length_b   7.04366866
_cell_length_c   7.95869651
_cell_angle_alpha   67.52894723
_cell_angle_beta   67.52894723
_cell_angle_gamma   61.51813439
_symmetry_Int_Tables_number   1
_chemical_formula_structural   Cu4Ni2C9
_chemical_formula_sum   'Cu8 Ni4 C18'
_cell_volume   310.84555987
_cell_formula_units_Z   2
loop_
 _symmetry_equiv_pos_site_id
 _symmetry_equiv_pos_as_xyz
  1  'x, y, z'
loop_
 _atom_site_type_symbol
 _atom_site_label
 _atom_site_symmetry_multiplicity
 _atom_site_fract_x
 _atom_site_fract_y
 _atom_site_fract_z
 _atom_site_occupancy
  C  C0  1  0.20834600  0.20834600  0.24869800  1
  C  C1  1  0.79165400  0.79165400  0.75130200  1
  C  C2  1  0.46877400  0.46877400  0.18284800  1
  C  C3  1  0.53122600  0.53122600  0.81715200  1
  C  C4  1  0.66831400  0.66831400  0.10452500  1
  C  C5  1  0.33168600  0.33168600  0.89547500  1
  C  C6  1  0.72674100  0.49957900  0.61717300  1
  C  C7  1  0.50042100  0.27325900  0.38282700  1
  C  C8  1  0.27325900  0.50042100  0.38282700  1
  C  C9  1  0.49957900  0.72674100  0.61717300  1
  C  C10  1  0.13216200  0.13216200  0.91531600  1
  C  C11  1  0.86783800  0.86783800  0.08468400  1
  C  C12  1  0.91359500  0.68065000  0.29360900  1
  C  C13  1  0.31935000  0.08640500  0.70639100  1
  C  C14  1  0.08640500  0.31935000  0.70639100  1
  C  C15  1  0.68065000  0.91359500  0.29360900  1
  C  C16  1  0.93427500  0.93427500  0.23289500  1
  C  C17  1  0.06572500  0.06572500  0.76710500  1
  Ni  Ni18  1  0.38722100  0.38722100  0.30423600  1
  Ni  Ni19  1  0.61277900  0.61277900  0.69576400  1
  Ni  Ni20  1  0.15039100  0.15039100  0.77230100  1
  Ni  Ni21  1  0.84960900  0.84960900  0.22769900  1
  Cu  Cu22  1  0.10334200  0.10334200  0.14438100  1
  Cu  Cu23  1  0.89665800  0.89665800  0.85561900  1
  Cu  Cu24  1  0.03329100  0.62266500  0.61345400  1
  Cu  Cu25  1  0.37733500  0.96670900  0.38654600  1
  Cu  Cu26  1  0.96670900  0.37733500  0.38654600  1
  Cu  Cu27  1  0.62266500  0.03329100  0.61345400  1
  Cu  Cu28  1  0.35436200  0.35436200  0.99853600  1
  Cu  Cu29  1  0.64563800  0.64563800  0.00146400  1
