# generated using pymatgen
data_Cu6NiC12
_symmetry_space_group_name_H-M   'P 1'
_cell_length_a   4.98448456
_cell_length_b   5.10646069
_cell_length_c   8.62975679
_cell_angle_alpha   90.01025991
_cell_angle_beta   89.98231828
_cell_angle_gamma   100.88324035
_symmetry_Int_Tables_number   1
_chemical_formula_structural   Cu6NiC12
_chemical_formula_sum   'Cu6 Ni1 C12'
_cell_volume   215.70313265
_cell_formula_units_Z   1
loop_
 _symmetry_equiv_pos_site_id
 _symmetry_equiv_pos_as_xyz
  1  'x, y, z'
loop_
 _atom_site_type_symbol
 _atom_site_label
 _atom_site_symmetry_multiplicity
 _atom_site_fract_x
 _atom_site_fract_y
 _atom_site_fract_z
 _atom_site_occupancy
  Ni  Ni0  1  0.48458670  0.96185961  0.32914704  1
  Cu  Cu1  1  0.00765520  0.99873517  0.00044230  1
  Cu  Cu2  1  -0.00238382  0.01434093  0.32936398  1
  Cu  Cu3  1  0.00744586  0.99861468  0.65828903  1
  Cu  Cu4  1  0.44069114  0.56181656  0.82938327  1
  Cu  Cu5  1  0.55015363  0.45981387  0.15183310  1
  Cu  Cu6  1  0.54964472  0.45986005  0.50678451  1
  C  C7  1  0.17854347  0.86153920  0.16747151  1
  C  C8  1  0.17850175  0.86153334  0.49104458  1
  C  C9  1  0.18972378  0.85993484  0.82937612  1
  C  C10  1  0.27597148  0.33548630  0.99839398  1
  C  C11  1  0.32471218  0.29793847  0.32926196  1
  C  C12  1  0.27549138  0.33575741  0.66022300  1
  C  C13  1  0.71266699  0.68439539  0.98998026  1
  C  C14  1  0.70629066  0.68400696  0.32929312  1
  C  C15  1  0.71280621  0.68398692  0.66876230  1
  C  C16  1  0.79379713  0.14766245  0.16917905  1
  C  C17  1  0.79348636  0.14732740  0.48949223  1
  C  C18  1  0.82021118  0.14539045  0.82941767  1
