# generated using pymatgen
data_Cu3NiC16
_symmetry_space_group_name_H-M   'P 1'
_cell_length_a   6.21766302
_cell_length_b   8.91410009
_cell_length_c   5.54439544
_cell_angle_alpha   70.03760530
_cell_angle_beta   89.93224228
_cell_angle_gamma   69.65300506
_symmetry_Int_Tables_number   1
_chemical_formula_structural   Cu3NiC16
_chemical_formula_sum   'Cu3 Ni1 C16'
_cell_volume   268.39301195
_cell_formula_units_Z   1
loop_
 _symmetry_equiv_pos_site_id
 _symmetry_equiv_pos_as_xyz
  1  'x, y, z'
loop_
 _atom_site_type_symbol
 _atom_site_label
 _atom_site_symmetry_multiplicity
 _atom_site_fract_x
 _atom_site_fract_y
 _atom_site_fract_z
 _atom_site_occupancy
  C  C0  1  0.76649674  0.46599067  0.72990135  1
  C  C1  1  0.26647325  0.45733071  0.22281359  1
  Ni  Ni2  1  0.14591728  0.70876106  0.49274816  1
  Cu  Cu3  1  0.26104134  0.01714848  0.50203669  1
  Cu  Cu4  1  0.72190321  0.01708690  0.50207857  1
  Cu  Cu5  1  0.98645412  0.02662499  0.99450036  1
  C  C6  1  0.62287592  0.75442625  0.11118616  1
  C  C7  1  0.38438241  0.23164917  0.86118002  1
  C  C8  1  0.11052824  0.77899227  0.89875369  1
  C  C9  1  0.86401290  0.27248570  0.26162598  1
  C  C10  1  0.07501171  0.84984690  0.71506559  1
  C  C11  1  0.57134817  0.85594760  0.76112487  1
  C  C12  1  0.85728538  0.81479285  0.24538142  1
  C  C13  1  0.32948488  0.81478994  0.24504047  1
  C  C14  1  0.26547363  0.47003097  0.72256254  1
  C  C15  1  0.73819045  0.53092566  0.21125791  1
  C  C16  1  0.16502659  0.17053925  0.74868994  1
  C  C17  1  0.66501273  0.17033417  0.74896284  1
  C  C18  1  0.42504918  0.15038246  0.21962045  1
  C  C19  1  0.92386485  0.15285198  0.26975440  1
