# generated using pymatgen
data_Cu6Ni2C3
_symmetry_space_group_name_H-M   'P 1'
_cell_length_a   5.41483436
_cell_length_b   5.42244117
_cell_length_c   6.13588877
_cell_angle_alpha   91.56882937
_cell_angle_beta   116.94230638
_cell_angle_gamma   88.07153500
_symmetry_Int_Tables_number   1
_chemical_formula_structural   Cu6Ni2C3
_chemical_formula_sum   'Cu6 Ni2 C3'
_cell_volume   160.49984949
_cell_formula_units_Z   1
loop_
 _symmetry_equiv_pos_site_id
 _symmetry_equiv_pos_as_xyz
  1  'x, y, z'
loop_
 _atom_site_type_symbol
 _atom_site_label
 _atom_site_symmetry_multiplicity
 _atom_site_fract_x
 _atom_site_fract_y
 _atom_site_fract_z
 _atom_site_occupancy
  C  C0  1  0.97929800  0.74173000  0.43983400  1
  C  C1  1  0.97368800  0.01900000  0.99145500  1
  C  C2  1  0.46479400  0.46397100  0.99672800  1
  Ni  Ni3  1  0.23255800  0.26019300  0.98698900  1
  Ni  Ni4  1  0.71451500  0.22522000  0.94623900  1
  Cu  Cu5  1  0.29270300  0.76613100  0.05778900  1
  Cu  Cu6  1  0.13841600  0.01569900  0.34595000  1
  Cu  Cu7  1  0.79202500  0.72550300  0.05059300  1
  Cu  Cu8  1  0.30964800  0.56474200  0.66085100  1
  Cu  Cu9  1  0.71304700  0.47428500  0.34350800  1
  Cu  Cu10  1  0.86550200  0.91852600  0.65625200  1
