# generated using pymatgen
data_Cu2NiC8
_symmetry_space_group_name_H-M   'P 1'
_cell_length_a   7.51496723
_cell_length_b   7.51496842
_cell_length_c   7.51496780
_cell_angle_alpha   45.51788378
_cell_angle_beta   45.51788141
_cell_angle_gamma   45.51788356
_symmetry_Int_Tables_number   1
_chemical_formula_structural   Cu2NiC8
_chemical_formula_sum   'Cu2 Ni1 C8'
_cell_volume   196.85087421
_cell_formula_units_Z   1
loop_
 _symmetry_equiv_pos_site_id
 _symmetry_equiv_pos_as_xyz
  1  'x, y, z'
loop_
 _atom_site_type_symbol
 _atom_site_label
 _atom_site_symmetry_multiplicity
 _atom_site_fract_x
 _atom_site_fract_y
 _atom_site_fract_z
 _atom_site_occupancy
  C  C0  1  0.00706258  0.00706258  0.00706258  1
  C  C1  1  0.64020548  0.64020548  0.64020548  1
  Ni  Ni2  1  0.43045078  0.43045078  0.43045078  1
  Cu  Cu3  1  0.85371132  0.85371132  0.85371132  1
  Cu  Cu4  1  0.26716047  0.26716047  0.26716047  1
  C  C5  1  0.38786971  0.08355397  0.66159447  1
  C  C6  1  0.66159447  0.38786971  0.08355397  1
  C  C7  1  0.08355397  0.66159447  0.38786971  1
  C  C8  1  0.69427178  0.85348535  0.24563410  1
  C  C9  1  0.24563410  0.69427178  0.85348535  1
  C  C10  1  0.85348535  0.24563410  0.69427178  1
