# generated using pymatgen
data_Cu(NiC4)2
_symmetry_space_group_name_H-M   'P 1'
_cell_length_a   7.48146228
_cell_length_b   7.48146171
_cell_length_c   7.48520685
_cell_angle_alpha   49.41135905
_cell_angle_beta   49.41136112
_cell_angle_gamma   49.42290003
_symmetry_Int_Tables_number   1
_chemical_formula_structural   Cu(NiC4)2
_chemical_formula_sum   'Cu1 Ni2 C8'
_cell_volume   222.07804426
_cell_formula_units_Z   1
loop_
 _symmetry_equiv_pos_site_id
 _symmetry_equiv_pos_as_xyz
  1  'x, y, z'
loop_
 _atom_site_type_symbol
 _atom_site_label
 _atom_site_symmetry_multiplicity
 _atom_site_fract_x
 _atom_site_fract_y
 _atom_site_fract_z
 _atom_site_occupancy
  Ni  Ni0  1  0.82708846  0.82708846  0.82838214  1
  Ni  Ni1  1  0.27853644  0.27853644  0.28008787  1
  Cu  Cu2  1  0.00393938  0.00393938  0.00439936  1
  C  C3  1  0.59589484  0.59589485  0.59708042  1
  C  C4  1  0.44949619  0.44949619  0.44946697  1
  C  C5  1  0.24040192  0.76887026  0.76965961  1
  C  C6  1  0.24461875  0.70868893  0.24302488  1
  C  C7  1  0.76887026  0.24040192  0.76965961  1
  C  C8  1  0.24378486  0.24378486  0.70640279  1
  C  C9  1  0.70868893  0.24461875  0.24302488  1
  C  C10  1  0.76888797  0.76888797  0.24162346  1
