# generated using pymatgen
data_Cu4NiC10
_symmetry_space_group_name_H-M   'P 1'
_cell_length_a   7.75377323
_cell_length_b   4.06490000
_cell_length_c   6.63943216
_cell_angle_alpha   90.00000000
_cell_angle_beta   87.52879840
_cell_angle_gamma   90.00000000
_symmetry_Int_Tables_number   1
_chemical_formula_structural   Cu4NiC10
_chemical_formula_sum   'Cu4 Ni1 C10'
_cell_volume   209.06908864
_cell_formula_units_Z   1
loop_
 _symmetry_equiv_pos_site_id
 _symmetry_equiv_pos_as_xyz
  1  'x, y, z'
loop_
 _atom_site_type_symbol
 _atom_site_label
 _atom_site_symmetry_multiplicity
 _atom_site_fract_x
 _atom_site_fract_y
 _atom_site_fract_z
 _atom_site_occupancy
  Ni  Ni0  1  0.25110100  0.75000000  0.59998800  1
  Cu  Cu1  1  0.05046100  0.25000000  0.84799400  1
  Cu  Cu2  1  0.28358100  0.25000000  0.26132800  1
  Cu  Cu3  1  0.71989800  0.75000000  0.70838900  1
  Cu  Cu4  1  0.92154200  0.75000000  0.16854400  1
  C  C5  1  0.04334300  0.75000000  0.81854500  1
  C  C6  1  0.18767800  0.25000000  0.57169200  1
  C  C7  1  0.20769000  0.75000000  0.28166300  1
  C  C8  1  0.27487700  0.25000000  0.96863000  1
  C  C9  1  0.50348200  0.25000000  0.30580700  1
  C  C10  1  0.49433300  0.75000000  0.66902400  1
  C  C11  1  0.72705700  0.75000000  0.01858600  1
  C  C12  1  0.79358100  0.25000000  0.74781400  1
  C  C13  1  0.82973900  0.75000000  0.44328500  1
  C  C14  1  0.96997200  0.25000000  0.17204500  1
