# generated using pymatgen
data_Cu(NiC4)2
_symmetry_space_group_name_H-M   'P 1'
_cell_length_a   6.84287708
_cell_length_b   6.84494471
_cell_length_c   6.84494492
_cell_angle_alpha   51.62195349
_cell_angle_beta   51.61772785
_cell_angle_gamma   51.61772723
_symmetry_Int_Tables_number   1
_chemical_formula_structural   Cu(NiC4)2
_chemical_formula_sum   'Cu1 Ni2 C8'
_cell_volume   181.98859891
_cell_formula_units_Z   1
loop_
 _symmetry_equiv_pos_site_id
 _symmetry_equiv_pos_as_xyz
  1  'x, y, z'
loop_
 _atom_site_type_symbol
 _atom_site_label
 _atom_site_symmetry_multiplicity
 _atom_site_fract_x
 _atom_site_fract_y
 _atom_site_fract_z
 _atom_site_occupancy
  Ni  Ni0  1  0.78056797  0.78104674  0.78104674  1
  Ni  Ni1  1  0.19916738  0.19961037  0.19961037  1
  Cu  Cu2  1  0.99227865  0.99244839  0.99244839  1
  C  C3  1  0.37182148  0.37300295  0.37300295  1
  C  C4  1  0.51329478  0.51335776  0.51335776  1
  C  C5  1  0.25840161  0.73548137  0.73548137  1
  C  C6  1  0.26528367  0.75018273  0.26586562  1
  C  C7  1  0.73583065  0.25783821  0.73523117  1
  C  C8  1  0.26528367  0.26586562  0.75018273  1
  C  C9  1  0.74942749  0.26572671  0.26572671  1
  C  C10  1  0.73583065  0.73523117  0.25783821  1
