# generated using pymatgen
data_Cu5(NiC8)2
_symmetry_space_group_name_H-M   'P 1'
_cell_length_a   9.85421100
_cell_length_b   5.54771400
_cell_length_c   13.49092600
_cell_angle_alpha   67.00291467
_cell_angle_beta   90.00000000
_cell_angle_gamma   90.00000000
_symmetry_Int_Tables_number   1
_chemical_formula_structural   Cu5(NiC8)2
_chemical_formula_sum   'Cu10 Ni4 C32'
_cell_volume   678.91146237
_cell_formula_units_Z   2
loop_
 _symmetry_equiv_pos_site_id
 _symmetry_equiv_pos_as_xyz
  1  'x, y, z'
loop_
 _atom_site_type_symbol
 _atom_site_label
 _atom_site_symmetry_multiplicity
 _atom_site_fract_x
 _atom_site_fract_y
 _atom_site_fract_z
 _atom_site_occupancy
  C  C0  1  0.98316500  0.08002200  0.47621300  1
  C  C1  1  0.01683500  0.08002200  0.97621300  1
  Ni  Ni2  1  0.31088200  0.02816800  0.08707100  1
  Ni  Ni3  1  0.30644600  0.96494900  0.41881800  1
  Ni  Ni4  1  0.68911800  0.02816800  0.58707100  1
  Ni  Ni5  1  0.69355400  0.96494900  0.91881800  1
  Cu  Cu6  1  0.80539000  0.33347900  0.08194100  1
  Cu  Cu7  1  0.53861200  0.45721900  0.14688900  1
  Cu  Cu8  1  0.99847500  0.01150600  0.25052300  1
  Cu  Cu9  1  0.54036500  0.53616000  0.35298600  1
  Cu  Cu10  1  0.81023200  0.66384900  0.41571900  1
  Cu  Cu11  1  0.19461000  0.33347900  0.58194100  1
  Cu  Cu12  1  0.46138800  0.45721900  0.64688900  1
  Cu  Cu13  1  0.00152500  0.01150600  0.75052300  1
  Cu  Cu14  1  0.45963500  0.53616000  0.85298600  1
  Cu  Cu15  1  0.18976800  0.66384900  0.91571900  1
  C  C16  1  0.83483100  0.15589100  0.02415900  1
  C  C17  1  0.82330700  0.62441000  0.02135500  1
  C  C18  1  0.53896600  0.72349200  0.05510700  1
  C  C19  1  0.65233400  0.26983600  0.12787500  1
  C  C20  1  0.08068700  0.95611800  0.16851900  1
  C  C21  1  0.40694000  0.30945700  0.17277000  1
  C  C22  1  0.89226500  0.24946900  0.19101000  1
  C  C23  1  0.60210600  0.48816100  0.25126100  1
  C  C24  1  0.89884800  0.75968600  0.30676100  1
  C  C25  1  0.41101500  0.69035200  0.32390100  1
  C  C26  1  0.06641800  0.07841700  0.33622000  1
  C  C27  1  0.65724200  0.72157600  0.36909900  1
  C  C28  1  0.53850100  0.27540400  0.44771000  1
  C  C29  1  0.83203900  0.37084800  0.47191600  1
  C  C30  1  0.83334500  0.83613100  0.47657900  1
  C  C31  1  0.16516900  0.15589100  0.52415900  1
  C  C32  1  0.17669300  0.62441000  0.52135500  1
  C  C33  1  0.46103400  0.72349200  0.55510700  1
  C  C34  1  0.34766600  0.26983600  0.62787500  1
  C  C35  1  0.91931300  0.95611800  0.66851900  1
  C  C36  1  0.59306000  0.30945700  0.67277000  1
  C  C37  1  0.10773500  0.24946900  0.69101000  1
  C  C38  1  0.39789400  0.48816100  0.75126100  1
  C  C39  1  0.10115200  0.75968600  0.80676100  1
  C  C40  1  0.58898500  0.69035200  0.82390100  1
  C  C41  1  0.93358200  0.07841700  0.83622000  1
  C  C42  1  0.34275800  0.72157600  0.86909900  1
  C  C43  1  0.46149900  0.27540400  0.94771000  1
  C  C44  1  0.16796100  0.37084800  0.97191600  1
  C  C45  1  0.16665500  0.83613100  0.97657900  1
