# generated using pymatgen
data_CuNiC11
_symmetry_space_group_name_H-M   'P 1'
_cell_length_a   6.18841110
_cell_length_b   6.18841021
_cell_length_c   6.56486273
_cell_angle_alpha   59.04166056
_cell_angle_beta   120.95832845
_cell_angle_gamma   121.30283369
_symmetry_Int_Tables_number   1
_chemical_formula_structural   CuNiC11
_chemical_formula_sum   'Cu1 Ni1 C11'
_cell_volume   173.41629041
_cell_formula_units_Z   1
loop_
 _symmetry_equiv_pos_site_id
 _symmetry_equiv_pos_as_xyz
  1  'x, y, z'
loop_
 _atom_site_type_symbol
 _atom_site_label
 _atom_site_symmetry_multiplicity
 _atom_site_fract_x
 _atom_site_fract_y
 _atom_site_fract_z
 _atom_site_occupancy
  Ni  Ni0  1  0.00000000  0.00000000  0.50000000  1
  C  C1  1  0.50000000  0.50000000  0.00000000  1
  C  C2  1  0.50000000  0.00000000  0.00000000  1
  C  C3  1  0.00000000  0.50000000  0.00000000  1
  Cu  Cu4  1  0.50000000  0.50000000  0.50000000  1
  C  C5  1  0.78522600  0.72764700  0.76587500  1
  C  C6  1  0.75424000  0.24576000  0.81346100  1
  C  C7  1  0.25378700  0.74621300  0.80749400  1
  C  C8  1  0.27235300  0.21477400  0.76587500  1
  C  C9  1  0.72764700  0.78522600  0.23412500  1
  C  C10  1  0.74621300  0.25378700  0.19250600  1
  C  C11  1  0.24576000  0.75424000  0.18653900  1
  C  C12  1  0.21477400  0.27235300  0.23412500  1
