# generated using pymatgen
data_Cu2NiC10
_symmetry_space_group_name_H-M   'P 1'
_cell_length_a   6.32272542
_cell_length_b   6.07815111
_cell_length_c   6.61360872
_cell_angle_alpha   78.55376451
_cell_angle_beta   109.51889610
_cell_angle_gamma   65.62573313
_symmetry_Int_Tables_number   1
_chemical_formula_structural   Cu2NiC10
_chemical_formula_sum   'Cu2 Ni1 C10'
_cell_volume   200.76371009
_cell_formula_units_Z   1
loop_
 _symmetry_equiv_pos_site_id
 _symmetry_equiv_pos_as_xyz
  1  'x, y, z'
loop_
 _atom_site_type_symbol
 _atom_site_label
 _atom_site_symmetry_multiplicity
 _atom_site_fract_x
 _atom_site_fract_y
 _atom_site_fract_z
 _atom_site_occupancy
  C  C0  1  0.54629118  0.64390738  0.51733167  1
  C  C1  1  0.28463584  0.23877943  0.41154318  1
  C  C2  1  0.80288142  0.67842149  0.97160741  1
  C  C3  1  0.42658842  0.50497927  0.02863943  1
  Ni  Ni4  1  0.35482022  0.14007428  0.86463939  1
  Cu  Cu5  1  0.93936641  0.88280692  0.49104201  1
  Cu  Cu6  1  0.98862336  0.08434895  -0.00058904  1
  C  C7  1  0.32395962  0.87629213  0.72884873  1
  C  C8  1  0.11883121  0.71132951  0.27671828  1
  C  C9  1  0.03408434  0.50345687  0.74879824  1
  C  C10  1  0.60876430  0.17341277  0.76697536  1
  C  C11  1  0.50194256  0.01046826  0.21465573  1
  C  C12  1  0.87306212  0.28953875  0.19830462  1
