# generated using pymatgen
data_Cu4Ni2C9
_symmetry_space_group_name_H-M   'P 1'
_cell_length_a   5.94588619
_cell_length_b   6.02754106
_cell_length_c   5.90711300
_cell_angle_alpha   60.65874365
_cell_angle_beta   60.21547432
_cell_angle_gamma   69.62976829
_symmetry_Int_Tables_number   1
_chemical_formula_structural   Cu4Ni2C9
_chemical_formula_sum   'Cu4 Ni2 C9'
_cell_volume   158.62793917
_cell_formula_units_Z   1
loop_
 _symmetry_equiv_pos_site_id
 _symmetry_equiv_pos_as_xyz
  1  'x, y, z'
loop_
 _atom_site_type_symbol
 _atom_site_label
 _atom_site_symmetry_multiplicity
 _atom_site_fract_x
 _atom_site_fract_y
 _atom_site_fract_z
 _atom_site_occupancy
  C  C0  1  0.62500000  0.12500000  0.12500000  1
  Ni  Ni1  1  0.12500000  0.62500000  0.62500000  1
  Ni  Ni2  1  0.62500000  0.12500000  0.62500000  1
  Cu  Cu3  1  0.13145200  0.09677800  0.88588600  1
  Cu  Cu4  1  0.11854800  0.15322200  0.36411400  1
  Cu  Cu5  1  0.62500000  0.62500000  0.12500000  1
  Cu  Cu6  1  0.62500000  0.62500000  0.62500000  1
  C  C7  1  0.32728200  0.28410000  0.44760800  1
  C  C8  1  0.32728200  0.28410000  0.94100900  1
  C  C9  1  0.39599500  0.84370000  0.38015200  1
  C  C10  1  0.82416500  0.42651900  0.37465700  1
  C  C11  1  0.42583500  0.82348100  0.87534300  1
  C  C12  1  0.85400500  0.40630000  0.86984800  1
  C  C13  1  0.92271800  0.96590000  0.30899100  1
  C  C14  1  0.92271800  0.96590000  0.80239200  1
