# generated using pymatgen
data_Cu6NiC30
_symmetry_space_group_name_H-M   'P 1'
_cell_length_a   8.74014496
_cell_length_b   8.79055190
_cell_length_c   8.77194201
_cell_angle_alpha   59.90568994
_cell_angle_beta   60.05336565
_cell_angle_gamma   60.32679380
_symmetry_Int_Tables_number   1
_chemical_formula_structural   Cu6NiC30
_chemical_formula_sum   'Cu6 Ni1 C30'
_cell_volume   477.57337513
_cell_formula_units_Z   1
loop_
 _symmetry_equiv_pos_site_id
 _symmetry_equiv_pos_as_xyz
  1  'x, y, z'
loop_
 _atom_site_type_symbol
 _atom_site_label
 _atom_site_symmetry_multiplicity
 _atom_site_fract_x
 _atom_site_fract_y
 _atom_site_fract_z
 _atom_site_occupancy
  C  C0  1  0.86320000  0.38363700  0.37734700  1
  C  C1  1  0.04420700  0.65316900  0.65464100  1
  C  C2  1  0.43479400  0.85368100  0.85522100  1
  C  C3  1  0.21489600  0.25901300  0.26183300  1
  C  C4  1  0.01876200  0.99731300  0.99084200  1
  C  C5  1  0.47008300  0.50805500  0.51152100  1
  Ni  Ni6  1  0.58571800  0.13768500  0.13849800  1
  Cu  Cu7  1  0.23613600  0.25520600  0.55906500  1
  Cu  Cu8  1  0.23585200  0.94784100  0.25496400  1
  Cu  Cu9  1  0.23617600  0.55994700  0.95060300  1
  Cu  Cu10  1  0.73336400  0.46641700  0.05057300  1
  Cu  Cu11  1  0.73301400  0.05293400  0.74776800  1
  Cu  Cu12  1  0.72691000  0.75000800  0.46966500  1
  C  C13  1  0.06666500  0.11319900  0.30894900  1
  C  C14  1  0.06596500  0.50651500  0.11640500  1
  C  C15  1  0.06611300  0.31306200  0.50572500  1
  C  C16  1  0.22309000  0.08971000  0.74609000  1
  C  C17  1  0.41111800  0.19202000  0.38588300  1
  C  C18  1  0.26798900  0.40638700  0.56570300  1
  C  C19  1  0.22721300  0.93627200  0.08925900  1
  C  C20  1  0.26257900  0.76093300  0.41133000  1
  C  C21  1  0.56380900  0.60575500  0.98916700  1
  C  C22  1  0.26640800  0.56547800  0.76216200  1
  C  C23  1  0.76473700  0.25914100  0.06286400  1
  C  C24  1  0.56207900  0.99221900  0.83775500  1
  C  C25  1  0.41271800  0.00824100  0.19226800  1
  C  C26  1  0.22587500  0.74469800  0.94184800  1
  C  C27  1  0.69126000  0.44800200  0.25047500  1
  C  C28  1  0.41132400  0.38499900  0.01229400  1
  C  C29  1  0.69051500  0.25341400  0.60891200  1
  C  C30  1  0.76450200  0.06329700  0.91385100  1
  C  C31  1  0.68512300  0.61182500  0.44793200  1
  C  C32  1  0.55328500  0.84134800  0.60642400  1
  C  C33  1  0.76295200  0.91429400  0.26136000  1
  C  C34  1  0.90713600  0.67802100  0.50240100  1
  C  C35  1  0.91710500  0.49303800  0.90996900  1
  C  C36  1  0.91607800  0.91510200  0.67812000  1
