# generated using pymatgen
data_Cu4NiC2
_symmetry_space_group_name_H-M   'P 1'
_cell_length_a   3.78118400
_cell_length_b   11.77159400
_cell_length_c   13.77146500
_cell_angle_alpha   90.00000000
_cell_angle_beta   90.00000000
_cell_angle_gamma   90.00000000
_symmetry_Int_Tables_number   1
_chemical_formula_structural   Cu4NiC2
_chemical_formula_sum   'Cu16 Ni4 C8'
_cell_volume   612.97565893
_cell_formula_units_Z   4
loop_
 _symmetry_equiv_pos_site_id
 _symmetry_equiv_pos_as_xyz
  1  'x, y, z'
loop_
 _atom_site_type_symbol
 _atom_site_label
 _atom_site_symmetry_multiplicity
 _atom_site_fract_x
 _atom_site_fract_y
 _atom_site_fract_z
 _atom_site_occupancy
  C  C0  1  0.75000000  0.05749200  0.11079700  1
  C  C1  1  0.25000000  0.94250800  0.88920300  1
  C  C2  1  0.75000000  0.55749200  0.38920300  1
  C  C3  1  0.25000000  0.44250800  0.61079700  1
  C  C4  1  0.25000000  0.41816800  0.09697000  1
  C  C5  1  0.75000000  0.58183200  0.90303000  1
  C  C6  1  0.25000000  0.91816800  0.40303000  1
  C  C7  1  0.75000000  0.08183200  0.59697000  1
  Ni  Ni8  1  0.75000000  0.73980300  0.17053200  1
  Ni  Ni9  1  0.25000000  0.26019700  0.82946800  1
  Ni  Ni10  1  0.75000000  0.23980300  0.32946800  1
  Ni  Ni11  1  0.25000000  0.76019700  0.67053200  1
  Cu  Cu12  1  0.25000000  0.41338900  0.42694700  1
  Cu  Cu13  1  0.75000000  0.58661100  0.57305300  1
  Cu  Cu14  1  0.25000000  0.91338900  0.07305300  1
  Cu  Cu15  1  0.75000000  0.08661100  0.92694700  1
  Cu  Cu16  1  0.25000000  0.53083700  0.78437100  1
  Cu  Cu17  1  0.75000000  0.46916300  0.21562900  1
  Cu  Cu18  1  0.25000000  0.03083700  0.71562900  1
  Cu  Cu19  1  0.75000000  0.96916300  0.28437100  1
  Cu  Cu20  1  0.25000000  0.12138400  0.47166800  1
  Cu  Cu21  1  0.75000000  0.87861600  0.52833200  1
  Cu  Cu22  1  0.25000000  0.62138400  0.02833200  1
  Cu  Cu23  1  0.75000000  0.37861600  0.97166800  1
  Cu  Cu24  1  0.75000000  0.29657600  0.65806200  1
  Cu  Cu25  1  0.25000000  0.70342400  0.34193800  1
  Cu  Cu26  1  0.75000000  0.79657600  0.84193800  1
  Cu  Cu27  1  0.25000000  0.20342400  0.15806200  1
