# generated using pymatgen
data_Cu2NiC12
_symmetry_space_group_name_H-M   'P 1'
_cell_length_a   5.31145600
_cell_length_b   6.57425300
_cell_length_c   6.57425300
_cell_angle_alpha   90.00000000
_cell_angle_beta   90.00000000
_cell_angle_gamma   90.00000000
_symmetry_Int_Tables_number   1
_chemical_formula_structural   Cu2NiC12
_chemical_formula_sum   'Cu2 Ni1 C12'
_cell_volume   229.56539081
_cell_formula_units_Z   1
loop_
 _symmetry_equiv_pos_site_id
 _symmetry_equiv_pos_as_xyz
  1  'x, y, z'
loop_
 _atom_site_type_symbol
 _atom_site_label
 _atom_site_symmetry_multiplicity
 _atom_site_fract_x
 _atom_site_fract_y
 _atom_site_fract_z
 _atom_site_occupancy
  Ni  Ni0  1  0.00000000  0.25000000  0.75000000  1
  Cu  Cu1  1  0.24068700  0.75000000  0.75000000  1
  Cu  Cu2  1  0.75931300  0.25000000  0.25000000  1
  C  C3  1  0.50000000  0.25000000  0.75000000  1
  C  C4  1  0.50000000  0.75000000  0.25000000  1
  C  C5  1  0.90947500  0.75000000  0.75000000  1
  C  C6  1  0.09052500  0.25000000  0.25000000  1
  C  C7  1  0.66304700  0.55603100  0.27461900  1
  C  C8  1  0.66304700  0.94396900  0.22538100  1
  C  C9  1  0.68961600  0.27452500  0.92704800  1
  C  C10  1  0.68961600  0.22547500  0.57295200  1
  C  C11  1  0.31038400  0.42704800  0.72547500  1
  C  C12  1  0.31038400  0.07295200  0.77452500  1
  C  C13  1  0.33695300  0.72538100  0.05603100  1
  C  C14  1  0.33695300  0.77461900  0.44396900  1
