# generated using pymatgen
data_Cu5Ni4C69
_symmetry_space_group_name_H-M   'P 1'
_cell_length_a   18.41125832
_cell_length_b   9.26864278
_cell_length_c   23.24423248
_cell_angle_alpha   89.46168700
_cell_angle_beta   88.58820825
_cell_angle_gamma   120.18016646
_symmetry_Int_Tables_number   1
_chemical_formula_structural   Cu5Ni4C69
_chemical_formula_sum   'Cu15 Ni12 C207'
_cell_volume   3426.76480918
_cell_formula_units_Z   3
loop_
 _symmetry_equiv_pos_site_id
 _symmetry_equiv_pos_as_xyz
  1  'x, y, z'
loop_
 _atom_site_type_symbol
 _atom_site_label
 _atom_site_symmetry_multiplicity
 _atom_site_fract_x
 _atom_site_fract_y
 _atom_site_fract_z
 _atom_site_occupancy
  C  C0  1  0.32589592  -0.00065141  0.25049467  1
  C  C1  1  0.81406905  0.98131839  0.25973235  1
  C  C2  1  0.18844948  0.38483646  0.24104645  1
  C  C3  1  0.66438812  0.35031443  0.24755057  1
  C  C4  1  0.99487409  0.63904977  0.26710472  1
  C  C5  1  0.49555238  0.61776460  0.25976045  1
  C  C6  1  0.83041934  0.65014670  0.73270154  1
  C  C7  1  0.99043246  0.35292780  0.75049771  1
  C  C8  1  0.49476306  0.34754852  0.75623830  1
  C  C9  1  0.17427815  0.99748430  0.73174851  1
  C  C10  1  0.01979579  0.71191785  0.58696387  1
  C  C11  1  0.32986247  0.99091301  0.59463243  1
  C  C12  1  0.02432671  0.32659539  0.08719847  1
  C  C13  1  0.50838759  0.33056432  0.09403133  1
  C  C14  1  0.15864046  0.30096803  0.93236802  1
  C  C15  1  0.65996884  0.29669732  0.93327563  1
  C  C16  1  0.16569747  0.01969928  0.42742839  1
  C  C17  1  0.66206065  0.04344740  0.42042053  1
  C  C18  1  0.98785343  0.99452929  0.50992577  1
  C  C19  1  0.51258945  0.99537201  0.48668164  1
  C  C20  1  0.00246092  0.00493123  0.00307885  1
  C  C21  1  0.50779190  0.00069789  0.01127014  1
  C  C22  1  0.34804166  0.33117898  0.83486387  1
  C  C23  1  0.85084930  0.31295038  0.82661686  1
  C  C24  1  0.35478775  0.36502660  0.34051218  1
  C  C25  1  0.84403106  0.36494848  0.34306059  1
  C  C26  1  0.18017423  0.66149191  0.17398406  1
  C  C27  1  0.67950361  0.65885390  0.16405200  1
  C  C28  1  0.17104251  0.67657794  0.66992633  1
  C  C29  1  0.69212798  0.72525299  0.65103486  1
  C  C30  1  0.98573528  0.98124415  0.35470079  1
  C  C31  1  0.98601978  0.98319767  0.84564002  1
  C  C32  1  0.49419288  0.01472037  0.84694247  1
  C  C33  1  0.51440542  0.01097380  0.63923225  1
  C  C34  1  0.99339263  0.99727693  0.16294264  1
  C  C35  1  0.82314639  0.33065512  0.18073623  1
  C  C36  1  0.34098016  0.33636474  0.98932997  1
  C  C37  1  0.83374610  0.33311355  0.98763410  1
  C  C38  1  0.17293165  0.65823236  0.02088750  1
  C  C39  1  0.17060534  0.66635257  0.51879498  1
  C  C40  1  0.16308887  0.66694236  0.81334646  1
  C  C41  1  0.67116899  0.69587722  0.81145548  1
  Ni  Ni42  1  0.47894946  0.95881768  0.34333453  1
  Ni  Ni43  1  0.00852032  0.99041747  0.64885535  1
  Ni  Ni44  1  0.49860685  0.02378418  0.15914909  1
  Ni  Ni45  1  0.33062197  0.31934869  0.67664931  1
  Ni  Ni46  1  0.82991599  0.30543913  0.67949565  1
  Ni  Ni47  1  0.33848425  0.35960975  0.18754930  1
  Ni  Ni48  1  0.33792710  0.35577410  0.48399264  1
  Ni  Ni49  1  0.84340966  0.36035656  0.48668240  1
  Ni  Ni50  1  0.65508688  0.62983483  0.01868903  1
  Ni  Ni51  1  0.65245743  0.72791749  0.51476061  1
  Ni  Ni52  1  0.15865043  0.64003594  0.31715937  1
  Ni  Ni53  1  0.64257612  0.60382444  0.32235853  1
  Cu  Cu54  1  0.35432923  0.70971049  0.25024507  1
  Cu  Cu55  1  0.82808943  0.68256815  0.25625875  1
  Cu  Cu56  1  0.00270708  0.32312201  0.24942533  1
  Cu  Cu57  1  0.49201727  0.28084719  0.25222515  1
  Cu  Cu58  1  0.99032984  0.68023056  0.73612395  1
  Cu  Cu59  1  0.34912067  0.02090908  0.73566963  1
  Cu  Cu60  1  0.85759702  0.00597757  0.73462241  1
  Cu  Cu61  1  0.18876950  0.06553488  0.57957033  1
  Cu  Cu62  1  0.70180175  0.06637719  0.57410116  1
  Cu  Cu63  1  0.18720929  0.33173050  0.09020613  1
  Cu  Cu64  1  0.66461742  0.32014889  0.08410186  1
  Cu  Cu65  1  0.01011190  0.34592838  0.91721727  1
  Cu  Cu66  1  0.52111161  0.37129869  0.91573301  1
  Cu  Cu67  1  0.01537717  0.64663466  0.42042531  1
  Cu  Cu68  1  0.51283234  0.66852486  0.41419126  1
  C  C69  1  0.16126351  0.00112263  0.25485380  1
  C  C70  1  0.63350308  0.98545463  0.25424787  1
  C  C71  1  0.15543576  0.29409358  0.74074592  1
  C  C72  1  0.66341141  0.30957523  0.74939677  1
  C  C73  1  0.48846304  0.67534402  0.74529557  1
  C  C74  1  0.47976843  0.35695970  0.57833092  1
  C  C75  1  0.97461836  0.32363682  0.58385495  1
  C  C76  1  0.33551749  0.61138126  0.58528600  1
  C  C77  1  0.83442740  0.62545142  0.58231108  1
  C  C78  1  0.48980887  0.64777241  0.09124420  1
  C  C79  1  0.99146881  0.65667810  0.08728523  1
  C  C80  1  0.33823874  0.03335156  0.09716250  1
  C  C81  1  0.82304704  0.99138924  0.08348349  1
  C  C82  1  0.32434359  0.65934083  0.91230240  1
  C  C83  1  0.80994784  0.67122100  0.92303907  1
  C  C84  1  0.16794668  0.98231185  0.91566844  1
  C  C85  1  0.66022418  0.95840308  0.92591587  1
  C  C86  1  0.32308233  0.97479502  0.41146188  1
  C  C87  1  0.80245571  0.95532305  0.41890209  1
  C  C88  1  0.17819447  0.37084231  0.41206108  1
  C  C89  1  0.66646089  0.37428193  0.41950873  1
  C  C90  1  0.12291991  0.02968361  0.30695053  1
  C  C91  1  0.59679181  0.01646317  0.30744802  1
  C  C92  1  0.41391737  0.76379527  0.30591263  1
  C  C93  1  0.90664957  0.76197058  0.30043260  1
  C  C94  1  0.47290171  0.13716901  0.30188488  1
  C  C95  1  0.98725131  0.18253047  0.29800963  1
  C  C96  1  0.12346685  0.20458724  0.79727778  1
  C  C97  1  0.63192668  0.22371677  0.80640186  1
  C  C98  1  0.48933468  0.75720627  0.79974212  1
  C  C99  1  0.96970643  0.76027146  0.79206335  1
  C  C100  1  0.41004256  0.05560152  0.79112694  1
  C  C101  1  0.90371993  0.04309354  0.79669892  1
  C  C102  1  0.39464797  0.00249524  0.67776374  1
  C  C103  1  0.92014155  0.99240035  0.68600222  1
  C  C104  1  0.10011414  0.19396657  0.69424870  1
  C  C105  1  0.60153854  0.21501792  0.70540124  1
  C  C106  1  0.01793025  0.81450336  0.68081732  1
  C  C107  1  0.49990053  0.78326074  0.69527216  1
  C  C108  1  0.40148145  0.85049222  0.19834264  1
  C  C109  1  0.86119306  0.80489127  0.19856686  1
  C  C110  1  0.01817077  0.25927915  0.18699602  1
  C  C111  1  0.51758650  0.22374445  0.19199914  1
  C  C112  1  0.10536645  0.96234593  0.20559851  1
  C  C113  1  0.58731888  0.98405578  0.20271632  1
  C  C114  1  0.44305807  0.36885113  0.63521961  1
  C  C115  1  0.93390018  0.34163845  0.63715742  1
  C  C116  1  0.24696936  0.14860074  0.63565878  1
  C  C117  1  0.74660626  0.15081213  0.63370483  1
  C  C118  1  0.34066828  0.52032682  0.63586958  1
  C  C119  1  0.82568108  0.52899137  0.63611257  1
  C  C120  1  0.44750436  0.52509453  0.14180538  1
  C  C121  1  0.94753717  0.57303623  0.14268721  1
  C  C122  1  0.33776788  0.13471334  0.14591872  1
  C  C123  1  0.81319708  0.05674365  0.13979565  1
  C  C124  1  0.24774052  0.33383089  0.14309676  1
  C  C125  1  0.72013951  0.35237418  0.14102026  1
  C  C126  1  0.22697829  0.33904787  0.02528998  1
  C  C127  1  0.70836713  0.30186525  0.02505148  1
  C  C128  1  0.44068220  0.57721512  0.03914278  1
  C  C129  1  0.94396042  0.55413882  0.03847702  1
  C  C130  1  0.34932681  0.12419805  0.04133986  1
  C  C131  1  0.83506519  0.11250868  0.03694604  1
  C  C132  1  0.23907612  0.17144559  0.51851168  1
  C  C133  1  0.75171723  0.17533287  0.51591158  1
  C  C134  1  0.33382182  0.53025615  0.53019238  1
  C  C135  1  0.85161080  0.54551314  0.53140824  1
  C  C136  1  0.42161880  0.33474282  0.53155640  1
  C  C137  1  0.92918190  0.32227503  0.53213089  1
  C  C138  1  0.28292045  0.66832891  0.96619731  1
  C  C139  1  0.75784508  0.67451821  0.97210280  1
  C  C140  1  0.06621759  0.45483876  0.97299233  1
  C  C141  1  0.57377061  0.48170514  0.97134428  1
  C  C142  1  0.17418967  0.89002556  0.96550532  1
  C  C143  1  0.66522773  0.86020049  0.97417355  1
  C  C144  1  0.28914153  0.88781949  0.46859648  1
  C  C145  1  0.75712082  0.84580089  0.47078954  1
  C  C146  1  0.17258892  0.45638759  0.46308671  1
  C  C147  1  0.65830629  0.46862041  0.46646189  1
  C  C148  1  0.06674383  0.66917219  0.47891002  1
  C  C149  1  0.57612715  0.72568664  0.46870431  1
  C  C150  1  0.06788289  0.63302555  0.36218895  1
  C  C151  1  0.55664295  0.62799772  0.35799762  1
  C  C152  1  0.26634381  0.87796268  0.36456831  1
  C  C153  1  0.76311594  0.86994247  0.36548578  1
  C  C154  1  0.18102911  0.46335951  0.35797629  1
  C  C155  1  0.67323476  0.45893186  0.36121945  1
  C  C156  1  0.05855224  0.43936862  0.85568953  1
  C  C157  1  0.56785486  0.45516378  0.85305661  1
  C  C158  1  0.16924531  0.90321931  0.86069225  1
  C  C159  1  0.66467529  0.89037628  0.86909768  1
  C  C160  1  0.28283570  0.67945887  0.86187825  1
  C  C161  1  0.77797076  0.68911291  0.86702598  1
  C  C162  1  0.01425535  0.82177987  0.41598259  1
  C  C163  1  0.50836619  0.84250345  0.40365767  1
  C  C164  1  0.40778411  0.99173746  0.40496807  1
  C  C165  1  0.88979839  0.98664915  0.42438103  1
  C  C166  1  0.10483576  0.19863730  0.41311296  1
  C  C167  1  0.59333288  0.20108557  0.41724890  1
  C  C168  1  0.01064738  0.17007404  0.92200625  1
  C  C169  1  0.51876207  0.18998095  0.92233097  1
  C  C170  1  0.08991359  0.99047742  0.92106233  1
  C  C171  1  0.58203240  0.96747276  0.92955893  1
  C  C172  1  0.41289219  0.79365025  0.91424727  1
  C  C173  1  0.89674951  0.80727880  0.92957730  1
  C  C174  1  0.48549783  0.20222278  0.57850944  1
  C  C175  1  0.98474143  0.17672103  0.58470847  1
  C  C176  1  0.09125165  0.03559172  0.58613370  1
  C  C177  1  0.60591301  0.03568636  0.57021723  1
  C  C178  1  0.40902196  0.78327220  0.58126977  1
  C  C179  1  0.91407204  0.79389594  0.58403820  1
  C  C180  1  0.49908558  0.81110893  0.10193197  1
  C  C181  1  0.00093760  0.82244409  0.08179157  1
  C  C182  1  0.41304261  0.01227184  0.09840495  1
  C  C183  1  0.90138282  0.98201061  0.08228841  1
  C  C184  1  0.09145976  0.16906543  0.09186451  1
  C  C185  1  0.57122615  0.14999785  0.09408570  1
  C  C186  1  0.34467733  0.19633698  0.73502066  1
  C  C187  1  0.84289454  0.16605417  0.73171264  1
  C  C188  1  0.24127461  0.31947644  0.73257284  1
  C  C189  1  0.74648009  0.32713633  0.73792460  1
  C  C190  1  0.40923769  0.51254250  0.74283244  1
  C  C191  1  0.90667526  0.49654362  0.72683652  1
  C  C192  1  0.34034173  0.52038217  0.23867372  1
  C  C193  1  0.80848243  0.49080797  0.24914403  1
  C  C194  1  0.41113991  0.31384061  0.24393038  1
  C  C195  1  0.92112305  0.35021425  0.25039350  1
  C  C196  1  0.24457547  0.15404419  0.24410499  1
  C  C197  1  0.72265203  0.12674145  0.25082694  1
  C  C198  1  0.31826700  0.49414962  0.90923072  1
  C  C199  1  0.80688709  0.50797018  0.92198095  1
  C  C200  1  0.42657112  0.34352026  0.91594309  1
  C  C201  1  0.91696796  0.32758695  0.91588335  1
  C  C202  1  0.24049864  0.15664068  0.91333397  1
  C  C203  1  0.73214029  0.13354540  0.92406348  1
  C  C204  1  0.32724456  0.13944923  0.41324028  1
  C  C205  1  0.80462826  0.11710907  0.41854626  1
  C  C206  1  0.25602250  0.35809481  0.41275506  1
  C  C207  1  0.74457631  0.36137345  0.42074907  1
  C  C208  1  0.42057284  0.49775816  0.42902640  1
  C  C209  1  0.91938731  0.47800207  0.42642128  1
  C  C210  1  0.17397529  0.49620446  0.09630276  1
  C  C211  1  0.65137876  0.48610698  0.07766365  1
  C  C212  1  0.07440511  0.66616205  0.08836402  1
  C  C213  1  0.57329546  0.65762156  0.08358936  1
  C  C214  1  0.26033653  0.86987279  0.09796539  1
  C  C215  1  0.74770072  0.82603223  0.07452335  1
  C  C216  1  0.18103104  0.87836850  0.57929999  1
  C  C217  1  0.68850224  0.87223191  0.57414767  1
  C  C218  1  0.25850910  0.62525500  0.59175610  1
  C  C219  1  0.76035338  0.64188888  0.57532818  1
  C  C220  1  0.05991905  0.48001667  0.58403729  1
  C  C221  1  0.56440221  0.50742757  0.57046537  1
  C  C222  1  0.17439529  0.85600082  0.26316487  1
  C  C223  1  0.63640029  0.82925924  0.25665069  1
  C  C224  1  0.25973787  0.68923674  0.26328251  1
  C  C225  1  0.73975769  0.68499694  0.27265241  1
  C  C226  1  0.09100918  0.50577256  0.25762897  1
  C  C227  1  0.57530831  0.46490814  0.26288017  1
  C  C228  1  0.15895118  0.45776317  0.74069521  1
  C  C229  1  0.67335468  0.47891589  0.74931990  1
  C  C230  1  0.07202581  0.65519622  0.74277609  1
  C  C231  1  0.56027120  0.64032068  0.74317295  1
  C  C232  1  0.25270429  0.86558907  0.74249001  1
  C  C233  1  0.76874141  0.82635940  0.73490305  1
