# generated using pymatgen
data_CuNiC4
_symmetry_space_group_name_H-M   'P 1'
_cell_length_a   4.48556818
_cell_length_b   4.46919433
_cell_length_c   4.46911224
_cell_angle_alpha   83.04011703
_cell_angle_beta   97.11817167
_cell_angle_gamma   97.11751951
_symmetry_Int_Tables_number   1
_chemical_formula_structural   CuNiC4
_chemical_formula_sum   'Cu1 Ni1 C4'
_cell_volume   87.70523771
_cell_formula_units_Z   1
loop_
 _symmetry_equiv_pos_site_id
 _symmetry_equiv_pos_as_xyz
  1  'x, y, z'
loop_
 _atom_site_type_symbol
 _atom_site_label
 _atom_site_symmetry_multiplicity
 _atom_site_fract_x
 _atom_site_fract_y
 _atom_site_fract_z
 _atom_site_occupancy
  Ni  Ni0  1  0.24815530  0.75711744  0.75712957  1
  Cu  Cu1  1  0.54319752  0.45958989  0.45959241  1
  C  C2  1  0.87951182  0.12427454  0.12430653  1
  C  C3  1  0.03499521  0.47213376  0.47205838  1
  C  C4  1  0.53041351  0.96686316  0.47005874  1
  C  C5  1  0.53039363  0.47002122  0.96685437  1
