# generated using pymatgen
data_Cu4Ni2C45
_symmetry_space_group_name_H-M   'P 1'
_cell_length_a   8.85776575
_cell_length_b   8.83117664
_cell_length_c   22.76096966
_cell_angle_alpha   90.24457906
_cell_angle_beta   90.00000000
_cell_angle_gamma   120.09964735
_symmetry_Int_Tables_number   1
_chemical_formula_structural   Cu4Ni2C45
_chemical_formula_sum   'Cu8 Ni4 C90'
_cell_volume   1540.35885837
_cell_formula_units_Z   2
loop_
 _symmetry_equiv_pos_site_id
 _symmetry_equiv_pos_as_xyz
  1  'x, y, z'
loop_
 _atom_site_type_symbol
 _atom_site_label
 _atom_site_symmetry_multiplicity
 _atom_site_fract_x
 _atom_site_fract_y
 _atom_site_fract_z
 _atom_site_occupancy
  Ni  Ni0  1  0.99535410  0.00178621  0.35582038  1
  Ni  Ni1  1  0.00643211  0.00178621  0.85582038  1
  Ni  Ni2  1  0.67085598  0.34167106  0.68761985  1
  Ni  Ni3  1  0.67081608  0.34167106  0.18761985  1
  Cu  Cu4  1  0.99685630  0.00317814  0.64089517  1
  Cu  Cu5  1  0.00632185  0.00317814  0.14089517  1
  Cu  Cu6  1  0.65471330  0.33898585  0.97722170  1
  Cu  Cu7  1  0.68427356  0.33898585  0.47722170  1
  Cu  Cu8  1  0.32229364  0.66949377  0.02489237  1
  Cu  Cu9  1  0.34719913  0.66949377  0.52489237  1
  Cu  Cu10  1  0.34200141  0.67629396  0.30889130  1
  Cu  Cu11  1  0.33429155  0.67629396  0.80889130  1
  C  C12  1  0.95405860  0.34181436  0.58669393  1
  C  C13  1  0.66729565  0.60946414  0.58649916  1
  C  C14  1  0.94216949  0.60946414  0.08649916  1
  C  C15  1  0.38775677  0.34181436  0.08669393  1
  C  C16  1  0.32885395  0.95801852  0.91659480  1
  C  C17  1  0.62916357  0.95801852  0.41659480  1
  C  C18  1  0.28872547  0.00529498  0.25123582  1
  C  C19  1  0.71692936  0.71078508  0.25116965  1
  C  C20  1  0.99488777  0.28514065  0.25148626  1
  C  C21  1  0.29025287  0.28514065  0.75148626  1
  C  C22  1  0.99385572  0.71078508  0.75116965  1
  C  C23  1  0.71656951  0.00529498  0.75123582  1
  C  C24  1  0.38186493  0.04862236  0.58445028  1
  C  C25  1  0.66675843  0.04862236  0.08445028  1
  C  C26  1  0.62112549  0.67215651  0.91539574  1
  C  C27  1  0.04609639  0.37826664  0.91575572  1
  C  C28  1  0.33216924  0.37826664  0.41575572  1
  C  C29  1  0.05103001  0.67215651  0.41539574  1
  C  C30  1  0.20525368  0.02532324  0.30310040  1
  C  C31  1  0.82054157  0.79558798  0.30310034  1
  C  C32  1  0.97678467  0.18050808  0.30279091  1
  C  C33  1  0.20372341  0.18050808  0.80279091  1
  C  C34  1  0.97504641  0.79558798  0.80310034  1
  C  C35  1  0.82006957  0.02532324  0.80310040  1
  C  C36  1  0.79529463  0.96921909  0.69763021  1
  C  C37  1  0.17575283  0.20555084  0.69769252  1
  C  C38  1  0.03514645  0.82358871  0.69819140  1
  C  C39  1  0.78844227  0.82358871  0.19819140  1
  C  C40  1  0.02979800  0.20555084  0.19769252  1
  C  C41  1  0.17392446  0.96921909  0.19763021  1
  C  C42  1  0.86856615  0.36397092  0.64308396  1
  C  C43  1  0.48479209  0.11755624  0.63686727  1
  C  C44  1  0.62376904  0.49861978  0.64313428  1
  C  C45  1  0.87485174  0.49861978  0.14313428  1
  C  C46  1  0.63276514  0.11755624  0.13686727  1
  C  C47  1  0.49540577  0.36397092  0.14308396  1
  C  C48  1  0.46815683  0.29955190  0.02562216  1
  C  C49  1  0.83149315  0.52652119  0.02519870  1
  C  C50  1  0.69992935  0.15556839  0.03094374  1
  C  C51  1  0.45564003  0.15556839  0.53094374  1
  C  C52  1  0.69502904  0.52652119  0.52519870  1
  C  C53  1  0.83139607  0.29955190  0.52562216  1
  C  C54  1  0.53842784  0.69136214  0.96843856  1
  C  C55  1  0.15799156  0.46172789  0.96880837  1
  C  C56  1  0.31693020  0.83236075  0.97152470  1
  C  C57  1  0.51542955  0.83236075  0.47152470  1
  C  C58  1  0.30373532  0.46172789  0.46880837  1
  C  C59  1  0.15293329  0.69136214  0.46843856  1
  C  C60  1  0.12806679  0.63361393  0.36262647  1
  C  C61  1  0.49052513  0.85389145  0.35938442  1
  C  C62  1  0.36101405  0.49427689  0.36352584  1
  C  C63  1  0.13326184  0.49427689  0.86352584  1
  C  C64  1  0.36336532  0.85389145  0.85938442  1
  C  C65  1  0.50554614  0.63361393  0.86262647  1
  C  C66  1  0.03018916  0.82209591  0.40626162  1
  C  C67  1  0.81115203  0.97582182  0.40719052  1
  C  C68  1  0.18084633  0.20750862  0.40703777  1
  C  C69  1  0.02666230  0.20750862  0.90703777  1
  C  C70  1  0.16466980  0.97582182  0.90719052  1
  C  C71  1  0.79190676  0.82209591  0.90626162  1
  C  C72  1  0.98176248  0.16811871  0.59528350  1
  C  C73  1  0.20259979  0.02608124  0.59239075  1
  C  C74  1  0.83969144  0.81134261  0.59591432  1
  C  C75  1  0.97165117  0.81134261  0.09591432  1
  C  C76  1  0.82348145  0.02608124  0.09239075  1
  C  C77  1  0.18635623  0.16811871  0.09528350  1
  C  C78  1  0.68356110  0.14731560  0.74164069  1
  C  C79  1  0.46099543  0.30677982  0.74204636  1
  C  C80  1  0.84959019  0.53552054  0.74358325  1
  C  C81  1  0.68593135  0.53552054  0.24358325  1
  C  C82  1  0.84578539  0.30677982  0.24204636  1
  C  C83  1  0.46375550  0.14731560  0.24164069  1
  C  C84  1  0.63539241  0.50867952  0.92208504  1
  C  C85  1  0.87588281  0.36797620  0.92413725  1
  C  C86  1  0.51561121  0.14169389  0.92691671  1
  C  C87  1  0.62608368  0.14169389  0.42691671  1
  C  C88  1  0.49209439  0.36797620  0.42413725  1
  C  C89  1  0.87328811  0.50867952  0.42208504  1
  C  C90  1  0.35675961  0.50119651  0.06719776  1
  C  C91  1  0.14274948  0.65001047  0.07120220  1
  C  C92  1  0.51678414  0.86760261  0.07359979  1
  C  C93  1  0.35081747  0.86760261  0.57359979  1
  C  C94  1  0.50725998  0.65001047  0.57120220  1
  C  C95  1  0.14443590  0.50119651  0.56719776  1
  C  C96  1  0.29744125  0.83511349  0.25802410  1
  C  C97  1  0.53257193  0.69284025  0.25949260  1
  C  C98  1  0.15862445  0.46453054  0.25970937  1
  C  C99  1  0.30590509  0.46453054  0.75970937  1
  C  C100  1  0.16026732  0.69284025  0.75949260  1
  C  C101  1  0.53767125  0.83511349  0.75802410  1
