# generated using pymatgen
data_Cu4NiC
_symmetry_space_group_name_H-M   'P 1'
_cell_length_a   8.76158165
_cell_length_b   8.76158136
_cell_length_c   23.08093631
_cell_angle_alpha   90.00000000
_cell_angle_beta   90.00000000
_cell_angle_gamma   120.00000104
_symmetry_Int_Tables_number   1
_chemical_formula_structural   Cu4NiC
_chemical_formula_sum   'Cu72 Ni18 C18'
_cell_volume   1534.43699498
_cell_formula_units_Z   18
loop_
 _symmetry_equiv_pos_site_id
 _symmetry_equiv_pos_as_xyz
  1  'x, y, z'
loop_
 _atom_site_type_symbol
 _atom_site_label
 _atom_site_symmetry_multiplicity
 _atom_site_fract_x
 _atom_site_fract_y
 _atom_site_fract_z
 _atom_site_occupancy
  C  C0  1  0.00000000  -0.00000000  0.49712148  1
  C  C1  1  0.00000000  -0.00000000  0.99712148  1
  C  C2  1  0.66666700  0.33333300  0.83045448  1
  C  C3  1  0.66666700  0.33333300  0.33045448  1
  C  C4  1  0.33333300  0.66666700  0.16378848  1
  C  C5  1  0.33333300  0.66666700  0.66378848  1
  C  C6  1  0.00000000  -0.00000000  0.34997055  1
  C  C7  1  0.00000000  -0.00000000  0.84997055  1
  C  C8  1  0.66666700  0.33333300  0.68330355  1
  C  C9  1  0.66666700  0.33333300  0.18330355  1
  C  C10  1  0.33333300  0.66666700  0.01663755  1
  C  C11  1  0.33333300  0.66666700  0.51663755  1
  C  C12  1  0.00000000  -0.00000000  0.65029381  1
  C  C13  1  0.00000000  -0.00000000  0.15029381  1
  C  C14  1  0.66666700  0.33333300  0.98362681  1
  C  C15  1  0.66666700  0.33333300  0.48362681  1
  C  C16  1  0.33333300  0.66666700  0.31696081  1
  C  C17  1  0.33333300  0.66666700  0.81696081  1
  Ni  Ni18  1  0.29711587  0.00326390  0.25101545  1
  Ni  Ni19  1  0.70614803  0.70288413  0.25101545  1
  Ni  Ni20  1  0.99673610  0.29385197  0.25101545  1
  Ni  Ni21  1  0.29711587  0.29385197  0.75101545  1
  Ni  Ni22  1  0.99673610  0.70288413  0.75101545  1
  Ni  Ni23  1  0.70614803  0.00326390  0.75101545  1
  Ni  Ni24  1  0.96378287  0.33659690  0.58434845  1
  Ni  Ni25  1  0.37281503  0.03621713  0.58434845  1
  Ni  Ni26  1  0.66340310  0.62718497  0.58434845  1
  Ni  Ni27  1  0.96378287  0.62718497  0.08434845  1
  Ni  Ni28  1  0.66340310  0.03621713  0.08434845  1
  Ni  Ni29  1  0.37281503  0.33659690  0.08434845  1
  Ni  Ni30  1  0.63044887  0.66993090  0.91768245  1
  Ni  Ni31  1  0.03948103  0.36955113  0.91768245  1
  Ni  Ni32  1  0.33006910  0.96051897  0.91768245  1
  Ni  Ni33  1  0.63044887  0.96051897  0.41768245  1
  Ni  Ni34  1  0.33006910  0.36955113  0.41768245  1
  Ni  Ni35  1  0.03948103  0.66993090  0.41768245  1
  Cu  Cu36  1  0.21249110  0.02519501  0.30261906  1
  Cu  Cu37  1  0.81270390  0.78750890  0.30261906  1
  Cu  Cu38  1  0.97480499  0.18729610  0.30261906  1
  Cu  Cu39  1  0.21249110  0.18729610  0.80261906  1
  Cu  Cu40  1  0.97480499  0.78750890  0.80261906  1
  Cu  Cu41  1  0.81270390  0.02519501  0.80261906  1
  Cu  Cu42  1  0.78029612  0.97114360  0.69739737  1
  Cu  Cu43  1  0.19084748  0.21970388  0.69739737  1
  Cu  Cu44  1  0.02885640  0.80915252  0.69739737  1
  Cu  Cu45  1  0.78029612  0.80915252  0.19739737  1
  Cu  Cu46  1  0.02885640  0.21970388  0.19739737  1
  Cu  Cu47  1  0.19084748  0.97114360  0.19739737  1
  Cu  Cu48  1  0.87915810  0.35852801  0.63595206  1
  Cu  Cu49  1  0.47937090  0.12084190  0.63595206  1
  Cu  Cu50  1  0.64147199  0.52062910  0.63595206  1
  Cu  Cu51  1  0.87915810  0.52062910  0.13595206  1
  Cu  Cu52  1  0.64147199  0.12084190  0.13595206  1
  Cu  Cu53  1  0.47937090  0.35852801  0.13595206  1
  Cu  Cu54  1  0.44696312  0.30447660  0.03073037  1
  Cu  Cu55  1  0.85751448  0.55303688  0.03073037  1
  Cu  Cu56  1  0.69552340  0.14248552  0.03073037  1
  Cu  Cu57  1  0.44696312  0.14248552  0.53073037  1
  Cu  Cu58  1  0.69552340  0.55303688  0.53073037  1
  Cu  Cu59  1  0.85751448  0.30447660  0.53073037  1
  Cu  Cu60  1  0.54582410  0.69186201  0.96928606  1
  Cu  Cu61  1  0.14603690  0.45417590  0.96928606  1
  Cu  Cu62  1  0.30813799  0.85396310  0.96928606  1
  Cu  Cu63  1  0.54582410  0.85396310  0.46928606  1
  Cu  Cu64  1  0.30813799  0.45417590  0.46928606  1
  Cu  Cu65  1  0.14603690  0.69186201  0.46928606  1
  Cu  Cu66  1  0.11362912  0.63781060  0.36406437  1
  Cu  Cu67  1  0.52418048  0.88637088  0.36406437  1
  Cu  Cu68  1  0.36218940  0.47581952  0.36406437  1
  Cu  Cu69  1  0.11362912  0.47581952  0.86406437  1
  Cu  Cu70  1  0.36218940  0.88637088  0.86406437  1
  Cu  Cu71  1  0.52418048  0.63781060  0.86406437  1
  Cu  Cu72  1  0.02146225  0.82778651  0.41128234  1
  Cu  Cu73  1  0.80632426  0.97853775  0.41128234  1
  Cu  Cu74  1  0.17221349  0.19367574  0.41128234  1
  Cu  Cu75  1  0.02146225  0.19367574  0.91128234  1
  Cu  Cu76  1  0.17221349  0.97853775  0.91128234  1
  Cu  Cu77  1  0.80632426  0.82778651  0.91128234  1
  Cu  Cu78  1  0.98136663  0.17513443  0.58855717  1
  Cu  Cu79  1  0.19376780  0.01863337  0.58855717  1
  Cu  Cu80  1  0.82486557  0.80623220  0.58855717  1
  Cu  Cu81  1  0.98136663  0.80623220  0.08855717  1
  Cu  Cu82  1  0.82486557  0.01863337  0.08855717  1
  Cu  Cu83  1  0.19376780  0.17513443  0.08855717  1
  Cu  Cu84  1  0.68812925  0.16111951  0.74461534  1
  Cu  Cu85  1  0.47299126  0.31187075  0.74461534  1
  Cu  Cu86  1  0.83888049  0.52700874  0.74461534  1
  Cu  Cu87  1  0.68812925  0.52700874  0.24461534  1
  Cu  Cu88  1  0.83888049  0.31187075  0.24461534  1
  Cu  Cu89  1  0.47299126  0.16111951  0.24461534  1
  Cu  Cu90  1  0.64803363  0.50846743  0.92189017  1
  Cu  Cu91  1  0.86043480  0.35196637  0.92189017  1
  Cu  Cu92  1  0.49153257  0.13956520  0.92189017  1
  Cu  Cu93  1  0.64803363  0.13956520  0.42189017  1
  Cu  Cu94  1  0.49153257  0.35196637  0.42189017  1
  Cu  Cu95  1  0.86043480  0.50846743  0.42189017  1
  Cu  Cu96  1  0.35479525  0.49445351  0.07794934  1
  Cu  Cu97  1  0.13965726  0.64520475  0.07794934  1
  Cu  Cu98  1  0.50554649  0.86034274  0.07794934  1
  Cu  Cu99  1  0.35479525  0.86034274  0.57794934  1
  Cu  Cu100  1  0.50554649  0.64520475  0.57794934  1
  Cu  Cu101  1  0.13965726  0.49445351  0.57794934  1
  Cu  Cu102  1  0.31469963  0.84180143  0.25522417  1
  Cu  Cu103  1  0.52710080  0.68530037  0.25522417  1
  Cu  Cu104  1  0.15819857  0.47289920  0.25522417  1
  Cu  Cu105  1  0.31469963  0.47289920  0.75522417  1
  Cu  Cu106  1  0.15819857  0.68530037  0.75522417  1
  Cu  Cu107  1  0.52710080  0.84180143  0.75522417  1
