# generated using pymatgen
data_Cu2Ni2C31
_symmetry_space_group_name_H-M   'P 1'
_cell_length_a   17.42608005
_cell_length_b   8.71821782
_cell_length_c   22.75447109
_cell_angle_alpha   90.10055332
_cell_angle_beta   89.97263367
_cell_angle_gamma   120.06699453
_symmetry_Int_Tables_number   1
_chemical_formula_structural   Cu2Ni2C31
_chemical_formula_sum   'Cu12 Ni12 C186'
_cell_volume   2991.78583302
_cell_formula_units_Z   6
loop_
 _symmetry_equiv_pos_site_id
 _symmetry_equiv_pos_as_xyz
  1  'x, y, z'
loop_
 _atom_site_type_symbol
 _atom_site_label
 _atom_site_symmetry_multiplicity
 _atom_site_fract_x
 _atom_site_fract_y
 _atom_site_fract_z
 _atom_site_occupancy
  C  C0  1  0.99667737  0.97892595  0.49271580  1
  C  C1  1  0.49853179  0.01009790  0.99944464  1
  C  C2  1  0.33325824  0.32393313  0.83818398  1
  C  C3  1  0.84313053  0.34643598  0.83220546  1
  C  C4  1  0.33952885  0.32996643  0.32948452  1
  C  C5  1  0.84340720  0.34718060  0.34121099  1
  Ni  Ni6  1  0.99894926  0.99188735  0.35555535  1
  Ni  Ni7  1  0.00362589  0.00235743  0.85456903  1
  Ni  Ni8  1  0.33101934  0.33264262  0.68318401  1
  Ni  Ni9  1  0.83583032  0.33780086  0.68180726  1
  Ni  Ni10  1  0.33552345  0.32892166  0.18663370  1
  Ni  Ni11  1  0.83523584  0.33522203  0.18514664  1
  Ni  Ni12  1  0.33416606  0.32917893  0.97933957  1
  Ni  Ni13  1  0.83801937  0.33868333  0.98269616  1
  Ni  Ni14  1  0.33481184  0.33481028  0.48271242  1
  Ni  Ni15  1  0.83633604  0.33796083  0.48073186  1
  Ni  Ni16  1  0.66743320  0.66926710  0.52295202  1
  Ni  Ni17  1  0.16292119  0.66375537  0.81117346  1
  C  C18  1  0.49706118  0.29591972  0.25146646  1
  C  C19  1  0.51751895  0.37614432  0.91605087  1
  C  C20  1  0.01446234  0.66563087  0.41768625  1
  Cu  Cu21  1  0.50111623  0.00728268  0.35404918  1
  Cu  Cu22  1  0.49755531  0.00565723  0.85262917  1
  Cu  Cu23  1  0.99960459  0.99573724  0.65016366  1
  Cu  Cu24  1  0.50030570  0.00366364  0.64181082  1
  Cu  Cu25  1  0.00072360  0.00039742  0.14755537  1
  Cu  Cu26  1  0.50042354  0.00804854  0.15021358  1
  Cu  Cu27  1  0.16374925  0.66392011  0.01770746  1
  Cu  Cu28  1  0.66532713  0.65708949  0.02104434  1
  Cu  Cu29  1  0.16201029  0.66578526  0.52012154  1
  Cu  Cu30  1  0.16027706  0.66331096  0.31523219  1
  Cu  Cu31  1  0.66640526  0.65901501  0.31455252  1
  Cu  Cu32  1  0.66673310  0.66372114  0.81423523  1
  C  C33  1  0.14562718  0.00179397  0.25045757  1
  C  C34  1  0.64961960  0.00272649  0.25014714  1
  C  C35  1  0.35018060  0.70308362  0.25177084  1
  C  C36  1  0.85591153  0.70790803  0.25030769  1
  C  C37  1  0.99952823  0.28954004  0.25076465  1
  C  C38  1  0.14738920  0.29215727  0.75152692  1
  C  C39  1  0.64899485  0.29223437  0.74923766  1
  C  C40  1  0.99796303  0.70421814  0.75219263  1
  C  C41  1  0.49990343  0.71012568  0.74993369  1
  C  C42  1  0.35191429  0.99965271  0.74809860  1
  C  C43  1  0.85320857  0.00176813  0.75292916  1
  C  C44  1  0.47809938  0.33886409  0.58368858  1
  C  C45  1  0.97908059  0.32783278  0.58454197  1
  C  C46  1  0.18838782  0.04354631  0.58370245  1
  C  C47  1  0.69058262  0.04475115  0.58378406  1
  C  C48  1  0.33086343  0.62204068  0.58266358  1
  C  C49  1  0.83291602  0.62496155  0.58415117  1
  C  C50  1  0.47867881  0.62915583  0.08387244  1
  C  C51  1  0.97896985  0.62540935  0.08370380  1
  C  C52  1  0.33210793  0.03842157  0.08198417  1
  C  C53  1  0.83296965  0.04114394  0.08297745  1
  C  C54  1  0.18905818  0.33456463  0.08312430  1
  C  C55  1  0.68955620  0.33044841  0.08299740  1
  C  C56  1  0.31015656  0.66222405  0.91506593  1
  C  C57  1  0.81617383  0.66868903  0.91684092  1
  C  C58  1  0.01916313  0.37247162  0.91483686  1
  C  C59  1  0.16570165  0.95635386  0.91489247  1
  C  C60  1  0.66937616  0.96438025  0.91656814  1
  C  C61  1  0.31433606  0.96123427  0.41758941  1
  C  C62  1  0.80938342  0.95526552  0.41722869  1
  C  C63  1  0.16993966  0.37449070  0.41618491  1
  C  C64  1  0.66755014  0.37460819  0.41961493  1
  C  C65  1  0.51954074  0.66723371  0.41689034  1
  C  C66  1  0.10146203  0.02256452  0.30136326  1
  C  C67  1  0.60809380  0.03108584  0.30347026  1
  C  C68  1  0.40808500  0.78107754  0.30455664  1
  C  C69  1  0.91253439  0.79526475  0.30044129  1
  C  C70  1  0.47807576  0.16645286  0.30886022  1
  C  C71  1  0.98864956  0.18015182  0.30158068  1
  C  C72  1  0.10299154  0.17308364  0.80095882  1
  C  C73  1  0.60903277  0.18215193  0.80356190  1
  C  C74  1  0.48553493  0.79042091  0.80502478  1
  C  C75  1  0.98197447  0.79295317  0.80134058  1
  C  C76  1  0.41173005  0.04122278  0.80184482  1
  C  C77  1  0.90690580  0.02254814  0.80434131  1
  C  C78  1  0.39562518  0.96627743  0.69656405  1
  C  C79  1  0.88855483  0.96578355  0.69763634  1
  C  C80  1  0.09187188  0.21644347  0.69506881  1
  C  C81  1  0.59006441  0.20988986  0.69782338  1
  C  C82  1  0.01487594  0.81153680  0.69554306  1
  C  C83  1  0.51414505  0.82479448  0.69820048  1
  C  C84  1  0.39012923  0.81537259  0.19828163  1
  C  C85  1  0.89213899  0.81450202  0.19389457  1
  C  C86  1  0.01387933  0.21341053  0.19439748  1
  C  C87  1  0.52122457  0.21555976  0.19264276  1
  C  C88  1  0.09012221  0.96102143  0.19479315  1
  C  C89  1  0.59100198  0.96169671  0.19715119  1
  C  C90  1  0.43746303  0.35851080  0.63772539  1
  C  C91  1  0.94012353  0.35059204  0.63813327  1
  C  C92  1  0.23781577  0.12595386  0.63712229  1
  C  C93  1  0.73941478  0.12514880  0.63844931  1
  C  C94  1  0.31843231  0.52110701  0.63627940  1
  C  C95  1  0.82448173  0.52805983  0.63881295  1
  C  C96  1  0.43899823  0.52750825  0.13688247  1
  C  C97  1  0.93953165  0.52040988  0.13651935  1
  C  C98  1  0.32157848  0.11591964  0.13578497  1
  C  C99  1  0.81882850  0.11754171  0.13614660  1
  C  C100  1  0.24082223  0.36136159  0.13632791  1
  C  C101  1  0.73806162  0.34459641  0.13650329  1
  C  C102  1  0.22787419  0.30717035  0.03019284  1
  C  C103  1  0.72963205  0.31147985  0.02920343  1
  C  C104  1  0.42777107  0.55445671  0.03016854  1
  C  C105  1  0.92712816  0.54891561  0.03048455  1
  C  C106  1  0.34628638  0.14357166  0.02920827  1
  C  C107  1  0.84591838  0.14521164  0.02998845  1
  C  C108  1  0.22666025  0.14573021  0.53005402  1
  C  C109  1  0.72998844  0.15807529  0.53253106  1
  C  C110  1  0.34441367  0.54400236  0.52984473  1
  C  C111  1  0.85089567  0.54747167  0.53271983  1
  C  C112  1  0.42150447  0.30289300  0.53186989  1
  C  C113  1  0.92812238  0.30205066  0.53113541  1
  C  C114  1  0.27603555  0.70369944  0.97055422  1
  C  C115  1  0.77535259  0.70506038  0.96960969  1
  C  C116  1  0.07321952  0.44569569  0.97188723  1
  C  C117  1  0.58165922  0.45680252  0.97420142  1
  C  C118  1  0.14982603  0.84893164  0.97204217  1
  C  C119  1  0.65399088  0.85213981  0.96929644  1
  C  C120  1  0.27373061  0.84882496  0.47006477  1
  C  C121  1  0.76567679  0.83717151  0.46679213  1
  C  C122  1  0.15732049  0.45817572  0.47024398  1
  C  C123  1  0.65306467  0.46320592  0.46856609  1
  C  C124  1  0.08177259  0.70827171  0.47513342  1
  C  C125  1  0.57534598  0.69711213  0.46773388  1
  C  C126  1  0.05709013  0.62051660  0.35823147  1
  C  C127  1  0.55722314  0.63950711  0.36103986  1
  C  C128  1  0.26171851  0.88195721  0.36279901  1
  C  C129  1  0.75512747  0.87779777  0.35983014  1
  C  C130  1  0.19133160  0.49426900  0.36320976  1
  C  C131  1  0.68296309  0.47552479  0.36249767  1
  C  C132  1  0.06383867  0.49264396  0.86586820  1
  C  C133  1  0.56229919  0.49294866  0.85612554  1
  C  C134  1  0.18267032  0.86869033  0.86581519  1
  C  C135  1  0.68562399  0.88851070  0.86227493  1
  C  C136  1  0.25934567  0.64916628  0.86326538  1
  C  C137  1  0.75662731  0.62932570  0.86355152  1
  C  C138  1  0.01296207  0.84719883  0.41250457  1
  C  C139  1  0.51206169  0.83208459  0.40906057  1
  C  C140  1  0.40147450  0.96896604  0.41301674  1
  C  C141  1  0.89764227  0.97691887  0.40832231  1
  C  C142  1  0.08790929  0.20758414  0.40779611  1
  C  C143  1  0.58423723  0.19608572  0.41331211  1
  C  C144  1  0.01027390  0.19879895  0.90764267  1
  C  C145  1  0.51479974  0.18190348  0.91208732  1
  C  C146  1  0.08576232  0.96758526  0.90817674  1
  C  C147  1  0.58501139  0.96839873  0.91009802  1
  C  C148  1  0.40361300  0.82332386  0.91170502  1
  C  C149  1  0.90109967  0.82476595  0.90760053  1
  C  C150  1  0.48551846  0.17046168  0.58866094  1
  C  C151  1  0.98973416  0.16473366  0.58935486  1
  C  C152  1  0.09538056  0.01688496  0.58788252  1
  C  C153  1  0.59712987  0.02592414  0.58870376  1
  C  C154  1  0.41164987  0.80522426  0.58820527  1
  C  C155  1  0.91757731  0.81274771  0.58871902  1
  C  C156  1  0.49005923  0.81566178  0.08937827  1
  C  C157  1  0.99065826  0.80820649  0.08945074  1
  C  C158  1  0.41228301  0.01117797  0.08591774  1
  C  C159  1  0.91209807  0.01620787  0.08907854  1
  C  C160  1  0.09647817  0.17507357  0.08918007  1
  C  C161  1  0.59688928  0.16773516  0.08501180  1
  C  C162  1  0.34628188  0.16033206  0.74077257  1
  C  C163  1  0.84102732  0.15553382  0.74549489  1
  C  C164  1  0.23520684  0.30739376  0.74298641  1
  C  C165  1  0.73581955  0.30962265  0.74296692  1
  C  C166  1  0.42243618  0.53459766  0.74408843  1
  C  C167  1  0.91775701  0.52765368  0.74406365  1
  C  C168  1  0.33671612  0.52638607  0.24347207  1
  C  C169  1  0.84466794  0.53073670  0.24201213  1
  C  C170  1  0.41143126  0.31537088  0.24579744  1
  C  C171  1  0.92209629  0.31228472  0.24317390  1
  C  C172  1  0.23152248  0.16167163  0.24162840  1
  C  C173  1  0.73557221  0.16293368  0.24230655  1
  C  C174  1  0.31714941  0.50432580  0.92309499  1
  C  C175  1  0.82083572  0.50612866  0.92463243  1
  C  C176  1  0.42185317  0.35469072  0.92076805  1
  C  C177  1  0.93142373  0.35888419  0.92328768  1
  C  C178  1  0.24431237  0.13254706  0.92358572  1
  C  C179  1  0.74507621  0.14214265  0.92341529  1
  C  C180  1  0.32486331  0.13757549  0.42371825  1
  C  C181  1  0.81325679  0.12619327  0.42257506  1
  C  C182  1  0.24774663  0.35261203  0.42307361  1
  C  C183  1  0.74314330  0.34750323  0.42504690  1
  C  C184  1  0.42967726  0.51212370  0.42202244  1
  C  C185  1  0.92145689  0.48593286  0.42260233  1
  C  C186  1  0.17700258  0.49446265  0.07656039  1
  C  C187  1  0.67973149  0.49255305  0.08071543  1
  C  C188  1  0.07041084  0.64872918  0.07806647  1
  C  C189  1  0.57144536  0.65919529  0.07855121  1
  C  C190  1  0.25245100  0.85573289  0.07620786  1
  C  C191  1  0.75226206  0.85708459  0.07653881  1
  C  C192  1  0.18067397  0.86424521  0.58042256  1
  C  C193  1  0.67647888  0.86663764  0.57622874  1
  C  C194  1  0.25214265  0.64810574  0.57633397  1
  C  C195  1  0.75747734  0.65153323  0.57662492  1
  C  C196  1  0.07159313  0.48394448  0.58029736  1
  C  C197  1  0.56688075  0.48904864  0.57580867  1
  C  C198  1  0.15819122  0.84404335  0.25471982  1
  C  C199  1  0.65894357  0.84534138  0.25732643  1
  C  C200  1  0.26401554  0.69843230  0.25947215  1
  C  C201  1  0.76812305  0.69646780  0.25583892  1
  C  C202  1  0.08339774  0.46643225  0.25328446  1
  C  C203  1  0.58903723  0.48443515  0.25848420  1
  C  C204  1  0.15576254  0.46604149  0.75876850  1
  C  C205  1  0.65579598  0.46851339  0.75519285  1
  C  C206  1  0.07697746  0.68912363  0.75896076  1
  C  C207  1  0.58349599  0.70519009  0.75564457  1
  C  C208  1  0.26772103  0.84103087  0.75761738  1
  C  C209  1  0.76187105  0.83557079  0.75761338  1
