# generated using pymatgen
data_Cu(NiC3)2
_symmetry_space_group_name_H-M   'P 1'
_cell_length_a   5.41913557
_cell_length_b   5.41913557
_cell_length_c   7.78275917
_cell_angle_alpha   73.35869053
_cell_angle_beta   73.35869053
_cell_angle_gamma   98.99772028
_symmetry_Int_Tables_number   1
_chemical_formula_structural   Cu(NiC3)2
_chemical_formula_sum   'Cu2 Ni4 C12'
_cell_volume   202.61268847
_cell_formula_units_Z   2
loop_
 _symmetry_equiv_pos_site_id
 _symmetry_equiv_pos_as_xyz
  1  'x, y, z'
loop_
 _atom_site_type_symbol
 _atom_site_label
 _atom_site_symmetry_multiplicity
 _atom_site_fract_x
 _atom_site_fract_y
 _atom_site_fract_z
 _atom_site_occupancy
  C  C0  1  0.50000000  0.00000000  0.00000000  1
  C  C1  1  0.00000000  0.50000000  0.50000000  1
  Ni  Ni2  1  0.96777300  0.86701900  0.20412200  1
  Ni  Ni3  1  0.13298100  0.03222700  0.29587800  1
  Ni  Ni4  1  0.03222700  0.13298100  0.79587800  1
  Ni  Ni5  1  0.86701900  0.96777300  0.70412200  1
  Cu  Cu6  1  0.41542500  0.58457500  0.75000000  1
  Cu  Cu7  1  0.58457500  0.41542500  0.25000000  1
  C  C8  1  0.28168400  0.67990600  0.58325300  1
  C  C9  1  0.32009400  0.71831600  0.91674700  1
  C  C10  1  0.71831600  0.32009400  0.41674700  1
  C  C11  1  0.67990600  0.28168400  0.08325300  1
  C  C12  1  0.31554500  0.24994600  0.84912100  1
  C  C13  1  0.75005400  0.68445500  0.65087900  1
  C  C14  1  0.68445500  0.75005400  0.15087900  1
  C  C15  1  0.24994600  0.31554500  0.34912100  1
  C  C16  1  0.87723300  0.12276700  0.75000000  1
  C  C17  1  0.12276700  0.87723300  0.25000000  1
