# generated using pymatgen
data_Cu3Ni2C3
_symmetry_space_group_name_H-M   'P 1'
_cell_length_a   8.05881427
_cell_length_b   8.05881427
_cell_length_c   8.05881479
_cell_angle_alpha   89.92498857
_cell_angle_beta   89.92498857
_cell_angle_gamma   89.92499239
_symmetry_Int_Tables_number   1
_chemical_formula_structural   Cu3Ni2C3
_chemical_formula_sum   'Cu12 Ni8 C12'
_cell_volume   523.37425222
_cell_formula_units_Z   4
loop_
 _symmetry_equiv_pos_site_id
 _symmetry_equiv_pos_as_xyz
  1  'x, y, z'
loop_
 _atom_site_type_symbol
 _atom_site_label
 _atom_site_symmetry_multiplicity
 _atom_site_fract_x
 _atom_site_fract_y
 _atom_site_fract_z
 _atom_site_occupancy
  Ni  Ni0  1  0.25896400  0.25348500  0.75593000  1
  Ni  Ni1  1  0.74103600  0.74651500  0.24407000  1
  Ni  Ni2  1  0.75593000  0.25896400  0.25348500  1
  Ni  Ni3  1  0.24407000  0.74103600  0.74651500  1
  Ni  Ni4  1  0.25348500  0.75593000  0.25896400  1
  Ni  Ni5  1  0.75620900  0.75620900  0.75620900  1
  Ni  Ni6  1  0.74651500  0.24407000  0.74103600  1
  Ni  Ni7  1  0.24379100  0.24379100  0.24379100  1
  Cu  Cu8  1  0.99838700  0.33421700  0.84815700  1
  Cu  Cu9  1  0.00161300  0.66578300  0.15184300  1
  Cu  Cu10  1  0.50046400  0.16536100  0.34860000  1
  Cu  Cu11  1  0.34860000  0.50046400  0.16536100  1
  Cu  Cu12  1  0.16536100  0.34860000  0.50046400  1
  Cu  Cu13  1  0.84815700  0.99838700  0.33421700  1
  Cu  Cu14  1  0.49953600  0.83463900  0.65140000  1
  Cu  Cu15  1  0.65140000  0.49953600  0.83463900  1
  Cu  Cu16  1  0.66578300  0.15184300  0.00161300  1
  Cu  Cu17  1  0.33421700  0.84815700  0.99838700  1
  Cu  Cu18  1  0.15184300  0.00161300  0.66578300  1
  Cu  Cu19  1  0.83463900  0.65140000  0.49953600  1
  C  C20  1  0.99662100  0.65422600  0.85174200  1
  C  C21  1  0.35116800  0.50006300  0.84465100  1
  C  C22  1  0.34577400  0.14825800  0.00337900  1
  C  C23  1  0.85174200  0.99662100  0.65422600  1
  C  C24  1  0.65422600  0.85174200  0.99662100  1
  C  C25  1  0.64883200  0.49993700  0.15534900  1
  C  C26  1  0.15534900  0.64883200  0.49993700  1
  C  C27  1  0.50006300  0.84465100  0.35116800  1
  C  C28  1  0.49993700  0.15534900  0.64883200  1
  C  C29  1  0.14825800  0.00337900  0.34577400  1
  C  C30  1  0.84465100  0.35116800  0.50006300  1
  C  C31  1  0.00337900  0.34577400  0.14825800  1
