# generated using pymatgen
data_Cu2NiC14
_symmetry_space_group_name_H-M   'P 1'
_cell_length_a   8.38831879
_cell_length_b   8.41765570
_cell_length_c   21.76977145
_cell_angle_alpha   89.83942113
_cell_angle_beta   89.81686166
_cell_angle_gamma   120.01973326
_symmetry_Int_Tables_number   1
_chemical_formula_structural   Cu2NiC14
_chemical_formula_sum   'Cu12 Ni6 C84'
_cell_volume   1330.93352314
_cell_formula_units_Z   6
loop_
 _symmetry_equiv_pos_site_id
 _symmetry_equiv_pos_as_xyz
  1  'x, y, z'
loop_
 _atom_site_type_symbol
 _atom_site_label
 _atom_site_symmetry_multiplicity
 _atom_site_fract_x
 _atom_site_fract_y
 _atom_site_fract_z
 _atom_site_occupancy
  C  C0  1  0.99219736  0.00075646  0.35710076  1
  C  C1  1  0.67594633  0.33635959  0.68727753  1
  C  C2  1  0.66162599  0.33420477  0.18370378  1
  C  C3  1  0.00226312  0.00124002  0.86159560  1
  C  C4  1  0.99807533  0.00597073  0.64525022  1
  C  C5  1  0.00806516  0.00769790  0.14569163  1
  C  C6  1  0.65621284  0.32983302  0.97723713  1
  C  C7  1  0.67192540  0.32165440  0.47880402  1
  C  C8  1  0.33304337  0.66026449  0.01774306  1
  C  C9  1  0.33346286  0.66384916  0.51939447  1
  C  C10  1  0.34092051  0.67570232  0.31070380  1
  C  C11  1  0.33148636  0.66581740  0.81818842  1
  Ni  Ni12  1  0.96288815  0.33624039  0.58332659  1
  Ni  Ni13  1  0.37431054  0.33582773  0.08273598  1
  Ni  Ni14  1  0.62025952  0.66477396  0.91627534  1
  Ni  Ni15  1  0.04060380  0.37898897  0.91702757  1
  Ni  Ni16  1  0.33561842  0.95297761  0.91711417  1
  Ni  Ni17  1  0.61487102  0.95273247  0.41795983  1
  Cu  Cu18  1  0.28819348  -0.00435797  0.25172066  1
  Cu  Cu19  1  0.70956432  0.71146961  0.25034680  1
  Cu  Cu20  1  0.00508570  0.29785082  0.25127784  1
  Cu  Cu21  1  0.28483641  0.29092080  0.75186605  1
  Cu  Cu22  1  0.00703991  0.71970200  0.75183502  1
  Cu  Cu23  1  0.70881383  -0.00788718  0.75258008  1
  Cu  Cu24  1  0.37119546  0.03775215  0.58355459  1
  Cu  Cu25  1  0.66681402  0.62583685  0.58276515  1
  Cu  Cu26  1  0.96236348  0.62836610  0.08248862  1
  Cu  Cu27  1  0.66510653  0.03680094  0.08266549  1
  Cu  Cu28  1  0.34248699  0.38168196  0.41816311  1
  Cu  Cu29  1  0.04338112  0.66109818  0.41765804  1
  C  C30  1  0.20508452  0.02127018  0.30642920  1
  C  C31  1  0.81657214  0.79237643  0.30514424  1
  C  C32  1  0.97625526  0.18869275  0.30607492  1
  C  C33  1  0.19827133  0.17117571  0.80648052  1
  C  C34  1  0.97609623  0.80709277  0.80631481  1
  C  C35  1  0.82933892  0.02489657  0.80625448  1
  C  C36  1  0.78662697  0.95190702  0.69489649  1
  C  C37  1  0.16639842  0.21258906  0.69488546  1
  C  C38  1  0.04608147  0.83755756  0.69418279  1
  C  C39  1  0.78913022  0.83317460  0.19317272  1
  C  C40  1  0.04831191  0.21973434  0.19430381  1
  C  C41  1  0.16865179  0.95520100  0.19448312  1
  C  C42  1  0.89023772  0.37886729  0.64002301  1
  C  C43  1  0.48140305  0.11199458  0.63817826  1
  C  C44  1  0.62670776  0.51466935  0.63779180  1
  C  C45  1  0.89197430  0.51759982  0.13735322  1
  C  C46  1  0.62985786  0.10962554  0.13768979  1
  C  C47  1  0.48807673  0.37675664  0.13944464  1
  C  C48  1  0.45677983  0.29191427  0.02453657  1
  C  C49  1  0.84485753  0.54880314  0.02662456  1
  C  C50  1  0.70817726  0.15753540  0.02681153  1
  C  C51  1  0.44843971  0.15904096  0.52761613  1
  C  C52  1  0.70426702  0.54671473  0.52674025  1
  C  C53  1  0.83748590  0.29228262  0.52510951  1
  C  C54  1  0.54029090  0.71051393  0.97229759  1
  C  C55  1  0.16708545  0.45988185  0.97243053  1
  C  C56  1  0.29254753  0.82809506  0.97332399  1
  C  C57  1  0.52541947  0.83281403  0.47620910  1
  C  C58  1  0.30443486  0.46199307  0.47393497  1
  C  C59  1  0.15662254  0.69062321  0.47387432  1
  C  C60  1  0.12043854  0.61704697  0.36249128  1
  C  C61  1  0.48727674  0.86949109  0.36068060  1
  C  C62  1  0.38082897  0.50027286  0.36260091  1
  C  C63  1  0.11878584  0.50034410  0.85783725  1
  C  C64  1  0.37762407  0.87534922  0.85802209  1
  C  C65  1  0.49796848  0.62122944  0.85789055  1
  C  C66  1  0.02764019  0.82284606  0.41256127  1
  C  C67  1  0.80069336  0.97253523  0.41437280  1
  C  C68  1  0.18417508  0.20114036  0.41313703  1
  C  C69  1  0.02462221  0.19033839  0.90748593  1
  C  C70  1  0.16317087  0.97110239  0.90857769  1
  C  C71  1  0.80980825  0.83732271  0.90725365  1
  C  C72  1  0.98106454  0.16088517  0.59005707  1
  C  C73  1  0.18373066  0.01806145  0.58936601  1
  C  C74  1  0.83664420  0.81147535  0.58885105  1
  C  C75  1  0.97704182  0.81289037  0.08893596  1
  C  C76  1  0.83281375  0.01663311  0.08857793  1
  C  C77  1  0.18010115  0.15953624  0.08932762  1
  C  C78  1  0.68927323  0.15225152  0.74638956  1
  C  C79  1  0.46406902  0.30810744  0.74479056  1
  C  C80  1  0.84391486  0.54146449  0.74665514  1
  C  C81  1  0.68487517  0.53071027  0.24286056  1
  C  C82  1  0.84908725  0.32293072  0.24158274  1
  C  C83  1  0.47165380  0.14949864  0.24379863  1
  C  C84  1  0.64158369  0.49638188  0.92489336  1
  C  C85  1  0.85182897  0.35978248  0.92732476  1
  C  C86  1  0.50699233  0.14123823  0.92474963  1
  C  C87  1  0.61810487  0.13896046  0.42492340  1
  C  C88  1  0.51760911  0.37860565  0.42669971  1
  C  C89  1  0.85894005  0.49114898  0.42450927  1
  C  C90  1  0.35017513  0.50392882  0.07165076  1
  C  C91  1  0.14960164  0.65368393  0.07298927  1
  C  C92  1  0.50006460  0.85371821  0.07292298  1
  C  C93  1  0.34834170  0.85350858  0.57379963  1
  C  C94  1  0.50491274  0.65107426  0.57417751  1
  C  C95  1  0.15600390  0.50320804  0.57121260  1
  C  C96  1  0.29333602  0.81767538  0.25505224  1
  C  C97  1  0.52320640  0.70125559  0.25425352  1
  C  C98  1  0.18149405  0.48214319  0.25691811  1
  C  C99  1  0.29306292  0.47137642  0.75792871  1
  C  C100  1  0.17960421  0.71011932  0.75710213  1
  C  C101  1  0.52769369  0.81920786  0.75812486  1
