# generated using pymatgen
data_Cu2Ni3C32
_symmetry_space_group_name_H-M   'P 1'
_cell_length_a   9.07634919
_cell_length_b   9.07330039
_cell_length_c   22.92862232
_cell_angle_alpha   89.93892370
_cell_angle_beta   90.13947175
_cell_angle_gamma   120.09215485
_symmetry_Int_Tables_number   1
_chemical_formula_structural   Cu2Ni3C32
_chemical_formula_sum   'Cu6 Ni9 C96'
_cell_volume   1633.72796346
_cell_formula_units_Z   3
loop_
 _symmetry_equiv_pos_site_id
 _symmetry_equiv_pos_as_xyz
  1  'x, y, z'
loop_
 _atom_site_type_symbol
 _atom_site_label
 _atom_site_symmetry_multiplicity
 _atom_site_fract_x
 _atom_site_fract_y
 _atom_site_fract_z
 _atom_site_occupancy
  Ni  Ni0  1  0.34679164  0.98858474  0.75207812  1
  Ni  Ni1  1  0.67525031  0.98353711  0.58803479  1
  Ni  Ni2  1  0.68586970  0.69720353  0.08156194  1
  Ni  Ni3  1  0.02782116  0.00029012  0.50294015  1
  Ni  Ni4  1  0.01965671  0.00597267  0.00258572  1
  Ni  Ni5  1  0.68104056  0.35126714  0.83722290  1
  Ni  Ni6  1  0.66318946  0.33113489  0.33583353  1
  Ni  Ni7  1  0.32074739  0.66647396  0.17110711  1
  Ni  Ni8  1  0.33036915  0.64498360  0.67064990  1
  Cu  Cu9  1  0.00045682  0.99663598  0.64657515  1
  Cu  Cu10  1  0.00879159  0.00832993  0.14762880  1
  Cu  Cu11  1  0.66733524  0.32994240  0.97846797  1
  Cu  Cu12  1  0.66341468  0.33494339  0.47714405  1
  Cu  Cu13  1  0.33534829  0.66765244  0.31175321  1
  Cu  Cu14  1  0.33756404  0.66304394  0.81407036  1
  C  C15  1  0.00026852  0.99990008  0.35242508  1
  C  C16  1  0.99264449  0.99915741  0.85259249  1
  C  C17  1  0.66852372  0.33286038  0.68521089  1
  C  C18  1  0.67070251  0.33393663  0.18669711  1
  C  C19  1  0.32682191  0.66715235  0.01869074  1
  C  C20  1  0.33127126  0.66634803  0.51850494  1
  C  C21  1  0.70885036  0.01189482  0.74616767  1
  C  C22  1  0.37220121  0.03121906  0.58161300  1
  C  C23  1  0.96380924  0.62154698  0.08291343  1
  C  C24  1  0.30272545  0.01736650  0.25079972  1
  C  C25  1  0.71573135  0.69908913  0.24792360  1
  C  C26  1  0.98214508  0.28582956  0.25074770  1
  C  C27  1  0.30005840  0.28583785  0.75032796  1
  C  C28  1  0.98449713  0.70000928  0.75238461  1
  C  C29  1  0.96467951  0.34954707  0.58260997  1
  C  C30  1  0.65044879  0.61716718  0.58248497  1
  C  C31  1  0.65027115  0.03226485  0.08436038  1
  C  C32  1  0.38265743  0.34820421  0.08270832  1
  C  C33  1  0.63753839  0.68187679  0.91817872  1
  C  C34  1  0.04858918  0.36392219  0.91609810  1
  C  C35  1  0.31539735  0.95182850  0.91400826  1
  C  C36  1  0.63670078  0.95174477  0.41657930  1
  C  C37  1  0.31575217  0.36574611  0.41519541  1
  C  C38  1  0.05047188  0.68381815  0.41522606  1
  C  C39  1  0.19946654  0.03281157  0.30506606  1
  C  C40  1  0.83678169  0.80398973  0.30159947  1
  C  C41  1  0.96750228  0.16746312  0.30489541  1
  C  C42  1  0.20363232  0.16550030  0.80469464  1
  C  C43  1  0.96749151  0.80022371  0.80687583  1
  C  C44  1  0.83762247  0.02545179  0.80339165  1
  C  C45  1  0.77965506  0.98545511  0.68622801  1
  C  C46  1  0.19945460  0.20386143  0.69580955  1
  C  C47  1  0.02588570  0.81365580  0.69909701  1
  C  C48  1  0.78951550  0.79455707  0.19160138  1
  C  C49  1  0.00491337  0.20963183  0.19578635  1
  C  C50  1  0.20008936  0.99115339  0.19607200  1
  C  C51  1  0.87006491  0.37321402  0.63795114  1
  C  C52  1  0.50039213  0.13644263  0.64136288  1
  C  C53  1  0.63616301  0.50635412  0.63815425  1
  C  C54  1  0.86127474  0.49363249  0.14153674  1
  C  C55  1  0.62984512  0.12802304  0.13934347  1
  C  C56  1  0.50182718  0.36857464  0.13744667  1
  C  C57  1  0.45754180  0.31936533  0.02853533  1
  C  C58  1  0.84328015  0.53781818  0.02840245  1
  C  C59  1  0.67925897  0.13566146  0.02982661  1
  C  C60  1  0.47212664  0.14065066  0.52703543  1
  C  C61  1  0.68329295  0.54486180  0.52840842  1
  C  C62  1  0.85624906  0.32050934  0.52957834  1
  C  C63  1  0.54466758  0.69942352  0.97428578  1
  C  C64  1  0.16759402  0.46623097  0.97075383  1
  C  C65  1  0.30491436  0.83020049  0.96767960  1
  C  C66  1  0.54017068  0.83638855  0.47284389  1
  C  C67  1  0.29889186  0.46406770  0.47023984  1
  C  C68  1  0.16832150  0.70076278  0.47061903  1
  C  C69  1  0.13126437  0.66159249  0.36165166  1
  C  C70  1  0.52898454  0.86894269  0.36368083  1
  C  C71  1  0.33604309  0.46691252  0.36102936  1
  C  C72  1  0.12512025  0.46643007  0.86186244  1
  C  C73  1  0.33567088  0.87695007  0.85788102  1
  C  C74  1  0.53473041  0.66530140  0.86442364  1
  C  C75  1  0.04616161  0.85572431  0.41027309  1
  C  C76  1  0.81126191  0.95312467  0.40959030  1
  C  C77  1  0.14439566  0.18761067  0.41004896  1
  C  C78  1  0.04707744  0.18952391  0.91099810  1
  C  C79  1  0.14471184  0.95484874  0.91268559  1
  C  C80  1  0.81493433  0.85405905  0.91184665  1
  C  C81  1  0.98597438  0.19451363  0.59080242  1
  C  C82  1  0.18062968  0.99037296  0.58536876  1
  C  C83  1  0.79023259  0.80347901  0.58883333  1
  C  C84  1  0.99054627  0.80970786  0.08919460  1
  C  C85  1  0.79316156  0.99179395  0.09203689  1
  C  C86  1  0.19918946  0.20816771  0.08993305  1
  C  C87  1  0.70926073  0.19721152  0.74205227  1
  C  C88  1  0.47605155  0.28994973  0.74598336  1
  C  C89  1  0.81436959  0.52944474  0.74529925  1
  C  C90  1  0.70945501  0.52202014  0.24472034  1
  C  C91  1  0.80796224  0.28591155  0.24610594  1
  C  C92  1  0.47633030  0.18926562  0.24608376  1
  C  C93  1  0.66917592  0.53291809  0.92096736  1
  C  C94  1  0.86732260  0.32658273  0.92337735  1
  C  C95  1  0.46529628  0.13004823  0.92180377  1
  C  C96  1  0.67498650  0.13392485  0.42246519  1
  C  C97  1  0.46322207  0.33253617  0.42060235  1
  C  C98  1  0.87023848  0.53779608  0.42212256  1
  C  C99  1  0.38705715  0.52532533  0.07735799  1
  C  C100  1  0.15071766  0.62986318  0.07328979  1
  C  C101  1  0.48009954  0.85460747  0.07709233  1
  C  C102  1  0.37487315  0.84601084  0.57539686  1
  C  C103  1  0.47687173  0.61801526  0.57626493  1
  C  C104  1  0.14262855  0.51478717  0.57641175  1
  C  C105  1  0.33573107  0.86993267  0.25717947  1
  C  C106  1  0.53576815  0.66728943  0.25534486  1
  C  C107  1  0.12704339  0.46786937  0.25702426  1
  C  C108  1  0.33242416  0.46608831  0.75585204  1
  C  C109  1  0.13442722  0.67099438  0.76037497  1
  C  C110  1  0.51293967  0.86501723  0.75412934  1
