# generated using pymatgen
data_Cu2NiC8
_symmetry_space_group_name_H-M   'P 1'
_cell_length_a   4.76938352
_cell_length_b   7.90140232
_cell_length_c   4.75105139
_cell_angle_alpha   75.94170594
_cell_angle_beta   90.00966083
_cell_angle_gamma   72.24106198
_symmetry_Int_Tables_number   1
_chemical_formula_structural   Cu2NiC8
_chemical_formula_sum   'Cu2 Ni1 C8'
_cell_volume   164.86863354
_cell_formula_units_Z   1
loop_
 _symmetry_equiv_pos_site_id
 _symmetry_equiv_pos_as_xyz
  1  'x, y, z'
loop_
 _atom_site_type_symbol
 _atom_site_label
 _atom_site_symmetry_multiplicity
 _atom_site_fract_x
 _atom_site_fract_y
 _atom_site_fract_z
 _atom_site_occupancy
  Ni  Ni0  1  0.28909100  0.99902600  0.24834400  1
  Cu  Cu1  1  0.02188400  0.40447000  0.01467000  1
  Cu  Cu2  1  0.42613300  0.59412900  0.48427300  1
  C  C3  1  0.18172800  0.57867400  0.73858700  1
  C  C4  1  0.76195800  0.41986400  0.76019300  1
  C  C5  1  0.34606300  0.19326300  0.94851200  1
  C  C6  1  0.33086900  0.41689100  0.30264300  1
  C  C7  1  0.17747600  0.80095700  0.17068900  1
  C  C8  1  0.53813600  0.80471100  0.55084200  1
  C  C9  1  0.74755900  0.58190000  0.19595900  1
  C  C10  1  0.98110500  0.19817500  0.32810100  1
