# generated using pymatgen
data_Cu9(NiC26)2
_symmetry_space_group_name_H-M   'P 1'
_cell_length_a   9.14708036
_cell_length_b   9.14708004
_cell_length_c   22.39334827
_cell_angle_alpha   90.00000000
_cell_angle_beta   90.00000000
_cell_angle_gamma   120.00000117
_symmetry_Int_Tables_number   1
_chemical_formula_structural   Cu9(NiC26)2
_chemical_formula_sum   'Cu18 Ni4 C104'
_cell_volume   1622.61181811
_cell_formula_units_Z   2
loop_
 _symmetry_equiv_pos_site_id
 _symmetry_equiv_pos_as_xyz
  1  'x, y, z'
loop_
 _atom_site_type_symbol
 _atom_site_label
 _atom_site_symmetry_multiplicity
 _atom_site_fract_x
 _atom_site_fract_y
 _atom_site_fract_z
 _atom_site_occupancy
  C  C0  1  0.64143731  0.02351448  0.24544987  1
  C  C1  1  0.38207717  0.35856269  0.24544987  1
  C  C2  1  0.97648552  0.61792283  0.24544987  1
  C  C3  1  0.64143731  0.61792283  0.74544987  1
  C  C4  1  0.97648552  0.35856269  0.74544987  1
  C  C5  1  0.38207717  0.02351448  0.74544987  1
  C  C6  1  0.31134196  0.33537777  0.58778387  1
  C  C7  1  0.02403682  0.68865804  0.58778387  1
  C  C8  1  0.66462223  0.97596318  0.58778387  1
  C  C9  1  0.31134196  0.97596318  0.08778387  1
  C  C10  1  0.66462223  0.68865804  0.08778387  1
  C  C11  1  0.02403682  0.33537777  0.08778387  1
  C  C12  1  0.96467195  0.68694569  0.90723540  1
  C  C13  1  0.72227274  0.03532805  0.90723540  1
  C  C14  1  0.31305431  0.27772726  0.90723540  1
  C  C15  1  0.96467195  0.27772726  0.40723540  1
  C  C16  1  0.31305431  0.03532805  0.40723540  1
  C  C17  1  0.72227274  0.68694569  0.40723540  1
  C  C18  1  0.00000000  -0.00000000  0.49197644  1
  C  C19  1  0.00000000  -0.00000000  0.99197644  1
  C  C20  1  0.66666700  0.33333300  0.82148077  1
  C  C21  1  0.66666700  0.33333300  0.32148077  1
  C  C22  1  0.33333300  0.66666700  0.16796310  1
  C  C23  1  0.33333300  0.66666700  0.66796310  1
  C  C24  1  0.00000000  -0.00000000  0.64900414  1
  C  C25  1  0.00000000  -0.00000000  0.14900414  1
  C  C26  1  0.66666700  0.33333300  0.97946943  1
  C  C27  1  0.66666700  0.33333300  0.47946943  1
  C  C28  1  0.33333300  0.66666700  0.01942222  1
  C  C29  1  0.33333300  0.66666700  0.51942222  1
  C  C30  1  0.33333300  0.66666700  0.31119874  1
  C  C31  1  0.33333300  0.66666700  0.81119874  1
  Ni  Ni32  1  0.00000000  -0.00000000  0.34838049  1
  Ni  Ni33  1  0.00000000  -0.00000000  0.84838049  1
  Ni  Ni34  1  0.66666700  0.33333300  0.68292107  1
  Ni  Ni35  1  0.66666700  0.33333300  0.18292107  1
  Cu  Cu36  1  0.29222377  0.00036232  0.25368933  1
  Cu  Cu37  1  0.70813855  0.70777623  0.25368933  1
  Cu  Cu38  1  -0.00036232  0.29186145  0.25368933  1
  Cu  Cu39  1  0.29222377  0.29186145  0.75368933  1
  Cu  Cu40  1  -0.00036232  0.70777623  0.75368933  1
  Cu  Cu41  1  0.70813855  0.00036232  0.75368933  1
  Cu  Cu42  1  0.95911959  0.33314189  0.58496615  1
  Cu  Cu43  1  0.37402330  0.04088041  0.58496615  1
  Cu  Cu44  1  0.66685811  0.62597670  0.58496615  1
  Cu  Cu45  1  0.95911959  0.62597670  0.08496615  1
  Cu  Cu46  1  0.66685811  0.04088041  0.08496615  1
  Cu  Cu47  1  0.37402330  0.33314189  0.08496615  1
  Cu  Cu48  1  0.62155423  0.66189915  0.91673223  1
  Cu  Cu49  1  0.04034392  0.37844577  0.91673223  1
  Cu  Cu50  1  0.33810085  0.95965608  0.91673223  1
  Cu  Cu51  1  0.62155423  0.95965608  0.41673223  1
  Cu  Cu52  1  0.33810085  0.37844577  0.41673223  1
  Cu  Cu53  1  0.04034392  0.66189915  0.41673223  1
  C  C54  1  0.21168512  0.02938119  0.31247247  1
  C  C55  1  0.81769608  0.78831488  0.31247247  1
  C  C56  1  0.97061881  0.18230392  0.31247247  1
  C  C57  1  0.21168512  0.18230392  0.81247247  1
  C  C58  1  0.97061881  0.78831488  0.81247247  1
  C  C59  1  0.81769608  0.02938119  0.81247247  1
  C  C60  1  0.80452968  0.97061937  0.69324813  1
  C  C61  1  0.16608969  0.19547032  0.69324813  1
  C  C62  1  0.02938063  0.83391031  0.69324813  1
  C  C63  1  0.80452968  0.83391031  0.19324813  1
  C  C64  1  0.02938063  0.19547032  0.19324813  1
  C  C65  1  0.16608969  0.97061937  0.19324813  1
  C  C66  1  0.89080280  0.38144852  0.64260429  1
  C  C67  1  0.49064672  0.10919720  0.64260429  1
  C  C68  1  0.61855148  0.50935328  0.64260429  1
  C  C69  1  0.89080280  0.50935328  0.14260429  1
  C  C70  1  0.61855148  0.10919720  0.14260429  1
  C  C71  1  0.49064672  0.38144852  0.14260429  1
  C  C72  1  0.46962258  0.30326724  0.02614792  1
  C  C73  1  0.83364566  0.53037742  0.02614792  1
  C  C74  1  0.69673276  0.16635434  0.02614792  1
  C  C75  1  0.46962258  0.16635434  0.52614792  1
  C  C76  1  0.69673276  0.53037742  0.52614792  1
  C  C77  1  0.83364566  0.30326724  0.52614792  1
  C  C78  1  0.51733412  0.67479784  0.97484021  1
  C  C79  1  0.15746272  0.48266588  0.97484021  1
  C  C80  1  0.32520216  0.84253728  0.97484021  1
  C  C81  1  0.51733412  0.84253728  0.47484021  1
  C  C82  1  0.32520216  0.48266588  0.47484021  1
  C  C83  1  0.15746272  0.67479784  0.47484021  1
  C  C84  1  0.13564508  0.63285038  0.35867658  1
  C  C85  1  0.49720430  0.86435492  0.35867658  1
  C  C86  1  0.36714962  0.50279570  0.35867658  1
  C  C87  1  0.13564508  0.50279570  0.85867658  1
  C  C88  1  0.36714962  0.86435492  0.85867658  1
  C  C89  1  0.49720430  0.63285038  0.85867658  1
  C  C90  1  0.02240337  0.82678735  0.41806235  1
  C  C91  1  0.80438398  0.97759663  0.41806235  1
  C  C92  1  0.17321265  0.19561602  0.41806235  1
  C  C93  1  0.02240337  0.19561602  0.91806235  1
  C  C94  1  0.17321265  0.97759663  0.91806235  1
  C  C95  1  0.80438398  0.82678735  0.91806235  1
  C  C96  1  0.97425239  0.16030688  0.58909537  1
  C  C97  1  0.18605449  0.02574761  0.58909537  1
  C  C98  1  0.83969312  0.81394551  0.58909537  1
  C  C99  1  0.97425239  0.81394551  0.08909537  1
  C  C100  1  0.83969312  0.02574761  0.08909537  1
  C  C101  1  0.18605449  0.16030688  0.08909537  1
  C  C102  1  0.67873869  0.15839554  0.74577773  1
  C  C103  1  0.47965786  0.32126131  0.74577773  1
  C  C104  1  0.84160446  0.52034214  0.74577773  1
  C  C105  1  0.67873869  0.52034214  0.24577773  1
  C  C106  1  0.84160446  0.32126131  0.24577773  1
  C  C107  1  0.47965786  0.15839554  0.24577773  1
  C  C108  1  0.63027713  0.48551784  0.92292310  1
  C  C109  1  0.85524171  0.36972287  0.92292310  1
  C  C110  1  0.51448216  0.14475829  0.92292310  1
  C  C111  1  0.63027713  0.14475829  0.42292310  1
  C  C112  1  0.51448216  0.36972287  0.42292310  1
  C  C113  1  0.85524171  0.48551784  0.42292310  1
  C  C114  1  0.34045183  0.49422048  0.07468356  1
  C  C115  1  0.15376765  0.65954817  0.07468356  1
  C  C116  1  0.50577952  0.84623235  0.07468356  1
  C  C117  1  0.34045183  0.84623235  0.57468356  1
  C  C118  1  0.50577952  0.65954817  0.57468356  1
  C  C119  1  0.15376765  0.49422048  0.57468356  1
  C  C120  1  0.29628738  0.81792390  0.25500595  1
  C  C121  1  0.52163551  0.70371262  0.25500595  1
  C  C122  1  0.18207610  0.47836449  0.25500595  1
  C  C123  1  0.29628738  0.47836449  0.75500595  1
  C  C124  1  0.18207610  0.70371262  0.75500595  1
  C  C125  1  0.52163551  0.81792390  0.75500595  1
