# generated using pymatgen
data_Cu3NiC3
_symmetry_space_group_name_H-M   'P 1'
_cell_length_a   10.87722191
_cell_length_b   10.87722191
_cell_length_c   10.87722191
_cell_angle_alpha   109.47122063
_cell_angle_beta   109.47122063
_cell_angle_gamma   109.47122063
_symmetry_Int_Tables_number   1
_chemical_formula_structural   Cu3NiC3
_chemical_formula_sum   'Cu12 Ni4 C12'
_cell_volume   990.67699048
_cell_formula_units_Z   4
loop_
 _symmetry_equiv_pos_site_id
 _symmetry_equiv_pos_as_xyz
  1  'x, y, z'
loop_
 _atom_site_type_symbol
 _atom_site_label
 _atom_site_symmetry_multiplicity
 _atom_site_fract_x
 _atom_site_fract_y
 _atom_site_fract_z
 _atom_site_occupancy
  C  C0  1  0.26836800  0.01836800  0.03673500  1
  C  C1  1  0.03673500  0.26836800  0.01836800  1
  C  C2  1  0.48163200  0.75000000  0.01836800  1
  C  C3  1  0.75000000  0.23163200  0.26836800  1
  C  C4  1  0.01836800  0.03673500  0.26836800  1
  C  C5  1  0.01836800  0.48163200  0.75000000  1
  C  C6  1  0.23163200  0.26836800  0.75000000  1
  C  C7  1  0.26836800  0.75000000  0.23163200  1
  C  C8  1  0.23163200  0.46326500  0.48163200  1
  C  C9  1  0.46326500  0.48163200  0.23163200  1
  C  C10  1  0.75000000  0.01836800  0.48163200  1
  C  C11  1  0.48163200  0.23163200  0.46326500  1
  Ni  Ni12  1  0.00000000  0.25000000  0.50000000  1
  Ni  Ni13  1  0.25000000  0.50000000  0.00000000  1
  Ni  Ni14  1  0.50000000  0.00000000  0.25000000  1
  Ni  Ni15  1  0.25000000  0.25000000  0.25000000  1
  Cu  Cu16  1  0.75884500  0.74115500  0.25000000  1
  Cu  Cu17  1  0.50884500  0.25000000  0.99115500  1
  Cu  Cu18  1  0.25000000  0.99115500  0.50884500  1
  Cu  Cu19  1  0.51769000  0.50884500  0.75884500  1
  Cu  Cu20  1  0.99115500  0.98231000  0.74115500  1
  Cu  Cu21  1  0.74115500  0.99115500  0.98231000  1
  Cu  Cu22  1  0.50884500  0.75884500  0.51769000  1
  Cu  Cu23  1  0.75884500  0.51769000  0.50884500  1
  Cu  Cu24  1  0.99115500  0.50884500  0.25000000  1
  Cu  Cu25  1  0.98231000  0.74115500  0.99115500  1
  Cu  Cu26  1  0.25000000  0.75884500  0.74115500  1
  Cu  Cu27  1  0.74115500  0.25000000  0.75884500  1
