# generated using pymatgen
data_Cu(NiC9)2
_symmetry_space_group_name_H-M   'P 1'
_cell_length_a   9.46359691
_cell_length_b   9.46550983
_cell_length_c   22.84363687
_cell_angle_alpha   90.31731224
_cell_angle_beta   90.00000000
_cell_angle_gamma   119.99331500
_symmetry_Int_Tables_number   1
_chemical_formula_structural   Cu(NiC9)2
_chemical_formula_sum   'Cu6 Ni12 C108'
_cell_volume   1772.21535898
_cell_formula_units_Z   6
loop_
 _symmetry_equiv_pos_site_id
 _symmetry_equiv_pos_as_xyz
  1  'x, y, z'
loop_
 _atom_site_type_symbol
 _atom_site_label
 _atom_site_symmetry_multiplicity
 _atom_site_fract_x
 _atom_site_fract_y
 _atom_site_fract_z
 _atom_site_occupancy
  C  C0  1  0.65043488  0.02335116  0.25724513  1
  C  C1  1  0.33934759  0.33291227  0.25373508  1
  C  C2  1  0.99978021  0.63871159  0.23739176  1
  C  C3  1  0.63893138  0.63871159  0.73739176  1
  C  C4  1  0.99356469  0.33291227  0.75373508  1
  C  C5  1  0.37291628  0.02335116  0.75724513  1
  C  C6  1  0.31215767  0.35190904  0.58689038  1
  C  C7  1  0.02873524  0.70649523  0.57346545  1
  C  C8  1  0.66406413  0.93972812  0.58069474  1
  C  C9  1  0.27566500  0.93972812  0.08069474  1
  C  C10  1  0.67776099  0.70649523  0.07346545  1
  C  C11  1  0.03975238  0.35190904  0.08689038  1
  C  C12  1  0.00046789  0.70452656  0.91655561  1
  C  C13  1  0.71268259  0.02198890  0.90680083  1
  C  C14  1  0.30369051  0.27900600  0.90780521  1
  C  C15  1  0.97531449  0.27900600  0.40780521  1
  C  C16  1  0.30930531  0.02198890  0.40680083  1
  C  C17  1  0.70405768  0.70452656  0.41655561  1
  C  C18  1  0.98748595  0.98855243  0.49017732  1
  C  C19  1  0.00106648  0.98855243  0.99017732  1
  C  C20  1  0.64700558  0.31404598  0.82354549  1
  C  C21  1  0.66704140  0.31404598  0.32354549  1
  C  C22  1  0.30011470  0.66165069  0.16803329  1
  C  C23  1  0.36153499  0.66165069  0.66803329  1
  C  C24  1  0.00385301  0.00318655  0.34630521  1
  C  C25  1  0.99933355  0.00318655  0.84630521  1
  C  C26  1  0.98814594  0.00381112  0.65413782  1
  C  C27  1  0.01566518  0.00381112  0.15413782  1
  C  C28  1  0.66146671  0.33328325  0.68390780  1
  C  C29  1  0.67181754  0.33328325  0.18390780  1
  C  C30  1  0.33114464  0.66710444  0.01456029  1
  C  C31  1  0.33595881  0.66710444  0.51456029  1
  C  C32  1  0.67981278  0.34536117  0.97294641  1
  C  C33  1  0.66554939  0.34536117  0.47294641  1
  C  C34  1  0.32208905  0.66646108  0.32307720  1
  C  C35  1  0.34437102  0.66646108  0.82307720  1
  Ni  Ni36  1  0.30885103  0.98981585  0.25246994  1
  Ni  Ni37  1  0.00785918  0.31489469  0.25205387  1
  Ni  Ni38  1  0.30703551  0.31489469  0.75205387  1
  Ni  Ni39  1  0.68096482  0.98981585  0.75246994  1
  Ni  Ni40  1  0.67008782  0.63390067  0.58355778  1
  Ni  Ni41  1  0.96381385  0.63390067  0.08355778  1
  Ni  Ni42  1  0.63534172  0.66426644  0.92241297  1
  Ni  Ni43  1  0.03642648  0.37153404  0.91976702  1
  Ni  Ni44  1  0.34003293  0.96880474  0.92172904  1
  Ni  Ni45  1  0.62877081  0.96880474  0.42172904  1
  Ni  Ni46  1  0.33510656  0.37153404  0.41976702  1
  Ni  Ni47  1  0.02892373  0.66426644  0.42241297  1
  Cu  Cu48  1  0.68309668  0.69712332  0.25081604  1
  Cu  Cu49  1  0.01402664  0.69712332  0.75081604  1
  Cu  Cu50  1  0.95475995  0.33229372  0.58054421  1
  Cu  Cu51  1  0.37295072  0.04293420  0.58043089  1
  Cu  Cu52  1  0.66998448  0.04293420  0.08043089  1
  Cu  Cu53  1  0.37753477  0.33229372  0.08054421  1
  C  C54  1  0.22375946  0.01610789  0.30913891  1
  C  C55  1  0.78468550  0.77218977  0.30328007  1
  C  C56  1  0.97268729  0.19774659  0.30753687  1
  C  C57  1  0.22505930  0.19774659  0.80753687  1
  C  C58  1  0.98750427  0.77218977  0.80328007  1
  C  C59  1  0.79234844  0.01610789  0.80913891  1
  C  C60  1  0.74564290  0.94237806  0.69293318  1
  C  C61  1  0.19632589  0.24632123  0.69211462  1
  C  C62  1  0.03352467  0.79628637  0.69781031  1
  C  C63  1  0.76276170  0.79628637  0.19781031  1
  C  C64  1  0.04999534  0.24632123  0.19211462  1
  C  C65  1  0.19673516  0.94237806  0.19293318  1
  C  C66  1  0.87670184  0.34087027  0.63524973  1
  C  C67  1  0.46467479  0.11669891  0.63481743  1
  C  C68  1  0.66089398  0.53519033  0.64140450  1
  C  C69  1  0.87429735  0.53519033  0.14140450  1
  C  C70  1  0.65202511  0.11669891  0.13481743  1
  C  C71  1  0.46416943  0.34087027  0.13524973  1
  C  C72  1  0.47053560  0.32211538  0.02841370  1
  C  C73  1  0.83420611  0.50629548  0.02580910  1
  C  C74  1  0.67644629  0.14413631  0.02831362  1
  C  C75  1  0.46769102  0.14413631  0.52831362  1
  C  C76  1  0.67209037  0.50629548  0.52580910  1
  C  C77  1  0.85158078  0.32211538  0.52841370  1
  C  C78  1  0.56489149  0.69325058  0.98154589  1
  C  C79  1  0.13170243  0.44292284  0.97988118  1
  C  C80  1  0.30974966  0.87001391  0.98127959  1
  C  C81  1  0.56026325  0.87001391  0.48127959  1
  C  C82  1  0.31121941  0.44292284  0.47988118  1
  C  C83  1  0.12835808  0.69325058  0.48154589  1
  C  C84  1  0.13714670  0.63994196  0.36702065  1
  C  C85  1  0.49803568  0.86252784  0.36591516  1
  C  C86  1  0.36605101  0.50215394  0.36420411  1
  C  C87  1  0.13610193  0.50215394  0.86420411  1
  C  C88  1  0.36449116  0.86252784  0.86591516  1
  C  C89  1  0.50279426  0.63994196  0.86702065  1
  C  C90  1  0.98386793  0.80295877  0.41021938  1
  C  C91  1  0.80930914  0.99798377  0.41047780  1
  C  C92  1  0.19038421  0.18713441  0.41103051  1
  C  C93  1  0.99675020  0.18713441  0.91103051  1
  C  C94  1  0.18867463  0.99798377  0.91047780  1
  C  C95  1  0.81909085  0.80295877  0.91021938  1
  C  C96  1  0.96920605  0.18227405  0.57880872  1
  C  C97  1  0.21217529  0.03704731  0.58058517  1
  C  C98  1  0.84094911  0.80621307  0.57395793  1
  C  C99  1  0.96526396  0.80621307  0.07395793  1
  C  C100  1  0.82487202  0.03704731  0.08058517  1
  C  C101  1  0.21306800  0.18227405  0.07880872  1
  C  C102  1  0.65544301  0.14810402  0.74844149  1
  C  C103  1  0.49662318  0.35638809  0.75004017  1
  C  C104  1  0.87348941  0.52741383  0.74555980  1
  C  C105  1  0.65392542  0.52741383  0.24555980  1
  C  C106  1  0.85976591  0.35638809  0.25004017  1
  C  C107  1  0.49266201  0.14810402  0.24844149  1
  C  C108  1  0.62814600  0.48000159  0.92383146  1
  C  C109  1  0.85053870  0.36564427  0.92131131  1
  C  C110  1  0.51752180  0.14961683  0.92476007  1
  C  C111  1  0.63209603  0.14961683  0.42476007  1
  C  C112  1  0.51510656  0.36564427  0.42131131  1
  C  C113  1  0.85185659  0.48000159  0.42383146  1
  C  C114  1  0.36270367  0.48097816  0.07846236  1
  C  C115  1  0.14428178  0.65053531  0.08309749  1
  C  C116  1  0.52801488  0.87534761  0.07745531  1
  C  C117  1  0.34733172  0.87534761  0.57745531  1
  C  C118  1  0.50625253  0.65053531  0.58309749  1
  C  C119  1  0.11827349  0.48097816  0.57846236  1
  C  C120  1  0.32892482  0.82132668  0.26334971  1
  C  C121  1  0.52097594  0.68839349  0.25653712  1
  C  C122  1  0.18406391  0.49783779  0.26434881  1
  C  C123  1  0.31377288  0.49783779  0.76434881  1
  C  C124  1  0.16741654  0.68839349  0.75653712  1
  C  C125  1  0.49240086  0.82132668  0.76334971  1
