# generated using pymatgen
data_CuNiC9
_symmetry_space_group_name_H-M   'P 1'
_cell_length_a   6.20207227
_cell_length_b   6.20207227
_cell_length_c   5.81306404
_cell_angle_alpha   62.05402243
_cell_angle_beta   62.05402243
_cell_angle_gamma   57.05889953
_symmetry_Int_Tables_number   1
_chemical_formula_structural   CuNiC9
_chemical_formula_sum   'Cu1 Ni1 C9'
_cell_volume   158.72913651
_cell_formula_units_Z   1
loop_
 _symmetry_equiv_pos_site_id
 _symmetry_equiv_pos_as_xyz
  1  'x, y, z'
loop_
 _atom_site_type_symbol
 _atom_site_label
 _atom_site_symmetry_multiplicity
 _atom_site_fract_x
 _atom_site_fract_y
 _atom_site_fract_z
 _atom_site_occupancy
  C  C0  1  0.30502000  0.30502000  0.19498000  1
  C  C1  1  0.69498000  0.69498000  0.80502000  1
  C  C2  1  0.00000000  0.00000000  0.50000000  1
  Ni  Ni3  1  0.00000000  0.00000000  0.00000000  1
  Cu  Cu4  1  0.50000000  0.50000000  0.50000000  1
  C  C5  1  0.76646600  0.23353400  0.25421300  1
  C  C6  1  0.76646600  0.23353400  0.74578700  1
  C  C7  1  0.75365400  0.75365400  0.24634600  1
  C  C8  1  0.23353400  0.76646600  0.74578700  1
  C  C9  1  0.23353400  0.76646600  0.25421300  1
  C  C10  1  0.24634600  0.24634600  0.75365400  1
