# generated using pymatgen
data_Cu6NiC30
_symmetry_space_group_name_H-M   'P 1'
_cell_length_a   8.98549433
_cell_length_b   8.98178218
_cell_length_c   23.24975385
_cell_angle_alpha   89.93869633
_cell_angle_beta   90.04463447
_cell_angle_gamma   120.23837665
_symmetry_Int_Tables_number   1
_chemical_formula_structural   Cu6NiC30
_chemical_formula_sum   'Cu18 Ni3 C90'
_cell_volume   1621.08208250
_cell_formula_units_Z   3
loop_
 _symmetry_equiv_pos_site_id
 _symmetry_equiv_pos_as_xyz
  1  'x, y, z'
loop_
 _atom_site_type_symbol
 _atom_site_label
 _atom_site_symmetry_multiplicity
 _atom_site_fract_x
 _atom_site_fract_y
 _atom_site_fract_z
 _atom_site_occupancy
  C  C0  1  0.36541368  0.36096501  0.24770210  1
  C  C1  1  0.63613143  0.63275250  0.74849819  1
  C  C2  1  0.96975033  0.29938504  0.41456437  1
  C  C3  1  0.00054623  0.99132938  0.49858765  1
  C  C4  1  0.99979707  0.99980356  0.00126188  1
  C  C5  1  0.66702121  0.32450216  0.83291373  1
  C  C6  1  0.66772002  0.33382602  0.32897380  1
  C  C7  1  0.33260649  0.67524974  0.16467365  1
  C  C8  1  0.32446339  0.66713702  0.66524835  1
  C  C9  1  0.00168216  0.00208759  0.85390949  1
  C  C10  1  0.00240789  0.00316314  0.64571986  1
  C  C11  1  0.99716058  0.99718533  0.14640021  1
  C  C12  1  0.66648091  0.33393586  0.98154202  1
  C  C13  1  0.66048408  0.33399829  0.48200640  1
  C  C14  1  0.33384816  0.66637844  0.01998653  1
  C  C15  1  0.33520576  0.66830859  0.51991270  1
  C  C16  1  0.33543108  0.67482195  0.31286973  1
  C  C17  1  0.32744170  0.66732345  0.81498266  1
  Ni  Ni18  1  0.99823592  0.99162937  0.35037434  1
  Ni  Ni19  1  0.66743362  0.32723367  0.68395740  1
  Ni  Ni20  1  0.67323498  0.33297503  0.18269254  1
  Cu  Cu21  1  0.29297113  0.00270724  0.24971965  1
  Cu  Cu22  1  0.70748479  0.70451606  0.25024655  1
  Cu  Cu23  1  0.99645670  0.29038655  0.25191821  1
  Cu  Cu24  1  0.29321801  0.29188446  0.75006825  1
  Cu  Cu25  1  0.99962515  0.70931176  0.74957933  1
  Cu  Cu26  1  0.71033552  0.00243979  0.75029604  1
  Cu  Cu27  1  0.95848493  0.33389336  0.58280827  1
  Cu  Cu28  1  0.37399705  0.04001593  0.58411661  1
  Cu  Cu29  1  0.66611332  0.62547603  0.58525656  1
  Cu  Cu30  1  0.95970330  0.62575171  0.08336078  1
  Cu  Cu31  1  0.66650301  0.04165799  0.08352472  1
  Cu  Cu32  1  0.37470823  0.33360221  0.08466660  1
  Cu  Cu33  1  0.62385878  0.66555536  0.91583547  1
  Cu  Cu34  1  0.04057125  0.37496438  0.91721048  1
  Cu  Cu35  1  0.33394917  0.95854495  0.91704090  1
  Cu  Cu36  1  0.62759148  0.95962679  0.41711963  1
  Cu  Cu37  1  0.33296773  0.37492590  0.41551265  1
  Cu  Cu38  1  0.04269703  0.66917688  0.41724614  1
  C  C39  1  0.21772793  0.03759974  0.30382999  1
  C  C40  1  0.81139646  0.78057464  0.30497050  1
  C  C41  1  0.97324288  0.19107417  0.30828916  1
  C  C42  1  0.20392149  0.18108578  0.80352475  1
  C  C43  1  0.97362453  0.79718642  0.80285101  1
  C  C44  1  0.82064698  0.02176461  0.80378870  1
  C  C45  1  0.79426219  0.97052855  0.69698459  1
  C  C46  1  0.18156144  0.20648630  0.69634015  1
  C  C47  1  0.02511211  0.82112355  0.69591859  1
  C  C48  1  0.79383411  0.81865661  0.19684974  1
  C  C49  1  0.02891230  0.20231220  0.19963654  1
  C  C50  1  0.17831869  0.97464347  0.19645183  1
  C  C51  1  0.88315959  0.36712923  0.63661929  1
  C  C52  1  0.48071283  0.11406130  0.63834968  1
  C  C53  1  0.63491616  0.52256128  0.64100018  1
  C  C54  1  0.88698901  0.51984674  0.13782827  1
  C  C55  1  0.63222387  0.11351668  0.13785550  1
  C  C56  1  0.47675768  0.36479704  0.14051183  1
  C  C57  1  0.46478094  0.30847427  0.03180188  1
  C  C58  1  0.84598699  0.53836605  0.02986602  1
  C  C59  1  0.69294909  0.15518566  0.02996213  1
  C  C60  1  0.46127068  0.15367580  0.53043644  1
  C  C61  1  0.69119633  0.53540015  0.53224547  1
  C  C62  1  0.84885195  0.30751169  0.52786225  1
  C  C63  1  0.53604492  0.69144230  0.96841144  1
  C  C64  1  0.15320978  0.46090277  0.97011222  1
  C  C65  1  0.30731825  0.84592897  0.96994449  1
  C  C66  1  0.53816572  0.84845775  0.47024842  1
  C  C67  1  0.30749175  0.46547095  0.46802896  1
  C  C68  1  0.15350229  0.68881364  0.47040631  1
  C  C69  1  0.12710582  0.63730075  0.36379896  1
  C  C70  1  0.51538684  0.87376647  0.36332430  1
  C  C71  1  0.35845765  0.48352525  0.36058920  1
  C  C72  1  0.12750704  0.48661297  0.86315245  1
  C  C73  1  0.35883173  0.87230573  0.86297047  1
  C  C74  1  0.51629461  0.64119208  0.86055849  1
  C  C75  1  0.02281206  0.82757400  0.41303514  1
  C  C76  1  0.81002975  0.98559857  0.41295799  1
  C  C77  1  0.16657390  0.19792283  0.41218776  1
  C  C78  1  0.02297804  0.19580155  0.91007970  1
  C  C79  1  0.17260874  0.97622037  0.90973189  1
  C  C80  1  0.80453832  0.82744496  0.90964055  1
  C  C81  1  0.97580517  0.17110446  0.58894866  1
  C  C82  1  0.19402036  0.02282299  0.58884998  1
  C  C83  1  0.82918442  0.80627715  0.58936041  1
  C  C84  1  0.97716684  0.80629600  0.08865991  1
  C  C85  1  0.82937247  0.02419172  0.08912819  1
  C  C86  1  0.19310357  0.17076002  0.08927011  1
  C  C87  1  0.69010972  0.16101572  0.74632834  1
  C  C88  1  0.47624981  0.31849457  0.74605469  1
  C  C89  1  0.83311713  0.53228111  0.74549926  1
  C  C90  1  0.67497956  0.51949877  0.24426577  1
  C  C91  1  0.84095743  0.31493875  0.24534596  1
  C  C92  1  0.47180308  0.16552983  0.24356315  1
  C  C93  1  0.64181993  0.50429862  0.92267077  1
  C  C94  1  0.86120720  0.35653650  0.92288880  1
  C  C95  1  0.49530423  0.13862135  0.92286927  1
  C  C96  1  0.64820671  0.14205155  0.42322087  1
  C  C97  1  0.49456505  0.35765049  0.42297629  1
  C  C98  1  0.86520244  0.49945115  0.42353268  1
  C  C99  1  0.35346539  0.49265128  0.07531058  1
  C  C100  1  0.14085227  0.64873982  0.07472739  1
  C  C101  1  0.50822895  0.85962528  0.07477160  1
  C  C102  1  0.35137994  0.85927338  0.57543079  1
  C  C103  1  0.50730081  0.64632893  0.57572174  1
  C  C104  1  0.14091384  0.49216046  0.57492091  1
  C  C105  1  0.30929567  0.83932533  0.25596245  1
  C  C106  1  0.52389361  0.68518464  0.25568641  1
  C  C107  1  0.16809682  0.46968557  0.25651697  1
  C  C108  1  0.31439002  0.47480337  0.75626165  1
  C  C109  1  0.16075145  0.69075835  0.75609861  1
  C  C110  1  0.53234241  0.83273751  0.75656710  1
