# generated using pymatgen
data_Cu3Ni3C
_symmetry_space_group_name_H-M   'P 1'
_cell_length_a   7.21662089
_cell_length_b   7.21662089
_cell_length_c   7.21662010
_cell_angle_alpha   93.04506640
_cell_angle_beta   93.04506640
_cell_angle_gamma   93.04506448
_symmetry_Int_Tables_number   1
_chemical_formula_structural   Cu3Ni3C
_chemical_formula_sum   'Cu12 Ni12 C4'
_cell_volume   374.18798633
_cell_formula_units_Z   4
loop_
 _symmetry_equiv_pos_site_id
 _symmetry_equiv_pos_as_xyz
  1  'x, y, z'
loop_
 _atom_site_type_symbol
 _atom_site_label
 _atom_site_symmetry_multiplicity
 _atom_site_fract_x
 _atom_site_fract_y
 _atom_site_fract_z
 _atom_site_occupancy
  C  C0  1  0.50000000  0.50000000  0.00000000  1
  C  C1  1  0.00000000  0.50000000  0.50000000  1
  C  C2  1  0.50000000  0.00000000  0.50000000  1
  Ni  Ni3  1  0.11863900  0.84355900  0.11863900  1
  Ni  Ni4  1  0.88136100  0.15644100  0.88136100  1
  Ni  Ni5  1  0.15644100  0.88136100  0.88136100  1
  Ni  Ni6  1  0.88136100  0.88136100  0.15644100  1
  Ni  Ni7  1  0.05738600  0.05738600  0.22726600  1
  Ni  Ni8  1  0.22726600  0.05738600  0.05738600  1
  Ni  Ni9  1  0.05738600  0.22726600  0.05738600  1
  Ni  Ni10  1  0.94261400  0.77273400  0.94261400  1
  Ni  Ni11  1  0.94261400  0.94261400  0.77273400  1
  Ni  Ni12  1  0.77273400  0.94261400  0.94261400  1
  Ni  Ni13  1  0.11863900  0.11863900  0.84355900  1
  Ni  Ni14  1  0.84355900  0.11863900  0.11863900  1
  Cu  Cu15  1  0.79620300  0.79620300  0.26726800  1
  Cu  Cu16  1  0.26726800  0.79620300  0.79620300  1
  Cu  Cu17  1  0.79620300  0.26726800  0.79620300  1
  Cu  Cu18  1  0.20379700  0.73273200  0.20379700  1
  Cu  Cu19  1  0.90232300  0.90232300  0.61123100  1
  Cu  Cu20  1  0.61123100  0.90232300  0.90232300  1
  Cu  Cu21  1  0.90232300  0.61123100  0.90232300  1
  Cu  Cu22  1  0.09767700  0.38876900  0.09767700  1
  Cu  Cu23  1  0.09767700  0.09767700  0.38876900  1
  Cu  Cu24  1  0.38876900  0.09767700  0.09767700  1
  Cu  Cu25  1  0.20379700  0.20379700  0.73273200  1
  Cu  Cu26  1  0.73273200  0.20379700  0.20379700  1
  C  C27  1  0.50000000  0.50000000  0.50000000  1
