# generated using pymatgen
data_Cu(NiC8)2
_symmetry_space_group_name_H-M   'P 1'
_cell_length_a   8.87873496
_cell_length_b   8.88936690
_cell_length_c   22.56027078
_cell_angle_alpha   89.97083011
_cell_angle_beta   89.85906765
_cell_angle_gamma   120.01997649
_symmetry_Int_Tables_number   1
_chemical_formula_structural   Cu(NiC8)2
_chemical_formula_sum   'Cu6 Ni12 C96'
_cell_volume   1541.72606753
_cell_formula_units_Z   6
loop_
 _symmetry_equiv_pos_site_id
 _symmetry_equiv_pos_as_xyz
  1  'x, y, z'
loop_
 _atom_site_type_symbol
 _atom_site_label
 _atom_site_symmetry_multiplicity
 _atom_site_fract_x
 _atom_site_fract_y
 _atom_site_fract_z
 _atom_site_occupancy
  C  C0  1  0.63556511  0.62834732  0.74680756  1
  C  C1  1  0.99567879  0.36524291  0.74764138  1
  C  C2  1  0.30590276  0.97234185  0.08405780  1
  C  C3  1  0.02947737  0.33713993  0.08414530  1
  C  C4  1  0.96815762  0.29839650  0.41359783  1
  C  C5  1  0.70384748  0.67384603  0.41479184  1
  C  C6  1  0.00553406  0.99811523  0.49906146  1
  C  C7  1  0.99321912  0.99312421  0.99720614  1
  C  C8  1  0.65821040  0.32416178  0.83272429  1
  C  C9  1  0.66000759  0.32659891  0.32622821  1
  C  C10  1  0.34031936  0.66598269  0.16629351  1
  C  C11  1  0.33422210  0.67154273  0.66585077  1
  C  C12  1  0.00413899  0.00884702  0.85507577  1
  C  C13  1  0.99356256  0.00177118  0.64414958  1
  C  C14  1  0.99504790  0.99590496  0.14648879  1
  C  C15  1  0.66730444  0.33440168  0.97848531  1
  C  C16  1  0.66904689  0.33186973  0.48123047  1
  C  C17  1  0.33859796  0.66758091  0.02100810  1
  C  C18  1  0.33471895  0.66947689  0.52292916  1
  C  C19  1  0.33144672  0.67212425  0.30987714  1
  C  C20  1  0.33688092  0.67039410  0.81384249  1
  C  C21  1  0.00034071  0.99599098  0.35073434  1
  C  C22  1  0.66038411  0.32777550  0.68564177  1
  C  C23  1  0.66620492  0.33311460  0.18389036  1
  Ni  Ni24  1  0.30004392  0.28768374  0.74786110  1
  Ni  Ni25  1  0.70578164  0.00840692  0.74878438  1
  Ni  Ni26  1  0.95061344  0.33568679  0.58780198  1
  Ni  Ni27  1  0.66676926  0.61541460  0.58708315  1
  Ni  Ni28  1  0.94521003  0.61374398  0.08705062  1
  Ni  Ni29  1  0.66475013  0.05082112  0.08721771  1
  Ni  Ni30  1  0.38977339  0.33874493  0.08783528  1
  Ni  Ni31  1  0.62613073  0.66622264  0.91601974  1
  Ni  Ni32  1  0.04266102  0.37861690  0.91683271  1
  Ni  Ni33  1  0.33320488  0.95797122  0.91749611  1
  Ni  Ni34  1  0.62754746  0.95774055  0.41474651  1
  Ni  Ni35  1  0.04780399  0.67980459  0.41534780  1
  Cu  Cu36  1  0.29171769  0.01153655  0.25189063  1
  Cu  Cu37  1  0.71447617  0.70417163  0.25259354  1
  Cu  Cu38  1  0.99101518  0.28354913  0.25231565  1
  Cu  Cu39  1  0.99822731  0.71050672  0.74891878  1
  Cu  Cu40  1  0.38305876  0.04993869  0.58638136  1
  Cu  Cu41  1  0.32802869  0.37294068  0.41492732  1
  C  C42  1  0.19422323  0.02639870  0.30561438  1
  C  C43  1  0.82405236  0.79730455  0.30769981  1
  C  C44  1  0.97452896  0.17284945  0.30756265  1
  C  C45  1  0.19973609  0.16755949  0.80623919  1
  C  C46  1  0.96781227  0.79598371  0.80395677  1
  C  C47  1  0.83387053  0.03405125  0.80533883  1
  C  C48  1  0.79945723  0.96362200  0.69278429  1
  C  C49  1  0.16291937  0.19434459  0.69280436  1
  C  C50  1  0.03031363  0.82727420  0.69410827  1
  C  C51  1  0.80148143  0.82676092  0.19716588  1
  C  C52  1  0.02573716  0.20128847  0.19569277  1
  C  C53  1  0.17710442  0.97344074  0.19473673  1
  C  C54  1  0.86065929  0.36258654  0.64459476  1
  C  C55  1  0.49652476  0.13285051  0.63955334  1
  C  C56  1  0.63691427  0.49817338  0.64430780  1
  C  C57  1  0.86233849  0.48908760  0.14288035  1
  C  C58  1  0.62846651  0.13663628  0.14329220  1
  C  C59  1  0.50477270  0.36446985  0.14442970  1
  C  C60  1  0.46359280  0.29326124  0.02749827  1
  C  C61  1  0.83240353  0.53363505  0.02626658  1
  C  C62  1  0.70649649  0.16966691  0.02708962  1
  C  C63  1  0.46632486  0.15978598  0.52861650  1
  C  C64  1  0.69199072  0.52903068  0.52481972  1
  C  C65  1  0.83562179  0.30314586  0.52564976  1
  C  C66  1  0.53116180  0.69733806  0.97343543  1
  C  C67  1  0.16219048  0.46613826  0.97580312  1
  C  C68  1  0.30278743  0.83798757  0.97651122  1
  C  C69  1  0.53435155  0.82938975  0.47204209  1
  C  C70  1  0.29683590  0.45863177  0.47056469  1
  C  C71  1  0.16757855  0.69704840  0.47304293  1
  C  C72  1  0.13558549  0.62978705  0.35964403  1
  C  C73  1  0.49726500  0.85828807  0.35867141  1
  C  C74  1  0.36749497  0.49701757  0.36125283  1
  C  C75  1  0.13310214  0.49505385  0.85715651  1
  C  C76  1  0.36197674  0.86183964  0.85966688  1
  C  C77  1  0.50448017  0.63694928  0.85721511  1
  C  C78  1  0.01759426  0.84223823  0.40601903  1
  C  C79  1  0.82022172  0.98124702  0.40589651  1
  C  C80  1  0.16461495  0.19524785  0.40676633  1
  C  C81  1  0.02637532  0.18829560  0.91042685  1
  C  C82  1  0.15920308  0.97142174  0.90925169  1
  C  C83  1  0.81406030  0.83834534  0.90851809  1
  C  C84  1  0.97573882  0.16383884  0.58976468  1
  C  C85  1  0.19860177  0.02591462  0.59003680  1
  C  C86  1  0.84067339  0.81003047  0.58975172  1
  C  C87  1  0.98127656  0.81561555  0.09284374  1
  C  C88  1  0.83999859  0.03010297  0.09302641  1
  C  C89  1  0.18822864  0.16450482  0.09367172  1
  C  C90  1  0.69722837  0.18274844  0.74061101  1
  C  C91  1  0.49342139  0.31842792  0.74142014  1
  C  C92  1  0.83708748  0.52924529  0.74331958  1
  C  C93  1  0.69435035  0.52574095  0.24375316  1
  C  C94  1  0.83324733  0.30576141  0.24435180  1
  C  C95  1  0.47358610  0.16655244  0.24436726  1
  C  C96  1  0.63926246  0.49305787  0.92237172  1
  C  C97  1  0.85268454  0.35846528  0.92206329  1
  C  C98  1  0.50548698  0.14584165  0.92281675  1
  C  C99  1  0.64568698  0.14936410  0.42221887  1
  C  C100  1  0.49572569  0.36165281  0.42288449  1
  C  C101  1  0.85444558  0.49976948  0.42315153  1
  C  C102  1  0.34950780  0.49909643  0.07856243  1
  C  C103  1  0.14390569  0.64341592  0.07799533  1
  C  C104  1  0.49404654  0.85700793  0.07816313  1
  C  C105  1  0.36284932  0.86607221  0.57662946  1
  C  C106  1  0.49708087  0.64176713  0.57539108  1
  C  C107  1  0.14540735  0.50456402  0.57568676  1
  C  C108  1  0.30501904  0.83869531  0.25774012  1
  C  C109  1  0.53040234  0.69073168  0.25753667  1
  C  C110  1  0.16274662  0.46738402  0.25787524  1
  C  C111  1  0.30697240  0.47742151  0.75503854  1
  C  C112  1  0.16096813  0.68781179  0.75492854  1
  C  C113  1  0.52020963  0.82573090  0.75457698  1
