# generated using pymatgen
data_Cu5NiC7
_symmetry_space_group_name_H-M   'P 1'
_cell_length_a   8.41560634
_cell_length_b   8.41560634
_cell_length_c   6.06828993
_cell_angle_alpha   78.15425435
_cell_angle_beta   78.15425435
_cell_angle_gamma   133.02833141
_symmetry_Int_Tables_number   1
_chemical_formula_structural   Cu5NiC7
_chemical_formula_sum   'Cu10 Ni2 C14'
_cell_volume   269.28490367
_cell_formula_units_Z   2
loop_
 _symmetry_equiv_pos_site_id
 _symmetry_equiv_pos_as_xyz
  1  'x, y, z'
loop_
 _atom_site_type_symbol
 _atom_site_label
 _atom_site_symmetry_multiplicity
 _atom_site_fract_x
 _atom_site_fract_y
 _atom_site_fract_z
 _atom_site_occupancy
  C  C0  1  0.18062600  0.83581300  0.25300300  1
  C  C1  1  0.83581300  0.18062600  0.75300300  1
  Ni  Ni2  1  0.66312400  0.31203600  0.26945400  1
  Ni  Ni3  1  0.31203600  0.66312400  0.76945400  1
  Cu  Cu4  1  0.96476900  0.63043300  0.85164100  1
  Cu  Cu5  1  0.63043300  0.96476900  0.35164100  1
  Cu  Cu6  1  0.26523600  0.24472200  0.90419100  1
  Cu  Cu7  1  0.24472200  0.26523600  0.40419100  1
  Cu  Cu8  1  0.32893900  0.15724500  0.73311000  1
  Cu  Cu9  1  0.15724500  0.32893900  0.23311000  1
  Cu  Cu10  1  0.76536200  0.78556300  0.48278900  1
  Cu  Cu11  1  0.78556300  0.76536200  0.98278900  1
  Cu  Cu12  1  0.67810900  0.54423600  0.64116700  1
  Cu  Cu13  1  0.54423600  0.67810900  0.14116700  1
  C  C14  1  0.82126200  0.71379800  0.49605500  1
  C  C15  1  0.17808300  0.32740500  0.38964900  1
  C  C16  1  0.32740500  0.17808300  0.88964900  1
  C  C17  1  0.71379800  0.82126200  0.99605500  1
  C  C18  1  0.86047500  0.60969300  0.00332400  1
  C  C19  1  0.60969300  0.86047500  0.50332400  1
  C  C20  1  0.82357900  0.38050000  0.43423500  1
  C  C21  1  0.38050000  0.82357900  0.93423500  1
  C  C22  1  0.37447500  0.17292700  0.42825300  1
  C  C23  1  0.17292700  0.37447500  0.92825300  1
  C  C24  1  0.62585400  0.12473400  0.15152900  1
  C  C25  1  0.12473400  0.62585400  0.65152900  1
