# generated using pymatgen
data_Cu2NiC14
_symmetry_space_group_name_H-M   'P 1'
_cell_length_a   5.39750791
_cell_length_b   7.37867601
_cell_length_c   7.69936976
_cell_angle_alpha   113.98243370
_cell_angle_beta   107.10484449
_cell_angle_gamma   97.27210730
_symmetry_Int_Tables_number   1
_chemical_formula_structural   Cu2NiC14
_chemical_formula_sum   'Cu2 Ni1 C14'
_cell_volume   256.91815801
_cell_formula_units_Z   1
loop_
 _symmetry_equiv_pos_site_id
 _symmetry_equiv_pos_as_xyz
  1  'x, y, z'
loop_
 _atom_site_type_symbol
 _atom_site_label
 _atom_site_symmetry_multiplicity
 _atom_site_fract_x
 _atom_site_fract_y
 _atom_site_fract_z
 _atom_site_occupancy
  Ni  Ni0  1  0.50000000  0.00000000  0.00000000  1
  Cu  Cu1  1  0.31188000  0.35771800  0.24142200  1
  Cu  Cu2  1  0.68812000  0.64228200  0.75857800  1
  C  C3  1  0.68836800  0.24036700  0.89447000  1
  C  C4  1  0.31163200  0.75963300  0.10553000  1
  C  C5  1  0.10399000  0.75183200  0.53611000  1
  C  C6  1  0.89601000  0.24816800  0.46389000  1
  C  C7  1  0.19800300  0.63721100  0.23933000  1
  C  C8  1  0.44474600  0.05970000  0.26526800  1
  C  C9  1  0.59178600  0.73536000  0.03186500  1
  C  C10  1  0.55525400  0.94030000  0.73473200  1
  C  C11  1  0.72958300  0.49212300  0.45379800  1
  C  C12  1  0.80199700  0.36278900  0.76067000  1
  C  C13  1  0.88983300  0.20439900  0.12469700  1
  C  C14  1  0.11016700  0.79560100  0.87530300  1
  C  C15  1  0.40821400  0.26464000  0.96813500  1
  C  C16  1  0.27041700  0.50787700  0.54620200  1
