# generated using pymatgen
data_Cu2Ni2C3
_symmetry_space_group_name_H-M   'P 1'
_cell_length_a   8.96898332
_cell_length_b   8.96898332
_cell_length_c   14.72484262
_cell_angle_alpha   82.80972663
_cell_angle_beta   82.80972663
_cell_angle_gamma   69.88040594
_symmetry_Int_Tables_number   1
_chemical_formula_structural   Cu2Ni2C3
_chemical_formula_sum   'Cu8 Ni8 C12'
_cell_volume   1099.18188543
_cell_formula_units_Z   4
loop_
 _symmetry_equiv_pos_site_id
 _symmetry_equiv_pos_as_xyz
  1  'x, y, z'
loop_
 _atom_site_type_symbol
 _atom_site_label
 _atom_site_symmetry_multiplicity
 _atom_site_fract_x
 _atom_site_fract_y
 _atom_site_fract_z
 _atom_site_occupancy
  C  C0  1  0.12329100  0.10898300  0.82871600  1
  C  C1  1  0.89101700  0.87670900  0.67128400  1
  C  C2  1  0.87670900  0.89101700  0.17128400  1
  C  C3  1  0.10898300  0.12329100  0.32871600  1
  C  C4  1  0.30351900  0.75518600  0.52143600  1
  C  C5  1  0.24481400  0.69648100  0.97856400  1
  C  C6  1  0.69648100  0.24481400  0.47856400  1
  C  C7  1  0.75518600  0.30351900  0.02143600  1
  C  C8  1  0.00000000  0.50000000  0.50000000  1
  C  C9  1  0.50000000  0.00000000  0.00000000  1
  C  C10  1  0.67016000  0.32984000  0.75000000  1
  C  C11  1  0.32984000  0.67016000  0.25000000  1
  Ni  Ni12  1  0.88037200  0.39364500  0.85049600  1
  Ni  Ni13  1  0.60635500  0.11962800  0.64950400  1
  Ni  Ni14  1  0.11962800  0.60635500  0.14950400  1
  Ni  Ni15  1  0.39364500  0.88037200  0.35049600  1
  Ni  Ni16  1  0.40882500  0.87357200  0.86616300  1
  Ni  Ni17  1  0.12642800  0.59117500  0.63383700  1
  Ni  Ni18  1  0.59117500  0.12642800  0.13383700  1
  Ni  Ni19  1  0.87357200  0.40882500  0.36616300  1
  Cu  Cu20  1  0.60934400  0.63888800  0.61769900  1
  Cu  Cu21  1  0.36111200  0.39065600  0.88230100  1
  Cu  Cu22  1  0.39065600  0.36111200  0.38230100  1
  Cu  Cu23  1  0.63888800  0.60934400  0.11769900  1
  Cu  Cu24  1  0.08559300  0.13451200  0.11841100  1
  Cu  Cu25  1  0.86548800  0.91440700  0.38158900  1
  Cu  Cu26  1  0.91440700  0.86548800  0.88158900  1
  Cu  Cu27  1  0.13451200  0.08559300  0.61841100  1
