# generated using pymatgen
data_Cu3NiC31
_symmetry_space_group_name_H-M   'P 1'
_cell_length_a   8.73314696
_cell_length_b   8.73314668
_cell_length_c   22.67309635
_cell_angle_alpha   90.00000000
_cell_angle_beta   90.00000000
_cell_angle_gamma   120.00000106
_symmetry_Int_Tables_number   1
_chemical_formula_structural   Cu3NiC31
_chemical_formula_sum   'Cu9 Ni3 C93'
_cell_volume   1497.55569721
_cell_formula_units_Z   3
loop_
 _symmetry_equiv_pos_site_id
 _symmetry_equiv_pos_as_xyz
  1  'x, y, z'
loop_
 _atom_site_type_symbol
 _atom_site_label
 _atom_site_symmetry_multiplicity
 _atom_site_fract_x
 _atom_site_fract_y
 _atom_site_fract_z
 _atom_site_occupancy
  C  C0  1  0.00000000  -0.00000000  0.00326154  1
  C  C1  1  0.66666700  0.33333300  0.83616659  1
  C  C2  1  0.66666700  0.33333300  0.32600894  1
  Ni  Ni3  1  0.00000000  -0.00000000  0.64788490  1
  Ni  Ni4  1  0.33333300  0.66666700  0.02381455  1
  Ni  Ni5  1  0.33333300  0.66666700  0.51480780  1
  Cu  Cu6  1  0.00000000  -0.00000000  0.34389274  1
  Cu  Cu7  1  0.00000000  -0.00000000  0.85540028  1
  Cu  Cu8  1  0.00000000  -0.00000000  0.15949814  1
  Cu  Cu9  1  0.66666700  0.33333300  0.68372702  1
  Cu  Cu10  1  0.66666700  0.33333300  0.18934586  1
  Cu  Cu11  1  0.66666700  0.33333300  0.98555382  1
  Cu  Cu12  1  0.66666700  0.33333300  0.47995091  1
  Cu  Cu13  1  0.33333300  0.66666700  0.30357226  1
  Cu  Cu14  1  0.33333300  0.66666700  0.81386659  1
  C  C15  1  0.29517024  0.00242108  0.25076943  1
  C  C16  1  0.70725085  0.70482976  0.25076943  1
  C  C17  1  0.99757892  0.29274915  0.25076943  1
  C  C18  1  0.29357461  0.29171627  0.75191632  1
  C  C19  1  0.99814166  0.70642539  0.75191632  1
  C  C20  1  0.70828373  0.00185834  0.75191632  1
  C  C21  1  0.95826063  0.33518554  0.58354690  1
  C  C22  1  0.37692590  0.04173937  0.58354690  1
  C  C23  1  0.66481446  0.62307410  0.58354690  1
  C  C24  1  0.95317889  0.62767938  0.08255276  1
  C  C25  1  0.67450149  0.04682111  0.08255276  1
  C  C26  1  0.37232062  0.32549851  0.08255276  1
  C  C27  1  0.62348378  0.66490413  0.91580933  1
  C  C28  1  0.04141934  0.37651622  0.91580933  1
  C  C29  1  0.33509587  0.95858066  0.91580933  1
  C  C30  1  0.62870921  0.96263258  0.41356076  1
  C  C31  1  0.33392236  0.37129079  0.41356076  1
  C  C32  1  0.03736743  0.66607764  0.41356076  1
  C  C33  1  0.21804981  0.03499845  0.30465193  1
  C  C34  1  0.81694864  0.78195019  0.30465193  1
  C  C35  1  0.96500155  0.18305136  0.30465193  1
  C  C36  1  0.21074202  0.17875531  0.80320802  1
  C  C37  1  0.96801328  0.78925798  0.80320802  1
  C  C38  1  0.82124469  0.03198671  0.80320802  1
  C  C39  1  0.80657664  0.98280467  0.69661702  1
  C  C40  1  0.17622803  0.19342336  0.69661702  1
  C  C41  1  0.01719533  0.82377197  0.69661702  1
  C  C42  1  0.78493979  0.80961022  0.19652244  1
  C  C43  1  0.02467043  0.21506021  0.19652244  1
  C  C44  1  0.19038978  0.97532957  0.19652244  1
  C  C45  1  0.88623745  0.36897301  0.63695284  1
  C  C46  1  0.48273655  0.11376255  0.63695284  1
  C  C47  1  0.63102699  0.51726345  0.63695284  1
  C  C48  1  0.88568450  0.51727978  0.13428464  1
  C  C49  1  0.63159628  0.11431550  0.13428464  1
  C  C50  1  0.48272022  0.36840372  0.13428464  1
  C  C51  1  0.44987928  0.30246924  0.02780403  1
  C  C52  1  0.85259096  0.55012072  0.02780403  1
  C  C53  1  0.69753076  0.14740904  0.02780403  1
  C  C54  1  0.44584773  0.15047485  0.53123727  1
  C  C55  1  0.70462812  0.55415227  0.53123727  1
  C  C56  1  0.84952515  0.29537188  0.53123727  1
  C  C57  1  0.52967443  0.68594752  0.96943959  1
  C  C58  1  0.15627209  0.47032557  0.96943959  1
  C  C59  1  0.31405248  0.84372791  0.96943959  1
  C  C60  1  0.52749416  0.84322426  0.47129053  1
  C  C61  1  0.31572910  0.47250584  0.47129053  1
  C  C62  1  0.15677574  0.68427090  0.47129053  1
  C  C63  1  0.12459631  0.63576013  0.36466335  1
  C  C64  1  0.51116283  0.87540369  0.36466335  1
  C  C65  1  0.36423987  0.48883717  0.36466335  1
  C  C66  1  0.12210498  0.48178024  0.86232729  1
  C  C67  1  0.35967427  0.87789502  0.86232729  1
  C  C68  1  0.51821976  0.64032573  0.86232729  1
  C  C69  1  0.03096933  0.82843129  0.41387514  1
  C  C70  1  0.79746196  0.96903067  0.41387514  1
  C  C71  1  0.17156871  0.20253804  0.41387514  1
  C  C72  1  0.03204530  0.20238062  0.91444256  1
  C  C73  1  0.17033533  0.96795470  0.91444256  1
  C  C74  1  0.79761938  0.82966467  0.91444256  1
  C  C75  1  0.98365754  0.17616714  0.59497701  1
  C  C76  1  0.19250960  0.01634246  0.59497701  1
  C  C77  1  0.82383286  0.80749040  0.59497701  1
  C  C78  1  0.98725119  0.80900682  0.08817747  1
  C  C79  1  0.82175564  0.01274881  0.08817747  1
  C  C80  1  0.19099318  0.17824436  0.08817747  1
  C  C81  1  0.69342021  0.16073994  0.74189991  1
  C  C82  1  0.46732072  0.30657979  0.74189991  1
  C  C83  1  0.83926006  0.53267928  0.74189991  1
  C  C84  1  0.68960497  0.52631053  0.24522493  1
  C  C85  1  0.83670656  0.31039503  0.24522493  1
  C  C86  1  0.47368947  0.16329344  0.24522493  1
  C  C87  1  0.64149372  0.50699816  0.92336955  1
  C  C88  1  0.86550543  0.35850628  0.92336955  1
  C  C89  1  0.49300184  0.13449457  0.92336955  1
  C  C90  1  0.64015682  0.13414848  0.42555099  1
  C  C91  1  0.49399266  0.35984318  0.42555099  1
  C  C92  1  0.86585152  0.50600734  0.42555099  1
  C  C93  1  0.35476148  0.49440231  0.07065164  1
  C  C94  1  0.13963983  0.64523852  0.07065164  1
  C  C95  1  0.50559769  0.86036017  0.07065164  1
  C  C96  1  0.34798083  0.85908435  0.57396100  1
  C  C97  1  0.51110252  0.65201917  0.57396100  1
  C  C98  1  0.14091565  0.48889748  0.57396100  1
  C  C99  1  0.31077290  0.84395099  0.25739033  1
  C  C100  1  0.53317710  0.68922710  0.25739033  1
  C  C101  1  0.15604901  0.46682290  0.25739033  1
  C  C102  1  0.30047679  0.46164525  0.75329638  1
  C  C103  1  0.16116745  0.69952321  0.75329638  1
  C  C104  1  0.53835475  0.83883255  0.75329638  1
