# generated using pymatgen
data_Cu2Ni10C7
_symmetry_space_group_name_H-M   'P 1'
_cell_length_a   4.93355979
_cell_length_b   13.97070079
_cell_length_c   2.87285300
_cell_angle_alpha   90.00000000
_cell_angle_beta   90.00000000
_cell_angle_gamma   97.61614909
_symmetry_Int_Tables_number   1
_chemical_formula_structural   Cu2Ni10C7
_chemical_formula_sum   'Cu2 Ni10 C7'
_cell_volume   196.26540006
_cell_formula_units_Z   1
loop_
 _symmetry_equiv_pos_site_id
 _symmetry_equiv_pos_as_xyz
  1  'x, y, z'
loop_
 _atom_site_type_symbol
 _atom_site_label
 _atom_site_symmetry_multiplicity
 _atom_site_fract_x
 _atom_site_fract_y
 _atom_site_fract_z
 _atom_site_occupancy
  C  C0  1  0.41962100  0.31983000  0.00000000  1
  C  C1  1  0.02447200  0.99317800  0.00000000  1
  C  C2  1  0.92478100  0.36881800  0.00000000  1
  C  C3  1  0.04320600  0.65840600  0.00000000  1
  C  C4  1  0.58071000  0.13324700  0.50000000  1
  C  C5  1  0.47961300  0.51305200  0.50000000  1
  C  C6  1  0.46839700  0.85199400  0.50000000  1
  Ni  Ni7  1  0.16955700  0.92817200  0.50000000  1
  Ni  Ni8  1  0.23826500  0.60254900  0.50000000  1
  Ni  Ni9  1  0.33099700  0.77482900  0.00000000  1
  Ni  Ni10  1  0.36633300  0.07817500  0.00000000  1
  Ni  Ni11  1  0.27218600  0.44930400  0.00000000  1
  Ni  Ni12  1  0.69656400  0.56425500  0.00000000  1
  Ni  Ni13  1  0.68309900  0.22366900  0.00000000  1
  Ni  Ni14  1  0.68429100  0.90591000  0.00000000  1
  Ni  Ni15  1  0.88376600  0.05997900  0.50000000  1
  Ni  Ni16  1  0.66860600  0.39591600  0.50000000  1
  Cu  Cu17  1  0.16077400  0.28012200  0.50000000  1
  Cu  Cu18  1  0.86309800  0.72421300  0.50000000  1
