# generated using pymatgen
data_CuNiC9
_symmetry_space_group_name_H-M   'P 1'
_cell_length_a   6.58972028
_cell_length_b   6.58972102
_cell_length_c   5.88213400
_cell_angle_alpha   63.49273363
_cell_angle_beta   63.49273042
_cell_angle_gamma   52.93626311
_symmetry_Int_Tables_number   1
_chemical_formula_structural   CuNiC9
_chemical_formula_sum   'Cu1 Ni1 C9'
_cell_volume   176.68377046
_cell_formula_units_Z   1
loop_
 _symmetry_equiv_pos_site_id
 _symmetry_equiv_pos_as_xyz
  1  'x, y, z'
loop_
 _atom_site_type_symbol
 _atom_site_label
 _atom_site_symmetry_multiplicity
 _atom_site_fract_x
 _atom_site_fract_y
 _atom_site_fract_z
 _atom_site_occupancy
  C  C0  1  0.31881500  0.31881500  0.18118500  1
  C  C1  1  0.68118500  0.68118500  0.81881500  1
  C  C2  1  0.00000000  0.00000000  0.00000000  1
  Ni  Ni3  1  0.00000000  0.00000000  0.50000000  1
  Cu  Cu4  1  0.50000000  0.50000000  0.50000000  1
  C  C5  1  0.25167300  0.74832700  0.73288800  1
  C  C6  1  0.25167300  0.74832700  0.26711200  1
  C  C7  1  0.74832700  0.25167300  0.73288800  1
  C  C8  1  0.30691900  0.30691900  0.69308100  1
  C  C9  1  0.74832700  0.25167300  0.26711200  1
  C  C10  1  0.69308100  0.69308100  0.30691900  1
