# generated using pymatgen
data_Cu(NiC8)2
_symmetry_space_group_name_H-M   'P 1'
_cell_length_a   9.37053685
_cell_length_b   9.37053651
_cell_length_c   23.23662524
_cell_angle_alpha   91.52266219
_cell_angle_beta   88.47733777
_cell_angle_gamma   118.99377120
_symmetry_Int_Tables_number   1
_chemical_formula_structural   Cu(NiC8)2
_chemical_formula_sum   'Cu6 Ni12 C96'
_cell_volume   1783.77787656
_cell_formula_units_Z   6
loop_
 _symmetry_equiv_pos_site_id
 _symmetry_equiv_pos_as_xyz
  1  'x, y, z'
loop_
 _atom_site_type_symbol
 _atom_site_label
 _atom_site_symmetry_multiplicity
 _atom_site_fract_x
 _atom_site_fract_y
 _atom_site_fract_z
 _atom_site_occupancy
  C  C0  1  0.97621623  0.63085065  0.24814870  1
  C  C1  1  0.36914935  0.02378377  0.74814870  1
  C  C2  1  0.64288323  0.96418365  0.58148170  1
  C  C3  1  0.03581635  0.35711677  0.08148170  1
  C  C4  1  0.30954923  0.29751765  0.91481570  1
  C  C5  1  0.70248235  0.69045077  0.41481570  1
  C  C6  1  0.01007262  0.97830266  0.49871723  1
  C  C7  1  0.02169734  0.98992738  0.99871723  1
  C  C8  1  0.67673962  0.31163566  0.83205023  1
  C  C9  1  0.68836434  0.32326038  0.33205023  1
  C  C10  1  0.34340562  0.64496966  0.16538423  1
  C  C11  1  0.35503034  0.65659438  0.66538423  1
  C  C12  1  0.99624948  0.01186963  0.35200174  1
  C  C13  1  0.98813037  0.00375052  0.85200174  1
  C  C14  1  0.66291648  0.34520263  0.68533474  1
  C  C15  1  0.65479737  0.33708352  0.18533474  1
  C  C16  1  0.32958248  0.67853663  0.01866874  1
  C  C17  1  0.32146337  0.67041752  0.51866874  1
  C  C18  1  0.99789495  0.00658990  0.64637743  1
  C  C19  1  0.99341010  0.00210505  0.14637743  1
  C  C20  1  0.66456195  0.33992290  0.97971043  1
  C  C21  1  0.66007710  0.33543805  0.47971043  1
  C  C22  1  0.33122795  0.67325690  0.31304443  1
  C  C23  1  0.32674310  0.66877205  0.81304443  1
  Ni  Ni24  1  0.69858756  0.71972392  0.25269118  1
  Ni  Ni25  1  0.01787306  0.31315830  0.24950468  1
  Ni  Ni26  1  0.28027608  0.30141244  0.75269118  1
  Ni  Ni27  1  0.68684170  0.98212694  0.74950468  1
  Ni  Ni28  1  0.36525456  0.05305692  0.58602418  1
  Ni  Ni29  1  0.68454006  0.64649130  0.58283768  1
  Ni  Ni30  1  0.94694308  0.63474544  0.08602418  1
  Ni  Ni31  1  0.35350870  0.31545994  0.08283768  1
  Ni  Ni32  1  0.03192056  0.38639092  0.91935818  1
  Ni  Ni33  1  0.35120606  0.97982530  0.91617168  1
  Ni  Ni34  1  0.61360908  0.96807944  0.41935818  1
  Ni  Ni35  1  0.02017470  0.64879394  0.41617168  1
  Cu  Cu36  1  0.28579462  0.97583852  0.24806307  1
  Cu  Cu37  1  0.02416148  0.71420538  0.74806307  1
  Cu  Cu38  1  0.95246162  0.30917152  0.58139607  1
  Cu  Cu39  1  0.69082848  0.04753838  0.08139607  1
  Cu  Cu40  1  0.61912762  0.64250552  0.91473007  1
  Cu  Cu41  1  0.35749448  0.38087238  0.41473007  1
  C  C42  1  0.22149839  -0.00086924  0.30295121  1
  C  C43  1  0.80088114  0.78579391  0.31045686  1
  C  C44  1  0.00308035  0.21365551  0.30530158  1
  C  C45  1  0.21420609  0.19911886  0.81045686  1
  C  C46  1  0.00086924  0.77850161  0.80295121  1
  C  C47  1  0.78634449  0.99691965  0.80530158  1
  C  C48  1  0.80062818  0.97247783  0.69103491  1
  C  C49  1  0.15129926  0.18350629  0.69800221  1
  C  C50  1  0.03654579  0.82098030  0.69878984  1
  C  C51  1  0.81649371  0.84870074  0.19800221  1
  C  C52  1  0.02752217  0.19937182  0.19103491  1
  C  C53  1  0.17901970  0.96345421  0.19878984  1
  C  C54  1  0.88816539  0.33246376  0.63628421  1
  C  C55  1  0.46754814  0.11912691  0.64378986  1
  C  C56  1  0.66974735  0.54698851  0.63863458  1
  C  C57  1  0.88087309  0.53245186  0.14378986  1
  C  C58  1  0.66753624  0.11183461  0.13628421  1
  C  C59  1  0.45301149  0.33025265  0.13863458  1
  C  C60  1  0.46729518  0.30581083  0.02436791  1
  C  C61  1  0.81796626  0.51683929  0.03133521  1
  C  C62  1  0.70321279  0.15431330  0.03212284  1
  C  C63  1  0.48316071  0.18203374  0.53133521  1
  C  C64  1  0.69418917  0.53270482  0.52436791  1
  C  C65  1  0.84568670  0.29678721  0.53212284  1
  C  C66  1  0.55483139  0.66579776  0.96961821  1
  C  C67  1  0.13421414  0.45246091  0.97712386  1
  C  C68  1  0.33641335  0.88032251  0.97196858  1
  C  C69  1  0.54753909  0.86578586  0.47712386  1
  C  C70  1  0.33420224  0.44516861  0.46961821  1
  C  C71  1  0.11967749  0.66358665  0.47196858  1
  C  C72  1  0.13396118  0.63914483  0.35770191  1
  C  C73  1  0.48463226  0.85017329  0.36466921  1
  C  C74  1  0.36987879  0.48764730  0.36545684  1
  C  C75  1  0.14982671  0.51536774  0.86466921  1
  C  C76  1  0.36085517  0.86603882  0.85770191  1
  C  C77  1  0.51235270  0.63012121  0.86545684  1
  C  C78  1  0.97933550  0.79673953  0.41260176  1
  C  C79  1  0.79602791  0.99461316  0.41194201  1
  C  C80  1  0.23312568  0.21116772  0.40788202  1
  C  C81  1  0.00538684  0.20397209  0.91194201  1
  C  C82  1  0.20326047  0.02066450  0.91260176  1
  C  C83  1  0.78883228  0.76687432  0.90788202  1
  C  C84  1  0.94507332  0.14127238  0.58249067  1
  C  C85  1  0.18337017  0.04584450  0.59268631  1
  C  C86  1  0.86084388  0.82758263  0.59035662  1
  C  C87  1  0.95415550  0.81662983  0.09268631  1
  C  C88  1  0.85872762  0.05492668  0.08249067  1
  C  C89  1  0.17241737  0.13915612  0.09035662  1
  C  C90  1  0.64600250  0.13007253  0.74593476  1
  C  C91  1  0.46269491  0.32794616  0.74527501  1
  C  C92  1  0.89979268  0.54450072  0.74121502  1
  C  C93  1  0.67205384  0.53730509  0.24527501  1
  C  C94  1  0.86992747  0.35399750  0.24593476  1
  C  C95  1  0.45549928  0.10020732  0.24121502  1
  C  C96  1  0.61174032  0.47460538  0.91582367  1
  C  C97  1  0.85003717  0.37917750  0.92601931  1
  C  C98  1  0.52751088  0.16091563  0.92368962  1
  C  C99  1  0.62082250  0.14996283  0.42601931  1
  C  C100  1  0.52539462  0.38825968  0.41582367  1
  C  C101  1  0.83908437  0.47248912  0.42368962  1
  C  C102  1  0.31266850  0.46340653  0.07926876  1
  C  C103  1  0.12936091  0.66128016  0.07860901  1
  C  C104  1  0.56645868  0.87783472  0.07454902  1
  C  C105  1  0.33871984  0.87063909  0.57860901  1
  C  C106  1  0.53659347  0.68733150  0.57926876  1
  C  C107  1  0.12216528  0.43354132  0.57454902  1
  C  C108  1  0.27840632  0.80793938  0.24915767  1
  C  C109  1  0.51670317  0.71251150  0.25935331  1
  C  C110  1  0.19417688  0.49424963  0.25702362  1
  C  C111  1  0.28748850  0.48329683  0.75935331  1
  C  C112  1  0.19206062  0.72159368  0.74915767  1
  C  C113  1  0.50575037  0.80582312  0.75702362  1
