# generated using pymatgen
data_CuNiC5
_symmetry_space_group_name_H-M   'P 1'
_cell_length_a   4.66286056
_cell_length_b   4.66286056
_cell_length_c   6.30702325
_cell_angle_alpha   73.29555980
_cell_angle_beta   73.29555980
_cell_angle_gamma   99.53280763
_symmetry_Int_Tables_number   1
_chemical_formula_structural   CuNiC5
_chemical_formula_sum   'Cu2 Ni2 C10'
_cell_volume   121.10669799
_cell_formula_units_Z   2
loop_
 _symmetry_equiv_pos_site_id
 _symmetry_equiv_pos_as_xyz
  1  'x, y, z'
loop_
 _atom_site_type_symbol
 _atom_site_label
 _atom_site_symmetry_multiplicity
 _atom_site_fract_x
 _atom_site_fract_y
 _atom_site_fract_z
 _atom_site_occupancy
  Ni  Ni0  1  0.66950500  0.33049500  0.25000000  1
  Ni  Ni1  1  0.33049500  0.66950500  0.75000000  1
  Cu  Cu2  1  0.00000000  0.00000000  0.50000000  1
  Cu  Cu3  1  0.00000000  0.00000000  0.00000000  1
  C  C4  1  0.73755000  0.64220400  0.09007100  1
  C  C5  1  0.35779600  0.26245000  0.40992900  1
  C  C6  1  0.26245000  0.35779600  0.90992900  1
  C  C7  1  0.64220400  0.73755000  0.59007100  1
  C  C8  1  0.09219900  0.90780100  0.25000000  1
  C  C9  1  0.90780100  0.09219900  0.75000000  1
  C  C10  1  0.12483500  0.68452900  0.61942400  1
  C  C11  1  0.31547100  0.87516500  0.88057600  1
  C  C12  1  0.87516500  0.31547100  0.38057600  1
  C  C13  1  0.68452900  0.12483500  0.11942400  1
