# generated using pymatgen
data_Cu4NiC14
_symmetry_space_group_name_H-M   'P 1'
_cell_length_a   4.05723022
_cell_length_b   6.33850685
_cell_length_c   11.32772045
_cell_angle_alpha   87.30487708
_cell_angle_beta   89.99480290
_cell_angle_gamma   90.00164389
_symmetry_Int_Tables_number   1
_chemical_formula_structural   Cu4NiC14
_chemical_formula_sum   'Cu4 Ni1 C14'
_cell_volume   290.99028460
_cell_formula_units_Z   1
loop_
 _symmetry_equiv_pos_site_id
 _symmetry_equiv_pos_as_xyz
  1  'x, y, z'
loop_
 _atom_site_type_symbol
 _atom_site_label
 _atom_site_symmetry_multiplicity
 _atom_site_fract_x
 _atom_site_fract_y
 _atom_site_fract_z
 _atom_site_occupancy
  C  C0  1  0.00002090  0.36672205  0.82671694  1
  C  C1  1  0.99996233  0.64018133  0.16531201  1
  Ni  Ni2  1  0.00000332  0.50353376  0.49596934  1
  Cu  Cu3  1  0.49994104  0.20484703  0.07678444  1
  Cu  Cu4  1  0.49999095  0.19987910  0.40617502  1
  Cu  Cu5  1  0.50003250  0.80586664  0.58863564  1
  Cu  Cu6  1  0.50003455  0.80203893  0.91669392  1
  C  C7  1  0.00002937  0.24823019  0.40982778  1
  C  C8  1  0.50019978  0.90713267  0.39791642  1
  C  C9  1  0.50001064  0.89361607  0.10038664  1
  C  C10  1  0.00001223  0.22479366  0.06998614  1
  C  C11  1  0.49982768  0.09748716  0.59906961  1
  C  C12  1  0.99998708  0.75415941  0.58571601  1
  C  C13  1  0.99996879  0.78251434  0.92305093  1
  C  C14  1  0.50004893  0.31652638  0.23899598  1
  C  C15  1  0.49999787  0.50356974  0.99746839  1
  C  C16  1  0.49997939  0.11288817  0.89286809  1
  C  C17  1  0.49994343  0.68589016  0.75573666  1
  C  C18  1  0.50000921  0.50220521  0.49643703  1
