# generated using pymatgen
data_Cu3NiC9
_symmetry_space_group_name_H-M   'P 1'
_cell_length_a   5.21701191
_cell_length_b   5.21701227
_cell_length_c   8.40161955
_cell_angle_alpha   98.56636956
_cell_angle_beta   98.56636895
_cell_angle_gamma   63.92956587
_symmetry_Int_Tables_number   1
_chemical_formula_structural   Cu3NiC9
_chemical_formula_sum   'Cu3 Ni1 C9'
_cell_volume   202.21188242
_cell_formula_units_Z   1
loop_
 _symmetry_equiv_pos_site_id
 _symmetry_equiv_pos_as_xyz
  1  'x, y, z'
loop_
 _atom_site_type_symbol
 _atom_site_label
 _atom_site_symmetry_multiplicity
 _atom_site_fract_x
 _atom_site_fract_y
 _atom_site_fract_z
 _atom_site_occupancy
  Ni  Ni0  1  0.89416803  0.89416803  0.16584008  1
  Cu  Cu1  1  0.37895129  0.37895129  0.70877444  1
  Cu  Cu2  1  0.60497974  0.60497974  0.31754356  1
  Cu  Cu3  1  0.99449087  0.99449087  0.51824170  1
  C  C4  1  0.07363294  0.07363294  0.92216977  1
  C  C5  1  0.75174953  0.23482708  0.69785612  1
  C  C6  1  0.31390132  0.31390132  0.89057615  1
  C  C7  1  0.75157763  0.23324273  0.33144429  1
  C  C8  1  0.21938703  0.21938703  0.56600416  1
  C  C9  1  0.23324273  0.75157763  0.33144429  1
  C  C10  1  0.23482708  0.75174953  0.69785612  1
  C  C11  1  0.76720075  0.76720075  0.45657916  1
  C  C12  1  0.66939106  0.66939106  0.13567015  1
