# generated using pymatgen
data_Cu4NiC
_symmetry_space_group_name_H-M   'P 1'
_cell_length_a   6.83718301
_cell_length_b   8.28246604
_cell_length_c   8.38163950
_cell_angle_alpha   101.76399547
_cell_angle_beta   93.24728410
_cell_angle_gamma   98.92090535
_symmetry_Int_Tables_number   1
_chemical_formula_structural   Cu4NiC
_chemical_formula_sum   'Cu8 Ni2 C2'
_cell_volume   457.13562650
_cell_formula_units_Z   2
loop_
 _symmetry_equiv_pos_site_id
 _symmetry_equiv_pos_as_xyz
  1  'x, y, z'
loop_
 _atom_site_type_symbol
 _atom_site_label
 _atom_site_symmetry_multiplicity
 _atom_site_fract_x
 _atom_site_fract_y
 _atom_site_fract_z
 _atom_site_occupancy
  C  C0  1  0.15322956  0.21755567  0.76162956  1
  C  C1  1  0.84677044  0.78244433  0.23837044  1
  Ni  Ni2  1  0.32848802  0.28780175  0.98727630  1
  Ni  Ni3  1  0.67151198  0.71219825  0.01272370  1
  Cu  Cu4  1  0.83991838  0.12521167  0.82906043  1
  Cu  Cu5  1  0.82539974  0.06159497  0.32772163  1
  Cu  Cu6  1  0.37232237  0.27061596  0.57317804  1
  Cu  Cu7  1  0.03865037  0.45782174  0.73257502  1
  Cu  Cu8  1  0.96134963  0.54217826  0.26742498  1
  Cu  Cu9  1  0.62767763  0.72938404  0.42682196  1
  Cu  Cu10  1  0.17460026  0.93840503  0.67227837  1
  Cu  Cu11  1  0.16008162  0.87478833  0.17093957  1
