# generated using pymatgen
data_Cu11NiC62
_symmetry_space_group_name_H-M   'P 1'
_cell_length_a   17.58359102
_cell_length_b   8.79332597
_cell_length_c   22.84308796
_cell_angle_alpha   90.12455928
_cell_angle_beta   90.02681980
_cell_angle_gamma   119.93785538
_symmetry_Int_Tables_number   1
_chemical_formula_structural   Cu11NiC62
_chemical_formula_sum   'Cu33 Ni3 C186'
_cell_volume   3060.66703497
_cell_formula_units_Z   3
loop_
 _symmetry_equiv_pos_site_id
 _symmetry_equiv_pos_as_xyz
  1  'x, y, z'
loop_
 _atom_site_type_symbol
 _atom_site_label
 _atom_site_symmetry_multiplicity
 _atom_site_fract_x
 _atom_site_fract_y
 _atom_site_fract_z
 _atom_site_occupancy
  C  C0  1  0.68657521  0.36398049  0.24299256  1
  C  C1  1  0.99569359  0.63505320  0.25474198  1
  C  C2  1  0.33475503  0.96549949  0.59030482  1
  C  C3  1  0.83565387  0.96656206  0.59038526  1
  C  C4  1  0.33462457  0.69962635  0.08209090  1
  C  C5  1  0.34508199  0.66485626  0.41467464  1
  C  C6  1  0.00649183  0.99733857  0.49664494  1
  C  C7  1  0.50970936  0.01302295  0.50049335  1
  C  C8  1  0.00043142  0.99925848  0.99871373  1
  C  C9  1  0.50957305  0.01428491  0.00359851  1
  C  C10  1  0.33344139  0.32402392  0.83963496  1
  C  C11  1  0.83285001  0.32399158  0.83970333  1
  C  C12  1  0.32901900  0.32120114  0.33011603  1
  C  C13  1  0.83810435  0.33971959  0.33445261  1
  C  C14  1  0.16902524  0.67051042  0.16613520  1
  C  C15  1  0.66817767  0.67370239  0.15739546  1
  C  C16  1  0.16848513  0.66821015  0.67474224  1
  C  C17  1  0.66957849  0.66899383  0.67524900  1
  C  C18  1  0.00006048  0.99246151  0.35177324  1
  C  C19  1  0.49863073  0.00214524  0.34934821  1
  C  C20  1  0.99864694  0.99712890  0.65139604  1
  C  C21  1  0.49909200  0.99740879  0.65184221  1
  C  C22  1  0.50141773  0.00334453  0.14765786  1
  C  C23  1  0.33451120  0.33491015  0.18267656  1
  C  C24  1  0.83317915  0.33394486  0.18139406  1
  C  C25  1  0.33480068  0.32898823  0.98274156  1
  C  C26  1  0.83016178  0.33109107  0.98270944  1
  C  C27  1  0.32994638  0.32477084  0.48218445  1
  C  C28  1  0.83658515  0.34224172  0.48043542  1
  C  C29  1  0.16404438  0.67072018  0.01585464  1
  C  C30  1  0.66654081  0.66605496  0.01732912  1
  C  C31  1  0.16114325  0.65841555  0.51487215  1
  C  C32  1  0.66436282  0.66071658  0.51717436  1
  C  C33  1  0.16973400  0.66700545  0.31767733  1
  C  C34  1  0.17105892  0.67645005  0.81558013  1
  C  C35  1  0.67161282  0.67687647  0.81576304  1
  C  C36  1  0.99465459  0.00345124  0.85292857  1
  C  C37  1  0.49538522  0.00382261  0.85351860  1
  C  C38  1  0.99404384  0.99375113  0.14793254  1
  C  C39  1  0.33440170  0.32862832  0.68909521  1
  C  C40  1  0.83450152  0.32913866  0.68867370  1
  C  C41  1  0.66975060  0.67365431  0.31477410  1
  Ni  Ni42  1  0.85435598  0.69951496  0.25299184  1
  Ni  Ni43  1  0.34768733  0.98277327  0.74466030  1
  Ni  Ni44  1  0.84735811  0.98341108  0.74451913  1
  Cu  Cu45  1  0.14998512  0.00442914  0.25153081  1
  Cu  Cu46  1  0.64340691  0.00167302  0.24956742  1
  Cu  Cu47  1  0.35263658  0.70459371  0.25016423  1
  Cu  Cu48  1  0.00121535  0.29605161  0.25210829  1
  Cu  Cu49  1  0.49531982  0.28518969  0.25044979  1
  Cu  Cu50  1  0.14351003  0.29431489  0.74893883  1
  Cu  Cu51  1  0.64363615  0.29456646  0.74889571  1
  Cu  Cu52  1  0.00352618  0.71258895  0.74898154  1
  Cu  Cu53  1  0.50357255  0.71267788  0.74902192  1
  Cu  Cu54  1  0.48218728  0.33623781  0.58037462  1
  Cu  Cu55  1  0.98238780  0.33586649  0.58052683  1
  Cu  Cu56  1  0.18398238  0.03748847  0.58105474  1
  Cu  Cu57  1  0.68469861  0.03950879  0.58024783  1
  Cu  Cu58  1  0.33381010  0.62908253  0.57931569  1
  Cu  Cu59  1  0.83368813  0.62812514  0.58040573  1
  Cu  Cu60  1  0.47996454  0.62445596  0.08369502  1
  Cu  Cu61  1  0.98119935  0.62109690  0.08294839  1
  Cu  Cu62  1  0.33292975  0.04006772  0.08368470  1
  Cu  Cu63  1  0.83019757  0.04283849  0.08224519  1
  Cu  Cu64  1  0.18960935  0.33725581  0.08215939  1
  Cu  Cu65  1  0.68545717  0.33355784  0.08390549  1
  Cu  Cu66  1  0.31004870  0.65778608  0.91897026  1
  Cu  Cu67  1  0.80943845  0.65807744  0.91809387  1
  Cu  Cu68  1  0.02151746  0.38401928  0.91763117  1
  Cu  Cu69  1  0.52189331  0.38452402  0.91733903  1
  Cu  Cu70  1  0.16922896  0.96103639  0.91775146  1
  Cu  Cu71  1  0.66916736  0.95900821  0.91803475  1
  Cu  Cu72  1  0.31370044  0.96189350  0.41762140  1
  Cu  Cu73  1  0.81592891  0.96639360  0.42088012  1
  Cu  Cu74  1  0.16595891  0.37147782  0.41694767  1
  Cu  Cu75  1  0.66554020  0.36768921  0.41788757  1
  Cu  Cu76  1  0.02012637  0.66728993  0.41611438  1
  Cu  Cu77  1  0.51786420  0.66697412  0.41878933  1
  C  C78  1  0.10959280  0.03245892  0.30360297  1
  C  C79  1  0.60439036  0.03080501  0.30253644  1
  C  C80  1  0.40555907  0.78670497  0.30421423  1
  C  C81  1  0.91749285  0.79284046  0.30694096  1
  C  C82  1  0.48620912  0.18495173  0.30386158  1
  C  C83  1  0.99062607  0.18904021  0.30372296  1
  C  C84  1  0.10651856  0.18241127  0.80208885  1
  C  C85  1  0.60641982  0.18235883  0.80204492  1
  C  C86  1  0.48945055  0.79350748  0.80219226  1
  C  C87  1  0.98982986  0.79403691  0.80219912  1
  C  C88  1  0.41314067  0.02301642  0.80283026  1
  C  C89  1  0.91276256  0.02401062  0.80278516  1
  C  C90  1  0.39283703  0.97370469  0.68472103  1
  C  C91  1  0.89286772  0.97385037  0.68487101  1
  C  C92  1  0.09328356  0.20828911  0.69615915  1
  C  C93  1  0.59338373  0.20866292  0.69606320  1
  C  C94  1  0.01587581  0.81720833  0.69649403  1
  C  C95  1  0.51573314  0.81687454  0.69644421  1
  C  C96  1  0.39466519  0.81241852  0.19727879  1
  C  C97  1  0.89642681  0.82172955  0.19322453  1
  C  C98  1  0.01549844  0.21475231  0.19798638  1
  C  C99  1  0.51532478  0.21111990  0.19857546  1
  C  C100  1  0.09224728  0.97504920  0.19836755  1
  C  C101  1  0.59050675  0.97419554  0.19701869  1
  C  C102  1  0.43948555  0.35877906  0.63453442  1
  C  C103  1  0.93913240  0.35847420  0.63465697  1
  C  C104  1  0.24183733  0.12339044  0.63425909  1
  C  C105  1  0.74166654  0.12356123  0.63394632  1
  C  C106  1  0.32274269  0.52082499  0.63229270  1
  C  C107  1  0.82175610  0.52289141  0.63442982  1
  C  C108  1  0.43923463  0.51937486  0.13676814  1
  C  C109  1  0.94251891  0.52617467  0.13809170  1
  C  C110  1  0.32096279  0.12133636  0.13663719  1
  C  C111  1  0.82194313  0.12372802  0.13643327  1
  C  C112  1  0.24253229  0.36336107  0.13544518  1
  C  C113  1  0.73580255  0.35583701  0.13903935  1
  C  C114  1  0.22950702  0.31050183  0.02981088  1
  C  C115  1  0.72922314  0.30968746  0.03264395  1
  C  C116  1  0.42348600  0.54326863  0.03165574  1
  C  C117  1  0.92566680  0.53941720  0.03160584  1
  C  C118  1  0.34503113  0.14451861  0.03080982  1
  C  C119  1  0.84377876  0.14933768  0.03015610  1
  C  C120  1  0.22665326  0.14691096  0.52976650  1
  C  C121  1  0.72787403  0.14920658  0.52909595  1
  C  C122  1  0.34316089  0.54343407  0.52643200  1
  C  C123  1  0.84247164  0.53880461  0.52909035  1
  C  C124  1  0.42385886  0.30659173  0.53014591  1
  C  C125  1  0.92358304  0.30472153  0.53037603  1
  C  C126  1  0.27370170  0.68846848  0.97304575  1
  C  C127  1  0.77183051  0.69007726  0.97061230  1
  C  C128  1  0.07432972  0.46157044  0.97025558  1
  C  C129  1  0.57418390  0.46227412  0.97013650  1
  C  C130  1  0.15490256  0.85548284  0.97057920  1
  C  C131  1  0.65536804  0.85316524  0.97066503  1
  C  C132  1  0.27496230  0.85417055  0.47133544  1
  C  C133  1  0.77266154  0.85732268  0.47269195  1
  C  C134  1  0.15506267  0.45440398  0.47012110  1
  C  C135  1  0.65343642  0.45703807  0.46850799  1
  C  C136  1  0.07457456  0.68703258  0.46797945  1
  C  C137  1  0.57314539  0.69131603  0.47002979  1
  C  C138  1  0.05952378  0.64414092  0.36138141  1
  C  C139  1  0.55931250  0.64229648  0.36492121  1
  C  C140  1  0.25941166  0.87591301  0.36556636  1
  C  C141  1  0.75862361  0.87418897  0.36735148  1
  C  C142  1  0.18246668  0.48522602  0.36510963  1
  C  C143  1  0.67674187  0.47545371  0.36295994  1
  C  C144  1  0.06256659  0.48195701  0.86389303  1
  C  C145  1  0.56261918  0.48204799  0.86364198  1
  C  C146  1  0.17854134  0.87757514  0.86448401  1
  C  C147  1  0.67850572  0.87695445  0.86454829  1
  C  C148  1  0.25795527  0.63978584  0.86655157  1
  C  C149  1  0.75954947  0.63865371  0.86455367  1
  C  C150  1  0.01278412  0.82814253  0.41308030  1
  C  C151  1  0.50740717  0.82356659  0.41159044  1
  C  C152  1  0.40154127  0.97337272  0.41116555  1
  C  C153  1  0.90240222  0.98284296  0.41276309  1
  C  C154  1  0.08831357  0.19547855  0.40990095  1
  C  C155  1  0.58653382  0.19418860  0.41020932  1
  C  C156  1  0.01355587  0.20195433  0.91304627  1
  C  C157  1  0.51373035  0.20228947  0.91294223  1
  C  C158  1  0.08872805  0.98090727  0.91156681  1
  C  C159  1  0.58863119  0.97944587  0.91188519  1
  C  C160  1  0.40114285  0.82012031  0.91273835  1
  C  C161  1  0.90142682  0.82039490  0.91228790  1
  C  C162  1  0.48985907  0.17650500  0.58654833  1
  C  C163  1  0.98998742  0.17622797  0.58717395  1
  C  C164  1  0.09714805  0.01888231  0.58998611  1
  C  C165  1  0.59750054  0.01982792  0.58913149  1
  C  C166  1  0.41359917  0.80540947  0.58452067  1
  C  C167  1  0.91324953  0.80467690  0.58522617  1
  C  C168  1  0.48599507  0.80091846  0.08987934  1
  C  C169  1  0.99206810  0.80456159  0.08803713  1
  C  C170  1  0.41118418  0.01484220  0.08958727  1
  C  C171  1  0.91343299  0.02778658  0.08701130  1
  C  C172  1  0.09971057  0.17966622  0.08875858  1
  C  C173  1  0.59684595  0.17451057  0.08916517  1
  C  C174  1  0.34338019  0.17189705  0.74420774  1
  C  C175  1  0.84307177  0.17213739  0.74411714  1
  C  C176  1  0.23430496  0.31680428  0.74358966  1
  C  C177  1  0.73419616  0.31661474  0.74360727  1
  C  C178  1  0.41970744  0.53797213  0.74361189  1
  C  C179  1  0.91981984  0.53803034  0.74379097  1
  C  C180  1  0.34385426  0.52812480  0.24429412  1
  C  C181  1  0.83981186  0.50363476  0.24365929  1
  C  C182  1  0.41950271  0.30964927  0.24339350  1
  C  C183  1  0.92212564  0.31258838  0.24356108  1
  C  C184  1  0.23735459  0.15682057  0.24222217  1
  C  C185  1  0.73275669  0.15385297  0.24355788  1
  C  C186  1  0.32247737  0.50468112  0.92394964  1
  C  C187  1  0.82239910  0.50532120  0.92395834  1
  C  C188  1  0.43194228  0.35588249  0.92256452  1
  C  C189  1  0.93172686  0.35584859  0.92310390  1
  C  C190  1  0.24696215  0.13835610  0.92335107  1
  C  C191  1  0.74664450  0.13740353  0.92348839  1
  C  C192  1  0.32498866  0.13915930  0.42357617  1
  C  C193  1  0.82067257  0.13786451  0.42347070  1
  C  C194  1  0.24796175  0.35875053  0.42273382  1
  C  C195  1  0.74542697  0.35454624  0.42207096  1
  C  C196  1  0.42910439  0.51058023  0.42336262  1
  C  C197  1  0.93161860  0.50845412  0.42181960  1
  C  C198  1  0.18097549  0.49695359  0.07671717  1
  C  C199  1  0.67682860  0.49258199  0.07784890  1
  C  C200  1  0.06969661  0.64406246  0.07726323  1
  C  C201  1  0.56866037  0.64737968  0.07691794  1
  C  C202  1  0.25496815  0.85844440  0.07805886  1
  C  C203  1  0.75460674  0.86385461  0.07704304  1
  C  C204  1  0.18040297  0.86535920  0.57650629  1
  C  C205  1  0.68040632  0.86613086  0.57604176  1
  C  C206  1  0.25574796  0.65267582  0.57545810  1
  C  C207  1  0.75547837  0.65210970  0.57601488  1
  C  C208  1  0.06865416  0.49470017  0.57605772  1
  C  C209  1  0.56879980  0.49498187  0.57557668  1
  C  C210  1  0.15280208  0.83796332  0.25584426  1
  C  C211  1  0.65154323  0.83987337  0.25694910  1
  C  C212  1  0.26451130  0.68801819  0.25629122  1
  C  C213  1  0.75350651  0.67537427  0.25603405  1
  C  C214  1  0.07868052  0.47618874  0.25610764  1
  C  C215  1  0.57751478  0.46530708  0.25773302  1
  C  C216  1  0.15089505  0.46506329  0.75743627  1
  C  C217  1  0.65090583  0.46517873  0.75731624  1
  C  C218  1  0.07655236  0.68122710  0.75712821  1
  C  C219  1  0.57637096  0.68084980  0.75714088  1
  C  C220  1  0.25211448  0.81994855  0.75441903  1
  C  C221  1  0.75195179  0.82050441  0.75437106  1
