# generated using pymatgen
data_Cu24Ni6C5
_symmetry_space_group_name_H-M   'P 1'
_cell_length_a   8.80935274
_cell_length_b   8.80935245
_cell_length_c   22.88447636
_cell_angle_alpha   90.00000000
_cell_angle_beta   90.00000000
_cell_angle_gamma   120.00000109
_symmetry_Int_Tables_number   1
_chemical_formula_structural   Cu24Ni6C5
_chemical_formula_sum   'Cu72 Ni18 C15'
_cell_volume   1538.01153408
_cell_formula_units_Z   3
loop_
 _symmetry_equiv_pos_site_id
 _symmetry_equiv_pos_as_xyz
  1  'x, y, z'
loop_
 _atom_site_type_symbol
 _atom_site_label
 _atom_site_symmetry_multiplicity
 _atom_site_fract_x
 _atom_site_fract_y
 _atom_site_fract_z
 _atom_site_occupancy
  C  C0  1  0.00000000  -0.00000000  0.99819465  1
  C  C1  1  0.66666700  0.33333300  0.83511160  1
  C  C2  1  0.66666700  0.33333300  0.33337968  1
  C  C3  1  0.00000000  -0.00000000  0.64597244  1
  C  C4  1  0.00000000  -0.00000000  0.14826128  1
  C  C5  1  0.66666700  0.33333300  0.68583594  1
  C  C6  1  0.66666700  0.33333300  0.18485817  1
  C  C7  1  0.66666700  0.33333300  0.48081264  1
  C  C8  1  0.33333300  0.66666700  0.02058366  1
  C  C9  1  0.33333300  0.66666700  0.52039851  1
  C  C10  1  0.33333300  0.66666700  0.31202877  1
  C  C11  1  0.33333300  0.66666700  0.81257484  1
  C  C12  1  0.00000000  -0.00000000  0.35348825  1
  C  C13  1  0.00000000  -0.00000000  0.85090006  1
  C  C14  1  0.66666700  0.33333300  0.98224920  1
  Ni  Ni15  1  0.28915678  0.00016534  0.25109588  1
  Ni  Ni16  1  0.71100856  0.71084322  0.25109588  1
  Ni  Ni17  1  -0.00016534  0.28899144  0.25109588  1
  Ni  Ni18  1  0.28863055  0.28875413  0.75083565  1
  Ni  Ni19  1  0.00012358  0.71136945  0.75083565  1
  Ni  Ni20  1  0.71124587  -0.00012358  0.75083565  1
  Ni  Ni21  1  0.95748389  0.33335066  0.58331909  1
  Ni  Ni22  1  0.37586777  0.04251611  0.58331909  1
  Ni  Ni23  1  0.66664934  0.62413223  0.58331909  1
  Ni  Ni24  1  0.95595863  0.62269037  0.08229030  1
  Ni  Ni25  1  0.66673274  0.04404137  0.08229030  1
  Ni  Ni26  1  0.37730963  0.33326726  0.08229030  1
  Ni  Ni27  1  0.62628131  0.66669409  0.91665744  1
  Ni  Ni28  1  0.04041178  0.37371869  0.91665744  1
  Ni  Ni29  1  0.33330591  0.95958822  0.91665744  1
  Ni  Ni30  1  0.62649190  0.95646768  0.41623421  1
  Ni  Ni31  1  0.32997479  0.37350810  0.41623421  1
  Ni  Ni32  1  0.04353232  0.67002521  0.41623421  1
  Cu  Cu33  1  0.21285557  0.03295150  0.30308484  1
  Cu  Cu34  1  0.82009593  0.78714443  0.30308484  1
  Cu  Cu35  1  0.96704850  0.17990407  0.30308484  1
  Cu  Cu36  1  0.21330012  0.18017699  0.80302850  1
  Cu  Cu37  1  0.96687687  0.78669988  0.80302850  1
  Cu  Cu38  1  0.81982301  0.03312313  0.80302850  1
  Cu  Cu39  1  0.79041481  0.97195352  0.69757933  1
  Cu  Cu40  1  0.18153871  0.20958519  0.69757933  1
  Cu  Cu41  1  0.02804648  0.81846129  0.69757933  1
  Cu  Cu42  1  0.78980589  0.81794847  0.19770177  1
  Cu  Cu43  1  0.02814258  0.21019411  0.19770177  1
  Cu  Cu44  1  0.18205153  0.97185742  0.19770177  1
  Cu  Cu45  1  0.87624896  0.36323373  0.63554610  1
  Cu  Cu46  1  0.48698578  0.12375104  0.63554610  1
  Cu  Cu47  1  0.63676627  0.51301422  0.63554610  1
  Cu  Cu48  1  0.87669334  0.51524248  0.13563723  1
  Cu  Cu49  1  0.63855014  0.12330666  0.13563723  1
  Cu  Cu50  1  0.48475752  0.36144986  0.13563723  1
  Cu  Cu51  1  0.45354467  0.30027043  0.03030413  1
  Cu  Cu52  1  0.84672676  0.54645533  0.03030413  1
  Cu  Cu53  1  0.69972957  0.15327324  0.03030413  1
  Cu  Cu54  1  0.45715076  0.15379996  0.53114118  1
  Cu  Cu55  1  0.69665020  0.54284924  0.53114118  1
  Cu  Cu56  1  0.84620004  0.30334980  0.53114118  1
  Cu  Cu57  1  0.54310737  0.69483479  0.96922496  1
  Cu  Cu58  1  0.15172642  0.45689263  0.96922496  1
  Cu  Cu59  1  0.30516521  0.84827358  0.96922496  1
  Cu  Cu60  1  0.54223152  0.84856175  0.46895540  1
  Cu  Cu61  1  0.30632923  0.45776848  0.46895540  1
  Cu  Cu62  1  0.15143825  0.69367077  0.46895540  1
  Cu  Cu63  1  0.12291856  0.63540867  0.36417745  1
  Cu  Cu64  1  0.51248911  0.87708144  0.36417745  1
  Cu  Cu65  1  0.36459133  0.48751089  0.36417745  1
  Cu  Cu66  1  0.12352914  0.48503245  0.86414024  1
  Cu  Cu67  1  0.36150231  0.87647086  0.86414024  1
  Cu  Cu68  1  0.51496755  0.63849769  0.86414024  1
  Cu  Cu69  1  0.02431382  0.82377418  0.40846299  1
  Cu  Cu70  1  0.79946036  0.97568618  0.40846299  1
  Cu  Cu71  1  0.17622582  0.20053964  0.40846299  1
  Cu  Cu72  1  0.02513297  0.19935015  0.91020665  1
  Cu  Cu73  1  0.17421718  0.97486703  0.91020665  1
  Cu  Cu74  1  0.80064985  0.82578282  0.91020665  1
  Cu  Cu75  1  0.97507797  0.17723001  0.59199694  1
  Cu  Cu76  1  0.20215204  0.02492203  0.59199694  1
  Cu  Cu77  1  0.82276999  0.79784796  0.59199694  1
  Cu  Cu78  1  0.97633875  0.80056234  0.09093202  1
  Cu  Cu79  1  0.82422359  0.02366125  0.09093202  1
  Cu  Cu80  1  0.19943766  0.17577641  0.09093202  1
  Cu  Cu81  1  0.69035458  0.15746056  0.74236291  1
  Cu  Cu82  1  0.46710698  0.30964542  0.74236291  1
  Cu  Cu83  1  0.84253944  0.53289302  0.74236291  1
  Cu  Cu84  1  0.69015501  0.53264998  0.24247927  1
  Cu  Cu85  1  0.84249598  0.30984499  0.24247927  1
  Cu  Cu86  1  0.46735002  0.15750402  0.24247927  1
  Cu  Cu87  1  0.64156130  0.50758819  0.92317095  1
  Cu  Cu88  1  0.86602788  0.35843870  0.92317095  1
  Cu  Cu89  1  0.49241181  0.13397212  0.92317095  1
  Cu  Cu90  1  0.64128502  0.13295983  0.42384706  1
  Cu  Cu91  1  0.49167581  0.35871498  0.42384706  1
  Cu  Cu92  1  0.86704017  0.50832419  0.42384706  1
  Cu  Cu93  1  0.35747892  0.48889672  0.07514273  1
  Cu  Cu94  1  0.13141680  0.64252108  0.07514273  1
  Cu  Cu95  1  0.51110328  0.86858320  0.07514273  1
  Cu  Cu96  1  0.35817001  0.86884978  0.57469764  1
  Cu  Cu97  1  0.51067878  0.64182999  0.57469764  1
  Cu  Cu98  1  0.13115022  0.48932122  0.57469764  1
  Cu  Cu99  1  0.30918031  0.84447561  0.25823499  1
  Cu  Cu100  1  0.53529430  0.69081969  0.25823499  1
  Cu  Cu101  1  0.15552439  0.46470570  0.25823499  1
  Cu  Cu102  1  0.30917413  0.46461363  0.75818424  1
  Cu  Cu103  1  0.15543849  0.69082587  0.75818424  1
  Cu  Cu104  1  0.53538637  0.84456151  0.75818424  1
