# generated using pymatgen
data_Cu3NiC16
_symmetry_space_group_name_H-M   'P 1'
_cell_length_a   5.59734346
_cell_length_b   5.65855225
_cell_length_c   7.93595519
_cell_angle_alpha   90.11089969
_cell_angle_beta   90.00118672
_cell_angle_gamma   90.16779695
_symmetry_Int_Tables_number   1
_chemical_formula_structural   Cu3NiC16
_chemical_formula_sum   'Cu3 Ni1 C16'
_cell_volume   251.35285210
_cell_formula_units_Z   1
loop_
 _symmetry_equiv_pos_site_id
 _symmetry_equiv_pos_as_xyz
  1  'x, y, z'
loop_
 _atom_site_type_symbol
 _atom_site_label
 _atom_site_symmetry_multiplicity
 _atom_site_fract_x
 _atom_site_fract_y
 _atom_site_fract_z
 _atom_site_occupancy
  C  C0  1  0.00665700  0.03860400  0.25347700  1
  C  C1  1  0.49258100  0.54341400  0.25404400  1
  C  C2  1  0.50741900  0.45658600  0.74595600  1
  C  C3  1  0.99334300  0.96139600  0.74652300  1
  Ni  Ni4  1  0.50000000  0.00000000  0.50000000  1
  Cu  Cu5  1  0.00000000  0.50000000  0.00000000  1
  Cu  Cu6  1  0.00000000  0.50000000  0.50000000  1
  Cu  Cu7  1  0.50000000  0.00000000  0.00000000  1
  C  C8  1  0.07615000  0.51786500  0.74858200  1
  C  C9  1  0.21592400  0.78460500  0.04000400  1
  C  C10  1  0.19886300  0.78910400  0.45725100  1
  C  C11  1  0.28644400  0.28475600  0.04221400  1
  C  C12  1  0.28953900  0.30226200  0.45901800  1
  C  C13  1  0.41824200  0.02232100  0.75483500  1
  C  C14  1  0.58175800  0.97767900  0.24516500  1
  C  C15  1  0.71046100  0.69773800  0.54098200  1
  C  C16  1  0.71355600  0.71524400  0.95778600  1
  C  C17  1  0.80113700  0.21089600  0.54274900  1
  C  C18  1  0.78407600  0.21539500  0.95999600  1
  C  C19  1  0.92385000  0.48213500  0.25141800  1
