# generated using pymatgen
data_Cu6Ni2C7
_symmetry_space_group_name_H-M   'P 1'
_cell_length_a   4.08253545
_cell_length_b   4.05675493
_cell_length_c   14.98102109
_cell_angle_alpha   89.98145447
_cell_angle_beta   90.03917334
_cell_angle_gamma   88.91464728
_symmetry_Int_Tables_number   1
_chemical_formula_structural   Cu6Ni2C7
_chemical_formula_sum   'Cu6 Ni2 C7'
_cell_volume   248.06877421
_cell_formula_units_Z   1
loop_
 _symmetry_equiv_pos_site_id
 _symmetry_equiv_pos_as_xyz
  1  'x, y, z'
loop_
 _atom_site_type_symbol
 _atom_site_label
 _atom_site_symmetry_multiplicity
 _atom_site_fract_x
 _atom_site_fract_y
 _atom_site_fract_z
 _atom_site_occupancy
  C  C0  1  0.24991800  0.24996800  0.35170400  1
  C  C1  1  0.24888400  0.25042100  0.13601500  1
  C  C2  1  0.75035100  0.74889500  0.86424100  1
  C  C3  1  0.75000900  0.75011100  0.64811500  1
  C  C4  1  0.25065200  0.75067300  0.99959200  1
  C  C5  1  0.74966200  0.74992300  0.22425500  1
  C  C6  1  0.24989800  0.25019400  0.77491500  1
  Ni  Ni7  1  0.74992000  0.74991300  0.42681100  1
  Ni  Ni8  1  0.24985100  0.25003700  0.57346100  1
  Cu  Cu9  1  0.24981500  0.75002800  0.23370500  1
  Cu  Cu10  1  0.25023600  0.25031800  0.94738200  1
  Cu  Cu11  1  0.25006600  0.74946100  0.76757500  1
  Cu  Cu12  1  0.74973600  0.25008100  0.24137300  1
  Cu  Cu13  1  0.75032500  0.24980700  0.75788900  1
  Cu  Cu14  1  0.75068100  0.75017100  0.05297000  1
