# generated using pymatgen
data_Cu2NiC5
_symmetry_space_group_name_H-M   'P 1'
_cell_length_a   3.35498116
_cell_length_b   3.35498116
_cell_length_c   11.35792934
_cell_angle_alpha   81.50671875
_cell_angle_beta   81.50671875
_cell_angle_gamma   59.99999807
_symmetry_Int_Tables_number   1
_chemical_formula_structural   Cu2NiC5
_chemical_formula_sum   'Cu2 Ni1 C5'
_cell_volume   109.09395368
_cell_formula_units_Z   1
loop_
 _symmetry_equiv_pos_site_id
 _symmetry_equiv_pos_as_xyz
  1  'x, y, z'
loop_
 _atom_site_type_symbol
 _atom_site_label
 _atom_site_symmetry_multiplicity
 _atom_site_fract_x
 _atom_site_fract_y
 _atom_site_fract_z
 _atom_site_occupancy
  C  C0  1  0.00000000  0.00000000  -0.00000000  1
  Ni  Ni1  1  0.50000000  0.50000000  0.50000000  1
  Cu  Cu2  1  0.23850055  0.23850055  0.28449734  1
  Cu  Cu3  1  0.76149945  0.76149945  0.71550266  1
  C  C4  1  0.29891426  0.29891426  0.10325821  1
  C  C5  1  0.70108574  0.70108574  0.89674179  1
  C  C6  1  0.13193916  0.13193916  0.60418352  1
  C  C7  1  0.86806084  0.86806084  0.39581648  1
