# generated using pymatgen
data_Cu2NiC18
_symmetry_space_group_name_H-M   'P 1'
_cell_length_a   5.81606745
_cell_length_b   5.99891145
_cell_length_c   8.07712856
_cell_angle_alpha   87.20165844
_cell_angle_beta   85.00265183
_cell_angle_gamma   91.17893792
_symmetry_Int_Tables_number   1
_chemical_formula_structural   Cu2NiC18
_chemical_formula_sum   'Cu2 Ni1 C18'
_cell_volume   280.31829450
_cell_formula_units_Z   1
loop_
 _symmetry_equiv_pos_site_id
 _symmetry_equiv_pos_as_xyz
  1  'x, y, z'
loop_
 _atom_site_type_symbol
 _atom_site_label
 _atom_site_symmetry_multiplicity
 _atom_site_fract_x
 _atom_site_fract_y
 _atom_site_fract_z
 _atom_site_occupancy
  C  C0  1  0.89234000  0.89565700  0.64999500  1
  C  C1  1  0.46426100  0.43393700  0.74333200  1
  C  C2  1  0.03211300  0.06727900  0.20117000  1
  C  C3  1  0.52156200  0.58212900  0.23987400  1
  Ni  Ni4  1  0.29171800  0.94332100  0.81155500  1
  C  C5  1  0.47648400  0.02740300  0.47780300  1
  C  C6  1  0.01323100  0.52278200  0.99769900  1
  Cu  Cu7  1  0.98250100  0.43185100  0.50072600  1
  Cu  Cu8  1  0.58135200  0.05115400  0.02783100  1
  C  C9  1  0.86785500  0.53808400  0.74712900  1
  C  C10  1  0.59791000  0.07312900  0.76097800  1
  C  C11  1  0.13832900  0.44490000  0.25934500  1
  C  C12  1  0.38888100  0.95384900  0.25512500  1
  C  C13  1  0.77675300  0.84537200  0.40077500  1
  C  C14  1  0.74940400  0.33217900  0.08684200  1
  C  C15  1  0.18122300  0.16910500  0.59533300  1
  C  C16  1  0.32007200  0.67303600  0.95815200  1
  C  C17  1  0.22109300  0.20808200  0.94996200  1
  C  C18  1  0.32937700  0.75413000  0.59927300  1
  C  C19  1  0.84268200  0.81151500  0.03737500  1
  C  C20  1  0.63085800  0.32443800  0.45805600  1
