# generated using pymatgen
data_CuNi3C
_symmetry_space_group_name_H-M   'P 1'
_cell_length_a   6.29014900
_cell_length_b   10.20946900
_cell_length_c   16.97105500
_cell_angle_alpha   90.00000000
_cell_angle_beta   90.00000000
_cell_angle_gamma   90.00000000
_symmetry_Int_Tables_number   1
_chemical_formula_structural   CuNi3C
_chemical_formula_sum   'Cu8 Ni24 C8'
_cell_volume   1089.86555945
_cell_formula_units_Z   8
loop_
 _symmetry_equiv_pos_site_id
 _symmetry_equiv_pos_as_xyz
  1  'x, y, z'
loop_
 _atom_site_type_symbol
 _atom_site_label
 _atom_site_symmetry_multiplicity
 _atom_site_fract_x
 _atom_site_fract_y
 _atom_site_fract_z
 _atom_site_occupancy
  C  C0  1  0.09890300  0.41204200  0.36119700  1
  C  C1  1  0.59890300  0.08795800  0.63880300  1
  C  C2  1  0.90109700  0.91204200  0.13880300  1
  C  C3  1  0.40109700  0.58795800  0.86119700  1
  C  C4  1  0.90109700  0.58795800  0.63880300  1
  C  C5  1  0.40109700  0.91204200  0.36119700  1
  C  C6  1  0.09890300  0.08795800  0.86119700  1
  C  C7  1  0.59890300  0.41204200  0.13880300  1
  Ni  Ni8  1  0.94681900  0.32486900  0.43180600  1
  Ni  Ni9  1  0.44681900  0.17513100  0.56819400  1
  Ni  Ni10  1  0.05318100  0.82486900  0.06819400  1
  Ni  Ni11  1  0.55318100  0.67513100  0.93180600  1
  Ni  Ni12  1  0.05318100  0.67513100  0.56819400  1
  Ni  Ni13  1  0.55318100  0.82486900  0.43180600  1
  Ni  Ni14  1  0.94681900  0.17513100  0.93180600  1
  Ni  Ni15  1  0.44681900  0.32486900  0.06819400  1
  Ni  Ni16  1  0.35901400  0.44088700  0.39689000  1
  Ni  Ni17  1  0.85901400  0.05911300  0.60311000  1
  Ni  Ni18  1  0.64098600  0.94088700  0.10311000  1
  Ni  Ni19  1  0.14098600  0.55911300  0.89689000  1
  Ni  Ni20  1  0.64098600  0.55911300  0.60311000  1
  Ni  Ni21  1  0.14098600  0.94088700  0.39689000  1
  Ni  Ni22  1  0.35901400  0.05911300  0.89689000  1
  Ni  Ni23  1  0.85901400  0.44088700  0.10311000  1
  Ni  Ni24  1  0.97280800  0.56069200  0.33564300  1
  Ni  Ni25  1  0.47280800  0.93930800  0.66435700  1
  Ni  Ni26  1  0.02719200  0.06069200  0.16435700  1
  Ni  Ni27  1  0.52719200  0.43930800  0.83564300  1
  Ni  Ni28  1  0.02719200  0.43930800  0.66435700  1
  Ni  Ni29  1  0.52719200  0.06069200  0.33564300  1
  Ni  Ni30  1  0.97280800  0.93930800  0.83564300  1
  Ni  Ni31  1  0.47280800  0.56069200  0.16435700  1
  Cu  Cu32  1  0.11391600  0.33634200  0.29485800  1
  Cu  Cu33  1  0.61391600  0.16365800  0.70514200  1
  Cu  Cu34  1  0.88608400  0.83634200  0.20514200  1
  Cu  Cu35  1  0.38608400  0.66365800  0.79485800  1
  Cu  Cu36  1  0.88608400  0.66365800  0.70514200  1
  Cu  Cu37  1  0.38608400  0.83634200  0.29485800  1
  Cu  Cu38  1  0.11391600  0.16365800  0.79485800  1
  Cu  Cu39  1  0.61391600  0.33634200  0.20514200  1
