# generated using pymatgen
data_Cu2NiC6
_symmetry_space_group_name_H-M   'P 1'
_cell_length_a   3.21625619
_cell_length_b   3.20649990
_cell_length_c   12.73173079
_cell_angle_alpha   90.06499623
_cell_angle_beta   90.00000000
_cell_angle_gamma   120.10070148
_symmetry_Int_Tables_number   1
_chemical_formula_structural   Cu2NiC6
_chemical_formula_sum   'Cu2 Ni1 C6'
_cell_volume   113.59467718
_cell_formula_units_Z   1
loop_
 _symmetry_equiv_pos_site_id
 _symmetry_equiv_pos_as_xyz
  1  'x, y, z'
loop_
 _atom_site_type_symbol
 _atom_site_label
 _atom_site_symmetry_multiplicity
 _atom_site_fract_x
 _atom_site_fract_y
 _atom_site_fract_z
 _atom_site_occupancy
  C  C0  1  0.66638369  0.33276639  0.18104214  1
  C  C1  1  0.33292731  0.66585562  0.81140374  1
  Ni  Ni2  1  0.66660897  0.33321695  0.40122939  1
  Cu  Cu3  1  0.00540999  0.01081998  0.59883286  1
  Cu  Cu4  1  0.99899948  0.99799896  0.99122155  1
  C  C5  1  0.33299270  0.66598340  0.35388356  1
  C  C6  1  0.66527232  0.33054664  0.56684546  1
  C  C7  1  0.66632344  0.33264887  0.90483593  1
  C  C8  1  0.33174910  0.66349620  0.07195536  1
