# generated using pymatgen
data_Cu5Ni7C66
_symmetry_space_group_name_H-M   'P 1'
_cell_length_a   17.97604194
_cell_length_b   9.10322728
_cell_length_c   22.49113735
_cell_angle_alpha   89.91589536
_cell_angle_beta   88.95394227
_cell_angle_gamma   120.35836811
_symmetry_Int_Tables_number   1
_chemical_formula_structural   Cu5Ni7C66
_chemical_formula_sum   'Cu15 Ni21 C198'
_cell_volume   3175.01728482
_cell_formula_units_Z   3
loop_
 _symmetry_equiv_pos_site_id
 _symmetry_equiv_pos_as_xyz
  1  'x, y, z'
loop_
 _atom_site_type_symbol
 _atom_site_label
 _atom_site_symmetry_multiplicity
 _atom_site_fract_x
 _atom_site_fract_y
 _atom_site_fract_z
 _atom_site_occupancy
  C  C0  1  0.32135224  0.02293785  0.25183155  1
  C  C1  1  0.82001347  0.02481986  0.24582718  1
  C  C2  1  0.17882076  0.34268639  0.25208743  1
  C  C3  1  0.68002461  0.34572901  0.25203887  1
  C  C4  1  0.82233232  0.62150412  0.75120154  1
  C  C5  1  0.49610348  0.36639796  0.73991727  1
  C  C6  1  0.17906174  0.01088578  0.75209290  1
  C  C7  1  0.67745790  0.01311600  0.75195591  1
  C  C8  1  0.65505464  0.94796883  0.07711823  1
  C  C9  1  0.82906408  0.69988427  0.07218237  1
  C  C10  1  0.01199114  0.34426302  0.08467102  1
  C  C11  1  0.49027990  0.69783358  0.91206925  1
  C  C12  1  0.98931161  0.69576494  0.91320158  1
  C  C13  1  0.16121910  0.29086086  0.90657947  1
  C  C14  1  0.49166006  0.28430923  0.41481083  1
  C  C15  1  0.99135917  0.28343890  0.41480296  1
  C  C16  1  0.16145375  0.03167286  0.40862002  1
  C  C17  1  0.66130519  0.03174160  0.40837936  1
  C  C18  1  0.99119178  0.00316861  0.49437525  1
  C  C19  1  0.49136727  0.00306875  0.49404609  1
  C  C20  1  0.99508157  0.98178383  0.98990569  1
  C  C21  1  0.49370017  0.99311571  0.98834097  1
  C  C22  1  0.33045526  0.34906323  0.82199355  1
  C  C23  1  0.83166961  0.33865262  0.82668752  1
  C  C24  1  0.33729199  0.33804395  0.32467148  1
  C  C25  1  0.83691362  0.33813955  0.32376300  1
  C  C26  1  0.15662839  0.67845547  0.15946194  1
  C  C27  1  0.65123619  0.66344783  0.15835600  1
  C  C28  1  0.15425669  0.63540214  0.65836786  1
  C  C29  1  0.65776437  0.65077920  0.65517275  1
  C  C30  1  0.00734102  0.01614371  0.64683099  1
  C  C31  1  0.50472858  0.01082839  0.64639380  1
  C  C32  1  0.00583913  0.00100151  0.14552663  1
  C  C33  1  0.50292668  0.99674803  0.14773017  1
  C  C34  1  0.33591960  0.34357852  0.97754945  1
  C  C35  1  0.83468257  0.33549397  0.97882980  1
  C  C36  1  0.33389116  0.32534534  0.48047976  1
  C  C37  1  0.83385414  0.32434804  0.48040971  1
  C  C38  1  0.16669670  0.66643405  0.31415142  1
  C  C39  1  0.66735500  0.66740468  0.31353125  1
  C  C40  1  0.16971338  0.66702966  0.81207881  1
  C  C41  1  0.66929936  0.67195419  0.81488146  1
  C  C42  1  0.00570007  0.02426567  0.35070020  1
  C  C43  1  0.50461519  0.02525449  0.35117700  1
  C  C44  1  0.00511280  0.98520274  0.84997542  1
  C  C45  1  0.50722701  0.98756209  0.85134062  1
  C  C46  1  0.34194513  0.36590313  0.68529621  1
  C  C47  1  0.84529135  0.35725588  0.68523907  1
  C  C48  1  0.34280447  0.32970894  0.18539186  1
  C  C49  1  0.84437229  0.32226671  0.18304923  1
  C  C50  1  0.17132930  0.69725450  0.01585707  1
  C  C51  1  0.67226618  0.69126584  0.01604019  1
  C  C52  1  0.16804560  0.64532834  0.51808163  1
  C  C53  1  0.66763395  0.64470562  0.51780837  1
  Ni  Ni54  1  0.14727871  0.99870128  0.25231932  1
  Ni  Ni55  1  0.64672291  0.99933808  0.25333905  1
  Ni  Ni56  1  0.00083241  0.29778673  0.25146584  1
  Ni  Ni57  1  0.49990404  0.29662857  0.25148670  1
  Ni  Ni58  1  0.14932442  0.29697794  0.75284536  1
  Ni  Ni59  1  0.64767078  0.29442029  0.75155636  1
  Ni  Ni60  1  0.00047330  0.70473129  0.75098387  1
  Ni  Ni61  1  0.49815463  0.70476555  0.75251690  1
  Ni  Ni62  1  0.48243507  0.33916425  0.58711720  1
  Ni  Ni63  1  0.98363302  0.34025265  0.58544233  1
  Ni  Ni64  1  0.47930833  0.62277323  0.08552417  1
  Ni  Ni65  1  0.98315617  0.62646364  0.08349957  1
  Ni  Ni66  1  0.83341634  0.03757100  0.08631532  1
  Ni  Ni67  1  0.31124041  0.67760029  0.92110329  1
  Ni  Ni68  1  0.81381652  0.67063778  0.92032320  1
  Ni  Ni69  1  0.16811766  0.96063241  0.91794526  1
  Ni  Ni70  1  0.66821742  0.96737771  0.91969407  1
  Ni  Ni71  1  0.31171072  0.94651462  0.42100689  1
  Ni  Ni72  1  0.81167854  0.94620476  0.42089596  1
  Ni  Ni73  1  0.16884027  0.37446282  0.41879723  1
  Ni  Ni74  1  0.66883276  0.37493727  0.41878016  1
  Cu  Cu75  1  0.35503385  0.71135014  0.25206250  1
  Cu  Cu76  1  0.85588324  0.71206611  0.25116724  1
  Cu  Cu77  1  0.35514419  0.99347657  0.75125241  1
  Cu  Cu78  1  0.85602672  -0.00007917  0.75134189  1
  Cu  Cu79  1  0.18714619  0.04069576  0.58561421  1
  Cu  Cu80  1  0.68652465  0.04042196  0.58587906  1
  Cu  Cu81  1  0.33579261  0.62773899  0.58393419  1
  Cu  Cu82  1  0.83575816  0.62839684  0.58491887  1
  Cu  Cu83  1  0.33523124  0.04234386  0.08528226  1
  Cu  Cu84  1  0.18891590  0.33312362  0.08522676  1
  Cu  Cu85  1  0.68568203  0.32957712  0.08530310  1
  Cu  Cu86  1  0.02026929  0.37548882  0.91785737  1
  Cu  Cu87  1  0.52202827  0.37500732  0.91844373  1
  Cu  Cu88  1  0.01966112  0.66491818  0.41833888  1
  Cu  Cu89  1  0.51995989  0.66477925  0.41831864  1
  C  C90  1  0.10573322  0.02353290  0.31212766  1
  C  C91  1  0.60039980  0.01626969  0.31180207  1
  C  C92  1  0.40522020  0.78847422  0.30433742  1
  C  C93  1  0.90635111  0.78987426  0.30333220  1
  C  C94  1  0.48175714  0.18486570  0.31092060  1
  C  C95  1  0.98356918  0.18397136  0.31002689  1
  C  C96  1  0.10568373  0.18677731  0.81216680  1
  C  C97  1  0.59941201  0.17551607  0.80697187  1
  C  C98  1  0.48469916  0.77794918  0.81317304  1
  C  C99  1  0.98164630  0.77934941  0.81037003  1
  C  C100  1  0.40670127  0.02025052  0.80358397  1
  C  C101  1  0.90555296  0.02259960  0.80414057  1
  C  C102  1  0.39740172  0.97018158  0.69590408  1
  C  C103  1  0.89754501  0.97138811  0.69660906  1
  C  C104  1  0.08307574  0.19613265  0.69423328  1
  C  C105  1  0.58149450  0.19883903  0.69195770  1
  C  C106  1  0.01493219  0.84109114  0.69378944  1
  C  C107  1  0.51374324  0.83900002  0.69462054  1
  C  C108  1  0.39727057  0.82266041  0.19679043  1
  C  C109  1  0.89691545  0.82207185  0.19536439  1
  C  C110  1  0.01698137  0.19798239  0.19219229  1
  C  C111  1  0.51369019  0.18877293  0.19410351  1
  C  C112  1  0.08284926  0.97157560  0.19438895  1
  C  C113  1  0.58336724  0.97117691  0.19304216  1
  C  C114  1  0.43262254  0.34150990  0.64637397  1
  C  C115  1  0.92964320  0.34141569  0.64123776  1
  C  C116  1  0.23555583  0.12397560  0.63823178  1
  C  C117  1  0.73386759  0.12300515  0.63904558  1
  C  C118  1  0.32171493  0.52658124  0.63785377  1
  C  C119  1  0.82214050  0.53096364  0.64028777  1
  C  C120  1  0.42777899  0.51596622  0.14225638  1
  C  C121  1  0.93260188  0.51201945  0.14008597  1
  C  C122  1  0.32159489  0.11223307  0.14067314  1
  C  C123  1  0.81003982  0.10743461  0.14488744  1
  C  C124  1  0.23581762  0.34671439  0.13893861  1
  C  C125  1  0.73355824  0.35152950  0.13957169  1
  C  C126  1  0.23203244  0.30863622  0.03025464  1
  C  C127  1  0.73009676  0.30080550  0.03215772  1
  C  C128  1  0.41895846  0.52547031  0.02477344  1
  C  C129  1  0.91976045  0.53649379  0.02350185  1
  C  C130  1  0.34657210  0.15511510  0.03240953  1
  C  C131  1  0.84945696  0.17469858  0.02967823  1
  C  C132  1  0.23073629  0.15591413  0.52990406  1
  C  C133  1  0.73059062  0.15523808  0.53043117  1
  C  C134  1  0.34636084  0.53686131  0.53023225  1
  C  C135  1  0.84533379  0.53346031  0.53217697  1
  C  C136  1  0.41869883  0.31477467  0.52720200  1
  C  C137  1  0.92039803  0.31356387  0.52433296  1
  C  C138  1  0.25957676  0.66809061  0.97981149  1
  C  C139  1  0.76668995  0.67335019  0.98057349  1
  C  C140  1  0.06794804  0.44424767  0.97243633  1
  C  C141  1  0.57190039  0.45506355  0.97050593  1
  C  C142  1  0.13794330  0.83016175  0.97233885  1
  C  C143  1  0.64702225  0.84768536  0.97708007  1
  C  C144  1  0.25775560  0.84532093  0.47773790  1
  C  C145  1  0.75788575  0.84536195  0.47781361  1
  C  C146  1  0.13944083  0.45182519  0.47059878  1
  C  C147  1  0.63899970  0.45092242  0.47091079  1
  C  C148  1  0.07097912  0.69345372  0.47064994  1
  C  C149  1  0.57103207  0.69300206  0.47078235  1
  C  C150  1  0.06241123  0.63137340  0.36351455  1
  C  C151  1  0.56240778  0.63127177  0.36354796  1
  C  C152  1  0.24947267  0.86426579  0.35934495  1
  C  C153  1  0.74907868  0.86314431  0.35941815  1
  C  C154  1  0.18212464  0.49814394  0.35675450  1
  C  C155  1  0.68170357  0.49819344  0.35684241  1
  C  C156  1  0.06498056  0.49438959  0.86483529  1
  C  C157  1  0.56227262  0.49034742  0.86260543  1
  C  C158  1  0.18203877  0.86537330  0.85707574  1
  C  C159  1  0.68022752  0.86277355  0.85933783  1
  C  C160  1  0.24714963  0.63412236  0.86162364  1
  C  C161  1  0.75104420  0.64237791  0.86009262  1
  C  C162  1  0.00546620  0.80536653  0.40687816  1
  C  C163  1  0.50521027  0.80461356  0.40728273  1
  C  C164  1  0.40873633  0.98585327  0.41330473  1
  C  C165  1  0.90877216  0.98586209  0.41304743  1
  C  C166  1  0.09154585  0.17859468  0.41315432  1
  C  C167  1  0.59164690  0.17881359  0.41317488  1
  C  C168  1  0.00571463  0.20564431  0.90732736  1
  C  C169  1  0.50458224  0.20431079  0.90828399  1
  C  C170  1  0.09171284  0.00488708  0.91268397  1
  C  C171  1  0.58707513  0.99345856  0.91380677  1
  C  C172  1  0.40751359  0.83235034  0.91310483  1
  C  C173  1  0.90922082  0.83348816  0.91264721  1
  C  C174  1  0.48593088  0.15351242  0.59068938  1
  C  C175  1  0.98767486  0.15522925  0.59051976  1
  C  C176  1  0.09975407  0.03371297  0.58688491  1
  C  C177  1  0.59888396  0.03221094  0.58694615  1
  C  C178  1  0.41908110  0.79841795  0.58680926  1
  C  C179  1  0.91865716  0.79893992  0.58682566  1
  C  C180  1  0.48780764  0.82112075  0.09100483  1
  C  C181  1  0.98724109  0.81665240  0.09038215  1
  C  C182  1  0.41807737  0.03539603  0.08859901  1
  C  C183  1  0.92654547  0.03549976  0.09100070  1
  C  C184  1  0.10073773  0.16624684  0.08630507  1
  C  C185  1  0.59912039  0.16064172  0.08774723  1
  C  C186  1  0.33764581  0.13296483  0.74354217  1
  C  C187  1  0.83373955  0.13186951  0.74345755  1
  C  C188  1  0.23922896  0.30124373  0.74058127  1
  C  C189  1  0.74102855  0.31283941  0.74034850  1
  C  C190  1  0.42403308  0.50805816  0.74761459  1
  C  C191  1  0.91695874  0.51850144  0.74619342  1
  C  C192  1  0.33396742  0.53583063  0.24385744  1
  C  C193  1  0.83493155  0.53662962  0.24270881  1
  C  C194  1  0.41661079  0.31613336  0.24640426  1
  C  C195  1  0.91882685  0.32169020  0.24721825  1
  C  C196  1  0.24078743  0.16975984  0.24141202  1
  C  C197  1  0.73911271  0.17285824  0.24499122  1
  C  C198  1  0.31943454  0.49086740  0.92533091  1
  C  C199  1  0.82408516  0.49397393  0.92418111  1
  C  C200  1  0.43458836  0.37075293  0.92202220  1
  C  C201  1  0.93480690  0.37322121  0.92023895  1
  C  C202  1  0.25871133  0.15063659  0.92727656  1
  C  C203  1  0.75979679  0.15335513  0.92508504  1
  C  C204  1  0.32015697  0.14827481  0.42630959  1
  C  C205  1  0.81935621  0.14742028  0.42611224  1
  C  C206  1  0.25930821  0.36579677  0.42628959  1
  C  C207  1  0.75922126  0.36618285  0.42643935  1
  C  C208  1  0.43383616  0.49723760  0.42209716  1
  C  C209  1  0.93356635  0.49818418  0.42190568  1
  C  C210  1  0.17131769  0.47094893  0.07842740  1
  C  C211  1  0.67058275  0.46985876  0.07599887  1
  C  C212  1  0.07515309  0.63549580  0.07738983  1
  C  C213  1  0.57577984  0.65699429  0.07878334  1
  C  C214  1  0.26217442  0.86947903  0.07933273  1
  C  C215  1  0.75631185  0.84322622  0.08097635  1
  C  C216  1  0.17347633  0.87211613  0.57692847  1
  C  C217  1  0.67344965  0.87201145  0.57743161  1
  C  C218  1  0.26328024  0.65562839  0.57791657  1
  C  C219  1  0.76265762  0.65499719  0.57838153  1
  C  C220  1  0.07756703  0.50517815  0.57864181  1
  C  C221  1  0.57623900  0.50481625  0.57962284  1
  C  C222  1  0.15965224  0.82854522  0.25634874  1
  C  C223  1  0.65824807  0.82822831  0.25677003  1
  C  C224  1  0.26909250  0.71044051  0.25412925  1
  C  C225  1  0.76923342  0.70947915  0.25421384  1
  C  C226  1  0.09425680  0.48478574  0.25584230  1
  C  C227  1  0.59321722  0.48283466  0.25550738  1
  C  C228  1  0.15610377  0.48583519  0.75773340  1
  C  C229  1  0.65513563  0.48580172  0.75637985  1
  C  C230  1  0.09352590  0.70403113  0.75587265  1
  C  C231  1  0.59295469  0.70089525  0.75613200  1
  C  C232  1  0.26811134  0.82937018  0.75418954  1
  C  C233  1  0.76890419  0.82845095  0.75422992  1
