# generated using pymatgen
data_Cu24Ni6C5
_symmetry_space_group_name_H-M   'P 1'
_cell_length_a   17.22376739
_cell_length_b   8.61228438
_cell_length_c   22.42115828
_cell_angle_alpha   90.05536847
_cell_angle_beta   89.92293726
_cell_angle_gamma   120.02030365
_symmetry_Int_Tables_number   1
_chemical_formula_structural   Cu24Ni6C5
_chemical_formula_sum   'Cu144 Ni36 C30'
_cell_volume   2879.69095395
_cell_formula_units_Z   6
loop_
 _symmetry_equiv_pos_site_id
 _symmetry_equiv_pos_as_xyz
  1  'x, y, z'
loop_
 _atom_site_type_symbol
 _atom_site_label
 _atom_site_symmetry_multiplicity
 _atom_site_fract_x
 _atom_site_fract_y
 _atom_site_fract_z
 _atom_site_occupancy
  C  C0  1  0.00069373  0.00079646  0.50036893  1
  C  C1  1  0.50206225  0.00310082  0.99880133  1
  C  C2  1  0.33466819  0.33508096  0.83129743  1
  C  C3  1  0.83177816  0.33138932  0.83201863  1
  C  C4  1  0.33212037  0.33303831  0.33720962  1
  C  C5  1  0.83455187  0.33290995  0.33359349  1
  C  C6  1  0.00055575  0.00161260  0.35425636  1
  C  C7  1  0.50052612  0.00023467  0.85223503  1
  C  C8  1  0.00060955  0.00061147  0.64758893  1
  C  C9  1  0.50232180  0.00243129  0.14808383  1
  C  C10  1  0.33252276  0.33186264  0.68478843  1
  C  C11  1  0.83402797  0.33482548  0.68543750  1
  C  C12  1  0.83199008  0.33257308  0.18496708  1
  C  C13  1  0.33320450  0.33351650  0.98018937  1
  C  C14  1  0.83332799  0.33332542  0.98194601  1
  C  C15  1  0.33312990  0.33384281  0.48262565  1
  C  C16  1  0.83363298  0.33257831  0.48179933  1
  C  C17  1  0.16477183  0.66244941  0.31215652  1
  C  C18  1  0.66874333  0.67028022  0.31150187  1
  C  C19  1  0.16880360  0.66904781  0.81015283  1
  C  C20  1  0.66456229  0.66454047  0.80984162  1
  C  C21  1  0.50271990  0.99957912  0.35715716  1
  C  C22  1  0.99919982  0.99921817  0.85025938  1
  C  C23  1  0.49924605  0.99918060  0.64934612  1
  C  C24  1  0.99452557  0.99825875  0.14791231  1
  C  C25  1  0.33442725  0.33421240  0.18688413  1
  C  C26  1  0.16482420  0.66691507  0.01907277  1
  C  C27  1  0.66768498  0.66403167  0.01967291  1
  C  C28  1  0.16451989  0.66408087  0.52342375  1
  C  C29  1  0.66920634  0.67026970  0.52453824  1
  Ni  Ni30  1  0.14411207  0.99892758  0.24919859  1
  Ni  Ni31  1  0.64468772  0.99920402  0.25013323  1
  Ni  Ni32  1  0.35542698  0.71294930  0.24952373  1
  Ni  Ni33  1  0.85486299  0.70770385  0.25157413  1
  Ni  Ni34  1  0.99894470  0.28966908  0.25105176  1
  Ni  Ni35  1  0.50103447  0.28941064  0.24982150  1
  Ni  Ni36  1  0.14525105  0.29100603  0.74952165  1
  Ni  Ni37  1  0.64584316  0.28967094  0.75083947  1
  Ni  Ni38  1  0.00049348  0.70930742  0.74933954  1
  Ni  Ni39  1  0.49872730  0.70820000  0.75095325  1
  Ni  Ni40  1  0.35521678  0.00224465  0.75114056  1
  Ni  Ni41  1  0.85420817  0.99931289  0.74923221  1
  Ni  Ni42  1  0.47857412  0.33168298  0.58313903  1
  Ni  Ni43  1  0.97773837  0.33028086  0.58277989  1
  Ni  Ni44  1  0.18735056  0.04321579  0.58231737  1
  Ni  Ni45  1  0.68735151  0.04432532  0.58359726  1
  Ni  Ni46  1  0.33397017  0.62526555  0.58357361  1
  Ni  Ni47  1  0.83501087  0.62498846  0.58240485  1
  Ni  Ni48  1  0.47820646  0.62382972  0.08209446  1
  Ni  Ni49  1  0.97883078  0.62550008  0.08341168  1
  Ni  Ni50  1  0.33370136  0.04351904  0.08202260  1
  Ni  Ni51  1  0.83239632  0.04222670  0.08331690  1
  Ni  Ni52  1  0.18801553  0.33229076  0.08308572  1
  Ni  Ni53  1  0.68731561  0.33194754  0.08221465  1
  Ni  Ni54  1  0.31100164  0.66596966  0.91636222  1
  Ni  Ni55  1  0.81147169  0.66607979  0.91483467  1
  Ni  Ni56  1  0.02182779  0.37734082  0.91512090  1
  Ni  Ni57  1  0.52153488  0.37735839  0.91598845  1
  Ni  Ni58  1  0.16673907  0.95652424  0.91496840  1
  Ni  Ni59  1  0.66716835  0.95600782  0.91637734  1
  Ni  Ni60  1  0.31072998  0.95599109  0.41521500  1
  Ni  Ni61  1  0.81076336  0.95629428  0.41667574  1
  Ni  Ni62  1  0.16753776  0.37827257  0.41665854  1
  Ni  Ni63  1  0.66794838  0.38076164  0.41558426  1
  Ni  Ni64  1  0.02158284  0.66555986  0.41635243  1
  Ni  Ni65  1  0.52229547  0.66353478  0.41585279  1
  Cu  Cu66  1  0.10924710  0.04055897  0.30240750  1
  Cu  Cu67  1  0.59772094  0.02744769  0.30477342  1
  Cu  Cu68  1  0.41320799  0.79072815  0.30367354  1
  Cu  Cu69  1  0.91243527  0.79192271  0.30329095  1
  Cu  Cu70  1  0.48147568  0.17259108  0.30374386  1
  Cu  Cu71  1  0.98390847  0.17601019  0.30312354  1
  Cu  Cu72  1  0.09902979  0.16980417  0.80481238  1
  Cu  Cu73  1  0.60520154  0.17712174  0.80353102  1
  Cu  Cu74  1  0.48319060  0.78967701  0.80366009  1
  Cu  Cu75  1  0.98589461  0.80147370  0.80476355  1
  Cu  Cu76  1  0.41149180  0.03298660  0.80372370  1
  Cu  Cu77  1  0.91478434  0.02817849  0.80469082  1
  Cu  Cu78  1  0.40117007  0.97746616  0.69610219  1
  Cu  Cu79  1  0.89640494  0.97327603  0.69700132  1
  Cu  Cu80  1  0.09034007  0.20731206  0.69714737  1
  Cu  Cu81  1  0.58756515  0.19720992  0.69593998  1
  Cu  Cu82  1  0.01332061  0.81907732  0.69703161  1
  Cu  Cu83  1  0.51104037  0.82501909  0.69605047  1
  Cu  Cu84  1  0.39623080  0.81749686  0.19604655  1
  Cu  Cu85  1  0.90149742  0.82524621  0.19604097  1
  Cu  Cu86  1  0.01091324  0.19595039  0.19569663  1
  Cu  Cu87  1  0.51204570  0.20830643  0.19611857  1
  Cu  Cu88  1  0.08932207  0.97692953  0.19507457  1
  Cu  Cu89  1  0.59021191  0.97285541  0.19728355  1
  Cu  Cu90  1  0.44263469  0.37040272  0.63621429  1
  Cu  Cu91  1  0.94207371  0.36854581  0.63628132  1
  Cu  Cu92  1  0.24175072  0.11502336  0.63582301  1
  Cu  Cu93  1  0.74299423  0.11533547  0.63656012  1
  Cu  Cu94  1  0.31494746  0.51438952  0.63660968  1
  Cu  Cu95  1  0.81539703  0.51584443  0.63581161  1
  Cu  Cu96  1  0.43496835  0.50752340  0.13700846  1
  Cu  Cu97  1  0.94265401  0.51523365  0.13654795  1
  Cu  Cu98  1  0.31850848  0.12888946  0.13685498  1
  Cu  Cu99  1  0.81545673  0.11593619  0.13690282  1
  Cu  Cu100  1  0.24665404  0.36469328  0.13728522  1
  Cu  Cu101  1  0.74134670  0.36825753  0.13598861  1
  Cu  Cu102  1  0.22694367  0.29962146  0.03076068  1
  Cu  Cu103  1  0.72770448  0.30388806  0.02873582  1
  Cu  Cu104  1  0.42246206  0.54123786  0.03005821  1
  Cu  Cu105  1  0.92497205  0.55130608  0.02969903  1
  Cu  Cu106  1  0.34785646  0.15393953  0.02975311  1
  Cu  Cu107  1  0.85163104  0.15217597  0.02997263  1
  Cu  Cu108  1  0.22751579  0.15110893  0.52855636  1
  Cu  Cu109  1  0.72485172  0.15052225  0.52959925  1
  Cu  Cu110  1  0.35151442  0.55141288  0.52985892  1
  Cu  Cu111  1  0.84745348  0.54458783  0.52834416  1
  Cu  Cu112  1  0.42484157  0.29896592  0.52928499  1
  Cu  Cu113  1  0.92430199  0.30366211  0.52899559  1
  Cu  Cu114  1  0.26491961  0.69061868  0.97186491  1
  Cu  Cu115  1  0.76944653  0.69570525  0.97031888  1
  Cu  Cu116  1  0.07919340  0.46366673  0.97085645  1
  Cu  Cu117  1  0.57925406  0.46800167  0.97140209  1
  Cu  Cu118  1  0.15239062  0.84158264  0.97050470  1
  Cu  Cu119  1  0.65498017  0.84061607  0.97178761  1
  Cu  Cu120  1  0.27204731  0.84514648  0.46950482  1
  Cu  Cu121  1  0.76533487  0.84031538  0.47139926  1
  Cu  Cu122  1  0.15511594  0.46760929  0.47122304  1
  Cu  Cu123  1  0.65045553  0.45823976  0.46980066  1
  Cu  Cu124  1  0.07907107  0.69112206  0.47093342  1
  Cu  Cu125  1  0.57776628  0.69808159  0.47007708  1
  Cu  Cu126  1  0.06218447  0.63877696  0.36292646  1
  Cu  Cu127  1  0.56226252  0.63739925  0.36247662  1
  Cu  Cu128  1  0.25670693  0.87588586  0.36191888  1
  Cu  Cu129  1  0.75680606  0.87472036  0.36362967  1
  Cu  Cu130  1  0.18109709  0.48588990  0.36323674  1
  Cu  Cu131  1  0.68088563  0.48666634  0.36216109  1
  Cu  Cu132  1  0.06339893  0.48946175  0.86354972  1
  Cu  Cu133  1  0.56263810  0.48657313  0.86354189  1
  Cu  Cu134  1  0.18162138  0.87425387  0.86316483  1
  Cu  Cu135  1  0.68038146  0.87366583  0.86378611  1
  Cu  Cu136  1  0.25645388  0.63905247  0.86399687  1
  Cu  Cu137  1  0.75565919  0.63696502  0.86298421  1
  Cu  Cu138  1  0.01483681  0.82992925  0.41296514  1
  Cu  Cu139  1  0.51365983  0.83035682  0.40758500  1
  Cu  Cu140  1  0.40210594  0.97215027  0.40612098  1
  Cu  Cu141  1  0.89970636  0.97016212  0.41366662  1
  Cu  Cu142  1  0.08551221  0.19991175  0.41324666  1
  Cu  Cu143  1  0.58418252  0.19750961  0.40740809  1
  Cu  Cu144  1  0.01513265  0.19871416  0.90957912  1
  Cu  Cu145  1  0.51485288  0.19975935  0.91374306  1
  Cu  Cu146  1  0.08432799  0.97022468  0.90944161  1
  Cu  Cu147  1  0.58502400  0.96967039  0.91405385  1
  Cu  Cu148  1  0.39979619  0.83009395  0.91415486  1
  Cu  Cu149  1  0.90117836  0.83163943  0.90877390  1
  Cu  Cu150  1  0.49204373  0.17540840  0.59314793  1
  Cu  Cu151  1  0.99220069  0.17666101  0.58902235  1
  Cu  Cu152  1  0.09601076  0.01458373  0.58876110  1
  Cu  Cu153  1  0.59585236  0.01689044  0.59326434  1
  Cu  Cu154  1  0.41284725  0.80858720  0.59371368  1
  Cu  Cu155  1  0.91142306  0.80786971  0.58874083  1
  Cu  Cu156  1  0.48878909  0.80205320  0.09115492  1
  Cu  Cu157  1  0.99239392  0.80941177  0.09381919  1
  Cu  Cu158  1  0.41154728  0.02036079  0.09117070  1
  Cu  Cu159  1  0.91267414  0.01754738  0.09334952  1
  Cu  Cu160  1  0.09851320  0.17478724  0.09489507  1
  Cu  Cu161  1  0.59582954  0.17692890  0.08857435  1
  Cu  Cu162  1  0.34717694  0.16281231  0.74190337  1
  Cu  Cu163  1  0.84907556  0.16516619  0.74672163  1
  Cu  Cu164  1  0.23353173  0.30229881  0.74690510  1
  Cu  Cu165  1  0.73440826  0.30590586  0.74165960  1
  Cu  Cu166  1  0.41840396  0.53119423  0.74179226  1
  Cu  Cu167  1  0.91761536  0.53284862  0.74678598  1
  Cu  Cu168  1  0.34755494  0.52729161  0.24221488  1
  Cu  Cu169  1  0.84730921  0.53201239  0.24177803  1
  Cu  Cu170  1  0.41607775  0.30546027  0.24240956  1
  Cu  Cu171  1  0.91869757  0.30539661  0.24157425  1
  Cu  Cu172  1  0.23687213  0.16630963  0.23851570  1
  Cu  Cu173  1  0.73300490  0.16447989  0.24705843  1
  Cu  Cu174  1  0.31951286  0.50581432  0.92516107  1
  Cu  Cu175  1  0.82288939  0.50944345  0.92413873  1
  Cu  Cu176  1  0.43262305  0.35948973  0.92465988  1
  Cu  Cu177  1  0.93246142  0.35597395  0.92479746  1
  Cu  Cu178  1  0.24542903  0.13472267  0.92461154  1
  Cu  Cu179  1  0.74731604  0.13457380  0.92483592  1
  Cu  Cu180  1  0.32471401  0.13814987  0.42310632  1
  Cu  Cu181  1  0.81961482  0.13435527  0.42467267  1
  Cu  Cu182  1  0.24764323  0.35909333  0.42416775  1
  Cu  Cu183  1  0.74465127  0.35266609  0.42352341  1
  Cu  Cu184  1  0.43120548  0.50997821  0.42357553  1
  Cu  Cu185  1  0.93207856  0.50558373  0.42404413  1
  Cu  Cu186  1  0.17905237  0.49465788  0.07590949  1
  Cu  Cu187  1  0.67823628  0.49731472  0.07160175  1
  Cu  Cu188  1  0.07099812  0.64844678  0.07210233  1
  Cu  Cu189  1  0.56758737  0.63784513  0.07588866  1
  Cu  Cu190  1  0.25081895  0.86407271  0.07515665  1
  Cu  Cu191  1  0.75379179  0.85847289  0.07324924  1
  Cu  Cu192  1  0.17846016  0.85948562  0.57162342  1
  Cu  Cu193  1  0.67546830  0.85860198  0.57295935  1
  Cu  Cu194  1  0.25394961  0.64909929  0.57280724  1
  Cu  Cu195  1  0.75150167  0.64361633  0.57203222  1
  Cu  Cu196  1  0.07018154  0.49650474  0.57263058  1
  Cu  Cu197  1  0.57076427  0.49337483  0.57182849  1
  Cu  Cu198  1  0.15648087  0.84505298  0.25498382  1
  Cu  Cu199  1  0.65232484  0.84125243  0.26031389  1
  Cu  Cu200  1  0.26640436  0.68628333  0.25889694  1
  Cu  Cu201  1  0.76803774  0.69686804  0.25496596  1
  Cu  Cu202  1  0.08059869  0.46367668  0.25452077  1
  Cu  Cu203  1  0.57668704  0.46721629  0.25925031  1
  Cu  Cu204  1  0.15249935  0.46353674  0.76040756  1
  Cu  Cu205  1  0.65159941  0.46381683  0.75500345  1
  Cu  Cu206  1  0.07927726  0.69433472  0.76036204  1
  Cu  Cu207  1  0.58027047  0.69731425  0.75486707  1
  Cu  Cu208  1  0.26818501  0.83935424  0.75504350  1
  Cu  Cu209  1  0.76786111  0.84156578  0.76027524  1
