# generated using pymatgen
data_Cu2NiC10
_symmetry_space_group_name_H-M   'P 1'
_cell_length_a   4.34628114
_cell_length_b   9.94987175
_cell_length_c   3.84081285
_cell_angle_alpha   90.00000000
_cell_angle_beta   90.00000000
_cell_angle_gamma   90.00000000
_symmetry_Int_Tables_number   1
_chemical_formula_structural   Cu2NiC10
_chemical_formula_sum   'Cu2 Ni1 C10'
_cell_volume   166.09572099
_cell_formula_units_Z   1
loop_
 _symmetry_equiv_pos_site_id
 _symmetry_equiv_pos_as_xyz
  1  'x, y, z'
loop_
 _atom_site_type_symbol
 _atom_site_label
 _atom_site_symmetry_multiplicity
 _atom_site_fract_x
 _atom_site_fract_y
 _atom_site_fract_z
 _atom_site_occupancy
  Ni  Ni0  1  0.75000000  0.25000000  0.08689436  1
  Cu  Cu1  1  0.25000000  0.25000000  0.56361086  1
  Cu  Cu2  1  0.75000000  0.75000000  0.45196374  1
  C  C3  1  0.25000000  0.56076097  0.14973336  1
  C  C4  1  0.25000000  0.93923903  0.14973336  1
  C  C5  1  0.75000000  0.99901440  0.68117305  1
  C  C6  1  0.75000000  0.50098560  0.68117305  1
  C  C7  1  0.25000000  0.75000000  0.27962062  1
  C  C8  1  0.25000000  0.12113486  0.05833588  1
  C  C9  1  0.25000000  0.37886514  0.05833588  1
  C  C10  1  0.75000000  0.25000000  0.58807246  1
  C  C11  1  0.75000000  0.54202428  0.17924818  1
  C  C12  1  0.75000000  0.95797572  0.17924818  1
