# generated using pymatgen
data_Cu(NiC8)2
_symmetry_space_group_name_H-M   'P 1'
_cell_length_a   9.30367231
_cell_length_b   9.28538506
_cell_length_c   23.73659272
_cell_angle_alpha   89.96935107
_cell_angle_beta   89.84584602
_cell_angle_gamma   119.95041959
_symmetry_Int_Tables_number   1
_chemical_formula_structural   Cu(NiC8)2
_chemical_formula_sum   'Cu6 Ni12 C96'
_cell_volume   1776.71390187
_cell_formula_units_Z   6
loop_
 _symmetry_equiv_pos_site_id
 _symmetry_equiv_pos_as_xyz
  1  'x, y, z'
loop_
 _atom_site_type_symbol
 _atom_site_label
 _atom_site_symmetry_multiplicity
 _atom_site_fract_x
 _atom_site_fract_y
 _atom_site_fract_z
 _atom_site_occupancy
  Ni  Ni0  1  0.99629817  0.63311880  0.23545015  1
  Ni  Ni1  1  0.98513871  0.34519148  0.76103991  1
  Ni  Ni2  1  0.37495045  0.00072728  0.75124642  1
  Ni  Ni3  1  0.65536659  0.97962332  0.59429778  1
  Ni  Ni4  1  0.68317189  0.67950403  0.07507544  1
  Ni  Ni5  1  0.33874757  0.03611861  0.42655935  1
  Ni  Ni6  1  0.02810352  0.00443527  0.50320674  1
  Ni  Ni7  1  0.01751509  0.98664287  0.00505452  1
  Ni  Ni8  1  0.66602309  0.32742211  0.84513357  1
  Ni  Ni9  1  0.66627296  0.33353446  0.32845215  1
  Ni  Ni10  1  0.30796511  0.66128727  0.15987497  1
  Ni  Ni11  1  0.36306080  0.69564661  0.66863499  1
  Cu  Cu12  1  0.99361104  0.00454000  0.35112659  1
  Cu  Cu13  1  0.67044314  0.32989193  0.17877853  1
  Cu  Cu14  1  0.67829372  0.33905453  0.98740333  1
  Cu  Cu15  1  0.66290799  0.33445982  0.48392920  1
  Cu  Cu16  1  0.33937380  0.66200841  0.31449564  1
  Cu  Cu17  1  0.35241915  0.67662465  0.81746143  1
  C  C18  1  0.98129405  0.99415117  0.85244207  1
  C  C19  1  0.00062660  0.99415583  0.64783981  1
  C  C20  1  0.00655257  0.00665025  0.14972135  1
  C  C21  1  0.65885210  0.32707006  0.68065219  1
  C  C22  1  0.31694495  0.66883349  0.01660647  1
  C  C23  1  0.32786660  0.66501159  0.51809448  1
  C  C24  1  0.69969766  0.00262920  0.74421816  1
  C  C25  1  0.35938645  0.02532931  0.57975873  1
  C  C26  1  0.96986982  0.64037725  0.08904340  1
  C  C27  1  0.29862680  0.99961784  0.25390659  1
  C  C28  1  0.70356005  0.70039512  0.24912938  1
  C  C29  1  0.99698594  0.30502230  0.25118298  1
  C  C30  1  0.29087030  0.29091052  0.75047880  1
  C  C31  1  0.00058406  0.69968943  0.75142721  1
  C  C32  1  0.96544859  0.33310171  0.58412108  1
  C  C33  1  0.66642070  0.63715346  0.58244729  1
  C  C34  1  0.66452294  0.02312519  0.08251486  1
  C  C35  1  0.36831188  0.33755130  0.08206670  1
  C  C36  1  0.63473476  0.66280626  0.91931558  1
  C  C37  1  0.03258340  0.36598826  0.91217360  1
  C  C38  1  0.33290748  0.97448908  0.91268174  1
  C  C39  1  0.62979953  0.96389606  0.41818874  1
  C  C40  1  0.33336255  0.36277500  0.41668894  1
  C  C41  1  0.03702504  0.66963488  0.41401758  1
  C  C42  1  0.22361204  0.01451751  0.30731498  1
  C  C43  1  0.80657503  0.79007058  0.29858768  1
  C  C44  1  0.99348840  0.21387011  0.30239262  1
  C  C45  1  0.21450506  0.18291089  0.80060345  1
  C  C46  1  0.98461173  0.78248627  0.80231751  1
  C  C47  1  0.82801711  0.03047129  0.79659631  1
  C  C48  1  0.78446725  0.99317060  0.68477365  1
  C  C49  1  0.19152153  0.20685277  0.69965811  1
  C  C50  1  0.02586729  0.80553778  0.70112345  1
  C  C51  1  0.78774814  0.79704573  0.19684250  1
  C  C52  1  0.00493625  0.21697185  0.20006492  1
  C  C53  1  0.19025753  0.98917425  0.20549465  1
  C  C54  1  0.89348346  0.35755392  0.63720430  1
  C  C55  1  0.47902015  0.12226078  0.63547128  1
  C  C56  1  0.65689939  0.54492312  0.63470260  1
  C  C57  1  0.90128918  0.54829962  0.14952892  1
  C  C58  1  0.63510815  0.09387168  0.13354867  1
  C  C59  1  0.46734931  0.35797711  0.13293556  1
  C  C60  1  0.43872621  0.30574986  0.03136654  1
  C  C61  1  0.83616910  0.54465730  0.03915124  1
  C  C62  1  0.68108605  0.11912513  0.03137197  1
  C  C63  1  0.44300030  0.12461936  0.52177062  1
  C  C64  1  0.68772435  0.55943036  0.53215891  1
  C  C65  1  0.86119054  0.31754973  0.53567686  1
  C  C66  1  0.55328194  0.67598439  0.97159261  1
  C  C67  1  0.13743000  0.46102487  0.96074663  1
  C  C68  1  0.31935421  0.86658330  0.96128885  1
  C  C69  1  0.54773237  0.86892225  0.47121477  1
  C  C70  1  0.32646062  0.45095655  0.46821474  1
  C  C71  1  0.14366939  0.68056214  0.46344108  1
  C  C72  1  0.11435814  0.65520189  0.36161648  1
  C  C73  1  0.52567980  0.87329457  0.36943837  1
  C  C74  1  0.33740668  0.45410207  0.36584791  1
  C  C75  1  0.10984133  0.45231165  0.85826897  1
  C  C76  1  0.34362965  0.89716128  0.85901927  1
  C  C77  1  0.53946272  0.65735456  0.86902407  1
  C  C78  1  0.03549514  0.83024285  0.41534509  1
  C  C79  1  0.79719628  0.98345418  0.41588987  1
  C  C80  1  0.18456996  0.19088932  0.41807084  1
  C  C81  1  0.02156027  0.19954383  0.91337866  1
  C  C82  1  0.17890445  0.98746908  0.91295827  1
  C  C83  1  0.80377564  0.81705272  0.91698295  1
  C  C84  1  0.97271160  0.17630957  0.58724086  1
  C  C85  1  0.17212383  0.99819615  0.58636514  1
  C  C86  1  0.80843699  0.81152739  0.58535612  1
  C  C87  1  0.98949246  0.83029463  0.08930377  1
  C  C88  1  0.81782586  0.00871949  0.08791968  1
  C  C89  1  0.19381287  0.19932990  0.08890275  1
  C  C90  1  0.68676336  0.17696957  0.74598375  1
  C  C91  1  0.46053426  0.31353080  0.74493716  1
  C  C92  1  0.85029953  0.53327737  0.74598066  1
  C  C93  1  0.69233749  0.53453857  0.24762001  1
  C  C94  1  0.84569878  0.32216427  0.25076968  1
  C  C95  1  0.46727567  0.14313830  0.24791865  1
  C  C96  1  0.65423000  0.51480613  0.91952261  1
  C  C97  1  0.86481281  0.34503688  0.91653050  1
  C  C98  1  0.48147344  0.14043305  0.91767305  1
  C  C99  1  0.63994786  0.12932466  0.41959605  1
  C  C100  1  0.48353434  0.34338909  0.41685922  1
  C  C101  1  0.86844577  0.52606117  0.41986570  1
  C  C102  1  0.36468339  0.49735757  0.07576595  1
  C  C103  1  0.15728210  0.66505557  0.07899018  1
  C  C104  1  0.52410641  0.84656351  0.07685520  1
  C  C105  1  0.35668314  0.84365560  0.58133290  1
  C  C106  1  0.51245808  0.65021596  0.58031001  1
  C  C107  1  0.13641391  0.47537821  0.57906651  1
  C  C108  1  0.29963061  0.83900268  0.25254954  1
  C  C109  1  0.53681109  0.68220380  0.25143360  1
  C  C110  1  0.14531473  0.47651925  0.25004069  1
  C  C111  1  0.29593478  0.45165013  0.75544578  1
  C  C112  1  0.14835906  0.67782584  0.75487352  1
  C  C113  1  0.51157303  0.84475277  0.74938857  1
