# generated using pymatgen
data_Cu2NiC10
_symmetry_space_group_name_H-M   'P 1'
_cell_length_a   5.19822734
_cell_length_b   5.03698435
_cell_length_c   5.98771700
_cell_angle_alpha   90.00000000
_cell_angle_beta   90.00000000
_cell_angle_gamma   86.10920129
_symmetry_Int_Tables_number   1
_chemical_formula_structural   Cu2NiC10
_chemical_formula_sum   'Cu2 Ni1 C10'
_cell_volume   156.41738237
_cell_formula_units_Z   1
loop_
 _symmetry_equiv_pos_site_id
 _symmetry_equiv_pos_as_xyz
  1  'x, y, z'
loop_
 _atom_site_type_symbol
 _atom_site_label
 _atom_site_symmetry_multiplicity
 _atom_site_fract_x
 _atom_site_fract_y
 _atom_site_fract_z
 _atom_site_occupancy
  Ni  Ni0  1  0.50000000  0.25000000  0.07931600  1
  Cu  Cu1  1  0.50000000  0.75000000  0.37606400  1
  Cu  Cu2  1  0.50000000  0.25000000  0.63052800  1
  C  C3  1  0.00000000  0.75000000  0.83506200  1
  C  C4  1  0.00000000  0.25000000  0.17467700  1
  C  C5  1  0.71984700  0.39000500  0.36002300  1
  C  C6  1  0.28015300  0.10999500  0.36002300  1
  C  C7  1  0.25822000  0.59859700  0.62955600  1
  C  C8  1  0.74178000  0.90140300  0.62955600  1
  C  C9  1  0.78509900  0.43577500  0.90517700  1
  C  C10  1  0.21490100  0.06422500  0.90517700  1
  C  C11  1  0.22083100  0.55319600  0.10429400  1
  C  C12  1  0.77916900  0.94680400  0.10429400  1
