# generated using pymatgen
data_Cu3NiC7
_symmetry_space_group_name_H-M   'P 1'
_cell_length_a   11.42842300
_cell_length_b   16.60480300
_cell_length_c   17.28185100
_cell_angle_alpha   90.00000000
_cell_angle_beta   90.00000000
_cell_angle_gamma   90.00000000
_symmetry_Int_Tables_number   1
_chemical_formula_structural   Cu3NiC7
_chemical_formula_sum   'Cu24 Ni8 C56'
_cell_volume   3279.52005046
_cell_formula_units_Z   8
loop_
 _symmetry_equiv_pos_site_id
 _symmetry_equiv_pos_as_xyz
  1  'x, y, z'
loop_
 _atom_site_type_symbol
 _atom_site_label
 _atom_site_symmetry_multiplicity
 _atom_site_fract_x
 _atom_site_fract_y
 _atom_site_fract_z
 _atom_site_occupancy
  Ni  Ni0  1  0.36070200  0.71805000  0.20858000  1
  Ni  Ni1  1  0.86070200  0.28195000  0.29142000  1
  Ni  Ni2  1  0.13929800  0.21805000  0.79142000  1
  Ni  Ni3  1  0.63929800  0.78195000  0.70858000  1
  Ni  Ni4  1  0.63929800  0.28195000  0.79142000  1
  Ni  Ni5  1  0.13929800  0.71805000  0.70858000  1
  Ni  Ni6  1  0.86070200  0.78195000  0.20858000  1
  Ni  Ni7  1  0.36070200  0.21805000  0.29142000  1
  Cu  Cu8  1  0.63737000  0.96153300  0.05054600  1
  Cu  Cu9  1  0.13737000  0.03846700  0.44945400  1
  Cu  Cu10  1  0.86263000  0.46153300  0.94945400  1
  Cu  Cu11  1  0.36263000  0.53846700  0.55054600  1
  Cu  Cu12  1  0.36263000  0.03846700  0.94945400  1
  Cu  Cu13  1  0.86263000  0.96153300  0.55054600  1
  Cu  Cu14  1  0.13737000  0.53846700  0.05054600  1
  Cu  Cu15  1  0.63737000  0.46153300  0.44945400  1
  Cu  Cu16  1  0.40568300  0.93915100  0.06915700  1
  Cu  Cu17  1  0.90568300  0.06084900  0.43084300  1
  Cu  Cu18  1  0.09431700  0.43915100  0.93084300  1
  Cu  Cu19  1  0.59431700  0.56084900  0.56915700  1
  Cu  Cu20  1  0.59431700  0.06084900  0.93084300  1
  Cu  Cu21  1  0.09431700  0.93915100  0.56915700  1
  Cu  Cu22  1  0.90568300  0.56084900  0.06915700  1
  Cu  Cu23  1  0.40568300  0.43915100  0.43084300  1
  Cu  Cu24  1  0.49443300  0.08912600  0.06894900  1
  Cu  Cu25  1  0.99443300  0.91087400  0.43105100  1
  Cu  Cu26  1  0.00556700  0.58912600  0.93105100  1
  Cu  Cu27  1  0.50556700  0.41087400  0.56894900  1
  Cu  Cu28  1  0.50556700  0.91087400  0.93105100  1
  Cu  Cu29  1  0.00556700  0.08912600  0.56894900  1
  Cu  Cu30  1  0.99443300  0.41087400  0.06894900  1
  Cu  Cu31  1  0.49443300  0.58912600  0.43105100  1
  C  C32  1  0.55044800  0.80457600  0.05374500  1
  C  C33  1  0.05044800  0.19542400  0.44625500  1
  C  C34  1  0.94955200  0.30457600  0.94625500  1
  C  C35  1  0.44955200  0.69542400  0.55374500  1
  C  C36  1  0.44955200  0.19542400  0.94625500  1
  C  C37  1  0.94955200  0.80457600  0.55374500  1
  C  C38  1  0.05044800  0.69542400  0.05374500  1
  C  C39  1  0.55044800  0.30457600  0.44625500  1
  C  C40  1  0.53917300  0.98958700  0.19576800  1
  C  C41  1  0.03917300  0.01041300  0.30423200  1
  C  C42  1  0.96082700  0.48958700  0.80423200  1
  C  C43  1  0.46082700  0.51041300  0.69576800  1
  C  C44  1  0.46082700  0.01041300  0.80423200  1
  C  C45  1  0.96082700  0.98958700  0.69576800  1
  C  C46  1  0.03917300  0.51041300  0.19576800  1
  C  C47  1  0.53917300  0.48958700  0.30423200  1
  C  C48  1  0.25346700  0.06938600  0.09155200  1
  C  C49  1  0.75346700  0.93061400  0.40844800  1
  C  C50  1  0.24653300  0.56938600  0.90844800  1
  C  C51  1  0.74653300  0.43061400  0.59155200  1
  C  C52  1  0.74653300  0.93061400  0.90844800  1
  C  C53  1  0.24653300  0.06938600  0.59155200  1
  C  C54  1  0.75346700  0.43061400  0.09155200  1
  C  C55  1  0.25346700  0.56938600  0.40844800  1
  C  C56  1  0.26523100  0.88391600  0.94715800  1
  C  C57  1  0.76523100  0.11608400  0.55284200  1
  C  C58  1  0.23476900  0.38391600  0.05284200  1
  C  C59  1  0.73476900  0.61608400  0.44715800  1
  C  C60  1  0.73476900  0.11608400  0.05284200  1
  C  C61  1  0.23476900  0.88391600  0.44715800  1
  C  C62  1  0.76523100  0.61608400  0.94715800  1
  C  C63  1  0.26523100  0.38391600  0.55284200  1
  C  C64  1  0.48616700  0.22896500  0.17015900  1
  C  C65  1  0.98616700  0.77103500  0.32984100  1
  C  C66  1  0.01383300  0.72896500  0.82984100  1
  C  C67  1  0.51383300  0.27103500  0.67015900  1
  C  C68  1  0.51383300  0.77103500  0.82984100  1
  C  C69  1  0.01383300  0.22896500  0.67015900  1
  C  C70  1  0.98616700  0.27103500  0.17015900  1
  C  C71  1  0.48616700  0.72896500  0.32984100  1
  C  C72  1  0.85274400  0.90806600  0.12643500  1
  C  C73  1  0.35274400  0.09193400  0.37356500  1
  C  C74  1  0.64725600  0.40806600  0.87356500  1
  C  C75  1  0.14725600  0.59193400  0.62643500  1
  C  C76  1  0.14725600  0.09193400  0.87356500  1
  C  C77  1  0.64725600  0.90806600  0.62643500  1
  C  C78  1  0.35274400  0.59193400  0.12643500  1
  C  C79  1  0.85274400  0.40806600  0.37356500  1
  C  C80  1  0.25819900  0.85033500  0.17526400  1
  C  C81  1  0.75819900  0.14966500  0.32473600  1
  C  C82  1  0.24180100  0.35033500  0.82473600  1
  C  C83  1  0.74180100  0.64966500  0.67526400  1
  C  C84  1  0.74180100  0.14966500  0.82473600  1
  C  C85  1  0.24180100  0.85033500  0.67526400  1
  C  C86  1  0.75819900  0.64966500  0.17526400  1
  C  C87  1  0.25819900  0.35033500  0.32473600  1
