# generated using pymatgen
data_Cu4NiC
_symmetry_space_group_name_H-M   'P 1'
_cell_length_a   8.43251350
_cell_length_b   8.43251325
_cell_length_c   22.08312048
_cell_angle_alpha   90.00000000
_cell_angle_beta   90.00000000
_cell_angle_gamma   120.00000098
_symmetry_Int_Tables_number   1
_chemical_formula_structural   Cu4NiC
_chemical_formula_sum   'Cu72 Ni18 C18'
_cell_volume   1359.89427882
_cell_formula_units_Z   18
loop_
 _symmetry_equiv_pos_site_id
 _symmetry_equiv_pos_as_xyz
  1  'x, y, z'
loop_
 _atom_site_type_symbol
 _atom_site_label
 _atom_site_symmetry_multiplicity
 _atom_site_fract_x
 _atom_site_fract_y
 _atom_site_fract_z
 _atom_site_occupancy
  C  C0  1  0.00000000  0.00000000  0.49827780  1
  C  C1  1  0.00000000  0.00000000  0.99827780  1
  C  C2  1  0.66666700  0.33333300  0.83161080  1
  C  C3  1  0.66666700  0.33333300  0.33161080  1
  C  C4  1  0.33333300  0.66666700  0.16494480  1
  C  C5  1  0.33333300  0.66666700  0.66494480  1
  C  C6  1  0.00000000  0.00000000  0.35283897  1
  C  C7  1  0.00000000  0.00000000  0.85283897  1
  C  C8  1  0.66666700  0.33333300  0.68617197  1
  C  C9  1  0.66666700  0.33333300  0.18617197  1
  C  C10  1  0.33333300  0.66666700  0.01950597  1
  C  C11  1  0.33333300  0.66666700  0.51950597  1
  C  C12  1  0.00000000  0.00000000  0.64855529  1
  C  C13  1  0.00000000  0.00000000  0.14855529  1
  C  C14  1  0.66666700  0.33333300  0.98188829  1
  C  C15  1  0.66666700  0.33333300  0.48188829  1
  C  C16  1  0.33333300  0.66666700  0.31522229  1
  C  C17  1  0.33333300  0.66666700  0.81522229  1
  Ni  Ni18  1  0.28739152  0.99302493  0.25046794  1
  Ni  Ni19  1  0.70563342  0.71260848  0.25046794  1
  Ni  Ni20  1  0.00697507  0.29436658  0.25046794  1
  Ni  Ni21  1  0.28739152  0.29436658  0.75046794  1
  Ni  Ni22  1  0.00697507  0.71260848  0.75046794  1
  Ni  Ni23  1  0.70563342  0.99302493  0.75046794  1
  Ni  Ni24  1  0.95405852  0.32635793  0.58380094  1
  Ni  Ni25  1  0.37230042  0.04594148  0.58380094  1
  Ni  Ni26  1  0.67364207  0.62769958  0.58380094  1
  Ni  Ni27  1  0.95405852  0.62769958  0.08380094  1
  Ni  Ni28  1  0.67364207  0.04594148  0.08380094  1
  Ni  Ni29  1  0.37230042  0.32635793  0.08380094  1
  Ni  Ni30  1  0.62072452  0.65969193  0.91713494  1
  Ni  Ni31  1  0.03896642  0.37927548  0.91713494  1
  Ni  Ni32  1  0.34030807  0.96103358  0.91713494  1
  Ni  Ni33  1  0.62072452  0.96103358  0.41713494  1
  Ni  Ni34  1  0.34030807  0.37927548  0.41713494  1
  Ni  Ni35  1  0.03896642  0.65969193  0.41713494  1
  Cu  Cu36  1  0.20750829  0.02234722  0.30468524  1
  Cu  Cu37  1  0.81483893  0.79249171  0.30468524  1
  Cu  Cu38  1  0.97765278  0.18516107  0.30468524  1
  Cu  Cu39  1  0.20750829  0.18516107  0.80468524  1
  Cu  Cu40  1  0.97765278  0.79249171  0.80468524  1
  Cu  Cu41  1  0.81483893  0.02234722  0.80468524  1
  Cu  Cu42  1  0.79038661  0.96276517  0.69495159  1
  Cu  Cu43  1  0.17237856  0.20961339  0.69495159  1
  Cu  Cu44  1  0.03723483  0.82762144  0.69495159  1
  Cu  Cu45  1  0.79038661  0.82762144  0.19495159  1
  Cu  Cu46  1  0.03723483  0.20961339  0.19495159  1
  Cu  Cu47  1  0.17237856  0.96276517  0.19495159  1
  Cu  Cu48  1  0.87417529  0.35568022  0.63801824  1
  Cu  Cu49  1  0.48150593  0.12582471  0.63801824  1
  Cu  Cu50  1  0.64431978  0.51849407  0.63801824  1
  Cu  Cu51  1  0.87417529  0.51849407  0.13801824  1
  Cu  Cu52  1  0.64431978  0.12582471  0.13801824  1
  Cu  Cu53  1  0.48150593  0.35568022  0.13801824  1
  Cu  Cu54  1  0.45705361  0.29609817  0.02828459  1
  Cu  Cu55  1  0.83904556  0.54294639  0.02828459  1
  Cu  Cu56  1  0.70390183  0.16095444  0.02828459  1
  Cu  Cu57  1  0.45705361  0.16095444  0.52828459  1
  Cu  Cu58  1  0.70390183  0.54294639  0.52828459  1
  Cu  Cu59  1  0.83904556  0.29609817  0.52828459  1
  Cu  Cu60  1  0.54084129  0.68901422  0.97135224  1
  Cu  Cu61  1  0.14817193  0.45915871  0.97135224  1
  Cu  Cu62  1  0.31098578  0.85182807  0.97135224  1
  Cu  Cu63  1  0.54084129  0.85182807  0.47135224  1
  Cu  Cu64  1  0.31098578  0.45915871  0.47135224  1
  Cu  Cu65  1  0.14817193  0.68901422  0.47135224  1
  Cu  Cu66  1  0.12371961  0.62943217  0.36161859  1
  Cu  Cu67  1  0.50571156  0.87628039  0.36161859  1
  Cu  Cu68  1  0.37056783  0.49428844  0.36161859  1
  Cu  Cu69  1  0.12371961  0.49428844  0.86161859  1
  Cu  Cu70  1  0.37056783  0.87628039  0.86161859  1
  Cu  Cu71  1  0.50571156  0.62943217  0.86161859  1
  Cu  Cu72  1  0.01391593  0.81907211  0.40996194  1
  Cu  Cu73  1  0.80515619  0.98608407  0.40996194  1
  Cu  Cu74  1  0.18092789  0.19484381  0.40996194  1
  Cu  Cu75  1  0.01391593  0.19484381  0.90996194  1
  Cu  Cu76  1  0.18092789  0.98608407  0.90996194  1
  Cu  Cu77  1  0.80515619  0.81907211  0.90996194  1
  Cu  Cu78  1  0.96744778  0.15586736  0.59004261  1
  Cu  Cu79  1  0.18841958  0.03255222  0.59004261  1
  Cu  Cu80  1  0.84413264  0.81158042  0.59004261  1
  Cu  Cu81  1  0.96744778  0.81158042  0.09004261  1
  Cu  Cu82  1  0.84413264  0.03255222  0.09004261  1
  Cu  Cu83  1  0.18841958  0.15586736  0.09004261  1
  Cu  Cu84  1  0.68058293  0.15240511  0.74329494  1
  Cu  Cu85  1  0.47182319  0.31941707  0.74329494  1
  Cu  Cu86  1  0.84759489  0.52817681  0.74329494  1
  Cu  Cu87  1  0.68058293  0.52817681  0.24329494  1
  Cu  Cu88  1  0.84759489  0.31941707  0.24329494  1
  Cu  Cu89  1  0.47182319  0.15240511  0.24329494  1
  Cu  Cu90  1  0.63411478  0.48920036  0.92337561  1
  Cu  Cu91  1  0.85508658  0.36588522  0.92337561  1
  Cu  Cu92  1  0.51079964  0.14491342  0.92337561  1
  Cu  Cu93  1  0.63411478  0.14491342  0.42337561  1
  Cu  Cu94  1  0.51079964  0.36588522  0.42337561  1
  Cu  Cu95  1  0.85508658  0.48920036  0.42337561  1
  Cu  Cu96  1  0.34724893  0.48573911  0.07662894  1
  Cu  Cu97  1  0.13848919  0.65275107  0.07662894  1
  Cu  Cu98  1  0.51426089  0.86151081  0.07662894  1
  Cu  Cu99  1  0.34724893  0.86151081  0.57662894  1
  Cu  Cu100  1  0.51426089  0.65275107  0.57662894  1
  Cu  Cu101  1  0.13848919  0.48573911  0.57662894  1
  Cu  Cu102  1  0.30078078  0.82253436  0.25670961  1
  Cu  Cu103  1  0.52175258  0.69921922  0.25670961  1
  Cu  Cu104  1  0.17746564  0.47824742  0.25670961  1
  Cu  Cu105  1  0.30078078  0.47824742  0.75670961  1
  Cu  Cu106  1  0.17746564  0.69921922  0.75670961  1
  Cu  Cu107  1  0.52175258  0.82253436  0.75670961  1
