# generated using pymatgen
data_Cu12Ni2C5
_symmetry_space_group_name_H-M   'P 1'
_cell_length_a   8.92863504
_cell_length_b   8.92073769
_cell_length_c   22.53109871
_cell_angle_alpha   90.21270953
_cell_angle_beta   90.24223503
_cell_angle_gamma   120.13279268
_symmetry_Int_Tables_number   1
_chemical_formula_structural   Cu12Ni2C5
_chemical_formula_sum   'Cu72 Ni12 C30'
_cell_volume   1552.03813504
_cell_formula_units_Z   6
loop_
 _symmetry_equiv_pos_site_id
 _symmetry_equiv_pos_as_xyz
  1  'x, y, z'
loop_
 _atom_site_type_symbol
 _atom_site_label
 _atom_site_symmetry_multiplicity
 _atom_site_fract_x
 _atom_site_fract_y
 _atom_site_fract_z
 _atom_site_occupancy
  C  C0  1  0.63173440  0.99637671  0.25451995  1
  C  C1  1  0.36358148  0.36453768  0.24975258  1
  C  C2  1  0.30532989  0.33849971  0.59331543  1
  C  C3  1  0.66796344  0.96049320  0.58353731  1
  C  C4  1  0.97779519  0.67989140  0.91072194  1
  C  C5  1  0.32221592  0.29586188  0.90705459  1
  C  C6  1  0.98368458  0.97555649  0.49632664  1
  C  C7  1  0.98595935  0.00129018  0.99744869  1
  C  C8  1  0.65751960  0.31787146  0.82140040  1
  C  C9  1  0.68386749  0.34029069  0.33157689  1
  C  C10  1  0.31698722  0.66546166  0.16016734  1
  C  C11  1  0.32506234  0.66065234  0.66561184  1
  C  C12  1  0.66673345  0.32802784  0.98182899  1
  C  C13  1  0.66922847  0.33895317  0.47943641  1
  C  C14  1  0.33664901  0.66258299  0.81367060  1
  C  C15  1  0.98748124  0.99434043  0.35165335  1
  C  C16  1  0.99833205  0.00761293  0.84755636  1
  C  C17  1  0.99685697  0.99082378  0.65637454  1
  C  C18  1  0.00095812  0.99653126  0.14938195  1
  C  C19  1  0.65621192  0.34518552  0.68595955  1
  C  C20  1  0.67492388  0.34055981  0.17829592  1
  C  C21  1  0.33946460  0.67067922  0.01134932  1
  C  C22  1  0.34735980  0.67359661  0.51054370  1
  C  C23  1  0.33347593  0.67790572  0.32446759  1
  C  C24  1  0.29550210  0.28935614  0.74897191  1
  C  C25  1  0.66762725  0.63373669  0.58504199  1
  C  C26  1  0.63379532  0.67483556  0.92010825  1
  C  C27  1  0.04251997  0.37092187  0.91917919  1
  C  C28  1  0.32777842  0.95631112  0.91835603  1
  C  C29  1  0.63734472  0.96451893  0.41567118  1
  Ni  Ni30  1  0.29177172  0.99836681  0.25003304  1
  Ni  Ni31  1  0.70515855  0.70175475  0.24910017  1
  Ni  Ni32  1  0.00142363  0.29663755  0.24964023  1
  Ni  Ni33  1  0.99708109  0.70028199  0.75121985  1
  Ni  Ni34  1  0.70496828  0.00584670  0.74732067  1
  Ni  Ni35  1  0.96403316  0.33780193  0.58520363  1
  Ni  Ni36  1  0.37136639  0.03586689  0.58407469  1
  Ni  Ni37  1  0.96883637  0.63554600  0.08521676  1
  Ni  Ni38  1  0.66626358  0.03139518  0.08835534  1
  Ni  Ni39  1  0.36532262  0.33294231  0.08670051  1
  Ni  Ni40  1  0.32680872  0.36656527  0.41504288  1
  Ni  Ni41  1  0.04409891  0.67172773  0.41640051  1
  Cu  Cu42  1  0.20964973  0.02461907  0.30286259  1
  Cu  Cu43  1  0.80705748  0.77990675  0.30356553  1
  Cu  Cu44  1  0.97134723  0.18660430  0.30256167  1
  Cu  Cu45  1  0.20884812  0.19050076  0.80614387  1
  Cu  Cu46  1  0.98034304  0.78020938  0.80668570  1
  Cu  Cu47  1  0.80736861  0.01912827  0.80025565  1
  Cu  Cu48  1  0.77525499  0.97757028  0.69128928  1
  Cu  Cu49  1  0.19115967  0.21022987  0.69079386  1
  Cu  Cu50  1  0.01907031  0.80343064  0.69784022  1
  Cu  Cu51  1  0.78572451  0.81024450  0.19612234  1
  Cu  Cu52  1  0.03046069  0.21667532  0.19596887  1
  Cu  Cu53  1  0.19286606  0.97940928  0.19499304  1
  Cu  Cu54  1  0.88004262  0.35474792  0.63816391  1
  Cu  Cu55  1  0.48233564  0.11591894  0.63661530  1
  Cu  Cu56  1  0.63288479  0.51561672  0.63814296  1
  Cu  Cu57  1  0.88250409  0.52985507  0.13799589  1
  Cu  Cu58  1  0.64900106  0.11294606  0.14388227  1
  Cu  Cu59  1  0.46628540  0.34888497  0.14173686  1
  Cu  Cu60  1  0.46181235  0.31858119  0.03344093  1
  Cu  Cu61  1  0.86173353  0.54358501  0.03013978  1
  Cu  Cu62  1  0.68120229  0.14603081  0.03631872  1
  Cu  Cu63  1  0.46278507  0.14776542  0.53040228  1
  Cu  Cu64  1  0.68627546  0.54035870  0.52820958  1
  Cu  Cu65  1  0.85302057  0.31596666  0.53089702  1
  Cu  Cu66  1  0.55610465  0.70093512  0.97608079  1
  Cu  Cu67  1  0.15427391  0.45125813  0.97440709  1
  Cu  Cu68  1  0.29748478  0.84709424  0.97357559  1
  Cu  Cu69  1  0.55195789  0.86271882  0.47258722  1
  Cu  Cu70  1  0.30890153  0.44839968  0.46972220  1
  Cu  Cu71  1  0.14320358  0.68478815  0.47044740  1
  Cu  Cu72  1  0.11381778  0.63874678  0.36184102  1
  Cu  Cu73  1  0.53157121  0.88898968  0.35761673  1
  Cu  Cu74  1  0.35138254  0.46966985  0.36071773  1
  Cu  Cu75  1  0.12688585  0.49142200  0.86429145  1
  Cu  Cu76  1  0.35750133  0.87143170  0.86291634  1
  Cu  Cu77  1  0.51142205  0.63467663  0.86506095  1
  Cu  Cu78  1  0.02503423  0.82628271  0.41222896  1
  Cu  Cu79  1  0.81983027  0.98705763  0.41239644  1
  Cu  Cu80  1  0.17771615  0.18972268  0.41064897  1
  Cu  Cu81  1  0.01700255  0.19012933  0.91015531  1
  Cu  Cu82  1  0.17222205  0.98467838  0.91085759  1
  Cu  Cu83  1  0.81825565  0.82229573  0.90983252  1
  Cu  Cu84  1  0.97744433  0.17697472  0.58519552  1
  Cu  Cu85  1  0.20287665  0.02999497  0.58638234  1
  Cu  Cu86  1  0.82940979  0.81718349  0.58892416  1
  Cu  Cu87  1  0.97698746  0.80548639  0.08674995  1
  Cu  Cu88  1  0.82724855  0.02245787  0.08825024  1
  Cu  Cu89  1  0.19449168  0.17194211  0.08667106  1
  Cu  Cu90  1  0.68635144  0.16049537  0.74372156  1
  Cu  Cu91  1  0.47833868  0.31224646  0.74713131  1
  Cu  Cu92  1  0.84681590  0.52270852  0.74696348  1
  Cu  Cu93  1  0.67876426  0.52221567  0.24352783  1
  Cu  Cu94  1  0.84166539  0.31136200  0.24361978  1
  Cu  Cu95  1  0.47108240  0.15905450  0.24656590  1
  Cu  Cu96  1  0.64274208  0.50037843  0.92509268  1
  Cu  Cu97  1  0.86228091  0.36287512  0.92454264  1
  Cu  Cu98  1  0.49308590  0.14350759  0.92379974  1
  Cu  Cu99  1  0.65482660  0.15047760  0.42208214  1
  Cu  Cu100  1  0.48985557  0.35292460  0.41998485  1
  Cu  Cu101  1  0.86277146  0.51319200  0.42105748  1
  Cu  Cu102  1  0.35064772  0.48953364  0.08190365  1
  Cu  Cu103  1  0.14097762  0.65255810  0.08043390  1
  Cu  Cu104  1  0.50971987  0.86022007  0.08172070  1
  Cu  Cu105  1  0.35166477  0.86191128  0.57639829  1
  Cu  Cu106  1  0.50027051  0.64881724  0.57787523  1
  Cu  Cu107  1  0.13983199  0.49040093  0.57815377  1
  Cu  Cu108  1  0.31715179  0.84509910  0.25427145  1
  Cu  Cu109  1  0.52708748  0.68250907  0.25346111  1
  Cu  Cu110  1  0.15988666  0.47104582  0.25648207  1
  Cu  Cu111  1  0.31524553  0.47721210  0.75352753  1
  Cu  Cu112  1  0.15937070  0.68638872  0.75469301  1
  Cu  Cu113  1  0.52582785  0.84644732  0.75281548  1
