# generated using pymatgen
data_Cu2Ni2C15
_symmetry_space_group_name_H-M   'P 1'
_cell_length_a   3.63993290
_cell_length_b   4.01091941
_cell_length_c   19.83847530
_cell_angle_alpha   95.88625232
_cell_angle_beta   97.79727084
_cell_angle_gamma   89.95933581
_symmetry_Int_Tables_number   1
_chemical_formula_structural   Cu2Ni2C15
_chemical_formula_sum   'Cu2 Ni2 C15'
_cell_volume   285.41493598
_cell_formula_units_Z   1
loop_
 _symmetry_equiv_pos_site_id
 _symmetry_equiv_pos_as_xyz
  1  'x, y, z'
loop_
 _atom_site_type_symbol
 _atom_site_label
 _atom_site_symmetry_multiplicity
 _atom_site_fract_x
 _atom_site_fract_y
 _atom_site_fract_z
 _atom_site_occupancy
  C  C0  1  0.10848100  0.14760200  0.29089700  1
  C  C1  1  0.82573000  0.84428900  0.68820900  1
  C  C2  1  0.45840600  0.40841400  0.81879200  1
  C  C3  1  0.51385000  0.57815400  0.15753000  1
  C  C4  1  0.24110000  0.49455800  0.99193200  1
  Ni  Ni5  1  0.64786100  0.72051000  0.43208600  1
  Ni  Ni6  1  0.26446100  0.28199100  0.55289500  1
  Cu  Cu7  1  0.99703500  0.94276100  0.88719500  1
  Cu  Cu8  1  0.90473800  0.03721800  0.07703600  1
  C  C9  1  0.47566600  0.91234500  0.82602400  1
  C  C10  1  0.33888900  0.35811100  0.71824600  1
  C  C11  1  0.01417300  0.43945800  0.88109500  1
  C  C12  1  0.81197800  0.78083600  0.53912300  1
  C  C13  1  0.76964200  0.52282100  0.04852400  1
  C  C14  1  0.04144600  0.59665000  0.19367400  1
  C  C15  1  0.64028500  0.66652200  0.32573300  1
  C  C16  1  0.47534600  0.06903300  0.13957200  1
  C  C17  1  0.27165000  0.22404400  0.43406900  1
  C  C18  1  0.20035000  0.99264500  0.98832700  1
