# generated using pymatgen
data_CuNi2C11
_symmetry_space_group_name_H-M   'P 1'
_cell_length_a   3.91839900
_cell_length_b   3.91840202
_cell_length_c   14.35678909
_cell_angle_alpha   89.98772750
_cell_angle_beta   89.99513427
_cell_angle_gamma   89.99812808
_symmetry_Int_Tables_number   1
_chemical_formula_structural   CuNi2C11
_chemical_formula_sum   'Cu1 Ni2 C11'
_cell_volume   220.43216096
_cell_formula_units_Z   1
loop_
 _symmetry_equiv_pos_site_id
 _symmetry_equiv_pos_as_xyz
  1  'x, y, z'
loop_
 _atom_site_type_symbol
 _atom_site_label
 _atom_site_symmetry_multiplicity
 _atom_site_fract_x
 _atom_site_fract_y
 _atom_site_fract_z
 _atom_site_occupancy
  Ni  Ni0  1  0.49998900  0.50013200  0.83552100  1
  Ni  Ni1  1  0.50000900  0.49999800  0.16453100  1
  Cu  Cu2  1  0.49999300  0.49994500  0.49996600  1
  C  C3  1  0.99998500  0.99991500  0.50003000  1
  C  C4  1  0.99999200  0.99999700  0.00001300  1
  C  C5  1  0.00016600  0.00033600  0.67341100  1
  C  C6  1  0.99995500  0.99972300  0.32658400  1
  C  C7  1  0.49995600  0.99991500  0.59141300  1
  C  C8  1  0.99999800  0.49991200  0.59142800  1
  C  C9  1  0.50000900  0.00000500  0.40853200  1
  C  C10  1  0.00000100  0.50009900  0.40854700  1
  C  C11  1  0.99993500  0.99994500  0.80719400  1
  C  C12  1  0.00000900  0.00007600  0.19279600  1
  C  C13  1  0.50000400  0.50000100  0.00003500  1
