# generated using pymatgen
data_Cu11(NiC)4
_symmetry_space_group_name_H-M   'P 1'
_cell_length_a   9.11967600
_cell_length_b   9.32438100
_cell_length_c   28.31214600
_cell_angle_alpha   90.00000000
_cell_angle_beta   90.00000000
_cell_angle_gamma   90.00000000
_symmetry_Int_Tables_number   1
_chemical_formula_structural   Cu11(NiC)4
_chemical_formula_sum   'Cu44 Ni16 C16'
_cell_volume   2407.53278062
_cell_formula_units_Z   4
loop_
 _symmetry_equiv_pos_site_id
 _symmetry_equiv_pos_as_xyz
  1  'x, y, z'
loop_
 _atom_site_type_symbol
 _atom_site_label
 _atom_site_symmetry_multiplicity
 _atom_site_fract_x
 _atom_site_fract_y
 _atom_site_fract_z
 _atom_site_occupancy
  C  C0  1  0.65226000  0.74702300  0.94057000  1
  C  C1  1  0.15226000  0.75297700  0.55943000  1
  C  C2  1  0.34774000  0.74702300  0.05943000  1
  C  C3  1  0.84774000  0.75297700  0.44057000  1
  C  C4  1  0.34774000  0.25297700  0.05943000  1
  C  C5  1  0.84774000  0.24702300  0.44057000  1
  C  C6  1  0.65226000  0.25297700  0.94057000  1
  C  C7  1  0.15226000  0.24702300  0.55943000  1
  C  C8  1  0.43293300  0.74791500  0.70912200  1
  C  C9  1  0.93293300  0.75208500  0.79087800  1
  C  C10  1  0.56706700  0.74791500  0.29087800  1
  C  C11  1  0.06706700  0.75208500  0.20912200  1
  C  C12  1  0.56706700  0.25208500  0.29087800  1
  C  C13  1  0.06706700  0.24791500  0.20912200  1
  C  C14  1  0.43293300  0.25208500  0.70912200  1
  C  C15  1  0.93293300  0.24791500  0.79087800  1
  Ni  Ni16  1  0.91702300  0.50000000  0.06380200  1
  Ni  Ni17  1  0.41702300  0.00000000  0.43619800  1
  Ni  Ni18  1  0.08297700  0.50000000  0.93619800  1
  Ni  Ni19  1  0.58297700  0.00000000  0.56380200  1
  Ni  Ni20  1  0.46061300  0.50000000  0.42740200  1
  Ni  Ni21  1  0.96061300  0.00000000  0.07259800  1
  Ni  Ni22  1  0.53938700  0.50000000  0.57259800  1
  Ni  Ni23  1  0.03938700  0.00000000  0.92740200  1
  Ni  Ni24  1  0.13126900  0.50000000  0.34297300  1
  Ni  Ni25  1  0.63126900  0.00000000  0.15702700  1
  Ni  Ni26  1  0.86873100  0.50000000  0.65702700  1
  Ni  Ni27  1  0.36873100  0.00000000  0.84297300  1
  Ni  Ni28  1  0.63684900  0.50000000  0.16073800  1
  Ni  Ni29  1  0.13684900  0.00000000  0.33926200  1
  Ni  Ni30  1  0.36315100  0.50000000  0.83926200  1
  Ni  Ni31  1  0.86315100  0.00000000  0.66073800  1
  Cu  Cu32  1  0.10117000  0.50000000  0.47235300  1
  Cu  Cu33  1  0.60117000  0.00000000  0.02764700  1
  Cu  Cu34  1  0.89883000  0.50000000  0.52764700  1
  Cu  Cu35  1  0.39883000  0.00000000  0.97235300  1
  Cu  Cu36  1  0.27303400  0.50000000  0.26404700  1
  Cu  Cu37  1  0.77303400  0.00000000  0.23595300  1
  Cu  Cu38  1  0.72696600  0.50000000  0.73595300  1
  Cu  Cu39  1  0.22696600  0.00000000  0.76404700  1
  Cu  Cu40  1  0.50000000  0.79834200  0.50000000  1
  Cu  Cu41  1  0.00000000  0.70165800  0.00000000  1
  Cu  Cu42  1  0.50000000  0.20165800  0.50000000  1
  Cu  Cu43  1  0.00000000  0.29834200  0.00000000  1
  Cu  Cu44  1  0.59880800  0.50000000  0.03004700  1
  Cu  Cu45  1  0.09880800  0.00000000  0.46995300  1
  Cu  Cu46  1  0.40119200  0.50000000  0.96995300  1
  Cu  Cu47  1  0.90119200  0.00000000  0.53004700  1
  Cu  Cu48  1  0.79032700  0.50000000  0.23853300  1
  Cu  Cu49  1  0.29032700  0.00000000  0.26146700  1
  Cu  Cu50  1  0.31899900  0.29444700  0.38361100  1
  Cu  Cu51  1  0.20967300  0.50000000  0.76146700  1
  Cu  Cu52  1  0.69517200  0.50000000  0.37424300  1
  Cu  Cu53  1  0.19517200  0.00000000  0.12575700  1
  Cu  Cu54  1  0.30482800  0.50000000  0.62575700  1
  Cu  Cu55  1  0.80482800  0.00000000  0.87424300  1
  Cu  Cu56  1  0.14935000  0.50000000  0.11792000  1
  Cu  Cu57  1  0.64935000  0.00000000  0.38208000  1
  Cu  Cu58  1  0.85065000  0.50000000  0.88208000  1
  Cu  Cu59  1  0.35065000  0.00000000  0.61792000  1
  Cu  Cu60  1  0.68100100  0.70555300  0.61638900  1
  Cu  Cu61  1  0.18100100  0.79444700  0.88361100  1
  Cu  Cu62  1  0.31899900  0.70555300  0.38361100  1
  Cu  Cu63  1  0.81899900  0.79444700  0.11638900  1
  Cu  Cu64  1  0.53845500  0.27813500  0.82500900  1
  Cu  Cu65  1  0.03845500  0.22186500  0.67499100  1
  Cu  Cu66  1  0.46154500  0.27813500  0.17499100  1
  Cu  Cu67  1  0.96154500  0.22186500  0.32500900  1
  Cu  Cu68  1  0.46154500  0.72186500  0.17499100  1
  Cu  Cu69  1  0.96154500  0.77813500  0.32500900  1
  Cu  Cu70  1  0.53845500  0.72186500  0.82500900  1
  Cu  Cu71  1  0.03845500  0.77813500  0.67499100  1
  Cu  Cu72  1  0.18100100  0.20555300  0.88361100  1
  Cu  Cu73  1  0.68100100  0.29444700  0.61638900  1
  Cu  Cu74  1  0.81899900  0.20555300  0.11638900  1
  Cu  Cu75  1  0.70967300  0.00000000  0.73853300  1
