# generated using pymatgen
data_Cu(NiC4)4
_symmetry_space_group_name_H-M   'P 1'
_cell_length_a   9.38549221
_cell_length_b   9.38549186
_cell_length_c   22.81672484
_cell_angle_alpha   90.00000000
_cell_angle_beta   90.00000000
_cell_angle_gamma   120.00000120
_symmetry_Int_Tables_number   1
_chemical_formula_structural   Cu(NiC4)4
_chemical_formula_sum   'Cu6 Ni24 C96'
_cell_volume   1740.59616546
_cell_formula_units_Z   6
loop_
 _symmetry_equiv_pos_site_id
 _symmetry_equiv_pos_as_xyz
  1  'x, y, z'
loop_
 _atom_site_type_symbol
 _atom_site_label
 _atom_site_symmetry_multiplicity
 _atom_site_fract_x
 _atom_site_fract_y
 _atom_site_fract_z
 _atom_site_occupancy
  Ni  Ni0  1  0.63903497  0.01309521  0.24816023  1
  Ni  Ni1  1  0.37406025  0.36096503  0.24816023  1
  Ni  Ni2  1  0.98690479  0.62593975  0.24816023  1
  Ni  Ni3  1  0.63903497  0.62593975  0.74816023  1
  Ni  Ni4  1  0.98690479  0.36096503  0.74816023  1
  Ni  Ni5  1  0.37406025  0.01309521  0.74816023  1
  Ni  Ni6  1  0.30570197  0.34642821  0.58149323  1
  Ni  Ni7  1  0.04072725  0.69429803  0.58149323  1
  Ni  Ni8  1  0.65357179  0.95927275  0.58149323  1
  Ni  Ni9  1  0.30570197  0.95927275  0.08149323  1
  Ni  Ni10  1  0.65357179  0.69429803  0.08149323  1
  Ni  Ni11  1  0.04072725  0.34642821  0.08149323  1
  Ni  Ni12  1  0.97236797  0.67976221  0.91482723  1
  Ni  Ni13  1  0.70739325  0.02763203  0.91482723  1
  Ni  Ni14  1  0.32023779  0.29260675  0.91482723  1
  Ni  Ni15  1  0.97236797  0.29260675  0.41482723  1
  Ni  Ni16  1  0.32023779  0.02763203  0.41482723  1
  Ni  Ni17  1  0.70739325  0.67976221  0.41482723  1
  Ni  Ni18  1  0.00000000  -0.00000000  0.49600143  1
  Ni  Ni19  1  0.00000000  -0.00000000  0.99600143  1
  Ni  Ni20  1  0.66666700  0.33333300  0.82933443  1
  Ni  Ni21  1  0.66666700  0.33333300  0.32933443  1
  Ni  Ni22  1  0.33333300  0.66666700  0.16266843  1
  Ni  Ni23  1  0.33333300  0.66666700  0.66266843  1
  Cu  Cu24  1  0.00000000  -0.00000000  0.34864352  1
  Cu  Cu25  1  0.00000000  -0.00000000  0.84864352  1
  Cu  Cu26  1  0.66666700  0.33333300  0.68197652  1
  Cu  Cu27  1  0.66666700  0.33333300  0.18197652  1
  Cu  Cu28  1  0.33333300  0.66666700  0.01531052  1
  Cu  Cu29  1  0.33333300  0.66666700  0.51531052  1
  C  C30  1  0.00000000  -0.00000000  0.64826108  1
  C  C31  1  0.00000000  -0.00000000  0.14826108  1
  C  C32  1  0.66666700  0.33333300  0.98159408  1
  C  C33  1  0.66666700  0.33333300  0.48159408  1
  C  C34  1  0.33333300  0.66666700  0.31492808  1
  C  C35  1  0.33333300  0.66666700  0.81492808  1
  C  C36  1  0.29443152  0.99264959  0.25095988  1
  C  C37  1  0.69821807  0.70556848  0.25095988  1
  C  C38  1  0.00735041  0.30178193  0.25095988  1
  C  C39  1  0.29443152  0.30178193  0.75095988  1
  C  C40  1  0.00735041  0.70556848  0.75095988  1
  C  C41  1  0.69821807  0.99264959  0.75095988  1
  C  C42  1  0.96109852  0.32598259  0.58429288  1
  C  C43  1  0.36488507  0.03890148  0.58429288  1
  C  C44  1  0.67401741  0.63511493  0.58429288  1
  C  C45  1  0.96109852  0.63511493  0.08429288  1
  C  C46  1  0.67401741  0.03890148  0.08429288  1
  C  C47  1  0.36488507  0.32598259  0.08429288  1
  C  C48  1  0.62776452  0.65931659  0.91762688  1
  C  C49  1  0.03155107  0.37223548  0.91762688  1
  C  C50  1  0.34068341  0.96844893  0.91762688  1
  C  C51  1  0.62776452  0.96844893  0.41762688  1
  C  C52  1  0.34068341  0.37223548  0.41762688  1
  C  C53  1  0.03155107  0.65931659  0.41762688  1
  C  C54  1  0.21938816  0.02548416  0.30890862  1
  C  C55  1  0.80609601  0.78061184  0.30890862  1
  C  C56  1  0.97451584  0.19390399  0.30890862  1
  C  C57  1  0.21938816  0.19390399  0.80890862  1
  C  C58  1  0.97451584  0.78061184  0.80890862  1
  C  C59  1  0.80609601  0.02548416  0.80890862  1
  C  C60  1  0.80635330  0.97019029  0.69431650  1
  C  C61  1  0.16383699  0.19364670  0.69431650  1
  C  C62  1  0.02980971  0.83616301  0.69431650  1
  C  C63  1  0.80635330  0.83616301  0.19431650  1
  C  C64  1  0.02980971  0.19364670  0.19431650  1
  C  C65  1  0.16383699  0.97019029  0.19431650  1
  C  C66  1  0.88605516  0.35881716  0.64224162  1
  C  C67  1  0.47276301  0.11394484  0.64224162  1
  C  C68  1  0.64118284  0.52723699  0.64224162  1
  C  C69  1  0.88605516  0.52723699  0.14224162  1
  C  C70  1  0.64118284  0.11394484  0.14224162  1
  C  C71  1  0.47276301  0.35881716  0.14224162  1
  C  C72  1  0.47302030  0.30352329  0.02764950  1
  C  C73  1  0.83050399  0.52697970  0.02764950  1
  C  C74  1  0.69647671  0.16949601  0.02764950  1
  C  C75  1  0.47302030  0.16949601  0.52764950  1
  C  C76  1  0.69647671  0.52697970  0.52764950  1
  C  C77  1  0.83050399  0.30352329  0.52764950  1
  C  C78  1  0.55272116  0.69215116  0.97557562  1
  C  C79  1  0.13942901  0.44727884  0.97557562  1
  C  C80  1  0.30784884  0.86057099  0.97557562  1
  C  C81  1  0.55272116  0.86057099  0.47557562  1
  C  C82  1  0.30784884  0.44727884  0.47557562  1
  C  C83  1  0.13942901  0.69215116  0.47557562  1
  C  C84  1  0.13968630  0.63685729  0.36098350  1
  C  C85  1  0.49716999  0.86031370  0.36098350  1
  C  C86  1  0.36314271  0.50283001  0.36098350  1
  C  C87  1  0.13968630  0.50283001  0.86098350  1
  C  C88  1  0.36314271  0.86031370  0.86098350  1
  C  C89  1  0.49716999  0.63685729  0.86098350  1
  C  C90  1  0.00070216  0.81368002  0.41196693  1
  C  C91  1  0.81297786  0.99929784  0.41196693  1
  C  C92  1  0.18631998  0.18702214  0.41196693  1
  C  C93  1  0.00070216  0.18702214  0.91196693  1
  C  C94  1  0.18631998  0.99929784  0.91196693  1
  C  C95  1  0.81297786  0.81368002  0.91196693  1
  C  C96  1  0.96210209  0.14823607  0.58805249  1
  C  C97  1  0.18613399  0.03789791  0.58805249  1
  C  C98  1  0.85176393  0.81386601  0.58805249  1
  C  C99  1  0.96210209  0.81386601  0.08805249  1
  C  C100  1  0.85176393  0.03789791  0.08805249  1
  C  C101  1  0.18613399  0.14823607  0.08805249  1
  C  C102  1  0.66736916  0.14701302  0.74529993  1
  C  C103  1  0.47964486  0.33263084  0.74529993  1
  C  C104  1  0.85298698  0.52035514  0.74529993  1
  C  C105  1  0.66736916  0.52035514  0.24529993  1
  C  C106  1  0.85298698  0.33263084  0.24529993  1
  C  C107  1  0.47964486  0.14701302  0.24529993  1
  C  C108  1  0.62876909  0.48156907  0.92138549  1
  C  C109  1  0.85280099  0.37123091  0.92138549  1
  C  C110  1  0.51843093  0.14719901  0.92138549  1
  C  C111  1  0.62876909  0.14719901  0.42138549  1
  C  C112  1  0.51843093  0.37123091  0.42138549  1
  C  C113  1  0.85280099  0.48156907  0.42138549  1
  C  C114  1  0.33403516  0.48034702  0.07863393  1
  C  C115  1  0.14631086  0.66596484  0.07863393  1
  C  C116  1  0.51965298  0.85368914  0.07863393  1
  C  C117  1  0.33403516  0.85368914  0.57863393  1
  C  C118  1  0.51965298  0.66596484  0.57863393  1
  C  C119  1  0.14631086  0.48034702  0.57863393  1
  C  C120  1  0.29543509  0.81490307  0.25471949  1
  C  C121  1  0.51946699  0.70456491  0.25471949  1
  C  C122  1  0.18509693  0.48053301  0.25471949  1
  C  C123  1  0.29543509  0.48053301  0.75471949  1
  C  C124  1  0.18509693  0.70456491  0.75471949  1
  C  C125  1  0.51946699  0.81490307  0.75471949  1
