# generated using pymatgen
data_Cu3NiC31
_symmetry_space_group_name_H-M   'P 1'
_cell_length_a   8.73554717
_cell_length_b   8.73554689
_cell_length_c   22.75133457
_cell_angle_alpha   90.00000000
_cell_angle_beta   90.00000000
_cell_angle_gamma   120.00000104
_symmetry_Int_Tables_number   1
_chemical_formula_structural   Cu3NiC31
_chemical_formula_sum   'Cu9 Ni3 C93'
_cell_volume   1503.54945078
_cell_formula_units_Z   3
loop_
 _symmetry_equiv_pos_site_id
 _symmetry_equiv_pos_as_xyz
  1  'x, y, z'
loop_
 _atom_site_type_symbol
 _atom_site_label
 _atom_site_symmetry_multiplicity
 _atom_site_fract_x
 _atom_site_fract_y
 _atom_site_fract_z
 _atom_site_occupancy
  C  C0  1  0.00000000  0.00000000  0.98507026  1
  C  C1  1  0.66666700  0.33333300  0.84352036  1
  C  C2  1  0.66666700  0.33333300  0.34260648  1
  Ni  Ni3  1  0.00000000  0.00000000  0.85504143  1
  Ni  Ni4  1  0.66666700  0.33333300  0.97567763  1
  Ni  Ni5  1  0.66666700  0.33333300  0.48021879  1
  Cu  Cu6  1  0.00000000  0.00000000  0.36052289  1
  Cu  Cu7  1  0.00000000  0.00000000  0.64666089  1
  Cu  Cu8  1  0.00000000  0.00000000  0.14338134  1
  Cu  Cu9  1  0.66666700  0.33333300  0.68766788  1
  Cu  Cu10  1  0.66666700  0.33333300  0.18481944  1
  Cu  Cu11  1  0.33333300  0.66666700  0.01842774  1
  Cu  Cu12  1  0.33333300  0.66666700  0.52673545  1
  Cu  Cu13  1  0.33333300  0.66666700  0.31113678  1
  Cu  Cu14  1  0.33333300  0.66666700  0.81125329  1
  C  C15  1  0.28586855  0.00294185  0.25102969  1
  C  C16  1  0.71707330  0.71413145  0.25102969  1
  C  C17  1  0.99705815  0.28292670  0.25102969  1
  C  C18  1  0.28535633  0.28412198  0.75232590  1
  C  C19  1  -0.00123435  0.71464367  0.75232590  1
  C  C20  1  0.71587802  0.00123435  0.75232590  1
  C  C21  1  0.94746686  0.32795122  0.58123908  1
  C  C22  1  0.38048535  0.05253314  0.58123908  1
  C  C23  1  0.67204878  0.61951465  0.58123908  1
  C  C24  1  0.95378004  0.61826911  0.08075874  1
  C  C25  1  0.66449006  0.04621996  0.08075874  1
  C  C26  1  0.38173089  0.33550994  0.08075874  1
  C  C27  1  0.62601221  0.66718963  0.91570748  1
  C  C28  1  0.04117643  0.37398779  0.91570748  1
  C  C29  1  0.33281037  0.95882357  0.91570748  1
  C  C30  1  0.61526637  0.95503823  0.41712980  1
  C  C31  1  0.33977086  0.38473363  0.41712980  1
  C  C32  1  0.04496177  0.66022914  0.41712980  1
  C  C33  1  0.19897393  0.03224749  0.30545340  1
  C  C34  1  0.83327356  0.80102607  0.30545340  1
  C  C35  1  0.96775251  0.16672644  0.30545340  1
  C  C36  1  0.21397011  0.17163362  0.80539423  1
  C  C37  1  0.95766351  0.78602989  0.80539423  1
  C  C38  1  0.82836638  0.04233649  0.80539423  1
  C  C39  1  0.80196906  0.97452624  0.69560838  1
  C  C40  1  0.17255719  0.19803094  0.69560838  1
  C  C41  1  0.02547376  0.82744281  0.69560838  1
  C  C42  1  0.80241159  0.82803704  0.19626207  1
  C  C43  1  0.02562545  0.19758841  0.19626207  1
  C  C44  1  0.17196296  0.97437455  0.19626207  1
  C  C45  1  0.86586120  0.36332352  0.63668139  1
  C  C46  1  0.49746332  0.13413880  0.63668139  1
  C  C47  1  0.63667648  0.50253668  0.63668139  1
  C  C48  1  0.86324061  0.50526193  0.13887902  1
  C  C49  1  0.64202232  0.13675939  0.13887902  1
  C  C50  1  0.49473807  0.35797768  0.13887902  1
  C  C51  1  0.45489540  0.29118472  0.02906285  1
  C  C52  1  0.83629032  0.54510460  0.02906285  1
  C  C53  1  0.70881528  0.16370968  0.02906285  1
  C  C54  1  0.45352734  0.15871760  0.52675265  1
  C  C55  1  0.70519126  0.54647266  0.52675265  1
  C  C56  1  0.84128240  0.29480874  0.52675265  1
  C  C57  1  0.52386199  0.68431804  0.97220585  1
  C  C58  1  0.16045504  0.47613801  0.97220585  1
  C  C59  1  0.31568196  0.83954496  0.97220585  1
  C  C60  1  0.53075581  0.83622686  0.47101098  1
  C  C61  1  0.30547005  0.46924419  0.47101098  1
  C  C62  1  0.16377314  0.69452995  0.47101098  1
  C  C63  1  0.14299831  0.64599575  0.36108894  1
  C  C64  1  0.50299644  0.85700169  0.36108894  1
  C  C65  1  0.35400425  0.49700356  0.36108894  1
  C  C66  1  0.14372691  0.49375090  0.86125803  1
  C  C67  1  0.35002300  0.85627309  0.86125803  1
  C  C68  1  0.50624910  0.64997700  0.86125803  1
  C  C69  1  0.03616856  0.83438691  0.40585299  1
  C  C70  1  0.79821835  0.96383144  0.40585299  1
  C  C71  1  0.16561309  0.20178165  0.40585299  1
  C  C72  1  0.03787202  0.20081522  0.91379035  1
  C  C73  1  0.16294320  0.96212798  0.91379035  1
  C  C74  1  0.79918478  0.83705680  0.91379035  1
  C  C75  1  0.98022475  0.17357365  0.59601307  1
  C  C76  1  0.19334890  0.01977525  0.59601307  1
  C  C77  1  0.82642635  0.80665110  0.59601307  1
  C  C78  1  0.97928989  0.80717525  0.09608297  1
  C  C79  1  0.82788537  0.02071011  0.09608297  1
  C  C80  1  0.19282475  0.17211463  0.09608297  1
  C  C81  1  0.68677522  0.16209093  0.73796844  1
  C  C82  1  0.47531671  0.31322478  0.73796844  1
  C  C83  1  0.83790907  0.52468329  0.73796844  1
  C  C84  1  0.69437108  0.52778423  0.24268502  1
  C  C85  1  0.83341415  0.30562892  0.24268502  1
  C  C86  1  0.47221577  0.16658585  0.24268502  1
  C  C87  1  0.62874663  0.49665665  0.92002502  1
  C  C88  1  0.86791103  0.37125337  0.92002502  1
  C  C89  1  0.50334335  0.13208897  0.92002502  1
  C  C90  1  0.63821513  0.13585424  0.41918367  1
  C  C91  1  0.49764011  0.36178487  0.41918367  1
  C  C92  1  0.86414576  0.50235989  0.41918367  1
  C  C93  1  0.35821017  0.49694497  0.07663436  1
  C  C94  1  0.13873380  0.64178983  0.07663436  1
  C  C95  1  0.50305503  0.86126620  0.07663436  1
  C  C96  1  0.35889652  0.86242127  0.57339979  1
  C  C97  1  0.50352376  0.64110348  0.57339979  1
  C  C98  1  0.13757873  0.49647624  0.57339979  1
  C  C99  1  0.30625839  0.83878368  0.26024963  1
  C  C100  1  0.53252429  0.69374161  0.26024963  1
  C  C101  1  0.16121632  0.46747571  0.26024963  1
  C  C102  1  0.30910339  0.47156688  0.75824134  1
  C  C103  1  0.16246249  0.69089661  0.75824134  1
  C  C104  1  0.52843312  0.83753751  0.75824134  1
