# generated using pymatgen
data_Cu2NiC12
_symmetry_space_group_name_H-M   'P 1'
_cell_length_a   6.54519684
_cell_length_b   5.72767110
_cell_length_c   6.54519600
_cell_angle_alpha   64.05248527
_cell_angle_beta   55.84175461
_cell_angle_gamma   64.05248694
_symmetry_Int_Tables_number   1
_chemical_formula_structural   Cu2NiC12
_chemical_formula_sum   'Cu2 Ni1 C12'
_cell_volume   176.39988239
_cell_formula_units_Z   1
loop_
 _symmetry_equiv_pos_site_id
 _symmetry_equiv_pos_as_xyz
  1  'x, y, z'
loop_
 _atom_site_type_symbol
 _atom_site_label
 _atom_site_symmetry_multiplicity
 _atom_site_fract_x
 _atom_site_fract_y
 _atom_site_fract_z
 _atom_site_occupancy
  Ni  Ni0  1  0.33395500  0.91604500  0.33395500  1
  Cu  Cu1  1  0.56227500  0.95910900  0.56227500  1
  Cu  Cu2  1  0.56227500  0.41634000  0.56227500  1
  C  C3  1  0.07443900  0.17556100  0.07443900  1
  C  C4  1  0.50211600  0.48064200  0.03660000  1
  C  C5  1  0.03660000  0.48064200  0.50211600  1
  C  C6  1  0.90196600  0.84803400  0.90196600  1
  C  C7  1  0.21709500  0.29335500  0.21709500  1
  C  C8  1  0.21709500  0.77245500  0.21709500  1
  C  C9  1  0.26854600  0.26511800  0.70121800  1
  C  C10  1  0.70121800  0.26511800  0.26854600  1
  C  C11  1  0.28066000  0.76281300  0.69371500  1
  C  C12  1  0.69371500  0.76281300  0.28066000  1
  C  C13  1  0.74763400  0.26102500  0.74763400  1
  C  C14  1  0.74763400  0.74370800  0.74763400  1
