# generated using pymatgen
data_Cu2Ni8C15
_symmetry_space_group_name_H-M   'P 1'
_cell_length_a   8.36713700
_cell_length_b   5.57960400
_cell_length_c   11.18358109
_cell_angle_alpha   80.24924057
_cell_angle_beta   90.00000000
_cell_angle_gamma   90.00000000
_symmetry_Int_Tables_number   1
_chemical_formula_structural   Cu2Ni8C15
_chemical_formula_sum   'Cu4 Ni16 C30'
_cell_volume   514.56647905
_cell_formula_units_Z   2
loop_
 _symmetry_equiv_pos_site_id
 _symmetry_equiv_pos_as_xyz
  1  'x, y, z'
loop_
 _atom_site_type_symbol
 _atom_site_label
 _atom_site_symmetry_multiplicity
 _atom_site_fract_x
 _atom_site_fract_y
 _atom_site_fract_z
 _atom_site_occupancy
  C  C0  1  0.92909400  0.37931200  0.86148000  1
  C  C1  1  0.07090600  0.62068800  0.13852000  1
  C  C2  1  0.57090600  0.37931200  0.36148000  1
  C  C3  1  0.42909400  0.62068800  0.63852000  1
  C  C4  1  0.50000000  0.50000000  0.00000000  1
  C  C5  1  0.00000000  0.50000000  0.50000000  1
  Ni  Ni6  1  0.27426400  0.25770200  0.51373900  1
  Ni  Ni7  1  0.77426400  0.74229800  0.98626100  1
  Ni  Ni8  1  0.72573600  0.74229800  0.48626100  1
  Ni  Ni9  1  0.22573600  0.25770200  0.01373900  1
  Ni  Ni10  1  0.19770700  0.17198600  0.63981400  1
  Ni  Ni11  1  0.69770700  0.82801400  0.86018600  1
  Ni  Ni12  1  0.80229300  0.82801400  0.36018600  1
  Ni  Ni13  1  0.30229300  0.17198600  0.13981400  1
  Ni  Ni14  1  0.86477700  0.73122700  0.65443700  1
  Ni  Ni15  1  0.36477700  0.26877300  0.84556300  1
  Ni  Ni16  1  0.05462700  0.73590400  0.68132300  1
  Ni  Ni17  1  0.55462700  0.26409600  0.81867700  1
  Ni  Ni18  1  0.94537300  0.26409600  0.31867700  1
  Ni  Ni19  1  0.44537300  0.73590400  0.18132300  1
  Ni  Ni20  1  0.13522300  0.26877300  0.34556300  1
  Ni  Ni21  1  0.63522300  0.73122700  0.15443700  1
  Cu  Cu22  1  0.21376600  0.87392100  0.86413700  1
  Cu  Cu23  1  0.28623400  0.87392100  0.36413700  1
  Cu  Cu24  1  0.78623400  0.12607900  0.13586300  1
  Cu  Cu25  1  0.71376600  0.12607900  0.63586300  1
  C  C26  1  0.58647400  0.28722800  0.57734200  1
  C  C27  1  0.08647400  0.71277200  0.92265800  1
  C  C28  1  0.12819200  0.81270800  0.42329000  1
  C  C29  1  0.91352600  0.28722800  0.07734200  1
  C  C30  1  0.87180800  0.18729200  0.57671000  1
  C  C31  1  0.37180800  0.81270800  0.92329000  1
  C  C32  1  0.32169400  0.13524800  0.37302600  1
  C  C33  1  0.82169400  0.86475200  0.12697400  1
  C  C34  1  0.67830600  0.86475200  0.62697400  1
  C  C35  1  0.41352600  0.71277200  0.42265800  1
  C  C36  1  0.03581600  0.36890300  0.33768300  1
  C  C37  1  0.53581600  0.63109700  0.16231700  1
  C  C38  1  0.96418400  0.63109700  0.66231700  1
  C  C39  1  0.46418400  0.36890300  0.83768300  1
  C  C40  1  0.28444900  0.32045800  0.07885700  1
  C  C41  1  0.78444900  0.67954200  0.42114300  1
  C  C42  1  0.71555100  0.67954200  0.92114300  1
  C  C43  1  0.21555100  0.32045800  0.57885700  1
  C  C44  1  0.22430400  0.85694800  0.73119900  1
  C  C45  1  0.72430400  0.14305200  0.76880100  1
  C  C46  1  0.77569600  0.14305200  0.26880100  1
  C  C47  1  0.27569600  0.85694800  0.23119900  1
  C  C48  1  0.62819200  0.18729200  0.07671000  1
  C  C49  1  0.17830600  0.13524800  0.87302600  1
