# generated using pymatgen
data_CuNi3C38
_symmetry_space_group_name_H-M   'P 1'
_cell_length_a   8.99018067
_cell_length_b   8.99018037
_cell_length_c   21.90615616
_cell_angle_alpha   90.00000000
_cell_angle_beta   90.00000000
_cell_angle_gamma   120.00000116
_symmetry_Int_Tables_number   1
_chemical_formula_structural   CuNi3C38
_chemical_formula_sum   'Cu3 Ni9 C114'
_cell_volume   1533.32292973
_cell_formula_units_Z   3
loop_
 _symmetry_equiv_pos_site_id
 _symmetry_equiv_pos_as_xyz
  1  'x, y, z'
loop_
 _atom_site_type_symbol
 _atom_site_label
 _atom_site_symmetry_multiplicity
 _atom_site_fract_x
 _atom_site_fract_y
 _atom_site_fract_z
 _atom_site_occupancy
  C  C0  1  0.63317250  0.99998844  0.25225326  1
  C  C1  1  0.36681594  0.36682750  0.25225326  1
  C  C2  1  0.00001156  0.63318406  0.25225326  1
  C  C3  1  0.64521744  0.63496776  0.74349086  1
  C  C4  1  0.98975032  0.35478256  0.74349086  1
  C  C5  1  0.36503224  0.01024968  0.74349086  1
  C  C6  1  0.29299479  0.33488154  0.58112045  1
  C  C7  1  0.04188775  0.70700521  0.58112045  1
  C  C8  1  0.66511846  0.95811225  0.58112045  1
  C  C9  1  0.29205407  0.95961003  0.08986529  1
  C  C10  1  0.66755696  0.70794593  0.08986529  1
  C  C11  1  0.04038997  0.33244304  0.08986529  1
  C  C12  1  0.96948963  0.67660668  0.91551206  1
  C  C13  1  0.70711604  0.03051037  0.91551206  1
  C  C14  1  0.32339332  0.29288396  0.91551206  1
  C  C15  1  0.97905805  0.30171829  0.40970332  1
  C  C16  1  0.32265924  0.02094195  0.40970332  1
  C  C17  1  0.69828171  0.67734076  0.40970332  1
  C  C18  1  0.00000000  -0.00000000  0.49736788  1
  C  C19  1  0.00000000  -0.00000000  0.00336206  1
  C  C20  1  0.66666700  0.33333300  0.82941627  1
  C  C21  1  0.66666700  0.33333300  0.32841015  1
  C  C22  1  0.33333300  0.66666700  0.17162281  1
  C  C23  1  0.33333300  0.66666700  0.65980756  1
  Ni  Ni24  1  0.00000000  -0.00000000  0.34475033  1
  Ni  Ni25  1  0.00000000  -0.00000000  0.84552483  1
  Ni  Ni26  1  0.00000000  -0.00000000  0.65099381  1
  Ni  Ni27  1  0.00000000  -0.00000000  0.15755297  1
  Ni  Ni28  1  0.66666700  0.33333300  0.68016835  1
  Ni  Ni29  1  0.66666700  0.33333300  0.18418028  1
  Ni  Ni30  1  0.33333300  0.66666700  0.01736863  1
  Ni  Ni31  1  0.33333300  0.66666700  0.51146323  1
  Ni  Ni32  1  0.33333300  0.66666700  0.31978219  1
  Cu  Cu33  1  0.66666700  0.33333300  0.98484652  1
  Cu  Cu34  1  0.66666700  0.33333300  0.48335563  1
  Cu  Cu35  1  0.33333300  0.66666700  0.81699712  1
  C  C36  1  0.29756764  0.99819248  0.24973138  1
  C  C37  1  0.70062484  0.70243236  0.24973138  1
  C  C38  1  0.00180752  0.29937516  0.24973138  1
  C  C39  1  0.29646543  0.30513990  0.75342954  1
  C  C40  1  0.00867447  0.70353457  0.75342954  1
  C  C41  1  0.69486010  0.99132553  0.75342954  1
  C  C42  1  0.95688548  0.33298777  0.58384749  1
  C  C43  1  0.37610328  0.04311452  0.58384749  1
  C  C44  1  0.66701223  0.62389672  0.58384749  1
  C  C45  1  0.95641393  0.62229606  0.08125874  1
  C  C46  1  0.66588313  0.04358607  0.08125874  1
  C  C47  1  0.37770394  0.33411687  0.08125874  1
  C  C48  1  0.62369349  0.66135075  0.91783479  1
  C  C49  1  0.03765627  0.37630651  0.91783479  1
  C  C50  1  0.33864925  0.96234373  0.91783479  1
  C  C51  1  0.63160135  0.97251588  0.42031579  1
  C  C52  1  0.34091354  0.36839865  0.42031579  1
  C  C53  1  0.02748412  0.65908646  0.42031579  1
  C  C54  1  0.21365626  0.02480098  0.30715830  1
  C  C55  1  0.81114472  0.78634374  0.30715830  1
  C  C56  1  0.97519902  0.18885528  0.30715830  1
  C  C57  1  0.21682843  0.19585685  0.81079706  1
  C  C58  1  0.97902843  0.78317157  0.81079706  1
  C  C59  1  0.80414315  0.02097157  0.81079706  1
  C  C60  1  0.77038456  0.95362333  0.69602621  1
  C  C61  1  0.18323877  0.22961544  0.69602621  1
  C  C62  1  0.04637667  0.81676123  0.69602621  1
  C  C63  1  0.78032086  0.81013200  0.19081814  1
  C  C64  1  0.02981115  0.21967914  0.19081814  1
  C  C65  1  0.18986800  0.97018885  0.19081814  1
  C  C66  1  0.88058123  0.36027396  0.64273933  1
  C  C67  1  0.47969373  0.11941877  0.64273933  1
  C  C68  1  0.63972604  0.52030627  0.64273933  1
  C  C69  1  0.87381930  0.51231708  0.13733329  1
  C  C70  1  0.63849877  0.12618070  0.13733329  1
  C  C71  1  0.48768292  0.36150123  0.13733329  1
  C  C72  1  0.46592136  0.30361694  0.02072514  1
  C  C73  1  0.83769658  0.53407864  0.02072514  1
  C  C74  1  0.69638306  0.16230342  0.02072514  1
  C  C75  1  0.46946699  0.16364299  0.52690006  1
  C  C76  1  0.69417700  0.53053301  0.52690006  1
  C  C77  1  0.83635701  0.30582300  0.52690006  1
  C  C78  1  0.54566737  0.69227594  0.97415780  1
  C  C79  1  0.14660757  0.45433263  0.97415780  1
  C  C80  1  0.30772406  0.85339243  0.97415780  1
  C  C81  1  0.55234238  0.86257605  0.47771712  1
  C  C82  1  0.31023267  0.44765762  0.47771712  1
  C  C83  1  0.13742395  0.68976733  0.47771712  1
  C  C84  1  0.10341385  0.62092286  0.36331911  1
  C  C85  1  0.51750800  0.89658615  0.36331911  1
  C  C86  1  0.37907714  0.48249200  0.36331911  1
  C  C87  1  0.12462860  0.49740974  0.85971610  1
  C  C88  1  0.37278014  0.87537140  0.85971610  1
  C  C89  1  0.50259026  0.62721986  0.85971610  1
  C  C90  1  0.00127210  0.81580712  0.41458454  1
  C  C91  1  0.81453502  0.99872790  0.41458454  1
  C  C92  1  0.18419288  0.18546498  0.41458454  1
  C  C93  1  0.01168230  0.19457587  0.91015860  1
  C  C94  1  0.18289357  0.98831770  0.91015860  1
  C  C95  1  0.80542413  0.81710643  0.91015860  1
  C  C96  1  0.96903317  0.16633045  0.58475266  1
  C  C97  1  0.19729728  0.03096683  0.58475266  1
  C  C98  1  0.83366955  0.80270272  0.58475266  1
  C  C99  1  0.97021668  0.80068810  0.08070880  1
  C  C100  1  0.83047143  0.02978332  0.08070880  1
  C  C101  1  0.19931190  0.16952857  0.08070880  1
  C  C102  1  0.66852543  0.14820220  0.74827825  1
  C  C103  1  0.47967777  0.33147457  0.74827825  1
  C  C104  1  0.85179780  0.52032223  0.74827825  1
  C  C105  1  0.68300349  0.52152400  0.24671119  1
  C  C106  1  0.83852152  0.31699651  0.24671119  1
  C  C107  1  0.47847600  0.16147848  0.24671119  1
  C  C108  1  0.63581948  0.48973876  0.91967857  1
  C  C109  1  0.85392028  0.36418052  0.91967857  1
  C  C110  1  0.51026124  0.14607972  0.91967857  1
  C  C111  1  0.64648842  0.15795169  0.42617764  1
  C  C112  1  0.51146427  0.35351158  0.42617764  1
  C  C113  1  0.84204831  0.48853573  0.42617764  1
  C  C114  1  0.36015364  0.49601134  0.07564359  1
  C  C115  1  0.13585670  0.63984636  0.07564359  1
  C  C116  1  0.50398866  0.86414330  0.07564359  1
  C  C117  1  0.35610087  0.86260350  0.57808454  1
  C  C118  1  0.50650163  0.64389913  0.57808454  1
  C  C119  1  0.13739650  0.49349837  0.57808454  1
  C  C120  1  0.31473199  0.83470625  0.25424200  1
  C  C121  1  0.51997326  0.68526801  0.25424200  1
  C  C122  1  0.16529375  0.48002674  0.25424200  1
  C  C123  1  0.31023670  0.49026303  0.75955213  1
  C  C124  1  0.18002533  0.68976330  0.75955213  1
  C  C125  1  0.50973697  0.81997467  0.75955213  1
