# generated using pymatgen
data_Cu5(NiC17)2
_symmetry_space_group_name_H-M   'P 1'
_cell_length_a   9.19193819
_cell_length_b   9.20950133
_cell_length_c   22.41889658
_cell_angle_alpha   89.92495572
_cell_angle_beta   90.08337201
_cell_angle_gamma   119.98818233
_symmetry_Int_Tables_number   1
_chemical_formula_structural   Cu5(NiC17)2
_chemical_formula_sum   'Cu15 Ni6 C102'
_cell_volume   1643.76308074
_cell_formula_units_Z   3
loop_
 _symmetry_equiv_pos_site_id
 _symmetry_equiv_pos_as_xyz
  1  'x, y, z'
loop_
 _atom_site_type_symbol
 _atom_site_label
 _atom_site_symmetry_multiplicity
 _atom_site_fract_x
 _atom_site_fract_y
 _atom_site_fract_z
 _atom_site_occupancy
  C  C0  1  0.65287760  0.01749559  0.24898520  1
  C  C1  1  0.37315042  0.35834518  0.24458260  1
  C  C2  1  0.98322850  0.62548760  0.24399646  1
  C  C3  1  0.63853912  0.62370650  0.74609712  1
  C  C4  1  0.98313776  0.35107873  0.74604689  1
  C  C5  1  0.37228458  0.01861695  0.74433133  1
  C  C6  1  0.31315529  0.34660216  0.57977691  1
  C  C7  1  0.03956457  0.69369407  0.57673483  1
  C  C8  1  0.65137414  0.95764968  0.57808863  1
  C  C9  1  0.30094799  0.96258173  0.07287298  1
  C  C10  1  0.03707342  0.34855626  0.07954687  1
  C  C11  1  0.98067665  0.67979334  0.91192249  1
  C  C12  1  0.31547985  0.28681588  0.91193190  1
  C  C13  1  0.32077802  0.02387462  0.41197549  1
  C  C14  1  0.71061516  0.68086090  0.41140038  1
  C  C15  1  0.99320765  0.01127163  0.49294019  1
  C  C16  1  0.97292823  0.99527624  0.99405759  1
  C  C17  1  0.66732629  0.31710567  0.82842458  1
  C  C18  1  0.68083599  0.33291309  0.32868670  1
  C  C19  1  0.34700503  0.66153028  0.15932666  1
  C  C20  1  0.33563974  0.66635597  0.66003545  1
  C  C21  1  0.99874516  0.99897001  0.64619354  1
  C  C22  1  0.00061857  0.99722299  0.14626330  1
  C  C23  1  0.66556633  0.33560186  0.97971970  1
  C  C24  1  0.67302125  0.33290772  0.47980145  1
  C  C25  1  0.32795231  0.66853948  0.31290477  1
  C  C26  1  0.32989888  0.66979930  0.81289702  1
  Ni  Ni27  1  0.99789245  0.00261037  0.35077459  1
  Ni  Ni28  1  0.99817770  0.00236260  0.85160149  1
  Ni  Ni29  1  0.66901908  0.33465662  0.68341633  1
  Ni  Ni30  1  0.66590459  0.33639264  0.18295720  1
  Ni  Ni31  1  0.33380474  0.66325647  0.01809872  1
  Ni  Ni32  1  0.33357771  0.66764956  0.51654938  1
  Cu  Cu33  1  0.29493452  -0.00155288  0.25213580  1
  Cu  Cu34  1  0.70385066  0.70647179  0.25307665  1
  Cu  Cu35  1  0.00175969  0.29419250  0.24871429  1
  Cu  Cu36  1  0.29393575  0.29631468  0.75243357  1
  Cu  Cu37  1  0.00169380  0.70677307  0.75277502  1
  Cu  Cu38  1  0.70460714  0.99726880  0.75002400  1
  Cu  Cu39  1  0.96274674  0.32967826  0.58552015  1
  Cu  Cu40  1  0.36951185  0.04013276  0.58414687  1
  Cu  Cu41  1  0.67046221  0.63007206  0.58448168  1
  Cu  Cu42  1  0.96078112  0.63286186  0.08445449  1
  Cu  Cu43  1  0.36761222  0.33207449  0.08601095  1
  Cu  Cu44  1  0.03195363  0.36871729  0.91944639  1
  Cu  Cu45  1  0.33755998  0.96417648  0.91955532  1
  Cu  Cu46  1  0.63029928  0.96693912  0.41857067  1
  Cu  Cu47  1  0.03391879  0.66344061  0.41889873  1
  C  C48  1  0.67263135  0.04242445  0.08437623  1
  C  C49  1  0.62277546  0.66118678  0.91722425  1
  C  C50  1  0.33960579  0.37423256  0.41792762  1
  C  C51  1  0.21993583  0.03172380  0.31177643  1
  C  C52  1  0.81004186  0.77517088  0.31369761  1
  C  C53  1  0.95609626  0.16895708  0.30365688  1
  C  C54  1  0.22212640  0.18747703  0.81229499  1
  C  C55  1  0.97563243  0.78409019  0.81313320  1
  C  C56  1  0.82883915  0.04120696  0.80518972  1
  C  C57  1  0.79789055  0.97148210  0.68905912  1
  C  C58  1  0.16643840  0.19264426  0.69408656  1
  C  C59  1  0.02261950  0.83062441  0.69432716  1
  C  C60  1  0.81160850  0.83885020  0.19651596  1
  C  C61  1  0.02910276  0.20325859  0.18768038  1
  C  C62  1  0.16958812  0.97798295  0.19369343  1
  C  C63  1  0.89163687  0.36436689  0.64595131  1
  C  C64  1  0.47707222  0.11877766  0.64388388  1
  C  C65  1  0.64254418  0.52612041  0.64505299  1
  C  C66  1  0.88364649  0.52274665  0.14378616  1
  C  C67  1  0.65135237  0.11494042  0.14303116  1
  C  C68  1  0.45665124  0.33648285  0.14818309  1
  C  C69  1  0.47677823  0.31553472  0.02809106  1
  C  C70  1  0.84127813  0.52883298  0.02485434  1
  C  C71  1  0.68788165  0.16466110  0.03144299  1
  C  C72  1  0.47025510  0.16292629  0.52530127  1
  C  C73  1  0.68756292  0.52465982  0.52625520  1
  C  C74  1  0.83311111  0.31123339  0.52846198  1
  C  C75  1  0.54289455  0.67881761  0.97320076  1
  C  C76  1  0.13443225  0.45064723  0.97994220  1
  C  C77  1  0.31606430  0.85895996  0.97910133  1
  C  C78  1  0.54847231  0.86451352  0.47933031  1
  C  C79  1  0.32710058  0.45136898  0.47707671  1
  C  C80  1  0.13541776  0.68190572  0.47942662  1
  C  C81  1  0.13802637  0.64588145  0.35974968  1
  C  C82  1  0.49943195  0.85511783  0.36139514  1
  C  C83  1  0.35085463  0.48719942  0.36328293  1
  C  C84  1  0.14447451  0.49926596  0.86191879  1
  C  C85  1  0.35653457  0.86041357  0.86018842  1
  C  C86  1  0.51552382  0.64256671  0.85986380  1
  C  C87  1  0.01455061  0.82949618  0.41573997  1
  C  C88  1  0.81452913  0.98905914  0.41356730  1
  C  C89  1  0.19354358  0.19383192  0.41433836  1
  C  C90  1  0.01046914  0.18464577  0.91446160  1
  C  C91  1  0.17208104  0.98537785  0.91587280  1
  C  C92  1  0.80629493  0.80399157  0.91351407  1
  C  C93  1  0.95941585  0.14824818  0.58664940  1
  C  C94  1  0.18755064  0.03871360  0.58789171  1
  C  C95  1  0.85144548  0.81096455  0.58659961  1
  C  C96  1  0.96728139  0.81666187  0.08847028  1
  C  C97  1  0.84201577  0.04153021  0.08415815  1
  C  C98  1  0.18246308  0.15053493  0.08500282  1
  C  C99  1  0.66651015  0.15064374  0.74547717  1
  C  C100  1  0.48357345  0.32983990  0.74595601  1
  C  C101  1  0.84752854  0.51629342  0.74824832  1
  C  C102  1  0.67025502  0.51730629  0.24577439  1
  C  C103  1  0.84827824  0.33313635  0.24461195  1
  C  C104  1  0.48801946  0.14731145  0.24618924  1
  C  C105  1  0.62406585  0.48835800  0.91978087  1
  C  C106  1  0.85061787  0.36970097  0.92055847  1
  C  C107  1  0.50822509  0.15397994  0.92252170  1
  C  C108  1  0.62811248  0.14704332  0.42008329  1
  C  C109  1  0.51113710  0.37406510  0.41730361  1
  C  C110  1  0.84535958  0.49140540  0.42062812  1
  C  C111  1  0.33603126  0.48937527  0.08203345  1
  C  C112  1  0.15293230  0.66772643  0.08149498  1
  C  C113  1  0.52069550  0.86638017  0.07788279  1
  C  C114  1  0.33475615  0.84933152  0.58047589  1
  C  C115  1  0.51243300  0.66211118  0.57973508  1
  C  C116  1  0.15355504  0.48248520  0.57815106  1
  C  C117  1  0.29123242  0.81423264  0.25491851  1
  C  C118  1  0.52096750  0.70369501  0.25598073  1
  C  C119  1  0.18356908  0.47485165  0.25641839  1
  C  C120  1  0.29496113  0.47802622  0.75542051  1
  C  C121  1  0.18452340  0.70593187  0.75465065  1
  C  C122  1  0.52412414  0.81535018  0.75617674  1
