# generated using pymatgen
data_Cu5(NiC2)2
_symmetry_space_group_name_H-M   'P 1'
_cell_length_a   5.24727700
_cell_length_b   6.73488700
_cell_length_c   13.81580118
_cell_angle_alpha   83.91197939
_cell_angle_beta   90.00000000
_cell_angle_gamma   90.00000000
_symmetry_Int_Tables_number   1
_chemical_formula_structural   Cu5(NiC2)2
_chemical_formula_sum   'Cu10 Ni4 C8'
_cell_volume   485.49424481
_cell_formula_units_Z   2
loop_
 _symmetry_equiv_pos_site_id
 _symmetry_equiv_pos_as_xyz
  1  'x, y, z'
loop_
 _atom_site_type_symbol
 _atom_site_label
 _atom_site_symmetry_multiplicity
 _atom_site_fract_x
 _atom_site_fract_y
 _atom_site_fract_z
 _atom_site_occupancy
  C  C0  1  0.60690000  0.80800500  0.29615500  1
  C  C1  1  0.10690000  0.19199500  0.20384500  1
  C  C2  1  0.39310000  0.19199500  0.70384500  1
  C  C3  1  0.89310000  0.80800500  0.79615500  1
  C  C4  1  0.72236300  0.17312900  0.45053000  1
  C  C5  1  0.22236300  0.82687100  0.04947000  1
  C  C6  1  0.27763700  0.82687100  0.54947000  1
  C  C7  1  0.77763700  0.17312900  0.95053000  1
  Ni  Ni8  1  0.28722900  0.50864000  0.88152900  1
  Ni  Ni9  1  0.21277100  0.50864000  0.38152900  1
  Ni  Ni10  1  0.71277100  0.49136000  0.11847100  1
  Ni  Ni11  1  0.78722900  0.49136000  0.61847100  1
  Cu  Cu12  1  0.17125800  0.92959500  0.70933700  1
  Cu  Cu13  1  0.32874200  0.92959500  0.20933700  1
  Cu  Cu14  1  0.82874200  0.07040500  0.29066300  1
  Cu  Cu15  1  0.67125800  0.07040500  0.79066300  1
  Cu  Cu16  1  0.50713600  0.06767300  0.58164900  1
  Cu  Cu17  1  0.00713600  0.93232700  0.91835100  1
  Cu  Cu18  1  0.49286400  0.93232700  0.41835100  1
  Cu  Cu19  1  0.99286400  0.06767300  0.08164900  1
  Cu  Cu20  1  0.00000000  0.00000000  0.50000000  1
  Cu  Cu21  1  0.50000000  0.00000000  0.00000000  1
