# generated using pymatgen
data_CuNiC11
_symmetry_space_group_name_H-M   'P 1'
_cell_length_a   5.75907603
_cell_length_b   5.75907605
_cell_length_c   8.70541736
_cell_angle_alpha   90.00000000
_cell_angle_beta   90.00000000
_cell_angle_gamma   119.99999983
_symmetry_Int_Tables_number   1
_chemical_formula_structural   CuNiC11
_chemical_formula_sum   'Cu1 Ni1 C11'
_cell_volume   250.04942207
_cell_formula_units_Z   1
loop_
 _symmetry_equiv_pos_site_id
 _symmetry_equiv_pos_as_xyz
  1  'x, y, z'
loop_
 _atom_site_type_symbol
 _atom_site_label
 _atom_site_symmetry_multiplicity
 _atom_site_fract_x
 _atom_site_fract_y
 _atom_site_fract_z
 _atom_site_occupancy
  Ni  Ni0  1  0.00000000  0.00000000  0.72690117  1
  C  C1  1  0.00000000  0.00000000  0.01500234  1
  Cu  Cu2  1  0.00000000  0.00000000  0.39108744  1
  C  C3  1  0.66666700  0.33333300  0.20670896  1
  C  C4  1  0.33333300  0.66666700  0.80966814  1
  C  C5  1  0.84527457  0.15472543  0.15333642  1
  C  C6  1  0.84527457  0.69054914  0.15333642  1
  C  C7  1  0.30945086  0.15472543  0.15333642  1
  C  C8  1  0.70543648  0.85271824  0.87790421  1
  C  C9  1  0.33333300  0.66666700  0.59930342  1
  C  C10  1  0.66666700  0.33333300  0.40760664  1
  C  C11  1  0.14728176  0.85271824  0.87790421  1
  C  C12  1  0.14728176  0.29456352  0.87790421  1
