# generated using pymatgen
data_Cu2NiC32
_symmetry_space_group_name_H-M   'P 1'
_cell_length_a   8.77393756
_cell_length_b   8.81605675
_cell_length_c   22.89766809
_cell_angle_alpha   89.20860848
_cell_angle_beta   89.91590068
_cell_angle_gamma   119.97243163
_symmetry_Int_Tables_number   1
_chemical_formula_structural   Cu2NiC32
_chemical_formula_sum   'Cu6 Ni3 C96'
_cell_volume   1534.08592912
_cell_formula_units_Z   3
loop_
 _symmetry_equiv_pos_site_id
 _symmetry_equiv_pos_as_xyz
  1  'x, y, z'
loop_
 _atom_site_type_symbol
 _atom_site_label
 _atom_site_symmetry_multiplicity
 _atom_site_fract_x
 _atom_site_fract_y
 _atom_site_fract_z
 _atom_site_occupancy
  Ni  Ni0  1  0.66799688  0.33324194  0.83138052  1
  Ni  Ni1  1  0.65920885  0.33521147  0.33228675  1
  Ni  Ni2  1  0.33678923  0.66930401  0.16691145  1
  Cu  Cu3  1  0.99974580  0.00130706  0.85902575  1
  Cu  Cu4  1  0.66559759  0.33141723  0.68486792  1
  Cu  Cu5  1  0.66362611  0.33366624  0.19409286  1
  Cu  Cu6  1  0.66712578  0.33600465  0.48539172  1
  Cu  Cu7  1  0.33372849  0.66486453  0.02308676  1
  Cu  Cu8  1  0.33374108  0.66739103  0.52060875  1
  C  C9  1  0.00083552  0.99614266  0.34842554  1
  C  C10  1  0.99627301  0.99575303  0.64926265  1
  C  C11  1  0.99707291  0.98210994  0.14886405  1
  C  C12  1  0.67246620  0.32848985  0.97709833  1
  C  C13  1  0.34421515  0.68011688  0.31247207  1
  C  C14  1  0.31719152  0.65235277  0.81216315  1
  C  C15  1  0.27160948  0.98161086  0.25291069  1
  C  C16  1  0.71208323  0.72819110  0.25338121  1
  C  C17  1  0.03716415  0.39003302  0.91698703  1
  C  C18  1  0.01836025  0.29151357  0.25275487  1
  C  C19  1  0.28676410  0.30537657  0.75177942  1
  C  C20  1  0.01708010  0.71401487  0.75228392  1
  C  C21  1  0.69114175  0.97680862  0.75275960  1
  C  C22  1  0.96695808  0.31493189  0.58790867  1
  C  C23  1  0.34838239  0.03232330  0.58803904  1
  C  C24  1  0.68461792  0.65180654  0.58767279  1
  C  C25  1  0.95129229  0.63660355  0.08578493  1
  C  C26  1  0.68966097  0.05072549  0.08650307  1
  C  C27  1  0.35883934  0.30895766  0.08638760  1
  C  C28  1  0.61027965  0.64115920  0.91625231  1
  C  C29  1  0.35589991  0.96809072  0.91660287  1
  C  C30  1  0.63915105  0.95973561  0.40763780  1
  C  C31  1  0.31801922  0.36602457  0.40629196  1
  C  C32  1  0.04573014  0.67896923  0.40753159  1
  C  C33  1  0.18326823  0.01249280  0.30621867  1
  C  C34  1  0.82633488  0.82108329  0.30656169  1
  C  C35  1  0.99012867  0.18109841  0.30620597  1
  C  C36  1  0.20868031  0.19984135  0.80341969  1
  C  C37  1  0.99074002  0.79177585  0.80319557  1
  C  C38  1  0.79828081  0.00288153  0.80308275  1
  C  C39  1  0.77249434  0.95248532  0.69741347  1
  C  C40  1  0.18105519  0.22613417  0.69748769  1
  C  C41  1  0.04313491  0.82222870  0.69691838  1
  C  C42  1  0.79390389  0.84136727  0.19554215  1
  C  C43  1  0.04509938  0.21249146  0.19942165  1
  C  C44  1  0.15776356  0.95007178  0.19633367  1
  C  C45  1  0.88901905  0.34509207  0.63927698  1
  C  C46  1  0.45791690  0.10934266  0.63887902  1
  C  C47  1  0.65279247  0.54230151  0.63937978  1
  C  C48  1  0.87017923  0.52880458  0.13722063  1
  C  C49  1  0.66262628  0.13414403  0.13617555  1
  C  C50  1  0.46835986  0.33470868  0.13660416  1
  C  C51  1  0.43605246  0.28615769  0.03031544  1
  C  C52  1  0.85014587  0.56048786  0.03062283  1
  C  C53  1  0.71487252  0.15424179  0.02921215  1
  C  C54  1  0.42199805  0.14107594  0.53460172  1
  C  C55  1  0.71980896  0.57935625  0.53494025  1
  C  C56  1  0.85964852  0.28278063  0.53507340  1
  C  C57  1  0.53588813  0.66473262  0.96893778  1
  C  C58  1  0.13892902  0.47037349  0.97049046  1
  C  C59  1  0.33786103  0.87214363  0.96986627  1
  C  C60  1  0.56298631  0.85444768  0.45975004  1
  C  C61  1  0.29014877  0.43931782  0.45848076  1
  C  C62  1  0.14565022  0.70392646  0.46005442  1
  C  C63  1  0.13587127  0.64874643  0.35499408  1
  C  C64  1  0.51901010  0.87527075  0.35463093  1
  C  C65  1  0.35501295  0.49043908  0.35291892  1
  C  C66  1  0.12113913  0.51233125  0.85863126  1
  C  C67  1  0.39249646  0.89318770  0.86308080  1
  C  C68  1  0.49757074  0.60881821  0.86251812  1
  C  C69  1  0.03387416  0.84390022  0.40016337  1
  C  C70  1  0.81523858  0.97113467  0.39914921  1
  C  C71  1  0.15330247  0.19157761  0.39774461  1
  C  C72  1  0.00084460  0.20946238  0.90593796  1
  C  C73  1  0.20984087  0.99709606  0.90888812  1
  C  C74  1  0.78661428  0.78328452  0.90710768  1
  C  C75  1  0.96802322  0.14311623  0.59743812  1
  C  C76  1  0.17514207  0.03149085  0.59775611  1
  C  C77  1  0.85578031  0.82484460  0.59668727  1
  C  C78  1  0.95401519  0.81145047  0.09192387  1
  C  C79  1  0.85824696  0.04369301  0.09334867  1
  C  C80  1  0.18199210  0.13958578  0.09442088  1
  C  C81  1  0.65909473  0.12409137  0.74601194  1
  C  C82  1  0.46831409  0.34139164  0.74592168  1
  C  C83  1  0.87153183  0.53415866  0.74624430  1
  C  C84  1  0.69063121  0.54821397  0.25216163  1
  C  C85  1  0.86410847  0.31275845  0.25087599  1
  C  C86  1  0.45406291  0.13713318  0.25092351  1
  C  C87  1  0.61997214  0.47094780  0.92241454  1
  C  C88  1  0.84647705  0.37522711  0.92302318  1
  C  C89  1  0.52458510  0.15180468  0.92177336  1
  C  C90  1  0.66243411  0.13592567  0.40953398  1
  C  C91  1  0.47152570  0.34156808  0.40819331  1
  C  C92  1  0.86794514  0.52626464  0.40895105  1
  C  C93  1  0.32638413  0.45638328  0.08220955  1
  C  C94  1  0.13347891  0.67440664  0.08182324  1
  C  C95  1  0.54043868  0.87225287  0.08172822  1
  C  C96  1  0.31131141  0.85396620  0.57985495  1
  C  C97  1  0.54235300  0.68872547  0.57922102  1
  C  C98  1  0.14659281  0.45608272  0.57927503  1
  C  C99  1  0.28381102  0.80817605  0.25893456  1
  C  C100  1  0.52454106  0.71417725  0.25841933  1
  C  C101  1  0.18220974  0.46873084  0.25746418  1
  C  C102  1  0.29194226  0.48149665  0.75729780  1
  C  C103  1  0.19014691  0.71171177  0.75698209  1
  C  C104  1  0.51434320  0.80667119  0.75966395  1
