# generated using pymatgen
data_CuNi3C16
_symmetry_space_group_name_H-M   'P 1'
_cell_length_a   15.71887939
_cell_length_b   9.08094673
_cell_length_c   9.06644526
_cell_angle_alpha   90.00000000
_cell_angle_beta   124.96926458
_cell_angle_gamma   90.00000000
_symmetry_Int_Tables_number   1
_chemical_formula_structural   CuNi3C16
_chemical_formula_sum   'Cu4 Ni12 C64'
_cell_volume   1060.51620178
_cell_formula_units_Z   4
loop_
 _symmetry_equiv_pos_site_id
 _symmetry_equiv_pos_as_xyz
  1  'x, y, z'
loop_
 _atom_site_type_symbol
 _atom_site_label
 _atom_site_symmetry_multiplicity
 _atom_site_fract_x
 _atom_site_fract_y
 _atom_site_fract_z
 _atom_site_occupancy
  C  C0  1  0.25172653  0.72624545  0.99392480  1
  C  C1  1  0.75172653  0.77375455  0.49392480  1
  C  C2  1  0.75172653  0.22624545  0.99392480  1
  C  C3  1  0.25172653  0.27375455  0.49392480  1
  C  C4  1  0.49940963  0.11427061  0.74529984  1
  C  C5  1  0.49940963  0.88572939  0.24529984  1
  C  C6  1  0.99940963  0.61427061  0.74529984  1
  C  C7  1  0.99940963  0.38572939  0.24529984  1
  C  C8  1  0.19022275  0.94545619  0.28732549  1
  C  C9  1  0.19022275  0.05454381  0.78732549  1
  C  C10  1  0.69022275  0.44545619  0.28732549  1
  C  C11  1  0.69022275  0.55454381  0.78732549  1
  C  C12  1  0.89244271  0.75362862  0.93176669  1
  C  C13  1  0.89244271  0.24637138  0.43176669  1
  C  C14  1  0.39244271  0.25362862  0.93176669  1
  C  C15  1  0.39244271  0.74637138  0.43176669  1
  Ni  Ni16  1  0.99847868  0.95943360  0.75395217  1
  Ni  Ni17  1  0.99847868  0.04056640  0.25395217  1
  Ni  Ni18  1  0.49847868  0.45943360  0.75395217  1
  Ni  Ni19  1  0.49847868  0.54056640  0.25395217  1
  Ni  Ni20  1  0.35365513  0.89301638  0.75610666  1
  Ni  Ni21  1  0.64325105  0.89465449  0.74389337  1
  Ni  Ni22  1  0.64325105  0.10534551  0.24389337  1
  Ni  Ni23  1  0.35365513  0.10698362  0.25610666  1
  Ni  Ni24  1  0.85365513  0.39301638  0.75610666  1
  Ni  Ni25  1  0.14325105  0.39465449  0.74389337  1
  Ni  Ni26  1  0.14325105  0.60534551  0.24389337  1
  Ni  Ni27  1  0.85365513  0.60698362  0.25610666  1
  Cu  Cu28  1  0.10423410  0.74920175  0.56367989  1
  Cu  Cu29  1  0.10423410  0.25079825  0.06367989  1
  Cu  Cu30  1  0.60423410  0.24920175  0.56367989  1
  Cu  Cu31  1  0.60423410  0.75079825  0.06367989  1
  C  C32  1  0.15173697  0.57291409  0.74089464  1
  C  C33  1  0.84924294  0.57650436  0.76002615  1
  C  C34  1  0.84924294  0.42349564  0.26002615  1
  C  C35  1  0.15173697  0.42708591  0.24089464  1
  C  C36  1  0.65173697  0.07291409  0.74089464  1
  C  C37  1  0.34924294  0.07650436  0.76002615  1
  C  C38  1  0.34924294  0.92349564  0.26002615  1
  C  C39  1  0.65173697  0.92708591  0.24089464  1
  C  C40  1  0.43461506  0.57352497  0.58104426  1
  C  C41  1  0.57541734  0.55340033  0.93653452  1
  C  C42  1  0.57541734  0.44659967  0.43653452  1
  C  C43  1  0.43461506  0.42647503  0.08104426  1
  C  C44  1  0.93461506  0.07352497  0.58104426  1
  C  C45  1  0.07541734  0.05340033  0.93653452  1
  C  C46  1  0.07541734  0.94659967  0.43653452  1
  C  C47  1  0.93461506  0.92647503  0.08104426  1
  C  C48  1  0.25375203  0.83194723  0.74825179  1
  C  C49  1  0.74036090  0.80720449  0.75935460  1
  C  C50  1  0.74036090  0.19279551  0.25935460  1
  C  C51  1  0.25375203  0.16805277  0.24825179  1
  C  C52  1  0.75375203  0.33194723  0.74825179  1
  C  C53  1  0.24036090  0.30720449  0.75935460  1
  C  C54  1  0.24036090  0.69279551  0.25935460  1
  C  C55  1  0.75375203  0.66805277  0.24825179  1
  C  C56  1  0.35537544  0.85604938  0.57800300  1
  C  C57  1  0.64202076  0.85952935  0.91694346  1
  C  C58  1  0.64202076  0.14047065  0.41694346  1
  C  C59  1  0.35537544  0.14395062  0.07800300  1
  C  C60  1  0.85537544  0.35604938  0.57800300  1
  C  C61  1  0.14202076  0.35952935  0.91694346  1
  C  C62  1  0.14202076  0.64047065  0.41694346  1
  C  C63  1  0.85537544  0.64395062  0.07800300  1
  C  C64  1  0.45764791  0.83452112  0.94066081  1
  C  C65  1  0.53482554  0.82930873  0.56087849  1
  C  C66  1  0.53482554  0.17069127  0.06087849  1
  C  C67  1  0.45764791  0.16547888  0.44066081  1
  C  C68  1  0.95764791  0.33452112  0.94066081  1
  C  C69  1  0.03482554  0.32930873  0.56087849  1
  C  C70  1  0.03482554  0.67069127  0.06087849  1
  C  C71  1  0.95764791  0.66547888  0.44066081  1
  C  C72  1  0.07751110  0.84970625  0.74329714  1
  C  C73  1  0.91407342  0.85524246  0.75816224  1
  C  C74  1  0.91407342  0.14475754  0.25816224  1
  C  C75  1  0.07751110  0.15029375  0.24329714  1
  C  C76  1  0.57751110  0.34970625  0.74329714  1
  C  C77  1  0.41407342  0.35524246  0.75816224  1
  C  C78  1  0.41407342  0.64475754  0.25816224  1
  C  C79  1  0.57751110  0.65029375  0.24329714  1
