# generated using pymatgen
data_CuNiC18
_symmetry_space_group_name_H-M   'P 1'
_cell_length_a   9.11398045
_cell_length_b   9.11398012
_cell_length_c   22.12560459
_cell_angle_alpha   91.07218820
_cell_angle_beta   88.92781181
_cell_angle_gamma   120.23061363
_symmetry_Int_Tables_number   1
_chemical_formula_structural   CuNiC18
_chemical_formula_sum   'Cu6 Ni6 C108'
_cell_volume   1587.54799540
_cell_formula_units_Z   6
loop_
 _symmetry_equiv_pos_site_id
 _symmetry_equiv_pos_as_xyz
  1  'x, y, z'
loop_
 _atom_site_type_symbol
 _atom_site_label
 _atom_site_symmetry_multiplicity
 _atom_site_fract_x
 _atom_site_fract_y
 _atom_site_fract_z
 _atom_site_occupancy
  C  C0  1  0.99385803  0.98565663  0.50244727  1
  C  C1  1  0.01434337  0.00614197  0.00244727  1
  C  C2  1  0.67359769  0.32229596  0.83505133  1
  C  C3  1  0.67770404  0.32640231  0.33505133  1
  C  C4  1  0.36951114  0.69291709  0.16904666  1
  C  C5  1  0.30708291  0.63048886  0.66904666  1
  C  C6  1  0.35242157  0.34465535  0.24883978  1
  C  C7  1  0.99218571  0.63955797  0.24446009  1
  C  C8  1  0.65534465  0.64757843  0.74883978  1
  C  C9  1  0.36044203  0.00781429  0.74446009  1
  C  C10  1  0.03553001  0.69652700  0.58116418  1
  C  C11  1  0.64708505  0.97300807  0.58640679  1
  C  C12  1  0.30347300  0.96446999  0.08116418  1
  C  C13  1  0.02699193  0.35291495  0.08640679  1
  C  C14  1  0.98903841  0.68834085  0.91976992  1
  C  C15  1  0.69235746  0.02074248  0.91330365  1
  C  C16  1  0.97925752  0.30764254  0.41330365  1
  C  C17  1  0.31165915  0.01096159  0.41976992  1
  C  C18  1  0.98508653  0.98750740  0.35443575  1
  C  C19  1  0.01249260  0.01491347  0.85443575  1
  C  C20  1  0.67552706  0.33430805  0.68820404  1
  C  C21  1  0.66569195  0.32447294  0.18820404  1
  C  C22  1  0.33687107  0.66434708  0.02065630  1
  C  C23  1  0.33565292  0.66312893  0.52065630  1
  Ni  Ni24  1  0.01365647  0.30070676  0.25295827  1
  Ni  Ni25  1  0.69929324  0.98634353  0.75295827  1
  Ni  Ni26  1  0.36264970  0.05408893  0.58428211  1
  Ni  Ni27  1  0.94591107  0.63735030  0.08428211  1
  Ni  Ni28  1  0.35481126  0.97628697  0.92066511  1
  Ni  Ni29  1  0.02371303  0.64518874  0.42066511  1
  Cu  Cu30  1  0.00790492  0.01932589  0.64724563  1
  Cu  Cu31  1  0.98067411  0.99209508  0.14724563  1
  Cu  Cu32  1  0.66047638  0.34567303  0.97909009  1
  Cu  Cu33  1  0.65432697  0.33952362  0.47909009  1
  Cu  Cu34  1  0.32183733  0.65517055  0.31396199  1
  Cu  Cu35  1  0.34482945  0.67816267  0.81396199  1
  C  C36  1  0.28015401  0.97393912  0.25110297  1
  C  C37  1  0.68800071  0.71621283  0.24742506  1
  C  C38  1  0.28378717  0.31199929  0.74742506  1
  C  C39  1  0.02606088  0.71984599  0.75110297  1
  C  C40  1  0.95374853  0.31033620  0.57889422  1
  C  C41  1  0.68793826  0.63857445  0.58571544  1
  C  C42  1  0.68966380  0.04625147  0.07889422  1
  C  C43  1  0.36142555  0.31206174  0.08571544  1
  C  C44  1  0.61873867  0.64387612  0.91095775  1
  C  C45  1  0.03450310  0.39299857  0.91693338  1
  C  C46  1  0.60700143  0.96549690  0.41693338  1
  C  C47  1  0.35612388  0.38126133  0.41095775  1
  C  C48  1  0.20094190  0.98947700  0.31019720  1
  C  C49  1  0.80599305  0.78057894  0.30123632  1
  C  C50  1  0.00693503  0.21091814  0.31479637  1
  C  C51  1  0.21942106  0.19400695  0.80123632  1
  C  C52  1  0.01052300  0.79905810  0.81019720  1
  C  C53  1  0.78908186  0.99306497  0.81479637  1
  C  C54  1  0.80887110  0.96609832  0.69239674  1
  C  C55  1  0.17063507  0.22059307  0.69031581  1
  C  C56  1  0.05251991  0.83628412  0.69506483  1
  C  C57  1  0.77940693  0.82936493  0.19031581  1
  C  C58  1  0.03390168  0.19112890  0.19239674  1
  C  C59  1  0.16371588  0.94748009  0.19506483  1
  C  C60  1  0.87668186  0.34784900  0.63428857  1
  C  C61  1  0.46975618  0.12711674  0.64480624  1
  C  C62  1  0.67477548  0.55190949  0.64491868  1
  C  C63  1  0.87288326  0.53024382  0.14480624  1
  C  C64  1  0.65215100  0.12331814  0.13428857  1
  C  C65  1  0.44809051  0.32522452  0.14491868  1
  C  C66  1  0.46459213  0.29452182  0.02998827  1
  C  C67  1  0.82549359  0.53353656  0.02233288  1
  C  C68  1  0.71632898  0.15586034  0.02162994  1
  C  C69  1  0.46646344  0.17450641  0.52233288  1
  C  C70  1  0.70547818  0.53540787  0.52998827  1
  C  C71  1  0.84413966  0.28367102  0.52162994  1
  C  C72  1  0.53343798  0.67431300  0.96452066  1
  C  C73  1  0.11353478  0.45486344  0.97890027  1
  C  C74  1  0.33628600  0.87603318  0.98154312  1
  C  C75  1  0.54513656  0.88646522  0.47890027  1
  C  C76  1  0.32568700  0.46656202  0.46452066  1
  C  C77  1  0.12396682  0.66371400  0.48154312  1
  C  C78  1  0.12732541  0.61498305  0.36013127  1
  C  C79  1  0.48114783  0.85092252  0.36571332  1
  C  C80  1  0.37264963  0.47959128  0.35094587  1
  C  C81  1  0.14907748  0.51885217  0.86571332  1
  C  C82  1  0.38501695  0.87267459  0.86013127  1
  C  C83  1  0.52040872  0.62735037  0.85094587  1
  C  C84  1  0.00680056  0.81286899  0.41708833  1
  C  C85  1  0.78983240  0.00325143  0.40985186  1
  C  C86  1  0.20637693  0.19591994  0.41004559  1
  C  C87  1  0.99674857  0.21016760  0.90985186  1
  C  C88  1  0.18713101  0.99319944  0.91708833  1
  C  C89  1  0.80408006  0.79362307  0.91004559  1
  C  C90  1  0.94420131  0.13312010  0.58680807  1
  C  C91  1  0.17217006  0.03918477  0.58978145  1
  C  C92  1  0.85962492  0.81378850  0.58541814  1
  C  C93  1  0.96081523  0.82782994  0.08978145  1
  C  C94  1  0.86687990  0.05579869  0.08680807  1
  C  C95  1  0.18621150  0.14037508  0.08541814  1
  C  C96  1  0.65857272  0.14002638  0.75093055  1
  C  C97  1  0.46926260  0.35635550  0.73912052  1
  C  C98  1  0.86602493  0.54444588  0.74710752  1
  C  C99  1  0.64364450  0.53073740  0.23912052  1
  C  C100  1  0.85997362  0.34142728  0.25093055  1
  C  C101  1  0.45555412  0.13397507  0.24710752  1
  C  C102  1  0.62457197  0.47532404  0.91766185  1
  C  C103  1  0.86182030  0.39351802  0.91543061  1
  C  C104  1  0.53903653  0.16329930  0.92401731  1
  C  C105  1  0.60648198  0.13817970  0.41543061  1
  C  C106  1  0.52467596  0.37542803  0.41766185  1
  C  C107  1  0.83670070  0.46096347  0.42401731  1
  C  C108  1  0.32689053  0.45940369  0.08076629  1
  C  C109  1  0.13802517  0.66679700  0.07947145  1
  C  C110  1  0.54561563  0.86138216  0.07681327  1
  C  C111  1  0.33320300  0.86197483  0.57947145  1
  C  C112  1  0.54059631  0.67310947  0.58076629  1
  C  C113  1  0.13861784  0.45438437  0.57681327  1
  C  C114  1  0.29056009  0.80691265  0.25356946  1
  C  C115  1  0.52115723  0.72211776  0.25749230  1
  C  C116  1  0.19946821  0.48988765  0.25188129  1
  C  C117  1  0.27788224  0.47884277  0.75749230  1
  C  C118  1  0.19308735  0.70943991  0.75356946  1
  C  C119  1  0.51011235  0.80053179  0.75188129  1
