# generated using pymatgen
data_Cu3NiC17
_symmetry_space_group_name_H-M   'P 1'
_cell_length_a   9.03078849
_cell_length_b   9.03078818
_cell_length_c   22.17717419
_cell_angle_alpha   90.00000000
_cell_angle_beta   90.00000000
_cell_angle_gamma   120.00000116
_symmetry_Int_Tables_number   1
_chemical_formula_structural   Cu3NiC17
_chemical_formula_sum   'Cu18 Ni6 C102'
_cell_volume   1566.34765421
_cell_formula_units_Z   6
loop_
 _symmetry_equiv_pos_site_id
 _symmetry_equiv_pos_as_xyz
  1  'x, y, z'
loop_
 _atom_site_type_symbol
 _atom_site_label
 _atom_site_symmetry_multiplicity
 _atom_site_fract_x
 _atom_site_fract_y
 _atom_site_fract_z
 _atom_site_occupancy
  C  C0  1  0.63756271  0.01054851  0.24801598  1
  C  C1  1  0.37298580  0.36243729  0.24801598  1
  C  C2  1  0.98945149  0.62701420  0.24801598  1
  C  C3  1  0.63756271  0.62701420  0.74801598  1
  C  C4  1  0.98945149  0.36243729  0.74801598  1
  C  C5  1  0.37298580  0.01054851  0.74801598  1
  C  C6  1  0.30422971  0.34388151  0.58134898  1
  C  C7  1  0.03965280  0.69577029  0.58134898  1
  C  C8  1  0.65611849  0.96034720  0.58134898  1
  C  C9  1  0.30422971  0.96034720  0.08134898  1
  C  C10  1  0.65611849  0.69577029  0.08134898  1
  C  C11  1  0.03965280  0.34388151  0.08134898  1
  C  C12  1  0.97089571  0.67721551  0.91468298  1
  C  C13  1  0.70631880  0.02910429  0.91468298  1
  C  C14  1  0.32278449  0.29368120  0.91468298  1
  C  C15  1  0.97089571  0.29368120  0.41468298  1
  C  C16  1  0.32278449  0.02910429  0.41468298  1
  C  C17  1  0.70631880  0.67721551  0.41468298  1
  C  C18  1  -0.00000000  -0.00000000  0.49510351  1
  C  C19  1  -0.00000000  -0.00000000  0.99510351  1
  C  C20  1  0.66666700  0.33333300  0.82843651  1
  C  C21  1  0.66666700  0.33333300  0.32843651  1
  C  C22  1  0.33333300  0.66666700  0.16177051  1
  C  C23  1  0.33333300  0.66666700  0.66177051  1
  C  C24  1  0.00000000  -0.00000000  0.64651634  1
  C  C25  1  0.00000000  -0.00000000  0.14651634  1
  C  C26  1  0.66666700  0.33333300  0.97984934  1
  C  C27  1  0.66666700  0.33333300  0.47984934  1
  C  C28  1  0.33333300  0.66666700  0.31318334  1
  C  C29  1  0.33333300  0.66666700  0.81318334  1
  Ni  Ni30  1  0.00000000  -0.00000000  0.35099121  1
  Ni  Ni31  1  0.00000000  -0.00000000  0.85099121  1
  Ni  Ni32  1  0.66666700  0.33333300  0.68432421  1
  Ni  Ni33  1  0.66666700  0.33333300  0.18432421  1
  Ni  Ni34  1  0.33333300  0.66666700  0.01765821  1
  Ni  Ni35  1  0.33333300  0.66666700  0.51765821  1
  Cu  Cu36  1  0.29293964  0.00446675  0.25185597  1
  Cu  Cu37  1  0.71152711  0.70706036  0.25185597  1
  Cu  Cu38  1  0.99553325  0.28847289  0.25185597  1
  Cu  Cu39  1  0.29293964  0.28847289  0.75185597  1
  Cu  Cu40  1  0.99553325  0.70706036  0.75185597  1
  Cu  Cu41  1  0.71152711  0.00446675  0.75185597  1
  Cu  Cu42  1  0.95960664  0.33779975  0.58518897  1
  Cu  Cu43  1  0.37819411  0.04039336  0.58518897  1
  Cu  Cu44  1  0.66220025  0.62180589  0.58518897  1
  Cu  Cu45  1  0.95960664  0.62180589  0.08518897  1
  Cu  Cu46  1  0.66220025  0.04039336  0.08518897  1
  Cu  Cu47  1  0.37819411  0.33779975  0.08518897  1
  Cu  Cu48  1  0.62627264  0.67113375  0.91852297  1
  Cu  Cu49  1  0.04486011  0.37372736  0.91852297  1
  Cu  Cu50  1  0.32886625  0.95513989  0.91852297  1
  Cu  Cu51  1  0.62627264  0.95513989  0.41852297  1
  Cu  Cu52  1  0.32886625  0.37372736  0.41852297  1
  Cu  Cu53  1  0.04486011  0.67113375  0.41852297  1
  C  C54  1  0.20642331  0.03653491  0.31007061  1
  C  C55  1  0.83011160  0.79357669  0.31007061  1
  C  C56  1  0.96346509  0.16988840  0.31007061  1
  C  C57  1  0.20642331  0.16988840  0.81007061  1
  C  C58  1  0.96346509  0.79357669  0.81007061  1
  C  C59  1  0.83011160  0.03653491  0.81007061  1
  C  C60  1  0.79946546  0.96456788  0.69207881  1
  C  C61  1  0.16510242  0.20053454  0.69207881  1
  C  C62  1  0.03543212  0.83489758  0.69207881  1
  C  C63  1  0.79946546  0.83489758  0.19207881  1
  C  C64  1  0.03543212  0.20053454  0.19207881  1
  C  C65  1  0.16510242  0.96456788  0.19207881  1
  C  C66  1  0.87309031  0.36986791  0.64340361  1
  C  C67  1  0.49677860  0.12690969  0.64340361  1
  C  C68  1  0.63013209  0.50322140  0.64340361  1
  C  C69  1  0.87309031  0.50322140  0.14340361  1
  C  C70  1  0.63013209  0.12690969  0.14340361  1
  C  C71  1  0.49677860  0.36986791  0.14340361  1
  C  C72  1  0.46613246  0.29790088  0.02541181  1
  C  C73  1  0.83176942  0.53386754  0.02541181  1
  C  C74  1  0.70209912  0.16823058  0.02541181  1
  C  C75  1  0.46613246  0.16823058  0.52541181  1
  C  C76  1  0.70209912  0.53386754  0.52541181  1
  C  C77  1  0.83176942  0.29790088  0.52541181  1
  C  C78  1  0.53975631  0.70320191  0.97673761  1
  C  C79  1  0.16344460  0.46024369  0.97673761  1
  C  C80  1  0.29679809  0.83655540  0.97673761  1
  C  C81  1  0.53975631  0.83655540  0.47673761  1
  C  C82  1  0.29679809  0.46024369  0.47673761  1
  C  C83  1  0.16344460  0.70320191  0.47673761  1
  C  C84  1  0.13279846  0.63123488  0.35874581  1
  C  C85  1  0.49843542  0.86720154  0.35874581  1
  C  C86  1  0.36876512  0.50156458  0.35874581  1
  C  C87  1  0.13279846  0.50156458  0.85874581  1
  C  C88  1  0.36876512  0.86720154  0.85874581  1
  C  C89  1  0.49843542  0.63123488  0.85874581  1
  C  C90  1  0.02054464  0.83580443  0.41124503  1
  C  C91  1  0.81525979  0.97945536  0.41124503  1
  C  C92  1  0.16419557  0.18474021  0.41124503  1
  C  C93  1  0.02054464  0.18474021  0.91124503  1
  C  C94  1  0.16419557  0.97945536  0.91124503  1
  C  C95  1  0.81525979  0.83580443  0.91124503  1
  C  C96  1  0.97227092  0.15989618  0.58919657  1
  C  C97  1  0.18762526  0.02772908  0.58919657  1
  C  C98  1  0.84010382  0.81237474  0.58919657  1
  C  C99  1  0.97227092  0.81237474  0.08919657  1
  C  C100  1  0.84010382  0.02772908  0.08919657  1
  C  C101  1  0.18762526  0.15989618  0.08919657  1
  C  C102  1  0.68721164  0.16913743  0.74457803  1
  C  C103  1  0.48192679  0.31278836  0.74457803  1
  C  C104  1  0.83086257  0.51807321  0.74457803  1
  C  C105  1  0.68721164  0.51807321  0.24457803  1
  C  C106  1  0.83086257  0.31278836  0.24457803  1
  C  C107  1  0.48192679  0.16913743  0.24457803  1
  C  C108  1  0.63893792  0.49322918  0.92252957  1
  C  C109  1  0.85429226  0.36106208  0.92252957  1
  C  C110  1  0.50677082  0.14570774  0.92252957  1
  C  C111  1  0.63893792  0.14570774  0.42252957  1
  C  C112  1  0.50677082  0.36106208  0.42252957  1
  C  C113  1  0.85429226  0.49322918  0.42252957  1
  C  C114  1  0.35387764  0.50247143  0.07791203  1
  C  C115  1  0.14859279  0.64612236  0.07791203  1
  C  C116  1  0.49752857  0.85140721  0.07791203  1
  C  C117  1  0.35387764  0.85140721  0.57791203  1
  C  C118  1  0.49752857  0.64612236  0.57791203  1
  C  C119  1  0.14859279  0.50247143  0.57791203  1
  C  C120  1  0.30560392  0.82656318  0.25586357  1
  C  C121  1  0.52095826  0.69439608  0.25586357  1
  C  C122  1  0.17343682  0.47904174  0.25586357  1
  C  C123  1  0.30560392  0.47904174  0.75586357  1
  C  C124  1  0.17343682  0.69439608  0.75586357  1
  C  C125  1  0.52095826  0.82656318  0.75586357  1
