# generated using pymatgen
data_Cu2NiC17
_symmetry_space_group_name_H-M   'P 1'
_cell_length_a   15.72973839
_cell_length_b   9.04802494
_cell_length_c   9.09058287
_cell_angle_alpha   90.50669161
_cell_angle_beta   124.69542418
_cell_angle_gamma   89.91285501
_symmetry_Int_Tables_number   1
_chemical_formula_structural   Cu2NiC17
_chemical_formula_sum   'Cu8 Ni4 C68'
_cell_volume   1063.69716145
_cell_formula_units_Z   4
loop_
 _symmetry_equiv_pos_site_id
 _symmetry_equiv_pos_as_xyz
  1  'x, y, z'
loop_
 _atom_site_type_symbol
 _atom_site_label
 _atom_site_symmetry_multiplicity
 _atom_site_fract_x
 _atom_site_fract_y
 _atom_site_fract_z
 _atom_site_occupancy
  C  C0  1  0.25010192  0.74878696  0.99938809  1
  C  C1  1  0.74234700  0.74622544  0.47738887  1
  C  C2  1  0.75010192  0.24878696  0.99938809  1
  C  C3  1  0.24234700  0.24622544  0.47738887  1
  C  C4  1  0.51023641  0.09128511  0.76950262  1
  C  C5  1  0.49734904  0.88593926  0.23358465  1
  C  C6  1  0.01023641  0.59128511  0.76950262  1
  C  C7  1  0.99734904  0.38593926  0.23358465  1
  C  C8  1  0.79736720  0.92596076  0.20771644  1
  C  C9  1  0.18526683  0.08142517  0.81140298  1
  C  C10  1  0.29736720  0.42596076  0.20771644  1
  C  C11  1  0.68526683  0.58142517  0.81140298  1
  C  C12  1  0.10460376  0.74875416  0.55834650  1
  C  C13  1  0.89451641  0.75483063  0.93464496  1
  C  C14  1  0.89611421  0.25290145  0.44219938  1
  C  C15  1  0.60460376  0.24875416  0.55834650  1
  C  C16  1  0.39451641  0.25483063  0.93464496  1
  C  C17  1  0.39611421  0.75290145  0.44219938  1
  C  C18  1  0.10405665  0.24447866  0.06061856  1
  C  C19  1  0.60405665  0.74447866  0.06061856  1
  Ni  Ni20  1  0.64965614  0.89885960  0.75147048  1
  Ni  Ni21  1  0.35091064  0.10100551  0.25178519  1
  Ni  Ni22  1  0.14965614  0.39885960  0.75147048  1
  Ni  Ni23  1  0.85091064  0.60100551  0.25178519  1
  Cu  Cu24  1  0.99835181  0.95841609  0.74694279  1
  Cu  Cu25  1  0.00226971  0.04584722  0.25573060  1
  Cu  Cu26  1  0.49835181  0.45841609  0.74694279  1
  Cu  Cu27  1  0.50226971  0.54584722  0.25573060  1
  Cu  Cu28  1  0.35725899  0.89552878  0.76539379  1
  Cu  Cu29  1  0.64548750  0.10583099  0.24049380  1
  Cu  Cu30  1  0.85725899  0.39552878  0.76539379  1
  Cu  Cu31  1  0.14548750  0.60583099  0.24049380  1
  C  C32  1  0.15693876  0.57966892  0.73785640  1
  C  C33  1  0.85364901  0.56913716  0.75713430  1
  C  C34  1  0.84930248  0.41813108  0.25727333  1
  C  C35  1  0.15030438  0.43643395  0.24694812  1
  C  C36  1  0.65693876  0.07966892  0.73785640  1
  C  C37  1  0.35364901  0.06913716  0.75713430  1
  C  C38  1  0.34930248  0.91813108  0.25727333  1
  C  C39  1  0.65030438  0.93643395  0.24694812  1
  C  C40  1  0.43004294  0.54754868  0.57147424  1
  C  C41  1  0.56219564  0.55991940  0.90769758  1
  C  C42  1  0.56541529  0.45279569  0.42675393  1
  C  C43  1  0.44257155  0.43733042  0.09272906  1
  C  C44  1  0.93004294  0.04754868  0.57147424  1
  C  C45  1  0.06219564  0.05991940  0.90769758  1
  C  C46  1  0.06541529  0.95279569  0.42675393  1
  C  C47  1  0.94257155  0.93733042  0.09272906  1
  C  C48  1  0.25658313  0.84409029  0.74323913  1
  C  C49  1  0.74509112  0.81649927  0.75638385  1
  C  C50  1  0.74168072  0.16717110  0.25273069  1
  C  C51  1  0.25824731  0.18324424  0.24433971  1
  C  C52  1  0.75658313  0.34409029  0.74323913  1
  C  C53  1  0.24509112  0.31649927  0.75638385  1
  C  C54  1  0.24168072  0.66717110  0.25273069  1
  C  C55  1  0.75824731  0.68324424  0.24433971  1
  C  C56  1  0.35951104  0.84729554  0.60200796  1
  C  C57  1  0.64883594  0.86558409  0.92424669  1
  C  C58  1  0.64489540  0.16246872  0.40101620  1
  C  C59  1  0.35445983  0.13909678  0.07559637  1
  C  C60  1  0.85951104  0.34729554  0.60200796  1
  C  C61  1  0.14883594  0.36558409  0.92424669  1
  C  C62  1  0.14489540  0.66246872  0.40101620  1
  C  C63  1  0.85445983  0.63909678  0.07559637  1
  C  C64  1  0.45218948  0.84003082  0.93870474  1
  C  C65  1  0.54077791  0.83097775  0.57229305  1
  C  C66  1  0.54652563  0.16254826  0.06579422  1
  C  C67  1  0.46416890  0.15931485  0.42631635  1
  C  C68  1  0.95218948  0.34003082  0.93870474  1
  C  C69  1  0.04077791  0.33097775  0.57229305  1
  C  C70  1  0.04652563  0.66254826  0.06579422  1
  C  C71  1  0.96416890  0.65931485  0.42631635  1
  C  C72  1  0.07821729  0.86169617  0.73603872  1
  C  C73  1  0.92806330  0.84587068  0.75847504  1
  C  C74  1  0.91466540  0.12994356  0.25625242  1
  C  C75  1  0.06977329  0.15712676  0.24208820  1
  C  C76  1  0.57821729  0.36169617  0.73603872  1
  C  C77  1  0.42806330  0.34587068  0.75847504  1
  C  C78  1  0.41466540  0.62994356  0.25625242  1
  C  C79  1  0.56977329  0.65712676  0.24208820  1
