# generated using pymatgen
data_CuNiC19
_symmetry_space_group_name_H-M   'P 1'
_cell_length_a   9.15586053
_cell_length_b   9.17151450
_cell_length_c   22.34114950
_cell_angle_alpha   89.87259787
_cell_angle_beta   90.00000000
_cell_angle_gamma   119.94355540
_symmetry_Int_Tables_number   1
_chemical_formula_structural   CuNiC19
_chemical_formula_sum   'Cu6 Ni6 C114'
_cell_volume   1625.62989152
_cell_formula_units_Z   6
loop_
 _symmetry_equiv_pos_site_id
 _symmetry_equiv_pos_as_xyz
  1  'x, y, z'
loop_
 _atom_site_type_symbol
 _atom_site_label
 _atom_site_symmetry_multiplicity
 _atom_site_fract_x
 _atom_site_fract_y
 _atom_site_fract_z
 _atom_site_occupancy
  C  C0  1  0.63822608  0.01904101  0.24761544  1
  C  C1  1  0.37224628  0.35135034  0.24901898  1
  C  C2  1  0.98739087  0.62638320  0.24153601  1
  C  C3  1  0.63899233  0.62638320  0.74153601  1
  C  C4  1  0.97910406  0.35135034  0.74901898  1
  C  C5  1  0.38081492  0.01904101  0.74761544  1
  C  C6  1  0.31460726  0.35404547  0.58252398  1
  C  C7  1  0.03395347  0.69104530  0.57878517  1
  C  C8  1  0.64516109  0.94737049  0.57691801  1
  C  C9  1  0.30221040  0.94737049  0.07691801  1
  C  C10  1  0.65709282  0.69104530  0.07878517  1
  C  C11  1  0.03943921  0.35404547  0.08252398  1
  C  C12  1  0.98354894  0.68999413  0.91737293  1
  C  C13  1  0.70421031  0.02667119  0.90874442  1
  C  C14  1  0.31568425  0.28470784  0.91216750  1
  C  C15  1  0.96902258  0.28470784  0.41216750  1
  C  C16  1  0.32245988  0.02667119  0.40874442  1
  C  C17  1  0.70644419  0.68999413  0.41737293  1
  C  C18  1  0.99009791  0.99450156  0.49221954  1
  C  C19  1  0.00440365  0.99450156  0.99221954  1
  C  C20  1  0.66269102  0.32261548  0.82579935  1
  C  C21  1  0.65992546  0.32261548  0.32579935  1
  C  C22  1  0.32423324  0.66810784  0.15927298  1
  C  C23  1  0.34387360  0.66810784  0.65927298  1
  Ni  Ni24  1  0.00092464  0.00141000  0.34875592  1
  Ni  Ni25  1  0.00048536  0.00141000  0.84875592  1
  Ni  Ni26  1  0.66484640  0.33092144  0.68233594  1
  Ni  Ni27  1  0.66607604  0.33092144  0.18233594  1
  Ni  Ni28  1  0.32645954  0.66856379  0.01565222  1
  Ni  Ni29  1  0.34210325  0.66856379  0.51565222  1
  Cu  Cu30  1  0.99168851  0.99494828  0.64934528  1
  Cu  Cu31  1  0.00325977  0.99494828  0.14934528  1
  Cu  Cu32  1  0.66752562  0.33421507  0.98287090  1
  Cu  Cu33  1  0.66669045  0.33421507  0.48287090  1
  Cu  Cu34  1  0.33672859  0.67518951  0.31619389  1
  Cu  Cu35  1  0.33845991  0.67518951  0.81619389  1
  C  C36  1  0.30218084  0.00397439  0.25356802  1
  C  C37  1  0.70179355  0.00397439  0.75356802  1
  C  C38  1  0.66363916  0.62898908  0.58661782  1
  C  C39  1  0.96535092  0.62898908  0.08661782  1
  C  C40  1  0.33014627  0.96860917  0.91946184  1
  C  C41  1  0.63846190  0.96860917  0.41946184  1
  C  C42  1  0.70359136  0.70220782  0.25266917  1
  C  C43  1  -0.00040337  0.29460555  0.25191449  1
  C  C44  1  0.29500892  0.29460555  0.75191449  1
  C  C45  1  -0.00138354  0.70220782  0.75266917  1
  C  C46  1  0.96524344  0.33640546  0.58553117  1
  C  C47  1  0.36893719  0.03577093  0.58577242  1
  C  C48  1  0.66683474  0.03577093  0.08577242  1
  C  C49  1  0.37116301  0.33640546  0.08553117  1
  C  C50  1  0.62762536  0.66611506  0.91981890  1
  C  C51  1  0.03987431  0.37055568  0.91898576  1
  C  C52  1  0.33068037  0.37055568  0.41898576  1
  C  C53  1  0.03848870  0.66611506  0.41981890  1
  C  C54  1  0.21379687  0.02969778  0.31168280  1
  C  C55  1  0.81044225  0.78857971  0.30769772  1
  C  C56  1  0.97588488  0.18673072  0.30729357  1
  C  C57  1  0.21084585  0.18673072  0.80729357  1
  C  C58  1  0.97813747  0.78857971  0.80769772  1
  C  C59  1  0.81590091  0.02969778  0.81168280  1
  C  C60  1  0.79239105  0.97251292  0.69358570  1
  C  C61  1  0.18577809  0.20886562  0.69485810  1
  C  C62  1  0.03039941  0.81589671  0.69561676  1
  C  C63  1  0.78549730  0.81589671  0.19561676  1
  C  C64  1  0.02308753  0.20886562  0.19485810  1
  C  C65  1  0.18012188  0.97251292  0.19358570  1
  C  C66  1  0.87984454  0.35655633  0.64116372  1
  C  C67  1  0.47861272  0.11780383  0.64089314  1
  C  C68  1  0.64174370  0.51576882  0.64470510  1
  C  C69  1  0.87402612  0.51576882  0.14470510  1
  C  C70  1  0.63919211  0.11780383  0.14089314  1
  C  C71  1  0.47671279  0.35655633  0.14116372  1
  C  C72  1  0.45353560  0.30389975  0.02894544  1
  C  C73  1  0.84612858  0.54132015  0.02605345  1
  C  C74  1  0.69038938  0.14784867  0.02900135  1
  C  C75  1  0.45746028  0.14784867  0.52900135  1
  C  C76  1  0.69519257  0.54132015  0.52605345  1
  C  C77  1  0.85036516  0.30389975  0.52894544  1
  C  C78  1  0.54088811  0.68504351  0.97503477  1
  C  C79  1  0.14756280  0.45417013  0.97413865  1
  C  C80  1  0.30350941  0.85362823  0.97753121  1
  C  C81  1  0.55011782  0.85362823  0.47753121  1
  C  C82  1  0.30660632  0.45417013  0.47413865  1
  C  C83  1  0.14415440  0.68504351  0.47503477  1
  C  C84  1  0.12281681  0.63862919  0.36278326  1
  C  C85  1  0.51487626  0.87751922  0.35951731  1
  C  C86  1  0.35745070  0.48084266  0.36181864  1
  C  C87  1  0.12339096  0.48084266  0.86181864  1
  C  C88  1  0.36264196  0.87751922  0.85951731  1
  C  C89  1  0.51581139  0.63862919  0.86278326  1
  C  C90  1  0.01644671  0.82152568  0.41311576  1
  C  C91  1  0.82544548  0.99040152  0.41238462  1
  C  C92  1  0.17768848  0.19161947  0.41328075  1
  C  C93  1  0.01393099  0.19161947  0.91328075  1
  C  C94  1  0.16495604  0.99040152  0.91238462  1
  C  C95  1  0.80507898  0.82152568  0.91311576  1
  C  C96  1  0.98568867  0.17629438  0.58847716  1
  C  C97  1  0.19506987  0.02933171  0.58830760  1
  C  C98  1  0.84091752  0.81779197  0.58655525  1
  C  C99  1  0.97687445  0.81779197  0.08655525  1
  C  C100  1  0.83426184  0.02933171  0.08830760  1
  C  C101  1  0.19060571  0.17629438  0.08847716  1
  C  C102  1  0.67621066  0.16653065  0.74641808  1
  C  C103  1  0.47389662  0.31876063  0.74645942  1
  C  C104  1  0.84248965  0.52572027  0.74588831  1
  C  C105  1  0.68323163  0.52572027  0.24588831  1
  C  C106  1  0.84486501  0.31876063  0.24645942  1
  C  C107  1  0.49032100  0.16653065  0.24641808  1
  C  C108  1  0.64270977  0.50292597  0.92137538  1
  C  C109  1  0.86221183  0.35833889  0.92213162  1
  C  C110  1  0.50572990  0.15649813  0.91991994  1
  C  C111  1  0.65076924  0.15649813  0.41991994  1
  C  C112  1  0.49612806  0.35833889  0.42213162  1
  C  C113  1  0.86021720  0.50292597  0.42137538  1
  C  C114  1  0.35407894  0.49391701  0.07759866  1
  C  C115  1  0.15315301  0.65163638  0.08194087  1
  C  C116  1  0.51651712  0.85593228  0.07897194  1
  C  C117  1  0.33941417  0.85593228  0.57897194  1
  C  C118  1  0.49848237  0.65163638  0.58194087  1
  C  C119  1  0.13983706  0.49391701  0.57759866  1
  C  C120  1  0.31043755  0.82547140  0.25313965  1
  C  C121  1  0.52331293  0.68296495  0.25538736  1
  C  C122  1  0.16473187  0.47070964  0.25485888  1
  C  C123  1  0.30597676  0.47070964  0.75485888  1
  C  C124  1  0.15965102  0.68296495  0.75538736  1
  C  C125  1  0.51503285  0.82547140  0.75313965  1
