# generated using pymatgen
data_CuNiC6
_symmetry_space_group_name_H-M   'P 1'
_cell_length_a   7.21284800
_cell_length_b   6.33497800
_cell_length_c   9.92538558
_cell_angle_alpha   76.38918533
_cell_angle_beta   90.00000000
_cell_angle_gamma   90.00000000
_symmetry_Int_Tables_number   1
_chemical_formula_structural   CuNiC6
_chemical_formula_sum   'Cu4 Ni4 C24'
_cell_volume   440.78649287
_cell_formula_units_Z   4
loop_
 _symmetry_equiv_pos_site_id
 _symmetry_equiv_pos_as_xyz
  1  'x, y, z'
loop_
 _atom_site_type_symbol
 _atom_site_label
 _atom_site_symmetry_multiplicity
 _atom_site_fract_x
 _atom_site_fract_y
 _atom_site_fract_z
 _atom_site_occupancy
  C  C0  1  0.50501100  0.81537800  0.33439300  1
  C  C1  1  0.00501100  0.18462200  0.66560700  1
  C  C2  1  0.49498900  0.18462200  0.66560700  1
  C  C3  1  0.99498900  0.81537800  0.33439300  1
  C  C4  1  0.75000000  0.66476500  0.96827700  1
  C  C5  1  0.25000000  0.33523500  0.03172300  1
  Ni  Ni6  1  0.13923900  0.58968200  0.75149200  1
  Ni  Ni7  1  0.63923900  0.41031800  0.24850800  1
  Ni  Ni8  1  0.86076100  0.41031800  0.24850800  1
  Ni  Ni9  1  0.36076100  0.58968200  0.75149200  1
  Cu  Cu10  1  0.75000000  0.71930000  0.64074500  1
  Cu  Cu11  1  0.25000000  0.28070000  0.35925500  1
  Cu  Cu12  1  0.75000000  0.15970200  0.99191100  1
  Cu  Cu13  1  0.25000000  0.84029800  0.00808900  1
  C  C14  1  0.75000000  0.50396200  0.22276100  1
  C  C15  1  0.25000000  0.49603800  0.77723900  1
  C  C16  1  0.41564700  0.69559600  0.01722900  1
  C  C17  1  0.91564700  0.30440400  0.98277100  1
  C  C18  1  0.58435300  0.30440400  0.98277100  1
  C  C19  1  0.08435300  0.69559600  0.01722900  1
  C  C20  1  0.25000000  0.01472500  0.87936300  1
  C  C21  1  0.75000000  0.98527500  0.12063700  1
  C  C22  1  0.25000000  0.06947800  0.46498500  1
  C  C23  1  0.75000000  0.93052200  0.53501500  1
  C  C24  1  0.25000000  0.46309400  0.43017100  1
  C  C25  1  0.75000000  0.53690600  0.56982900  1
  C  C26  1  0.08378800  0.29198600  0.26669700  1
  C  C27  1  0.58378800  0.70801400  0.73330300  1
  C  C28  1  0.91621200  0.70801400  0.73330300  1
  C  C29  1  0.41621200  0.29198600  0.26669700  1
  C  C30  1  0.25000000  0.94595900  0.12815500  1
  C  C31  1  0.75000000  0.05404100  0.87184500  1
