# generated using pymatgen
data_Cu2NiC8
_symmetry_space_group_name_H-M   'P 1'
_cell_length_a   6.60466851
_cell_length_b   5.95791215
_cell_length_c   5.95791190
_cell_angle_alpha   66.75067496
_cell_angle_beta   96.59725385
_cell_angle_gamma   96.59725716
_symmetry_Int_Tables_number   1
_chemical_formula_structural   Cu2NiC8
_chemical_formula_sum   'Cu2 Ni1 C8'
_cell_volume   213.35789238
_cell_formula_units_Z   1
loop_
 _symmetry_equiv_pos_site_id
 _symmetry_equiv_pos_as_xyz
  1  'x, y, z'
loop_
 _atom_site_type_symbol
 _atom_site_label
 _atom_site_symmetry_multiplicity
 _atom_site_fract_x
 _atom_site_fract_y
 _atom_site_fract_z
 _atom_site_occupancy
  C  C0  1  -0.00000000  0.50000000  0.50000000  1
  Ni  Ni1  1  -0.00000000  -0.00000000  0.00000000  1
  Cu  Cu2  1  0.51039965  0.65246496  0.65246496  1
  Cu  Cu3  1  0.48960035  0.34753504  0.34753504  1
  C  C4  1  0.50000000  0.50000000  0.50000000  1
  C  C5  1  0.29066603  0.12743195  0.12743195  1
  C  C6  1  0.70933397  0.87256805  0.87256805  1
  C  C7  1  0.89705062  0.38274533  0.82028086  1
  C  C8  1  0.10294938  0.17971914  0.61725467  1
  C  C9  1  0.10294938  0.61725467  0.17971914  1
  C  C10  1  0.89705062  0.82028086  0.38274533  1
