# generated using pymatgen
data_Cu6NiC12
_symmetry_space_group_name_H-M   'P 1'
_cell_length_a   5.26850571
_cell_length_b   5.26834160
_cell_length_c   8.99927574
_cell_angle_alpha   88.65012611
_cell_angle_beta   91.33938081
_cell_angle_gamma   103.31885474
_symmetry_Int_Tables_number   1
_chemical_formula_structural   Cu6NiC12
_chemical_formula_sum   'Cu6 Ni1 C12'
_cell_volume   242.95919684
_cell_formula_units_Z   1
loop_
 _symmetry_equiv_pos_site_id
 _symmetry_equiv_pos_as_xyz
  1  'x, y, z'
loop_
 _atom_site_type_symbol
 _atom_site_label
 _atom_site_symmetry_multiplicity
 _atom_site_fract_x
 _atom_site_fract_y
 _atom_site_fract_z
 _atom_site_occupancy
  Ni  Ni0  1  0.30095068  0.69855288  0.01140652  1
  Cu  Cu1  1  0.96667589  0.03267852  0.01485606  1
  Cu  Cu2  1  0.00893655  0.99024222  0.33499513  1
  Cu  Cu3  1  0.01057090  0.98858668  0.64036762  1
  Cu  Cu4  1  0.58973279  0.40949204  0.16457988  1
  Cu  Cu5  1  0.56363829  0.43557290  0.81830260  1
  Cu  Cu6  1  0.41541728  0.58373165  0.51988245  1
  C  C7  1  0.14285659  0.85661295  0.16015914  1
  C  C8  1  0.18756240  0.81140791  0.49579925  1
  C  C9  1  0.30728720  0.32088049  0.99950624  1
  C  C10  1  0.29834070  0.31070592  0.67092024  1
  C  C11  1  0.67851991  0.69201354  0.99961710  1
  C  C12  1  0.68813964  0.70124526  0.67103516  1
  C  C13  1  0.81162908  0.18751165  0.16822333  1
  C  C14  1  0.85665655  0.14278822  0.48562155  1
  C  C15  1  0.14823782  0.85097229  0.84623089  1
  C  C16  1  0.32153885  0.32007994  0.32989814  1
  C  C17  1  0.67924581  0.67749811  0.33006465  1
  C  C18  1  0.80183906  0.19776186  0.83853305  1
