# generated using pymatgen
data_Cu3Ni8C31
_symmetry_space_group_name_H-M   'P 1'
_cell_length_a   9.36025856
_cell_length_b   9.36025822
_cell_length_c   22.69349900
_cell_angle_alpha   90.00000000
_cell_angle_beta   90.00000000
_cell_angle_gamma   120.00000119
_symmetry_Int_Tables_number   1
_chemical_formula_structural   Cu3Ni8C31
_chemical_formula_sum   'Cu9 Ni24 C93'
_cell_volume   1721.89936012
_cell_formula_units_Z   3
loop_
 _symmetry_equiv_pos_site_id
 _symmetry_equiv_pos_as_xyz
  1  'x, y, z'
loop_
 _atom_site_type_symbol
 _atom_site_label
 _atom_site_symmetry_multiplicity
 _atom_site_fract_x
 _atom_site_fract_y
 _atom_site_fract_z
 _atom_site_occupancy
  Ni  Ni0  1  0.63499972  0.99991678  0.25341404  1
  Ni  Ni1  1  0.36491706  0.36500028  0.25341404  1
  Ni  Ni2  1  0.00008322  0.63508294  0.25341404  1
  Ni  Ni3  1  0.64495367  0.63818765  0.74481919  1
  Ni  Ni4  1  0.99323398  0.35504633  0.74481919  1
  Ni  Ni5  1  0.36181235  0.00676602  0.74481919  1
  Ni  Ni6  1  0.29773286  0.33764460  0.57893468  1
  Ni  Ni7  1  0.03991274  0.70226714  0.57893468  1
  Ni  Ni8  1  0.66235540  0.96008726  0.57893468  1
  Ni  Ni9  1  0.29669378  0.95981680  0.08920411  1
  Ni  Ni10  1  0.66312402  0.70330622  0.08920411  1
  Ni  Ni11  1  0.04018320  0.33687598  0.08920411  1
  Ni  Ni12  1  0.96961978  0.67332750  0.91277425  1
  Ni  Ni13  1  0.70370673  0.03038022  0.91277425  1
  Ni  Ni14  1  0.32667250  0.29629327  0.91277425  1
  Ni  Ni15  1  0.97806722  0.30471327  0.41061623  1
  Ni  Ni16  1  0.32664505  0.02193278  0.41061623  1
  Ni  Ni17  1  0.69528673  0.67335495  0.41061623  1
  Ni  Ni18  1  -0.00000000  -0.00000000  0.49693057  1
  Ni  Ni19  1  -0.00000000  -0.00000000  0.00236805  1
  Ni  Ni20  1  0.66666700  0.33333300  0.83162148  1
  Ni  Ni21  1  0.66666700  0.33333300  0.32769551  1
  Ni  Ni22  1  0.33333300  0.66666700  0.17685818  1
  Ni  Ni23  1  0.33333300  0.66666700  0.65973648  1
  Cu  Cu24  1  -0.00000000  -0.00000000  0.34701338  1
  Cu  Cu25  1  -0.00000000  -0.00000000  0.84684442  1
  Cu  Cu26  1  -0.00000000  -0.00000000  0.65043906  1
  Cu  Cu27  1  -0.00000000  -0.00000000  0.15053568  1
  Cu  Cu28  1  0.66666700  0.33333300  0.68215638  1
  Cu  Cu29  1  0.66666700  0.33333300  0.18321474  1
  Cu  Cu30  1  0.33333300  0.66666700  0.01401097  1
  Cu  Cu31  1  0.33333300  0.66666700  0.51158034  1
  Cu  Cu32  1  0.33333300  0.66666700  0.32388401  1
  C  C33  1  0.66666700  0.33333300  0.98466867  1
  C  C34  1  0.66666700  0.33333300  0.48509651  1
  C  C35  1  0.33333300  0.66666700  0.81926173  1
  C  C36  1  0.30629862  0.99623271  0.24934308  1
  C  C37  1  0.68993409  0.69370138  0.24934308  1
  C  C38  1  0.00376729  0.31006591  0.24934308  1
  C  C39  1  0.30641755  0.32029972  0.75469291  1
  C  C40  1  0.01388218  0.69358245  0.75469291  1
  C  C41  1  0.67970028  0.98611782  0.75469291  1
  C  C42  1  0.95909034  0.33266894  0.58241419  1
  C  C43  1  0.37357960  0.04090966  0.58241419  1
  C  C44  1  0.66733106  0.62642040  0.58241419  1
  C  C45  1  0.95666907  0.62501559  0.07959237  1
  C  C46  1  0.66834752  0.04333093  0.07959237  1
  C  C47  1  0.37498441  0.33165248  0.07959237  1
  C  C48  1  0.62619643  0.65693430  0.91686965  1
  C  C49  1  0.03073687  0.37380357  0.91686965  1
  C  C50  1  0.34306570  0.96926313  0.91686965  1
  C  C51  1  0.64318898  0.98830179  0.42148259  1
  C  C52  1  0.34511181  0.35681102  0.42148259  1
  C  C53  1  0.01169821  0.65488819  0.42148259  1
  C  C54  1  0.21845546  0.01060024  0.30481647  1
  C  C55  1  0.79214477  0.78154454  0.30481647  1
  C  C56  1  0.98939976  0.20785523  0.30481647  1
  C  C57  1  0.22539385  0.21202133  0.80886702  1
  C  C58  1  0.98662748  0.77460615  0.80886702  1
  C  C59  1  0.78797867  0.01337252  0.80886702  1
  C  C60  1  0.75213541  0.95111114  0.69860510  1
  C  C61  1  0.19897573  0.24786459  0.69860510  1
  C  C62  1  0.04888886  0.80102427  0.69860510  1
  C  C63  1  0.77358117  0.79270066  0.19206244  1
  C  C64  1  0.01911949  0.22641883  0.19206244  1
  C  C65  1  0.20729934  0.98088051  0.19206244  1
  C  C66  1  0.88851258  0.34880134  0.64146552  1
  C  C67  1  0.46028976  0.11148742  0.64146552  1
  C  C68  1  0.65119866  0.53971024  0.64146552  1
  C  C69  1  0.88203627  0.53320661  0.13654451  1
  C  C70  1  0.65117134  0.11796373  0.13654451  1
  C  C71  1  0.46679339  0.34882866  0.13654451  1
  C  C72  1  0.48781379  0.32654753  0.02530393  1
  C  C73  1  0.83873475  0.51218621  0.02530393  1
  C  C74  1  0.67345247  0.16126525  0.02530393  1
  C  C75  1  0.48495708  0.15665556  0.53062461  1
  C  C76  1  0.67169948  0.51504292  0.53062461  1
  C  C77  1  0.84334444  0.32830052  0.53062461  1
  C  C78  1  0.55687297  0.68446311  0.97345252  1
  C  C79  1  0.12758914  0.44312703  0.97345252  1
  C  C80  1  0.31553689  0.87241086  0.97345252  1
  C  C81  1  0.56166320  0.87911903  0.47558422  1
  C  C82  1  0.31745483  0.43833680  0.47558422  1
  C  C83  1  0.12088097  0.68254517  0.47558422  1
  C  C84  1  0.08374407  0.61881534  0.36576724  1
  C  C85  1  0.53507027  0.91625593  0.36576724  1
  C  C86  1  0.38118466  0.46492973  0.36576724  1
  C  C87  1  0.13483987  0.49394100  0.86396473  1
  C  C88  1  0.35910013  0.86516013  0.86396473  1
  C  C89  1  0.50605900  0.64089987  0.86396473  1
  C  C90  1  0.98493781  0.80473243  0.41639044  1
  C  C91  1  0.81979462  0.01506219  0.41639044  1
  C  C92  1  0.19526757  0.18020538  0.41639044  1
  C  C93  1  0.00197770  0.19742503  0.90864508  1
  C  C94  1  0.19544733  0.99802230  0.90864508  1
  C  C95  1  0.80257497  0.80455267  0.90864508  1
  C  C96  1  0.96428587  0.16893793  0.57849266  1
  C  C97  1  0.20465205  0.03571413  0.57849266  1
  C  C98  1  0.83106207  0.79534795  0.57849266  1
  C  C99  1  0.95945263  0.79115234  0.07349367  1
  C  C100  1  0.83169971  0.04054737  0.07349367  1
  C  C101  1  0.20884766  0.16830029  0.07349367  1
  C  C102  1  0.65174264  0.13574925  0.75008823  1
  C  C103  1  0.48400761  0.34825736  0.75008823  1
  C  C104  1  0.86425075  0.51599239  0.75008823  1
  C  C105  1  0.67188152  0.51901311  0.24932502  1
  C  C106  1  0.84713259  0.32811848  0.24932502  1
  C  C107  1  0.48098689  0.15286741  0.24932502  1
  C  C108  1  0.63271071  0.49063870  0.91773865  1
  C  C109  1  0.85792900  0.36728929  0.91773865  1
  C  C110  1  0.50936130  0.14207100  0.91773865  1
  C  C111  1  0.65951233  0.16490997  0.42985929  1
  C  C112  1  0.50539864  0.34048767  0.42985929  1
  C  C113  1  0.83509003  0.49460136  0.42985929  1
  C  C114  1  0.35370020  0.48373210  0.07403535  1
  C  C115  1  0.13003091  0.64629980  0.07403535  1
  C  C116  1  0.51626790  0.86996909  0.07403535  1
  C  C117  1  0.35098268  0.86532100  0.57723998  1
  C  C118  1  0.51433731  0.64901732  0.57723998  1
  C  C119  1  0.13467900  0.48566269  0.57723998  1
  C  C120  1  0.32279082  0.83872266  0.25186306  1
  C  C121  1  0.51593084  0.67720918  0.25186306  1
  C  C122  1  0.16127734  0.48406916  0.25186306  1
  C  C123  1  0.32088879  0.49639828  0.76364092  1
  C  C124  1  0.17550849  0.67911121  0.76364092  1
  C  C125  1  0.50360172  0.82449151  0.76364092  1
