# generated using pymatgen
data_Cu9Ni3C
_symmetry_space_group_name_H-M   'P 1'
_cell_length_a   9.34759771
_cell_length_b   9.34759771
_cell_length_c   5.42366900
_cell_angle_alpha   90.00000000
_cell_angle_beta   90.00000000
_cell_angle_gamma   119.99999796
_symmetry_Int_Tables_number   1
_chemical_formula_structural   Cu9Ni3C
_chemical_formula_sum   'Cu18 Ni6 C2'
_cell_volume   410.41558580
_cell_formula_units_Z   2
loop_
 _symmetry_equiv_pos_site_id
 _symmetry_equiv_pos_as_xyz
  1  'x, y, z'
loop_
 _atom_site_type_symbol
 _atom_site_label
 _atom_site_symmetry_multiplicity
 _atom_site_fract_x
 _atom_site_fract_y
 _atom_site_fract_z
 _atom_site_occupancy
  C  C0  1  0.33333300  0.66666700  0.63213900  1
  C  C1  1  0.66666700  0.33333300  0.13213900  1
  Ni  Ni2  1  0.33820900  0.31588900  0.49159500  1
  Ni  Ni3  1  0.97768000  0.66179100  0.49159500  1
  Ni  Ni4  1  0.02232000  0.33820900  0.99159500  1
  Ni  Ni5  1  0.31588900  0.97768000  0.99159500  1
  Ni  Ni6  1  0.66179100  0.68411100  0.99159500  1
  Ni  Ni7  1  0.68411100  0.02232000  0.49159500  1
  Cu  Cu8  1  0.80971100  0.28506700  0.90295800  1
  Cu  Cu9  1  0.52464400  0.80971100  0.40295800  1
  Cu  Cu10  1  0.28506700  0.47535600  0.40295800  1
  Cu  Cu11  1  0.71493300  0.52464400  0.90295800  1
  Cu  Cu12  1  0.47535600  0.19028900  0.90295800  1
  Cu  Cu13  1  0.19028900  0.71493300  0.40295800  1
  Cu  Cu14  1  0.42237900  0.87453200  0.84288800  1
  Cu  Cu15  1  0.54784700  0.42237900  0.34288800  1
  Cu  Cu16  1  0.83200600  0.05453600  0.25417800  1
  Cu  Cu17  1  0.77747000  0.83200600  0.75417800  1
  Cu  Cu18  1  0.05453600  0.22253000  0.75417800  1
  Cu  Cu19  1  0.94546400  0.77747000  0.25417800  1
  Cu  Cu20  1  0.22253000  0.16799400  0.25417800  1
  Cu  Cu21  1  0.87453200  0.45215300  0.34288800  1
  Cu  Cu22  1  0.57762100  0.12546800  0.34288800  1
  Cu  Cu23  1  0.45215300  0.57762100  0.84288800  1
  Cu  Cu24  1  0.12546800  0.54784700  0.84288800  1
  Cu  Cu25  1  0.16799400  0.94546400  0.75417800  1
