# generated using pymatgen
data_Cu7NiC3
_symmetry_space_group_name_H-M   'P 1'
_cell_length_a   7.73354438
_cell_length_b   7.73354438
_cell_length_c   14.88342100
_cell_angle_alpha   90.00000000
_cell_angle_beta   90.00000000
_cell_angle_gamma   120.00000322
_symmetry_Int_Tables_number   1
_chemical_formula_structural   Cu7NiC3
_chemical_formula_sum   'Cu14 Ni2 C6'
_cell_volume   770.88669140
_cell_formula_units_Z   2
loop_
 _symmetry_equiv_pos_site_id
 _symmetry_equiv_pos_as_xyz
  1  'x, y, z'
loop_
 _atom_site_type_symbol
 _atom_site_label
 _atom_site_symmetry_multiplicity
 _atom_site_fract_x
 _atom_site_fract_y
 _atom_site_fract_z
 _atom_site_occupancy
  C  C0  1  0.86762300  0.13237700  0.24929500  1
  C  C1  1  0.73524500  0.86762300  0.74929500  1
  C  C2  1  0.13237700  0.26475500  0.74929500  1
  C  C3  1  0.86762300  0.73524500  0.24929500  1
  C  C4  1  0.26475500  0.13237700  0.24929500  1
  C  C5  1  0.13237700  0.86762300  0.74929500  1
  Ni  Ni6  1  0.00000000  0.00000000  0.10921500  1
  Ni  Ni7  1  0.00000000  0.00000000  0.60921500  1
  Cu  Cu8  1  0.66666700  0.33333300  0.34747100  1
  Cu  Cu9  1  0.33333300  0.66666700  0.84747100  1
  Cu  Cu10  1  0.16713700  0.83286300  0.37430000  1
  Cu  Cu11  1  0.33427400  0.16713700  0.87430000  1
  Cu  Cu12  1  0.83286300  0.66572600  0.87430000  1
  Cu  Cu13  1  0.16713700  0.33427400  0.37430000  1
  Cu  Cu14  1  0.66572600  0.83286300  0.37430000  1
  Cu  Cu15  1  0.83286300  0.16713700  0.87430000  1
  Cu  Cu16  1  0.49879900  0.50120100  0.14590900  1
  Cu  Cu17  1  0.99759800  0.49879900  0.64590900  1
  Cu  Cu18  1  0.50120100  0.00240200  0.64590900  1
  Cu  Cu19  1  0.49879900  0.99759800  0.14590900  1
  Cu  Cu20  1  0.00240200  0.50120100  0.14590900  1
  Cu  Cu21  1  0.50120100  0.49879900  0.64590900  1
