# generated using pymatgen
data_Cu2Ni4C13
_symmetry_space_group_name_H-M   'P 1'
_cell_length_a   5.04432126
_cell_length_b   5.05467584
_cell_length_c   10.21846635
_cell_angle_alpha   98.04803217
_cell_angle_beta   80.30975221
_cell_angle_gamma   120.59101833
_symmetry_Int_Tables_number   1
_chemical_formula_structural   Cu2Ni4C13
_chemical_formula_sum   'Cu2 Ni4 C13'
_cell_volume   220.62842996
_cell_formula_units_Z   1
loop_
 _symmetry_equiv_pos_site_id
 _symmetry_equiv_pos_as_xyz
  1  'x, y, z'
loop_
 _atom_site_type_symbol
 _atom_site_label
 _atom_site_symmetry_multiplicity
 _atom_site_fract_x
 _atom_site_fract_y
 _atom_site_fract_z
 _atom_site_occupancy
  C  C0  1  0.89852195  0.37139024  0.24674206  1
  Ni  Ni1  1  0.17463888  0.82002615  0.50341772  1
  Ni  Ni2  1  0.31576101  0.67173643  0.99529614  1
  Ni  Ni3  1  0.84439038  0.15890061  0.50854148  1
  Ni  Ni4  1  0.65395471  0.34120399  0.99397377  1
  Cu  Cu5  1  0.51119088  0.49098128  0.50291412  1
  Cu  Cu6  1  0.98480920  0.00631193  0.99618040  1
  C  C7  1  0.63731218  0.03359166  0.09808584  1
  C  C8  1  0.34141684  0.99033497  0.90344203  1
  C  C9  1  0.84274255  0.50669111  0.60443085  1
  C  C10  1  0.55088787  0.15127346  0.40133859  1
  C  C11  1  0.86642990  0.79967442  0.40473751  1
  C  C12  1  0.67639025  0.65966630  0.90363370  1
  C  C13  1  0.95497437  0.65553936  0.10623949  1
  C  C14  1  0.01107386  0.35150808  0.89570297  1
  C  C15  1  0.48140330  0.83492485  0.59713971  1
  C  C16  1  0.15621524  0.17159210  0.59669613  1
  C  C17  1  0.27654128  0.35145037  0.09727845  1
  C  C18  1  0.17134636  0.47070270  0.39421003  1
