# generated using pymatgen
data_Cu2NiC9
_symmetry_space_group_name_H-M   'P 1'
_cell_length_a   5.82968000
_cell_length_b   5.07777900
_cell_length_c   10.02599125
_cell_angle_alpha   89.07936396
_cell_angle_beta   90.00000000
_cell_angle_gamma   90.00000000
_symmetry_Int_Tables_number   1
_chemical_formula_structural   Cu2NiC9
_chemical_formula_sum   'Cu4 Ni2 C18'
_cell_volume   296.74934312
_cell_formula_units_Z   2
loop_
 _symmetry_equiv_pos_site_id
 _symmetry_equiv_pos_as_xyz
  1  'x, y, z'
loop_
 _atom_site_type_symbol
 _atom_site_label
 _atom_site_symmetry_multiplicity
 _atom_site_fract_x
 _atom_site_fract_y
 _atom_site_fract_z
 _atom_site_occupancy
  C  C0  1  0.68774400  0.75000000  0.50000000  1
  C  C1  1  0.31225600  0.25000000  0.50000000  1
  Ni  Ni2  1  0.66080700  0.75000000  0.00000000  1
  Ni  Ni3  1  0.33919300  0.25000000  0.00000000  1
  Cu  Cu4  1  0.17626700  0.76046600  0.76444000  1
  Cu  Cu5  1  0.17626700  0.73953400  0.23556000  1
  Cu  Cu6  1  0.82373300  0.23953400  0.23556000  1
  Cu  Cu7  1  0.82373300  0.26046600  0.76444000  1
  C  C8  1  0.12481500  0.07738500  0.87488300  1
  C  C9  1  0.12481500  0.42261500  0.12511700  1
  C  C10  1  0.87518500  0.92261500  0.12511700  1
  C  C11  1  0.87518500  0.57738500  0.87488300  1
  C  C12  1  0.09059500  0.44856300  0.67097800  1
  C  C13  1  0.09059500  0.05143700  0.32902200  1
  C  C14  1  0.90940500  0.55143700  0.32902200  1
  C  C15  1  0.90940500  0.94856300  0.67097800  1
  C  C16  1  0.37511700  0.59150100  0.89247200  1
  C  C17  1  0.37511700  0.90849900  0.10752800  1
  C  C18  1  0.62488300  0.40849900  0.10752800  1
  C  C19  1  0.62488300  0.09150100  0.89247200  1
  C  C20  1  0.62328800  0.37854700  0.64592100  1
  C  C21  1  0.62328800  0.12145300  0.35407900  1
  C  C22  1  0.37671200  0.62145300  0.35407900  1
  C  C23  1  0.37671200  0.87854700  0.64592100  1
