# generated using pymatgen
data_Cu5Ni7C62
_symmetry_space_group_name_H-M   'P 1'
_cell_length_a   18.13008862
_cell_length_b   9.01946052
_cell_length_c   23.35364868
_cell_angle_alpha   89.89087901
_cell_angle_beta   90.05712405
_cell_angle_gamma   119.87881044
_symmetry_Int_Tables_number   1
_chemical_formula_structural   Cu5Ni7C62
_chemical_formula_sum   'Cu15 Ni21 C186'
_cell_volume   3311.26649908
_cell_formula_units_Z   3
loop_
 _symmetry_equiv_pos_site_id
 _symmetry_equiv_pos_as_xyz
  1  'x, y, z'
loop_
 _atom_site_type_symbol
 _atom_site_label
 _atom_site_symmetry_multiplicity
 _atom_site_fract_x
 _atom_site_fract_y
 _atom_site_fract_z
 _atom_site_occupancy
  C  C0  1  0.00042161  0.63200607  0.25234642  1
  C  C1  1  0.49783337  0.64731014  0.24545610  1
  C  C2  1  0.99902660  0.34835482  0.75275065  1
  C  C3  1  0.50001173  0.37054307  0.75436418  1
  C  C4  1  0.66477359  0.31417797  0.91782785  1
  C  C5  1  0.16585131  0.01905647  0.41449566  1
  C  C6  1  0.99906117  0.98306856  0.50306336  1
  C  C7  1  0.49368755  0.98842066  0.49379734  1
  C  C8  1  0.99394659  0.99882491  0.99590207  1
  C  C9  1  0.49785005  0.00448224  0.00740162  1
  C  C10  1  0.33475134  0.33681021  0.83248510  1
  C  C11  1  0.83327867  0.33116458  0.83584596  1
  C  C12  1  0.33230078  0.33567492  0.32897284  1
  C  C13  1  0.83396116  0.32942243  0.32756012  1
  C  C14  1  0.17690055  0.67668431  0.17181761  1
  C  C15  1  0.66905545  0.66515994  0.16113593  1
  C  C16  1  0.17681928  0.68411191  0.66670655  1
  C  C17  1  0.67432625  0.67561802  0.67382807  1
  C  C18  1  0.49608971  0.97911022  0.35324268  1
  C  C19  1  0.99635476  0.01389134  0.85526454  1
  C  C20  1  0.99906721  0.00035841  0.64537349  1
  C  C21  1  0.49764289  0.99465355  0.65308827  1
  C  C22  1  0.99871794  0.00244247  0.15293675  1
  C  C23  1  0.49734236  0.98579512  0.14161748  1
  C  C24  1  0.34343010  0.33480592  0.98289386  1
  C  C25  1  0.83860445  0.35276336  0.48039288  1
  C  C26  1  0.16632365  0.66673647  0.02037980  1
  C  C27  1  0.66384496  0.64702689  0.02057789  1
  C  C28  1  0.17019968  0.68806237  0.51754297  1
  C  C29  1  0.66586130  0.66579000  0.51984046  1
  C  C30  1  0.99889706  0.99439953  0.34766101  1
  C  C31  1  0.49831655  0.00146952  0.84920328  1
  C  C32  1  0.32471804  0.32368541  0.69121609  1
  C  C33  1  0.82478483  0.33213654  0.68799583  1
  C  C34  1  0.33210193  0.32796260  0.18403340  1
  C  C35  1  0.82460705  0.32423936  0.19058424  1
  C  C36  1  0.83349815  0.33917302  0.97951622  1
  C  C37  1  0.33396384  0.32845284  0.47855754  1
  C  C38  1  0.16873615  0.67632939  0.30978480  1
  C  C39  1  0.66575008  0.67308705  0.31083762  1
  C  C40  1  0.16780796  0.66031320  0.81313465  1
  C  C41  1  0.66844066  0.66212738  0.81179188  1
  Ni  Ni42  1  0.14826134  0.00774931  0.24964863  1
  Ni  Ni43  1  0.64132122  0.00352545  0.25091616  1
  Ni  Ni44  1  0.35456473  0.70838868  0.24837925  1
  Ni  Ni45  1  0.85230377  0.70819623  0.24890959  1
  Ni  Ni46  1  0.00035635  0.29266270  0.25025790  1
  Ni  Ni47  1  0.14126278  0.28191855  0.75073980  1
  Ni  Ni48  1  0.64442806  0.28831027  0.75035553  1
  Ni  Ni49  1  0.50069506  0.70837118  0.75025677  1
  Ni  Ni50  1  0.35217103  0.99522071  0.74928372  1
  Ni  Ni51  1  0.85508581  0.99902412  0.74818249  1
  Ni  Ni52  1  0.18649670  0.04212223  0.58292691  1
  Ni  Ni53  1  0.83280563  0.63032529  0.58341204  1
  Ni  Ni54  1  0.48205315  0.62480981  0.08380455  1
  Ni  Ni55  1  0.33196874  0.03669742  0.08363413  1
  Ni  Ni56  1  0.68688317  0.33081595  0.08314034  1
  Ni  Ni57  1  0.81371235  0.67331984  0.91755065  1
  Ni  Ni58  1  0.02153439  0.37818203  0.91735815  1
  Ni  Ni59  1  0.51870393  0.37210485  0.91495512  1
  Ni  Ni60  1  0.31562378  0.95815949  0.41578988  1
  Ni  Ni61  1  0.02017188  0.66691596  0.41523941  1
  Ni  Ni62  1  0.52210627  0.66776686  0.41727521  1
  Cu  Cu63  1  0.49992714  0.28552348  0.25066645  1
  Cu  Cu64  1  0.00048871  0.71301846  0.75000932  1
  Cu  Cu65  1  0.48043496  0.33232296  0.58325978  1
  Cu  Cu66  1  0.97921179  0.33482257  0.58283660  1
  Cu  Cu67  1  0.68675242  0.04175952  0.58137975  1
  Cu  Cu68  1  0.33393133  0.62738126  0.58273321  1
  Cu  Cu69  1  0.98058889  0.62861040  0.08334509  1
  Cu  Cu70  1  0.83519692  0.04185456  0.08274345  1
  Cu  Cu71  1  0.18584390  0.33046918  0.08106488  1
  Cu  Cu72  1  0.31067196  0.66329067  0.91850176  1
  Cu  Cu73  1  0.16680444  0.95786529  0.91704770  1
  Cu  Cu74  1  0.66594765  0.95501201  0.91790718  1
  Cu  Cu75  1  0.81092046  0.95784206  0.41885981  1
  Cu  Cu76  1  0.16552648  0.37765258  0.41849501  1
  Cu  Cu77  1  0.66729093  0.37656785  0.41785500  1
  C  C78  1  0.10426411  0.02932733  0.30896093  1
  C  C79  1  0.59997102  0.03249395  0.30841352  1
  C  C80  1  0.41560998  0.79536752  0.30573787  1
  C  C81  1  0.91332083  0.79323545  0.30552219  1
  C  C82  1  0.48948167  0.18594734  0.30323895  1
  C  C83  1  0.98419398  0.17330286  0.30709638  1
  C  C84  1  0.09832286  0.16581393  0.80697811  1
  C  C85  1  0.60382769  0.17779182  0.80869879  1
  C  C86  1  0.48430245  0.79496971  0.80634715  1
  C  C87  1  0.98706425  0.78795922  0.80164332  1
  C  C88  1  0.41324119  0.03187306  0.80510721  1
  C  C89  1  0.91687053  0.03874225  0.80464395  1
  C  C90  1  0.39766994  0.96789120  0.69255102  1
  C  C91  1  0.90145083  0.97259810  0.69258444  1
  C  C92  1  0.08142328  0.19958182  0.69429536  1
  C  C93  1  0.58379020  0.19475176  0.69421964  1
  C  C94  1  0.01262130  0.81546439  0.69775745  1
  C  C95  1  0.51361023  0.82767777  0.69310089  1
  C  C96  1  0.40046969  0.82977709  0.19380767  1
  C  C97  1  0.89829091  0.82791374  0.19279797  1
  C  C98  1  0.01351694  0.19967375  0.19376146  1
  C  C99  1  0.51300604  0.21197143  0.19911055  1
  C  C100  1  0.08380059  0.97342391  0.19500830  1
  C  C101  1  0.58147727  0.96389560  0.19538453  1
  C  C102  1  0.44495902  0.36227225  0.63536962  1
  C  C103  1  0.94093149  0.36006385  0.63500959  1
  C  C104  1  0.24894921  0.13725636  0.63710887  1
  C  C105  1  0.73888121  0.11744040  0.63387762  1
  C  C106  1  0.32387112  0.52556645  0.63458015  1
  C  C107  1  0.81932344  0.50528072  0.63815578  1
  C  C108  1  0.43759963  0.51024311  0.14162917  1
  C  C109  1  0.94506164  0.52769394  0.13554397  1
  C  C110  1  0.31415250  0.12512314  0.13881657  1
  C  C111  1  0.82562885  0.12488825  0.13459621  1
  C  C112  1  0.23759784  0.35962225  0.13341283  1
  C  C113  1  0.75024212  0.35908553  0.13705366  1
  C  C114  1  0.22709743  0.30888855  0.02992523  1
  C  C115  1  0.73262432  0.30622088  0.02529913  1
  C  C116  1  0.41897125  0.52728807  0.02848124  1
  C  C117  1  0.92712534  0.54348526  0.03240056  1
  C  C118  1  0.34184463  0.15445483  0.02691363  1
  C  C119  1  0.84832383  0.14946546  0.03155121  1
  C  C120  1  0.23162159  0.15580489  0.52504253  1
  C  C121  1  0.73020546  0.14738068  0.53081211  1
  C  C122  1  0.34678508  0.54704854  0.53150427  1
  C  C123  1  0.84409878  0.52933104  0.52767740  1
  C  C124  1  0.42698234  0.31080769  0.53239304  1
  C  C125  1  0.92345723  0.31006695  0.53200677  1
  C  C126  1  0.26863658  0.68868348  0.96913582  1
  C  C127  1  0.76851241  0.70082442  0.97313828  1
  C  C128  1  0.08311033  0.47925912  0.97161398  1
  C  C129  1  0.58178018  0.46688896  0.96971131  1
  C  C130  1  0.15696844  0.85034386  0.96837634  1
  C  C131  1  0.65619745  0.85392957  0.96944527  1
  C  C132  1  0.26951228  0.84060898  0.47330915  1
  C  C133  1  0.76854051  0.84766579  0.46981378  1
  C  C134  1  0.15599906  0.45961378  0.47064917  1
  C  C135  1  0.65834313  0.46481885  0.46936002  1
  C  C136  1  0.08204472  0.69225473  0.47101033  1
  C  C137  1  0.58313368  0.68819191  0.47247221  1
  C  C138  1  0.06083294  0.63826305  0.35789297  1
  C  C139  1  0.56602547  0.63749704  0.36051009  1
  C  C140  1  0.25098929  0.87065363  0.36255043  1
  C  C141  1  0.75969083  0.87852765  0.36673893  1
  C  C142  1  0.17788359  0.47824531  0.36686580  1
  C  C143  1  0.68389322  0.48326803  0.36664118  1
  C  C144  1  0.06481287  0.49231314  0.85889390  1
  C  C145  1  0.56152386  0.48318989  0.85684298  1
  C  C146  1  0.18110689  0.87860161  0.86561348  1
  C  C147  1  0.67843326  0.87894923  0.86551219  1
  C  C148  1  0.25948560  0.64423943  0.86605321  1
  C  C149  1  0.75193727  0.63318909  0.86181370  1
  C  C150  1  0.01445416  0.84368996  0.41388522  1
  C  C151  1  0.51561977  0.84152823  0.41302209  1
  C  C152  1  0.41122980  0.99044702  0.40998340  1
  C  C153  1  0.89624992  0.97638233  0.41443463  1
  C  C154  1  0.09023751  0.20255009  0.41468926  1
  C  C155  1  0.59023885  0.20911556  0.41329737  1
  C  C156  1  0.01549276  0.19111252  0.91265501  1
  C  C157  1  0.51399097  0.18433191  0.91178736  1
  C  C158  1  0.08822518  0.96703125  0.91145899  1
  C  C159  1  0.59090292  0.97934936  0.91294598  1
  C  C160  1  0.39589666  0.81541212  0.91342158  1
  C  C161  1  0.91034820  0.83138047  0.90886040  1
  C  C162  1  0.49037233  0.17883560  0.58713315  1
  C  C163  1  0.98547799  0.17708970  0.58679743  1
  C  C164  1  0.09270875  0.02217164  0.59088784  1
  C  C165  1  0.60162082  0.02457585  0.58699264  1
  C  C166  1  0.41030514  0.80185064  0.58758306  1
  C  C167  1  0.91727726  0.81601469  0.58912286  1
  C  C168  1  0.48757815  0.81015037  0.08700632  1
  C  C169  1  0.99033959  0.80184088  0.08712540  1
  C  C170  1  0.41665488  0.02295651  0.08965087  1
  C  C171  1  0.91249798  0.02301681  0.08780671  1
  C  C172  1  0.10007737  0.17814087  0.08727684  1
  C  C173  1  0.59352588  0.16691687  0.09103551  1
  C  C174  1  0.35021379  0.17369056  0.74244732  1
  C  C175  1  0.85395745  0.18123055  0.73935461  1
  C  C176  1  0.23767212  0.31537277  0.74458923  1
  C  C177  1  0.73943868  0.30877734  0.74393600  1
  C  C178  1  0.41869582  0.51762231  0.74016519  1
  C  C179  1  0.92605544  0.53556655  0.74271138  1
  C  C180  1  0.35129070  0.52304376  0.24324175  1
  C  C181  1  0.85056402  0.52620547  0.24261231  1
  C  C182  1  0.42513129  0.31240354  0.24637177  1
  C  C183  1  0.91881500  0.32016337  0.24124757  1
  C  C184  1  0.24161663  0.17375420  0.24419277  1
  C  C185  1  0.73842771  0.16203850  0.24578698  1
  C  C186  1  0.31535384  0.50539612  0.92406159  1
  C  C187  1  0.81774626  0.49270023  0.92415508  1
  C  C188  1  0.42347832  0.35164318  0.92196539  1
  C  C189  1  0.92656140  0.35282194  0.92493121  1
  C  C190  1  0.24135517  0.13075325  0.92396468  1
  C  C191  1  0.74286897  0.13128837  0.92242787  1
  C  C192  1  0.31820879  0.14406801  0.42428709  1
  C  C193  1  0.81739897  0.12707279  0.42679647  1
  C  C194  1  0.24234048  0.35527987  0.42393769  1
  C  C195  1  0.74305056  0.35273250  0.42656149  1
  C  C196  1  0.42716377  0.50238495  0.42658936  1
  C  C197  1  0.92492159  0.49534089  0.42522190  1
  C  C198  1  0.17682175  0.48661660  0.07460814  1
  C  C199  1  0.68177787  0.50671654  0.07775491  1
  C  C200  1  0.06699183  0.64748603  0.07452261  1
  C  C201  1  0.57677198  0.65033941  0.07494066  1
  C  C202  1  0.24666801  0.84656419  0.07344605  1
  C  C203  1  0.75808439  0.87311828  0.07696127  1
  C  C204  1  0.17706546  0.84944276  0.57745895  1
  C  C205  1  0.67816429  0.86834903  0.57530383  1
  C  C206  1  0.25559891  0.64061161  0.57682221  1
  C  C207  1  0.74713818  0.64565282  0.57377990  1
  C  C208  1  0.06487712  0.48407667  0.57479472  1
  C  C209  1  0.56725204  0.48662116  0.57443281  1
  C  C210  1  0.15010438  0.82844987  0.25369351  1
  C  C211  1  0.64880962  0.82622589  0.25859496  1
  C  C212  1  0.26046666  0.68329061  0.25750575  1
  C  C213  1  0.75812646  0.68387920  0.25858580  1
  C  C214  1  0.08331068  0.48157457  0.25589718  1
  C  C215  1  0.57671973  0.46346559  0.25719231  1
  C  C216  1  0.14791993  0.47285540  0.75758901  1
  C  C217  1  0.65039535  0.47389027  0.75330027  1
  C  C218  1  0.07675730  0.69102111  0.75522771  1
  C  C219  1  0.58359395  0.68500609  0.75517872  1
  C  C220  1  0.25717778  0.83132805  0.75723557  1
  C  C221  1  0.76075727  0.83898236  0.75625092  1
