# generated using pymatgen
data_Cu4Ni6C7
_symmetry_space_group_name_H-M   'P 1'
_cell_length_a   5.74111347
_cell_length_b   7.11195115
_cell_length_c   8.56930191
_cell_angle_alpha   89.88857965
_cell_angle_beta   101.95064819
_cell_angle_gamma   95.51447155
_symmetry_Int_Tables_number   1
_chemical_formula_structural   Cu4Ni6C7
_chemical_formula_sum   'Cu4 Ni6 C7'
_cell_volume   340.66353802
_cell_formula_units_Z   1
loop_
 _symmetry_equiv_pos_site_id
 _symmetry_equiv_pos_as_xyz
  1  'x, y, z'
loop_
 _atom_site_type_symbol
 _atom_site_label
 _atom_site_symmetry_multiplicity
 _atom_site_fract_x
 _atom_site_fract_y
 _atom_site_fract_z
 _atom_site_occupancy
  C  C0  1  0.70648160  0.40912695  0.01516498  1
  C  C1  1  0.76143251  0.85544236  0.01119816  1
  C  C2  1  0.20139501  0.11637517  0.98297241  1
  C  C3  1  0.77069694  0.63765254  0.33251696  1
  C  C4  1  0.82029317  0.13694356  0.66878440  1
  C  C5  1  0.27662884  0.36833822  0.69744626  1
  C  C6  1  0.19334232  0.88465130  0.31361870  1
  Ni  Ni7  1  0.01855691  0.28060966  0.61039732  1
  Ni  Ni8  1  0.07824765  0.92457478  0.13187122  1
  Ni  Ni9  1  0.03104142  0.74381299  0.40079587  1
  Ni  Ni10  1  0.68156819  0.67624119  0.14703727  1
  Ni  Ni11  1  0.37018644  0.30045709  0.87211491  1
  Ni  Ni12  1  0.91669960  0.08242972  0.85197566  1
  Cu  Cu13  1  0.37384502  0.87932893  0.84016859  1
  Cu  Cu14  1  0.12463138  0.37161696  0.14782391  1
  Cu  Cu15  1  0.62151589  0.11200260  0.16970255  1
  Cu  Cu16  1  0.82427010  0.62872899  0.82203585  1
