# generated using pymatgen
data_Cu3Ni9C62
_symmetry_space_group_name_H-M   'P 1'
_cell_length_a   17.85869489
_cell_length_b   8.92116532
_cell_length_c   22.87206843
_cell_angle_alpha   90.05427992
_cell_angle_beta   89.77105314
_cell_angle_gamma   120.02720983
_symmetry_Int_Tables_number   1
_chemical_formula_structural   Cu3Ni9C62
_chemical_formula_sum   'Cu9 Ni27 C186'
_cell_volume   3154.89164679
_cell_formula_units_Z   3
loop_
 _symmetry_equiv_pos_site_id
 _symmetry_equiv_pos_as_xyz
  1  'x, y, z'
loop_
 _atom_site_type_symbol
 _atom_site_label
 _atom_site_symmetry_multiplicity
 _atom_site_fract_x
 _atom_site_fract_y
 _atom_site_fract_z
 _atom_site_occupancy
  C  C0  1  0.31750906  0.01736308  0.24409698  1
  C  C1  1  0.81660468  0.01174613  0.24989347  1
  C  C2  1  0.99361495  0.62233366  0.24442667  1
  C  C3  1  0.31715565  0.62188691  0.75130801  1
  C  C4  1  0.81697519  0.61849231  0.74718178  1
  C  C5  1  0.49348471  0.36508795  0.74586451  1
  C  C6  1  0.99617640  0.99598990  0.49583738  1
  C  C7  1  0.50053149  0.00254968  0.49840553  1
  C  C8  1  0.00059962  0.99899592  0.99988194  1
  C  C9  1  0.49549536  0.99212815  0.99851566  1
  C  C10  1  0.32851888  0.32573936  0.82964094  1
  C  C11  1  0.83288565  0.33162105  0.82838123  1
  C  C12  1  0.33403921  0.33555127  0.32506358  1
  C  C13  1  0.82872563  0.33059132  0.32530257  1
  C  C14  1  0.16562697  0.66573965  0.16186388  1
  C  C15  1  0.65901036  0.65756908  0.16876988  1
  C  C16  1  0.16376690  0.66641304  0.67224113  1
  C  C17  1  0.66381442  0.66354020  0.66354464  1
  C  C18  1  0.99886940  0.00004544  0.35453573  1
  C  C19  1  0.50634564  0.01251248  0.35604282  1
  C  C20  1  0.00718811  0.99956321  0.85805660  1
  C  C21  1  0.49846883  0.99663584  0.85560912  1
  C  C22  1  0.00221530  0.99248585  0.64808092  1
  C  C23  1  0.50055870  0.01155651  0.65028464  1
  C  C24  1  0.00143609  0.99105687  0.14937392  1
  C  C25  1  0.50242570  0.00320467  0.14367811  1
  C  C26  1  0.33973694  0.33892263  0.97813349  1
  C  C27  1  0.83912989  0.34808396  0.97476568  1
  C  C28  1  0.34006547  0.33240984  0.47426159  1
  C  C29  1  0.83310887  0.34201912  0.47496133  1
  C  C30  1  0.16687075  0.67476790  0.01950141  1
  C  C31  1  0.66203304  0.66745448  0.01748127  1
  C  C32  1  0.16675520  0.66442865  0.51536984  1
  C  C33  1  0.66617061  0.65869868  0.51935211  1
  C  C34  1  0.16335499  0.66114574  0.31385378  1
  C  C35  1  0.66371468  0.66511274  0.31091272  1
  C  C36  1  0.16476961  0.66410045  0.81302062  1
  C  C37  1  0.66251534  0.66432112  0.81547744  1
  C  C38  1  0.33733658  0.33047820  0.69111274  1
  C  C39  1  0.83164317  0.34894195  0.68653598  1
  C  C40  1  0.34080435  0.32387397  0.18333771  1
  C  C41  1  0.83624017  0.34340919  0.19009204  1
  Ni  Ni42  1  0.14889194  0.01059428  0.25195108  1
  Ni  Ni43  1  0.64516662  0.00358716  0.24858490  1
  Ni  Ni44  1  0.85326593  0.70736729  0.25143908  1
  Ni  Ni45  1  0.00211099  0.28779723  0.24911455  1
  Ni  Ni46  1  0.49985062  0.29072320  0.25011135  1
  Ni  Ni47  1  0.14510260  0.28851977  0.74914266  1
  Ni  Ni48  1  0.64761388  0.28812292  0.75271323  1
  Ni  Ni49  1  0.00046965  0.70474455  0.75244078  1
  Ni  Ni50  1  0.50290021  0.71684815  0.74917842  1
  Ni  Ni51  1  0.35283754  0.99892326  0.75216759  1
  Ni  Ni52  1  0.47732050  0.33286570  0.58591480  1
  Ni  Ni53  1  0.83338957  0.62529483  0.58471192  1
  Ni  Ni54  1  0.47713987  0.62042035  0.08595409  1
  Ni  Ni55  1  0.97747150  0.62090376  0.08601097  1
  Ni  Ni56  1  0.33257693  0.04344361  0.08515936  1
  Ni  Ni57  1  0.30942544  0.66383454  0.91669266  1
  Ni  Ni58  1  0.81009494  0.67172211  0.91637053  1
  Ni  Ni59  1  0.02542929  0.37906673  0.91733583  1
  Ni  Ni60  1  0.52138884  0.37282848  0.91721608  1
  Ni  Ni61  1  0.17106279  0.95816099  0.91654194  1
  Ni  Ni62  1  0.66726440  0.96036005  0.91651926  1
  Ni  Ni63  1  0.31176557  0.95187784  0.41470119  1
  Ni  Ni64  1  0.80980303  0.95243377  0.41669309  1
  Ni  Ni65  1  0.16696705  0.37341819  0.41621133  1
  Ni  Ni66  1  0.66691717  0.38319339  0.41531123  1
  Ni  Ni67  1  0.02251822  0.67039829  0.41682492  1
  Ni  Ni68  1  0.52624146  0.67416074  0.41695742  1
  Cu  Cu69  1  0.35723907  0.71163918  0.25078275  1
  Cu  Cu70  1  0.85750119  0.00360281  0.75032969  1
  Cu  Cu71  1  0.97864828  0.33394651  0.58346406  1
  Cu  Cu72  1  0.18907924  0.04305514  0.58344650  1
  Cu  Cu73  1  0.68946748  0.04463017  0.58373544  1
  Cu  Cu74  1  0.33259481  0.62318572  0.58294337  1
  Cu  Cu75  1  0.83343379  0.04303143  0.08293730  1
  Cu  Cu76  1  0.18834612  0.33356381  0.08358649  1
  Cu  Cu77  1  0.69021402  0.33637456  0.08295039  1
  C  C78  1  0.09477113  0.02031467  0.30803519  1
  C  C79  1  0.59383475  0.02058186  0.30637843  1
  C  C80  1  0.40953344  0.79686880  0.30373537  1
  C  C81  1  0.91743381  0.80943968  0.30683050  1
  C  C82  1  0.48691719  0.16081537  0.30647718  1
  C  C83  1  0.98898813  0.16643898  0.30646499  1
  C  C84  1  0.09243316  0.16415155  0.80526864  1
  C  C85  1  0.59475252  0.16911421  0.80792195  1
  C  C86  1  0.48888624  0.81168079  0.80581202  1
  C  C87  1  0.98403602  0.80895465  0.80564023  1
  C  C88  1  0.41779530  0.02600723  0.80642739  1
  C  C89  1  0.90919950  0.02505606  0.80263815  1
  C  C90  1  0.40128936  0.96384776  0.69358486  1
  C  C91  1  0.89817476  0.96911407  0.69643170  1
  C  C92  1  0.08013051  0.19209955  0.69168883  1
  C  C93  1  0.58185136  0.20208745  0.69435504  1
  C  C94  1  0.01316789  0.83407542  0.69381346  1
  C  C95  1  0.51758561  0.83978221  0.69074671  1
  C  C96  1  0.39593359  0.82498668  0.19758159  1
  C  C97  1  0.90159621  0.83962722  0.19373812  1
  C  C98  1  0.01750108  0.19564305  0.19129277  1
  C  C99  1  0.51300361  0.18875011  0.19356973  1
  C  C100  1  0.08136750  0.96130770  0.19467313  1
  C  C101  1  0.58090256  0.96927648  0.19253449  1
  C  C102  1  0.43850822  0.36652988  0.64374776  1
  C  C103  1  0.94188021  0.36215629  0.63647900  1
  C  C104  1  0.23836015  0.11418479  0.63588775  1
  C  C105  1  0.74120469  0.11848705  0.63629963  1
  C  C106  1  0.31562169  0.52297894  0.63665976  1
  C  C107  1  0.81577124  0.51798754  0.64351246  1
  C  C108  1  0.43864926  0.51059559  0.14326965  1
  C  C109  1  0.93884632  0.51121558  0.14429778  1
  C  C110  1  0.30985417  0.10307899  0.14497317  1
  C  C111  1  0.81722204  0.11075549  0.13693791  1
  C  C112  1  0.23830091  0.36185216  0.13670732  1
  C  C113  1  0.73981100  0.36233714  0.13600512  1
  C  C114  1  0.22798305  0.30531855  0.03055430  1
  C  C115  1  0.72899539  0.30572065  0.02993864  1
  C  C116  1  0.41856492  0.53175511  0.02625730  1
  C  C117  1  0.91451477  0.52336271  0.02792119  1
  C  C118  1  0.34647928  0.16741076  0.02729793  1
  C  C119  1  0.84420740  0.15167588  0.03082567  1
  C  C120  1  0.22696350  0.14839680  0.52995245  1
  C  C121  1  0.73167964  0.15406843  0.53080377  1
  C  C122  1  0.34282729  0.53632887  0.53063469  1
  C  C123  1  0.84776489  0.52581131  0.52761448  1
  C  C124  1  0.41432884  0.30579279  0.52785629  1
  C  C125  1  0.92613976  0.30857817  0.53043171  1
  C  C126  1  0.26245177  0.69394190  0.97285178  1
  C  C127  1  0.76371500  0.69489411  0.97407222  1
  C  C128  1  0.08342175  0.46673400  0.97451865  1
  C  C129  1  0.58386731  0.47203205  0.97303244  1
  C  C130  1  0.15077320  0.83359591  0.97344412  1
  C  C131  1  0.65286560  0.83391447  0.97293957  1
  C  C132  1  0.26281542  0.83261436  0.47319099  1
  C  C133  1  0.76261963  0.83125677  0.47362448  1
  C  C134  1  0.15337722  0.47355246  0.47363571  1
  C  C135  1  0.65138879  0.46733830  0.47401756  1
  C  C136  1  0.08367761  0.69259828  0.47385511  1
  C  C137  1  0.58362009  0.69883546  0.47468068  1
  C  C138  1  0.06703076  0.63449328  0.35940201  1
  C  C139  1  0.56735877  0.63269485  0.36000018  1
  C  C140  1  0.25092325  0.86490224  0.35768509  1
  C  C141  1  0.75126122  0.86956946  0.35803136  1
  C  C142  1  0.18346240  0.50300077  0.36072595  1
  C  C143  1  0.68420343  0.50298926  0.35865140  1
  C  C144  1  0.06661585  0.50050286  0.85941704  1
  C  C145  1  0.56684988  0.49797561  0.85889414  1
  C  C146  1  0.18245210  0.86391983  0.85881848  1
  C  C147  1  0.68354778  0.86482234  0.85984041  1
  C  C148  1  0.25113613  0.63608532  0.85743674  1
  C  C149  1  0.75139505  0.63800945  0.85709379  1
  C  C150  1  0.01265437  0.83826223  0.41170633  1
  C  C151  1  0.50912396  0.83461921  0.40792699  1
  C  C152  1  0.40603603  0.97225825  0.40926981  1
  C  C153  1  0.90603109  0.97595528  0.40979969  1
  C  C154  1  0.08098414  0.18754408  0.41076686  1
  C  C155  1  0.58241612  0.18892130  0.41021893  1
  C  C156  1  0.00915826  0.18424902  0.90677488  1
  C  C157  1  0.51311564  0.18636112  0.91055186  1
  C  C158  1  0.08271087  0.97394719  0.90970083  1
  C  C159  1  0.58148758  0.97468303  0.90945049  1
  C  C160  1  0.40516916  0.83523418  0.90883223  1
  C  C161  1  0.90567838  0.83856663  0.90742753  1
  C  C162  1  0.48841451  0.15635006  0.58882379  1
  C  C163  1  0.98991022  0.17832931  0.58836118  1
  C  C164  1  0.09878997  0.02267539  0.58856066  1
  C  C165  1  0.60126349  0.02713435  0.58805121  1
  C  C166  1  0.41126516  0.79883225  0.58643363  1
  C  C167  1  0.92106572  0.82447174  0.59102159  1
  C  C168  1  0.49158854  0.81964331  0.09072532  1
  C  C169  1  0.98810202  0.81933259  0.08906743  1
  C  C170  1  0.42048049  0.02325062  0.09153716  1
  C  C171  1  0.91302771  0.02700331  0.08686286  1
  C  C172  1  0.09869960  0.17371341  0.08858989  1
  C  C173  1  0.60072057  0.17765743  0.08762106  1
  C  C174  1  0.34888928  0.17132903  0.74766407  1
  C  C175  1  0.84685712  0.15208256  0.74167703  1
  C  C176  1  0.24019144  0.31754050  0.74225515  1
  C  C177  1  0.74135737  0.31023948  0.74823669  1
  C  C178  1  0.41801303  0.52958893  0.74703767  1
  C  C179  1  0.91491662  0.52117650  0.74670966  1
  C  C180  1  0.34455561  0.54089118  0.24502745  1
  C  C181  1  0.84919549  0.52653045  0.24809563  1
  C  C182  1  0.41407988  0.30295978  0.25052528  1
  C  C183  1  0.91778533  0.30696001  0.24781253  1
  C  C184  1  0.24223861  0.17463035  0.24728474  1
  C  C185  1  0.74133280  0.16355059  0.24357534  1
  C  C186  1  0.31867447  0.49258164  0.92611822  1
  C  C187  1  0.81889663  0.49675485  0.92522517  1
  C  C188  1  0.42800316  0.36093966  0.92340791  1
  C  C189  1  0.92762459  0.35596972  0.92650764  1
  C  C190  1  0.25199785  0.15026799  0.92625816  1
  C  C191  1  0.75296625  0.14695809  0.92903003  1
  C  C192  1  0.31829367  0.14055782  0.42595146  1
  C  C193  1  0.82133043  0.14535746  0.43048784  1
  C  C194  1  0.25261123  0.35948999  0.43023107  1
  C  C195  1  0.75051893  0.35474226  0.42629725  1
  C  C196  1  0.42826765  0.50003629  0.42685151  1
  C  C197  1  0.92907638  0.49383050  0.42644870  1
  C  C198  1  0.17628771  0.48690545  0.07519581  1
  C  C199  1  0.67840959  0.49002673  0.07476280  1
  C  C200  1  0.07380584  0.64536419  0.07392308  1
  C  C201  1  0.57659655  0.64778238  0.07385101  1
  C  C202  1  0.25052011  0.84538398  0.07299047  1
  C  C203  1  0.75629937  0.86372107  0.07440606  1
  C  C204  1  0.17543888  0.86227498  0.57494203  1
  C  C205  1  0.67785457  0.86816185  0.57547757  1
  C  C206  1  0.25404624  0.64726205  0.57423233  1
  C  C207  1  0.75073716  0.65504050  0.57357887  1
  C  C208  1  0.06849317  0.49221770  0.57516120  1
  C  C209  1  0.57398412  0.50210610  0.57389935  1
  C  C210  1  0.15348628  0.82648873  0.25840818  1
  C  C211  1  0.65282698  0.82756427  0.25739551  1
  C  C212  1  0.27035768  0.70602536  0.25682505  1
  C  C213  1  0.76228471  0.70751581  0.25630126  1
  C  C214  1  0.08957272  0.48263455  0.25708182  1
  C  C215  1  0.58907800  0.47696435  0.25742141  1
  C  C216  1  0.15232838  0.47874388  0.75650633  1
  C  C217  1  0.65442348  0.48260263  0.75734897  1
  C  C218  1  0.08985212  0.70093215  0.75606776  1
  C  C219  1  0.58994622  0.69595246  0.75651688  1
  C  C220  1  0.26179590  0.81632704  0.75564884  1
  C  C221  1  0.77120981  0.83755790  0.75469532  1
