# generated using pymatgen
data_CuNiC18
_symmetry_space_group_name_H-M   'P 1'
_cell_length_a   15.79765710
_cell_length_b   9.10113839
_cell_length_c   9.11127237
_cell_angle_alpha   90.00000000
_cell_angle_beta   124.53478944
_cell_angle_gamma   90.00000000
_symmetry_Int_Tables_number   1
_chemical_formula_structural   CuNiC18
_chemical_formula_sum   'Cu4 Ni4 C72'
_cell_volume   1079.14497356
_cell_formula_units_Z   4
loop_
 _symmetry_equiv_pos_site_id
 _symmetry_equiv_pos_as_xyz
  1  'x, y, z'
loop_
 _atom_site_type_symbol
 _atom_site_label
 _atom_site_symmetry_multiplicity
 _atom_site_fract_x
 _atom_site_fract_y
 _atom_site_fract_z
 _atom_site_occupancy
  C  C0  1  0.24979502  0.72773291  0.99372578  1
  C  C1  1  0.74979502  0.77226709  0.49372578  1
  C  C2  1  0.74979502  0.22773291  0.99372578  1
  C  C3  1  0.24979502  0.27226709  0.49372578  1
  C  C4  1  0.50635361  0.08483863  0.76062766  1
  C  C5  1  0.50635361  0.91516137  0.26062766  1
  C  C6  1  0.00635361  0.58483863  0.76062766  1
  C  C7  1  0.00635361  0.41516137  0.26062766  1
  C  C8  1  0.18084137  0.91994588  0.29585180  1
  C  C9  1  0.18084137  0.08005412  0.79585180  1
  C  C10  1  0.68084137  0.41994588  0.29585180  1
  C  C11  1  0.68084137  0.58005412  0.79585180  1
  C  C12  1  0.89645281  0.75608206  0.93837850  1
  C  C13  1  0.89645281  0.24391794  0.43837850  1
  C  C14  1  0.39645281  0.25608206  0.93837850  1
  C  C15  1  0.39645281  0.74391794  0.43837850  1
  Ni  Ni16  1  0.10238667  0.74644748  0.55833695  1
  Ni  Ni17  1  0.10238667  0.25355252  0.05833695  1
  Ni  Ni18  1  0.60238667  0.24644748  0.55833695  1
  Ni  Ni19  1  0.60238667  0.75355252  0.05833695  1
  Cu  Cu20  1  0.64745008  0.89674797  0.74304264  1
  Cu  Cu21  1  0.64745008  0.10325203  0.24304264  1
  Cu  Cu22  1  0.14745008  0.39674797  0.74304264  1
  Cu  Cu23  1  0.14745008  0.60325203  0.24304264  1
  C  C24  1  0.99914972  0.95566814  0.75352686  1
  C  C25  1  0.99914972  0.04433186  0.25352686  1
  C  C26  1  0.49914972  0.45566814  0.75352686  1
  C  C27  1  0.49914972  0.54433186  0.25352686  1
  C  C28  1  0.35102610  0.89928825  0.75374241  1
  C  C29  1  0.35102610  0.10071175  0.25374241  1
  C  C30  1  0.85102610  0.39928825  0.75374241  1
  C  C31  1  0.85102610  0.60071175  0.25374241  1
  C  C32  1  0.15088543  0.57537354  0.74603801  1
  C  C33  1  0.85112122  0.57197119  0.75788399  1
  C  C34  1  0.85112122  0.42802881  0.25788399  1
  C  C35  1  0.15088543  0.42462646  0.24603801  1
  C  C36  1  0.65088543  0.07537354  0.74603801  1
  C  C37  1  0.35112122  0.07197119  0.75788399  1
  C  C38  1  0.35112122  0.92802881  0.25788399  1
  C  C39  1  0.65088543  0.92462646  0.24603801  1
  C  C40  1  0.43878952  0.56055226  0.59078106  1
  C  C41  1  0.56521506  0.54389401  0.92556327  1
  C  C42  1  0.56521506  0.45610599  0.42556327  1
  C  C43  1  0.43878952  0.43944774  0.09078106  1
  C  C44  1  0.93878952  0.06055226  0.59078106  1
  C  C45  1  0.06521506  0.04389401  0.92556327  1
  C  C46  1  0.06521506  0.95610599  0.42556327  1
  C  C47  1  0.93878952  0.93944774  0.09078106  1
  C  C48  1  0.25566510  0.84781798  0.74522991  1
  C  C49  1  0.74438820  0.81342062  0.75621974  1
  C  C50  1  0.74438820  0.18657938  0.25621974  1
  C  C51  1  0.25566510  0.15218202  0.24522991  1
  C  C52  1  0.75566510  0.34781798  0.74522991  1
  C  C53  1  0.24438820  0.31342062  0.75621974  1
  C  C54  1  0.24438820  0.68657938  0.25621974  1
  C  C55  1  0.75566510  0.65218202  0.24522991  1
  C  C56  1  0.35058333  0.85940500  0.58542260  1
  C  C57  1  0.64669314  0.84988268  0.91234762  1
  C  C58  1  0.64669314  0.15011732  0.41234762  1
  C  C59  1  0.35058333  0.14059500  0.08542260  1
  C  C60  1  0.85058333  0.35940500  0.58542260  1
  C  C61  1  0.14669314  0.34988268  0.91234762  1
  C  C62  1  0.14669314  0.65011732  0.41234762  1
  C  C63  1  0.85058333  0.64059500  0.08542260  1
  C  C64  1  0.44774090  0.84048130  0.92359884  1
  C  C65  1  0.53917630  0.83240316  0.56274076  1
  C  C66  1  0.53917630  0.16759684  0.06274076  1
  C  C67  1  0.44774090  0.15951870  0.42359884  1
  C  C68  1  0.94774090  0.34048130  0.92359884  1
  C  C69  1  0.03917630  0.33240316  0.56274076  1
  C  C70  1  0.03917630  0.66759684  0.06274076  1
  C  C71  1  0.94774090  0.65951870  0.42359884  1
  C  C72  1  0.07564428  0.85936863  0.74146480  1
  C  C73  1  0.92064212  0.85446177  0.75547680  1
  C  C74  1  0.92064212  0.14553823  0.25547680  1
  C  C75  1  0.07564428  0.14063137  0.24146480  1
  C  C76  1  0.57564428  0.35936863  0.74146480  1
  C  C77  1  0.42064212  0.35446177  0.75547680  1
  C  C78  1  0.42064212  0.64553823  0.25547680  1
  C  C79  1  0.57564428  0.64063137  0.24146480  1
