# generated using pymatgen
data_Cu4Ni
_symmetry_space_group_name_H-M   'P 1'
_cell_length_a   13.35761600
_cell_length_b   13.35761600
_cell_length_c   13.35761600
_cell_angle_alpha   90.00000000
_cell_angle_beta   90.00000000
_cell_angle_gamma   90.00000000
_symmetry_Int_Tables_number   1
_chemical_formula_structural   Cu4Ni
_chemical_formula_sum   'Cu32 Ni8'
_cell_volume   2383.34472616
_cell_formula_units_Z   8
loop_
 _symmetry_equiv_pos_site_id
 _symmetry_equiv_pos_as_xyz
  1  'x, y, z'
loop_
 _atom_site_type_symbol
 _atom_site_label
 _atom_site_symmetry_multiplicity
 _atom_site_fract_x
 _atom_site_fract_y
 _atom_site_fract_z
 _atom_site_occupancy
  Ni  Ni0  1  0.13011700  0.13011700  0.13011700  1
  Ni  Ni1  1  0.36988300  0.86988300  0.63011700  1
  Ni  Ni2  1  0.63011700  0.36988300  0.86988300  1
  Ni  Ni3  1  0.86988300  0.63011700  0.36988300  1
  Ni  Ni4  1  0.86988300  0.86988300  0.86988300  1
  Ni  Ni5  1  0.63011700  0.13011700  0.36988300  1
  Ni  Ni6  1  0.36988300  0.63011700  0.13011700  1
  Ni  Ni7  1  0.13011700  0.36988300  0.63011700  1
  Cu  Cu8  1  0.24694900  0.24694900  0.24694900  1
  Cu  Cu9  1  0.25305100  0.75305100  0.74694900  1
  Cu  Cu10  1  0.74694900  0.25305100  0.75305100  1
  Cu  Cu11  1  0.75305100  0.74694900  0.25305100  1
  Cu  Cu12  1  0.75305100  0.75305100  0.75305100  1
  Cu  Cu13  1  0.74694900  0.24694900  0.25305100  1
  Cu  Cu14  1  0.25305100  0.74694900  0.24694900  1
  Cu  Cu15  1  0.24694900  0.25305100  0.74694900  1
  Cu  Cu16  1  0.01943200  0.00767500  0.24806300  1
  Cu  Cu17  1  0.24806300  0.01943200  0.00767500  1
  Cu  Cu18  1  0.00767500  0.24806300  0.01943200  1
  Cu  Cu19  1  0.49232500  0.75193700  0.51943200  1
  Cu  Cu20  1  0.74806300  0.48056800  0.99232500  1
  Cu  Cu21  1  0.99232500  0.74806300  0.48056800  1
  Cu  Cu22  1  0.25193700  0.98056800  0.50767500  1
  Cu  Cu23  1  0.75193700  0.51943200  0.49232500  1
  Cu  Cu24  1  0.50767500  0.25193700  0.98056800  1
  Cu  Cu25  1  0.51943200  0.49232500  0.75193700  1
  Cu  Cu26  1  0.98056800  0.50767500  0.25193700  1
  Cu  Cu27  1  0.48056800  0.99232500  0.74806300  1
  Cu  Cu28  1  0.98056800  0.99232500  0.75193700  1
  Cu  Cu29  1  0.75193700  0.98056800  0.99232500  1
  Cu  Cu30  1  0.99232500  0.75193700  0.98056800  1
  Cu  Cu31  1  0.50767500  0.24806300  0.48056800  1
  Cu  Cu32  1  0.25193700  0.51943200  0.00767500  1
  Cu  Cu33  1  0.00767500  0.25193700  0.51943200  1
  Cu  Cu34  1  0.74806300  0.01943200  0.49232500  1
  Cu  Cu35  1  0.24806300  0.48056800  0.50767500  1
  Cu  Cu36  1  0.49232500  0.74806300  0.01943200  1
  Cu  Cu37  1  0.48056800  0.50767500  0.24806300  1
  Cu  Cu38  1  0.01943200  0.49232500  0.74806300  1
  Cu  Cu39  1  0.51943200  0.00767500  0.25193700  1
