# generated using pymatgen
data_Cu2Ni2C15
_symmetry_space_group_name_H-M   'P 1'
_cell_length_a   7.59967800
_cell_length_b   7.80003000
_cell_length_c   7.89930400
_cell_angle_alpha   90.00000000
_cell_angle_beta   90.00000000
_cell_angle_gamma   90.00000000
_symmetry_Int_Tables_number   1
_chemical_formula_structural   Cu2Ni2C15
_chemical_formula_sum   'Cu4 Ni4 C30'
_cell_volume   468.25270219
_cell_formula_units_Z   2
loop_
 _symmetry_equiv_pos_site_id
 _symmetry_equiv_pos_as_xyz
  1  'x, y, z'
loop_
 _atom_site_type_symbol
 _atom_site_label
 _atom_site_symmetry_multiplicity
 _atom_site_fract_x
 _atom_site_fract_y
 _atom_site_fract_z
 _atom_site_occupancy
  Ni  Ni0  1  0.00000000  0.00000000  0.24158600  1
  Ni  Ni1  1  0.00000000  0.00000000  0.75841400  1
  Ni  Ni2  1  0.00000000  0.50000000  0.75841400  1
  Ni  Ni3  1  0.00000000  0.50000000  0.24158600  1
  Cu  Cu4  1  0.50000100  0.50000000  0.26891100  1
  Cu  Cu5  1  0.50000100  0.00000000  0.73109000  1
  Cu  Cu6  1  0.50000100  0.50000000  0.73109000  1
  Cu  Cu7  1  0.50000100  0.00000000  0.26891100  1
  C  C8  1  0.25263700  0.75000000  0.50000000  1
  C  C9  1  0.74736400  0.25000000  0.50000000  1
  C  C10  1  0.74575500  0.75000000  0.50000000  1
  C  C11  1  0.25424700  0.25000000  0.50000000  1
  C  C12  1  0.27220500  0.75000000  0.00000000  1
  C  C13  1  0.26266400  0.25000000  0.00000000  1
  C  C14  1  0.73733600  0.75000000  0.00000000  1
  C  C15  1  0.72779500  0.25000000  0.00000000  1
  C  C16  1  0.30171200  0.75000000  0.23701700  1
  C  C17  1  0.30171200  0.75000000  0.76298300  1
  C  C18  1  0.69828800  0.25000000  0.76298300  1
  C  C19  1  0.69828800  0.25000000  0.23701700  1
  C  C20  1  0.68994300  0.75000000  0.22857700  1
  C  C21  1  0.68994300  0.75000000  0.77142300  1
  C  C22  1  0.31005700  0.25000000  0.77142300  1
  C  C23  1  0.31005700  0.25000000  0.22857700  1
  C  C24  1  0.72107200  0.99719400  0.50000000  1
  C  C25  1  0.72107200  0.50280600  0.50000000  1
  C  C26  1  0.27892700  0.49719500  0.50000000  1
  C  C27  1  0.27892700  0.00280600  0.50000000  1
  C  C28  1  0.68256000  0.00619900  0.00000000  1
  C  C29  1  0.68256000  0.49380100  0.00000000  1
  C  C30  1  0.31743900  0.50619900  0.00000000  1
  C  C31  1  0.31743900  0.99380100  0.00000000  1
  C  C32  1  0.00973000  0.25000000  0.00000000  1
  C  C33  1  0.99027000  0.75000000  0.00000000  1
  C  C34  1  0.99056600  0.25000000  0.50000000  1
  C  C35  1  0.49435300  0.75000000  0.50000000  1
  C  C36  1  0.50564700  0.25000000  0.50000000  1
  C  C37  1  0.00943400  0.75000000  0.50000000  1
