# generated using pymatgen
data_Cu2NiC14
_symmetry_space_group_name_H-M   'P 1'
_cell_length_a   5.55308570
_cell_length_b   10.62460043
_cell_length_c   5.96380241
_cell_angle_alpha   89.99999519
_cell_angle_beta   89.99136646
_cell_angle_gamma   89.99998443
_symmetry_Int_Tables_number   1
_chemical_formula_structural   Cu2NiC14
_chemical_formula_sum   'Cu2 Ni1 C14'
_cell_volume   351.86026333
_cell_formula_units_Z   1
loop_
 _symmetry_equiv_pos_site_id
 _symmetry_equiv_pos_as_xyz
  1  'x, y, z'
loop_
 _atom_site_type_symbol
 _atom_site_label
 _atom_site_symmetry_multiplicity
 _atom_site_fract_x
 _atom_site_fract_y
 _atom_site_fract_z
 _atom_site_occupancy
  C  C0  1  0.00000000  0.23613394  0.50000000  1
  C  C1  1  0.50000000  0.71171469  0.00000000  1
  C  C2  1  0.50000000  0.28830915  1.00000000  1
  C  C3  1  1.00000000  0.76378867  0.50000000  1
  C  C4  1  0.00000000  0.50007004  1.00000000  1
  C  C5  1  0.50000000  0.99996536  0.50000000  1
  Ni  Ni6  1  0.50000000  0.99998502  1.00000000  1
  Cu  Cu7  1  1.00000000  0.99996348  -0.00000000  1
  Cu  Cu8  1  0.50000000  0.50001442  0.50000000  1
  C  C9  1  0.31199419  0.58940613  0.67072477  1
  C  C10  1  0.75406633  0.09298212  0.16237079  1
  C  C11  1  0.75408290  0.90699857  0.83757842  1
  C  C12  1  0.31194687  0.41064079  0.32926425  1
  C  C13  1  0.68805313  0.41064079  0.67073575  1
  C  C14  1  0.24591710  0.90699857  0.16242158  1
  C  C15  1  0.24593367  0.09298212  0.83762921  1
  C  C16  1  0.68800581  0.58940613  0.32927523  1
