# generated using pymatgen
data_Cu2NiC24
_symmetry_space_group_name_H-M   'P 1'
_cell_length_a   8.72644679
_cell_length_b   8.72644652
_cell_length_c   22.72225219
_cell_angle_alpha   90.00000000
_cell_angle_beta   90.00000000
_cell_angle_gamma   120.00000106
_symmetry_Int_Tables_number   1
_chemical_formula_structural   Cu2NiC24
_chemical_formula_sum   'Cu8 Ni4 C96'
_cell_volume   1498.50045473
_cell_formula_units_Z   4
loop_
 _symmetry_equiv_pos_site_id
 _symmetry_equiv_pos_as_xyz
  1  'x, y, z'
loop_
 _atom_site_type_symbol
 _atom_site_label
 _atom_site_symmetry_multiplicity
 _atom_site_fract_x
 _atom_site_fract_y
 _atom_site_fract_z
 _atom_site_occupancy
  C  C0  1  -0.00000000  0.00000000  0.49324205  1
  C  C1  1  -0.00000000  0.00000000  0.99324205  1
  C  C2  1  0.66666700  0.33333300  0.82208593  1
  C  C3  1  0.66666700  0.33333300  0.32208593  1
  C  C4  1  0.33333300  0.66666700  0.16746362  1
  C  C5  1  0.33333300  0.66666700  0.66746362  1
  Ni  Ni6  1  -0.00000000  0.00000000  0.35407702  1
  Ni  Ni7  1  -0.00000000  0.00000000  0.85407702  1
  Ni  Ni8  1  0.66666700  0.33333300  0.68679728  1
  Ni  Ni9  1  0.66666700  0.33333300  0.18679728  1
  Cu  Cu10  1  -0.00000000  0.00000000  0.64892079  1
  Cu  Cu11  1  -0.00000000  0.00000000  0.14892079  1
  Cu  Cu12  1  0.66666700  0.33333300  0.97841028  1
  Cu  Cu13  1  0.66666700  0.33333300  0.47841028  1
  Cu  Cu14  1  0.33333300  0.66666700  0.02044597  1
  Cu  Cu15  1  0.33333300  0.66666700  0.52044597  1
  Cu  Cu16  1  0.33333300  0.66666700  0.30913199  1
  Cu  Cu17  1  0.33333300  0.66666700  0.80913199  1
  C  C18  1  0.29191449  0.00722123  0.25310536  1
  C  C19  1  0.71530674  0.70808551  0.25310536  1
  C  C20  1  0.99277877  0.28469326  0.25310536  1
  C  C21  1  0.29191449  0.28469326  0.75310536  1
  C  C22  1  0.99277877  0.70808551  0.75310536  1
  C  C23  1  0.71530674  0.00722123  0.75310536  1
  C  C24  1  0.95254474  0.33157439  0.58482609  1
  C  C25  1  0.37903066  0.04745526  0.58482609  1
  C  C26  1  0.66842561  0.62096934  0.58482609  1
  C  C27  1  0.95254474  0.62096934  0.08482609  1
  C  C28  1  0.66842561  0.04745526  0.08482609  1
  C  C29  1  0.37903066  0.33157439  0.08482609  1
  C  C30  1  0.62353657  0.66934080  0.91618167  1
  C  C31  1  0.04580323  0.37646343  0.91618167  1
  C  C32  1  0.33065920  0.95419677  0.91618167  1
  C  C33  1  0.62353657  0.95419677  0.41618167  1
  C  C34  1  0.33065920  0.37646343  0.41618167  1
  C  C35  1  0.04580323  0.66934080  0.41618167  1
  C  C36  1  0.20456203  0.02491184  0.30680435  1
  C  C37  1  0.82034981  0.79543797  0.30680435  1
  C  C38  1  0.97508816  0.17965019  0.30680435  1
  C  C39  1  0.20456203  0.17965019  0.80680435  1
  C  C40  1  0.97508816  0.79543797  0.80680435  1
  C  C41  1  0.82034981  0.02491184  0.80680435  1
  C  C42  1  0.80138530  0.97165352  0.69544181  1
  C  C43  1  0.17026821  0.19861470  0.69544181  1
  C  C44  1  0.02834648  0.82973179  0.69544181  1
  C  C45  1  0.80138530  0.82973179  0.19544181  1
  C  C46  1  0.02834648  0.19861470  0.19544181  1
  C  C47  1  0.17026821  0.97165352  0.19544181  1
  C  C48  1  0.88008598  0.36863947  0.63837774  1
  C  C49  1  0.48855450  0.11991402  0.63837774  1
  C  C50  1  0.63136053  0.51144550  0.63837774  1
  C  C51  1  0.88008598  0.51144550  0.13837774  1
  C  C52  1  0.63136053  0.11991402  0.13837774  1
  C  C53  1  0.48855450  0.36863947  0.13837774  1
  C  C54  1  0.46743221  0.30588498  0.02798898  1
  C  C55  1  0.83845376  0.53256779  0.02798898  1
  C  C56  1  0.69411502  0.16154624  0.02798898  1
  C  C57  1  0.46743221  0.16154624  0.52798898  1
  C  C58  1  0.69411502  0.53256779  0.52798898  1
  C  C59  1  0.83845376  0.30588498  0.52798898  1
  C  C60  1  0.52414991  0.68306184  0.97136455  1
  C  C61  1  0.15891093  0.47585009  0.97136455  1
  C  C62  1  0.31693816  0.84108907  0.97136455  1
  C  C63  1  0.52414991  0.84108907  0.47136455  1
  C  C64  1  0.31693816  0.47585009  0.47136455  1
  C  C65  1  0.15891093  0.68306184  0.47136455  1
  C  C66  1  0.13343683  0.63644724  0.36188727  1
  C  C67  1  0.50300941  0.86656317  0.36188727  1
  C  C68  1  0.36355276  0.49699059  0.36188727  1
  C  C69  1  0.13343683  0.49699059  0.86188727  1
  C  C70  1  0.36355276  0.86656317  0.86188727  1
  C  C71  1  0.50300941  0.63644724  0.86188727  1
  C  C72  1  0.02590178  0.82952788  0.41390335  1
  C  C73  1  0.80362610  0.97409822  0.41390335  1
  C  C74  1  0.17047212  0.19637390  0.41390335  1
  C  C75  1  0.02590178  0.19637390  0.91390335  1
  C  C76  1  0.17047212  0.97409822  0.91390335  1
  C  C77  1  0.80362610  0.82952788  0.91390335  1
  C  C78  1  0.97537494  0.16566290  0.58905850  1
  C  C79  1  0.19028796  0.02462506  0.58905850  1
  C  C80  1  0.83433710  0.80971204  0.58905850  1
  C  C81  1  0.97537494  0.80971204  0.08905850  1
  C  C82  1  0.83433710  0.02462506  0.08905850  1
  C  C83  1  0.19028796  0.16566290  0.08905850  1
  C  C84  1  0.68327974  0.15861681  0.74293876  1
  C  C85  1  0.47533806  0.31672026  0.74293876  1
  C  C86  1  0.84138319  0.52466194  0.74293876  1
  C  C87  1  0.68327974  0.52466194  0.24293876  1
  C  C88  1  0.84138319  0.31672026  0.24293876  1
  C  C89  1  0.47533806  0.15861681  0.24293876  1
  C  C90  1  0.63221372  0.49508200  0.92502838  1
  C  C91  1  0.86286928  0.36778628  0.92502838  1
  C  C92  1  0.50491800  0.13713072  0.92502838  1
  C  C93  1  0.63221372  0.13713072  0.42502838  1
  C  C94  1  0.50491800  0.36778628  0.42502838  1
  C  C95  1  0.86286928  0.49508200  0.42502838  1
  C  C96  1  0.35057101  0.49332570  0.07248512  1
  C  C97  1  0.14275369  0.64942899  0.07248512  1
  C  C98  1  0.50667430  0.85724631  0.07248512  1
  C  C99  1  0.35057101  0.85724631  0.57248512  1
  C  C100  1  0.50667430  0.64942899  0.57248512  1
  C  C101  1  0.14275369  0.49332570  0.57248512  1
  C  C102  1  0.30025021  0.82740031  0.25708309  1
  C  C103  1  0.52714910  0.69974979  0.25708309  1
  C  C104  1  0.17259969  0.47285090  0.25708309  1
  C  C105  1  0.30025021  0.47285090  0.75708309  1
  C  C106  1  0.17259969  0.69974979  0.75708309  1
  C  C107  1  0.52714910  0.82740031  0.75708309  1
