# generated using pymatgen
data_Cu2NiC6
_symmetry_space_group_name_H-M   'P 1'
_cell_length_a   6.11950480
_cell_length_b   6.11426526
_cell_length_c   7.09116504
_cell_angle_alpha   115.63454938
_cell_angle_beta   116.44103391
_cell_angle_gamma   88.76014915
_symmetry_Int_Tables_number   1
_chemical_formula_structural   Cu2NiC6
_chemical_formula_sum   'Cu2 Ni1 C6'
_cell_volume   209.32593258
_cell_formula_units_Z   1
loop_
 _symmetry_equiv_pos_site_id
 _symmetry_equiv_pos_as_xyz
  1  'x, y, z'
loop_
 _atom_site_type_symbol
 _atom_site_label
 _atom_site_symmetry_multiplicity
 _atom_site_fract_x
 _atom_site_fract_y
 _atom_site_fract_z
 _atom_site_occupancy
  C  C0  1  0.34465800  0.93180000  0.27565900  1
  Ni  Ni1  1  0.95794700  0.01619400  0.97404300  1
  Cu  Cu2  1  0.81615000  0.28120400  0.51373700  1
  Cu  Cu3  1  0.23168500  0.69795900  0.51252000  1
  C  C4  1  0.54511000  0.46579100  0.01082800  1
  C  C5  1  0.90530600  0.90941800  0.23002700  1
  C  C6  1  0.62660600  0.06995800  0.69660200  1
  C  C7  1  0.13831400  0.67831200  0.81644400  1
  C  C8  1  0.31964300  0.32436200  0.22939800  1
