# generated using pymatgen
data_CuNi11C7
_symmetry_space_group_name_H-M   'P 1'
_cell_length_a   6.96662476
_cell_length_b   5.68304012
_cell_length_c   5.81984059
_cell_angle_alpha   83.13555180
_cell_angle_beta   71.52262180
_cell_angle_gamma   74.22185785
_symmetry_Int_Tables_number   1
_chemical_formula_structural   CuNi11C7
_chemical_formula_sum   'Cu1 Ni11 C7'
_cell_volume   210.16407224
_cell_formula_units_Z   1
loop_
 _symmetry_equiv_pos_site_id
 _symmetry_equiv_pos_as_xyz
  1  'x, y, z'
loop_
 _atom_site_type_symbol
 _atom_site_label
 _atom_site_symmetry_multiplicity
 _atom_site_fract_x
 _atom_site_fract_y
 _atom_site_fract_z
 _atom_site_occupancy
  C  C0  1  0.15206692  0.34199086  0.84363366  1
  C  C1  1  0.82000205  0.68110589  0.65838823  1
  C  C2  1  0.66458385  0.30075291  0.38076339  1
  C  C3  1  0.32990444  0.74209035  0.60433512  1
  C  C4  1  0.15697916  0.33584034  0.35030435  1
  C  C5  1  0.51258462  0.98713211  0.00542219  1
  C  C6  1  0.00051775  0.93230305  0.06365011  1
  Ni  Ni7  1  0.67958291  0.01789951  0.67474530  1
  Ni  Ni8  1  0.28387392  0.96483349  0.86621013  1
  Ni  Ni9  1  0.62878179  0.60989354  0.51581826  1
  Ni  Ni10  1  0.97059217  0.25477220  0.19667774  1
  Ni  Ni11  1  0.70388038  0.06961326  0.13951673  1
  Ni  Ni12  1  0.04373205  0.71787515  0.80444420  1
  Ni  Ni13  1  0.35447018  0.40924660  0.49790823  1
  Ni  Ni14  1  0.31394850  -0.00029744  0.32733034  1
  Ni  Ni15  1  0.64379876  0.66579202  0.98066044  1
  Ni  Ni16  1  0.96582300  0.33223570  0.65180468  1
  Ni  Ni17  1  0.02369513  0.67621676  0.33910572  1
  Cu  Cu18  1  0.35303640  0.36070370  0.01177917  1
