# generated using pymatgen
data_CuNi3C16
_symmetry_space_group_name_H-M   'P 1'
_cell_length_a   9.21882487
_cell_length_b   9.22871673
_cell_length_c   22.75541181
_cell_angle_alpha   90.00000001
_cell_angle_beta   89.97798187
_cell_angle_gamma   120.03550352
_symmetry_Int_Tables_number   1
_chemical_formula_structural   CuNi3C16
_chemical_formula_sum   'Cu6 Ni18 C96'
_cell_volume   1676.01031102
_cell_formula_units_Z   6
loop_
 _symmetry_equiv_pos_site_id
 _symmetry_equiv_pos_as_xyz
  1  'x, y, z'
loop_
 _atom_site_type_symbol
 _atom_site_label
 _atom_site_symmetry_multiplicity
 _atom_site_fract_x
 _atom_site_fract_y
 _atom_site_fract_z
 _atom_site_occupancy
  Ni  Ni0  1  0.98384161  0.96996806  0.49505352  1
  Ni  Ni1  1  0.98384161  0.01387354  0.99505352  1
  Ni  Ni2  1  0.66735837  0.33778344  0.82836991  1
  Ni  Ni3  1  0.66735837  0.32957392  0.32836991  1
  Ni  Ni4  1  0.32904357  0.66304295  0.16171519  1
  Ni  Ni5  1  0.32904357  0.66600163  0.66171519  1
  Ni  Ni6  1  0.36978548  0.35568851  0.24579645  1
  Ni  Ni7  1  0.98671062  0.63866045  0.24630416  1
  Ni  Ni8  1  0.98671062  0.34805018  0.74630416  1
  Ni  Ni9  1  0.36978548  0.01409697  0.74579645  1
  Ni  Ni10  1  0.31635951  0.34575317  0.57970726  1
  Ni  Ni11  1  0.65428526  0.96579890  0.57893667  1
  Ni  Ni12  1  0.31635951  0.97060534  0.07970726  1
  Ni  Ni13  1  0.65428526  0.68848536  0.07893667  1
  Ni  Ni14  1  0.98444900  0.68161821  0.91189817  1
  Ni  Ni15  1  0.31934280  0.29709793  0.91295905  1
  Ni  Ni16  1  0.98444900  0.30283179  0.41189817  1
  Ni  Ni17  1  0.31934280  0.02224587  0.41295905  1
  Cu  Cu18  1  0.98743988  0.99377516  0.35024547  1
  Cu  Cu19  1  0.98743988  0.99366472  0.85024547  1
  Cu  Cu20  1  0.67230516  0.34702468  0.68376328  1
  Cu  Cu21  1  0.67230516  0.32527948  0.18376328  1
  Cu  Cu22  1  0.32913731  0.66240890  0.01725582  1
  Cu  Cu23  1  0.32913731  0.66672941  0.51725582  1
  C  C24  1  0.99603524  0.99178748  0.64941577  1
  C  C25  1  0.99603524  0.00424775  0.14941577  1
  C  C26  1  0.67059145  0.32736475  0.98257274  1
  C  C27  1  0.67059145  0.34322570  0.48257274  1
  C  C28  1  0.34226380  0.67230035  0.31606043  1
  C  C29  1  0.34226380  0.66996445  0.81606043  1
  C  C30  1  0.29097770  0.99128742  0.25200278  1
  C  C31  1  0.69713917  0.70506995  0.24842531  1
  C  C32  1  0.01277972  0.30702867  0.25396754  1
  C  C33  1  0.29097770  0.29969028  0.75200278  1
  C  C34  1  0.01277972  0.70575104  0.75396754  1
  C  C35  1  0.69713917  0.99206922  0.74842531  1
  C  C36  1  0.96110667  0.32138059  0.58538482  1
  C  C37  1  0.36684729  0.04321110  0.58562434  1
  C  C38  1  0.67411447  0.63638592  0.58365280  1
  C  C39  1  0.96110667  0.63972508  0.08538482  1
  C  C40  1  0.67411447  0.03772755  0.08365280  1
  C  C41  1  0.36684729  0.32363519  0.08562434  1
  C  C42  1  0.62758776  0.65491596  0.92096418  1
  C  C43  1  0.03334003  0.37503174  0.91542394  1
  C  C44  1  0.34328368  0.97037406  0.91797340  1
  C  C45  1  0.62758776  0.97267280  0.42096418  1
  C  C46  1  0.34328368  0.37291062  0.41797340  1
  C  C47  1  0.03334003  0.65830929  0.41542394  1
  C  C48  1  0.21393608  0.01275279  0.30794555  1
  C  C49  1  0.80756715  0.78167463  0.30098543  1
  C  C50  1  0.99370474  0.21810181  0.31151239  1
  C  C51  1  0.21393608  0.20118329  0.80794555  1
  C  C52  1  0.99370474  0.77560293  0.81151239  1
  C  C53  1  0.80756715  0.02589252  0.80098543  1
  C  C54  1  0.78518206  0.97006595  0.69180275  1
  C  C55  1  0.17006959  0.20385633  0.69762767  1
  C  C56  1  0.02804937  0.82563407  0.70103093  1
  C  C57  1  0.78518206  0.81511612  0.19180275  1
  C  C58  1  0.02804937  0.20241530  0.20103093  1
  C  C59  1  0.17006959  0.96621326  0.19762767  1
  C  C60  1  0.88641010  0.34005744  0.64200053  1
  C  C61  1  0.46477481  0.12030736  0.64155676  1
  C  C62  1  0.63981963  0.53056085  0.63742505  1
  C  C63  1  0.88641010  0.54635167  0.14200053  1
  C  C64  1  0.63981963  0.10925779  0.13742505  1
  C  C65  1  0.46477481  0.34446645  0.14155676  1
  C  C66  1  0.46256871  0.29810120  0.03136192  1
  C  C67  1  0.84509322  0.53988520  0.03078158  1
  C  C68  1  0.69485582  0.15135617  0.02837085  1
  C  C69  1  0.46256871  0.16446650  0.53136192  1
  C  C70  1  0.69485582  0.54349865  0.52837085  1
  C  C71  1  0.84509322  0.30520702  0.53078158  1
  C  C72  1  0.55726615  0.67472347  0.97826884  1
  C  C73  1  0.13978046  0.45703808  0.96849054  1
  C  C74  1  0.31609016  0.87082273  0.97375339  1
  C  C75  1  0.55726615  0.88254369  0.47826884  1
  C  C76  1  0.31609016  0.44526843  0.47375339  1
  C  C77  1  0.13978046  0.68274338  0.46849054  1
  C  C78  1  0.12316350  0.63308235  0.35931413  1
  C  C79  1  0.50687584  0.87008246  0.36773138  1
  C  C80  1  0.36118104  0.48748866  0.36312452  1
  C  C81  1  0.12316350  0.49008216  0.85931413  1
  C  C82  1  0.36118104  0.87369338  0.86312452  1
  C  C83  1  0.50687584  0.63679439  0.86773138  1
  C  C84  1  0.00964570  0.80966550  0.41003327  1
  C  C85  1  0.80820979  0.01172914  0.41361740  1
  C  C86  1  0.19278711  0.19439990  0.41112886  1
  C  C87  1  0.00964570  0.19998019  0.91003327  1
  C  C88  1  0.19278711  0.99838721  0.91112886  1
  C  C89  1  0.80820979  0.79648065  0.91361740  1
  C  C90  1  0.96141514  0.14873913  0.58656286  1
  C  C91  1  0.19209147  0.03714237  0.58865402  1
  C  C92  1  0.84024472  0.81128271  0.58801496  1
  C  C93  1  0.96141514  0.81267601  0.08656286  1
  C  C94  1  0.84024472  0.02896200  0.08801496  1
  C  C95  1  0.19209147  0.15494910  0.08865402  1
  C  C96  1  0.66504525  0.13998103  0.74271042  1
  C  C97  1  0.46387666  0.31841320  0.74499614  1
  C  C98  1  0.87199527  0.52435921  0.74710427  1
  C  C99  1  0.66504525  0.52506322  0.24271042  1
  C  C100  1  0.87199527  0.34763506  0.24710427  1
  C  C101  1  0.46387666  0.14546246  0.24499614  1
  C  C102  1  0.62779364  0.48241013  0.92129466  1
  C  C103  1  0.86047667  0.37285479  0.92034392  1
  C  C104  1  0.50711230  0.14764101  0.92099033  1
  C  C105  1  0.62779364  0.14538250  0.42129466  1
  C  C106  1  0.50711230  0.35947029  0.42099033  1
  C  C107  1  0.86047667  0.48762088  0.42034392  1
  C  C108  1  0.34711161  0.47680820  0.07841789  1
  C  C109  1  0.14304108  0.68026847  0.07956011  1
  C  C110  1  0.52627347  0.85831696  0.07699034  1
  C  C111  1  0.34711160  0.87030440  0.57841789  1
  C  C112  1  0.52627347  0.66795751  0.57699034  1
  C  C113  1  0.14304108  0.46277361  0.57956011  1
  C  C114  1  0.29702170  0.82287723  0.25483056  1
  C  C115  1  0.52149380  0.69453133  0.25462646  1
  C  C116  1  0.18655069  0.47879417  0.25356630  1
  C  C117  1  0.29702170  0.47414546  0.75483056  1
  C  C118  1  0.18655069  0.70775752  0.75356630  1
  C  C119  1  0.52149380  0.82696347  0.75462646  1
