# generated using pymatgen
data_CuNi5C31
_symmetry_space_group_name_H-M   'P 1'
_cell_length_a   8.91294487
_cell_length_b   8.90958687
_cell_length_c   23.11949194
_cell_angle_alpha   89.75763295
_cell_angle_beta   90.21481635
_cell_angle_gamma   120.06289727
_symmetry_Int_Tables_number   1
_chemical_formula_structural   CuNi5C31
_chemical_formula_sum   'Cu3 Ni15 C93'
_cell_volume   1588.93980954
_cell_formula_units_Z   3
loop_
 _symmetry_equiv_pos_site_id
 _symmetry_equiv_pos_as_xyz
  1  'x, y, z'
loop_
 _atom_site_type_symbol
 _atom_site_label
 _atom_site_symmetry_multiplicity
 _atom_site_fract_x
 _atom_site_fract_y
 _atom_site_fract_z
 _atom_site_occupancy
  C  C0  1  0.64454224  0.63996763  0.74794030  1
  C  C1  1  0.30031502  0.96206531  0.08486864  1
  C  C2  1  0.33070346  0.02480258  0.41310629  1
  C  C3  1  0.98388413  0.99997229  0.50070504  1
  C  C4  1  0.98902095  0.00023002  0.99770062  1
  C  C5  1  0.66645949  0.32150164  0.83070743  1
  C  C6  1  0.66729532  0.33494457  0.32752608  1
  C  C7  1  0.33253590  0.66124051  0.16696643  1
  C  C8  1  0.32055218  0.65946079  0.66083656  1
  C  C9  1  0.66907934  0.33589679  0.97940232  1
  C  C10  1  0.67820510  0.34462640  0.48164020  1
  C  C11  1  0.32767101  0.66552728  0.81611329  1
  C  C12  1  0.99936355  0.00180877  0.35004336  1
  C  C13  1  0.00368436  0.00346841  0.85105718  1
  C  C14  1  0.99435172  0.00140614  0.64862069  1
  C  C15  1  0.99966381  0.99942428  0.14541171  1
  C  C16  1  0.67098629  0.33204264  0.68469531  1
  C  C17  1  0.66189401  0.32883641  0.18404349  1
  C  C18  1  0.33405266  0.66124296  0.01720904  1
  C  C19  1  0.33513705  0.65931674  0.51642424  1
  C  C20  1  0.33468040  0.67157895  0.31838036  1
  Ni  Ni21  1  0.29808057  0.99846033  0.24981144  1
  Ni  Ni22  1  0.29484848  0.29587474  0.75047220  1
  Ni  Ni23  1  0.00248589  0.70897772  0.75028807  1
  Ni  Ni24  1  0.70194413  0.99902809  0.75191604  1
  Ni  Ni25  1  0.96294222  0.33422330  0.58377765  1
  Ni  Ni26  1  0.66762694  0.62865389  0.58530478  1
  Ni  Ni27  1  0.95760017  0.62306806  0.08355764  1
  Ni  Ni28  1  0.66821027  0.04215836  0.08229161  1
  Ni  Ni29  1  0.37706567  0.33621340  0.08275506  1
  Ni  Ni30  1  0.62717446  0.66716416  0.91697408  1
  Ni  Ni31  1  0.03876032  0.37258224  0.91809012  1
  Ni  Ni32  1  0.33421188  0.96008407  0.91923752  1
  Ni  Ni33  1  0.63138226  0.96462572  0.41892835  1
  Ni  Ni34  1  0.33484121  0.37068190  0.41686116  1
  Ni  Ni35  1  0.04088837  0.66809649  0.41722721  1
  Cu  Cu36  1  0.70185410  0.70290756  0.24978422  1
  Cu  Cu37  1  0.00127076  0.29881347  0.24939590  1
  Cu  Cu38  1  0.37293208  0.03983165  0.58165130  1
  C  C39  1  0.21400714  0.01890114  0.30575956  1
  C  C40  1  0.80346753  0.78446125  0.30288393  1
  C  C41  1  0.97482005  0.19437223  0.30242001  1
  C  C42  1  0.21887613  0.18754349  0.80469747  1
  C  C43  1  0.96542705  0.78696810  0.80324585  1
  C  C44  1  0.81169563  0.02791498  0.80568875  1
  C  C45  1  0.76690873  0.94622172  0.69797673  1
  C  C46  1  0.18586695  0.22575802  0.69538579  1
  C  C47  1  0.04276378  0.81865205  0.69515435  1
  C  C48  1  0.78207218  0.80798982  0.19717193  1
  C  C49  1  0.01897538  0.21461953  0.19681208  1
  C  C50  1  0.19266441  0.97905262  0.19361849  1
  C  C51  1  0.87983870  0.35471336  0.63814612  1
  C  C52  1  0.47488612  0.11981866  0.63424341  1
  C  C53  1  0.64272777  0.52686210  0.64146958  1
  C  C54  1  0.87775889  0.51826958  0.13825848  1
  C  C55  1  0.63386987  0.11758068  0.13656259  1
  C  C56  1  0.47974386  0.36078772  0.13801008  1
  C  C57  1  0.47830153  0.31643816  0.02887252  1
  C  C58  1  0.84134050  0.52253024  0.02884211  1
  C  C59  1  0.68598767  0.16081766  0.02789896  1
  C  C60  1  0.46445657  0.14598103  0.52855635  1
  C  C61  1  0.67753386  0.51814683  0.53218638  1
  C  C62  1  0.84361189  0.32015655  0.52952284  1
  C  C63  1  0.54713027  0.69460488  0.97047763  1
  C  C64  1  0.14398759  0.45121361  0.97212844  1
  C  C65  1  0.30907483  0.85984660  0.97516705  1
  C  C66  1  0.55091677  0.85568099  0.47292683  1
  C  C67  1  0.30124637  0.44510165  0.47091910  1
  C  C68  1  0.15696649  0.70565124  0.47022807  1
  C  C69  1  0.10637036  0.62313642  0.36284926  1
  C  C70  1  0.51237925  0.89865656  0.36521881  1
  C  C71  1  0.37462460  0.48134551  0.36224844  1
  C  C72  1  0.13348721  0.49286939  0.86405361  1
  C  C73  1  0.35779170  0.86124039  0.86624292  1
  C  C74  1  0.50988056  0.63851285  0.86191423  1
  C  C75  1  0.01740081  0.82712955  0.41113097  1
  C  C76  1  0.81404656  0.99344570  0.41101533  1
  C  C77  1  0.18464817  0.18128501  0.41122143  1
  C  C78  1  0.01096086  0.19145315  0.91004601  1
  C  C79  1  0.17990175  0.98632267  0.91041761  1
  C  C80  1  0.80960118  0.81982832  0.90955085  1
  C  C81  1  0.96924119  0.16459087  0.58243856  1
  C  C82  1  0.20323658  0.03174456  0.58301452  1
  C  C83  1  0.83994487  0.80178192  0.58310445  1
  C  C84  1  0.97008394  0.80308784  0.08289075  1
  C  C85  1  0.83536282  0.03303701  0.08387797  1
  C  C86  1  0.20350028  0.16037606  0.08223829  1
  C  C87  1  0.67013375  0.15132510  0.74517646  1
  C  C88  1  0.48460301  0.33568815  0.74504613  1
  C  C89  1  0.84148336  0.52592102  0.74556975  1
  C  C90  1  0.68921587  0.53041951  0.24652062  1
  C  C91  1  0.84629335  0.32015407  0.24605338  1
  C  C92  1  0.48030398  0.16468630  0.24789819  1
  C  C93  1  0.63538176  0.49447492  0.92378241  1
  C  C94  1  0.85911939  0.36563383  0.92260982  1
  C  C95  1  0.50656583  0.14072089  0.92313411  1
  C  C96  1  0.64474480  0.14822856  0.42927818  1
  C  C97  1  0.49990417  0.34810059  0.42758082  1
  C  C98  1  0.85456533  0.50449921  0.42801893  1
  C  C99  1  0.35339779  0.49290062  0.07719283  1
  C  C100  1  0.14172828  0.65130679  0.07748313  1
  C  C101  1  0.50209612  0.86530232  0.07542515  1
  C  C102  1  0.35504347  0.86661734  0.57696390  1
  C  C103  1  0.50680256  0.64696111  0.57821918  1
  C  C104  1  0.13964964  0.49886946  0.57719454  1
  C  C105  1  0.31387349  0.83260387  0.25299154  1
  C  C106  1  0.52615794  0.68206784  0.25393784  1
  C  C107  1  0.16102411  0.47052017  0.25375343  1
  C  C108  1  0.31606137  0.48379636  0.76108036  1
  C  C109  1  0.16582607  0.68735826  0.76195911  1
  C  C110  1  0.51783959  0.82923726  0.76270178  1
