# generated using pymatgen
data_Cu4Ni4C5
_symmetry_space_group_name_H-M   'P 1'
_cell_length_a   5.40807607
_cell_length_b   5.27113875
_cell_length_c   6.13235662
_cell_angle_alpha   73.24654201
_cell_angle_beta   90.39018601
_cell_angle_gamma   87.55407792
_symmetry_Int_Tables_number   1
_chemical_formula_structural   Cu4Ni4C5
_chemical_formula_sum   'Cu4 Ni4 C5'
_cell_volume   167.20735594
_cell_formula_units_Z   1
loop_
 _symmetry_equiv_pos_site_id
 _symmetry_equiv_pos_as_xyz
  1  'x, y, z'
loop_
 _atom_site_type_symbol
 _atom_site_label
 _atom_site_symmetry_multiplicity
 _atom_site_fract_x
 _atom_site_fract_y
 _atom_site_fract_z
 _atom_site_occupancy
  C  C0  1  0.26938116  0.52136003  0.11502995  1
  C  C1  1  0.24389380  0.43596685  0.65271019  1
  C  C2  1  0.04304436  0.02484464  0.24095303  1
  C  C3  1  0.77145374  0.88889792  0.77181438  1
  C  C4  1  0.77765028  0.53122049  0.35878875  1
  Ni  Ni5  1  0.13858171  0.26254194  0.96865928  1
  Ni  Ni6  1  0.09801652  0.27669328  0.40669052  1
  Ni  Ni7  1  0.92751932  0.74556453  0.52149458  1
  Ni  Ni8  1  0.93282602  0.76480593  0.08896831  1
  Cu  Cu9  1  0.41671749  0.72760486  0.81909720  1
  Cu  Cu10  1  0.40135596  0.72332863  0.32175782  1
  Cu  Cu11  1  0.62768742  0.28474039  0.64682936  1
  Cu  Cu12  1  0.61437223  0.32631950  0.19137364  1
