# generated using pymatgen
data_Cu12Ni12C13
_symmetry_space_group_name_H-M   'P 1'
_cell_length_a   9.70505041
_cell_length_b   14.55324239
_cell_length_c   3.13226000
_cell_angle_alpha   90.00000000
_cell_angle_beta   90.00000000
_cell_angle_gamma   94.34762173
_symmetry_Int_Tables_number   1
_chemical_formula_structural   Cu12Ni12C13
_chemical_formula_sum   'Cu12 Ni12 C13'
_cell_volume   441.12722909
_cell_formula_units_Z   1
loop_
 _symmetry_equiv_pos_site_id
 _symmetry_equiv_pos_as_xyz
  1  'x, y, z'
loop_
 _atom_site_type_symbol
 _atom_site_label
 _atom_site_symmetry_multiplicity
 _atom_site_fract_x
 _atom_site_fract_y
 _atom_site_fract_z
 _atom_site_occupancy
  C  C0  1  0.74579900  0.31365400  0.00000000  1
  C  C1  1  0.03868900  0.99548200  0.00000000  1
  C  C2  1  0.05248800  0.31018200  0.00000000  1
  C  C3  1  0.98745500  0.67496900  0.00000000  1
  C  C4  1  0.26071200  0.16098500  0.50000000  1
  C  C5  1  0.21453000  0.49851500  0.50000000  1
  C  C6  1  0.26174200  0.85231100  0.50000000  1
  C  C7  1  0.46016200  0.37467500  0.00000000  1
  C  C8  1  0.51594600  0.99551700  0.00000000  1
  C  C9  1  0.49590900  0.67645100  0.00000000  1
  C  C10  1  0.75710400  0.08032300  0.50000000  1
  C  C11  1  0.69716900  0.51965600  0.50000000  1
  C  C12  1  0.73058200  0.83491200  0.50000000  1
  Ni  Ni13  1  0.13933300  0.26499300  0.50000000  1
  Ni  Ni14  1  0.11452600  0.92992500  0.50000000  1
  Ni  Ni15  1  0.18725100  0.10077800  0.00000000  1
  Ni  Ni16  1  0.12738300  0.43763200  0.00000000  1
  Ni  Ni17  1  0.36588300  0.90149900  0.00000000  1
  Ni  Ni18  1  0.37473400  0.41811200  0.50000000  1
  Ni  Ni19  1  0.63072800  0.95502400  0.50000000  1
  Ni  Ni20  1  0.56205800  0.61616200  0.50000000  1
  Ni  Ni21  1  0.65692500  0.10545000  0.00000000  1
  Ni  Ni22  1  0.64233300  0.42889900  0.00000000  1
  Ni  Ni23  1  0.63493900  0.78192900  0.00000000  1
  Ni  Ni24  1  0.93641500  0.04894400  0.50000000  1
  Cu  Cu25  1  0.08533800  0.60275000  0.50000000  1
  Cu  Cu26  1  0.15558500  0.77090500  0.00000000  1
  Cu  Cu27  1  0.38129200  0.24124600  0.00000000  1
  Cu  Cu28  1  0.31438500  0.57667200  0.00000000  1
  Cu  Cu29  1  0.42075900  0.06909300  0.50000000  1
  Cu  Cu30  1  0.38122000  0.73724700  0.50000000  1
  Cu  Cu31  1  0.62924200  0.27671000  0.50000000  1
  Cu  Cu32  1  0.88538200  0.22273300  0.00000000  1
  Cu  Cu33  1  0.85322800  0.89337100  0.00000000  1
  Cu  Cu34  1  0.83111100  0.57443300  0.00000000  1
  Cu  Cu35  1  0.88859600  0.36368000  0.50000000  1
  Cu  Cu36  1  0.88306900  0.74139900  0.50000000  1
