# generated using pymatgen
data_Cu3Ni3C32
_symmetry_space_group_name_H-M   'P 1'
_cell_length_a   9.09670121
_cell_length_b   9.04928881
_cell_length_c   23.20614869
_cell_angle_alpha   90.06001017
_cell_angle_beta   89.73572743
_cell_angle_gamma   119.74752523
_symmetry_Int_Tables_number   1
_chemical_formula_structural   Cu3Ni3C32
_chemical_formula_sum   'Cu9 Ni9 C96'
_cell_volume   1658.54131919
_cell_formula_units_Z   3
loop_
 _symmetry_equiv_pos_site_id
 _symmetry_equiv_pos_as_xyz
  1  'x, y, z'
loop_
 _atom_site_type_symbol
 _atom_site_label
 _atom_site_symmetry_multiplicity
 _atom_site_fract_x
 _atom_site_fract_y
 _atom_site_fract_z
 _atom_site_occupancy
  C  C0  1  0.99554329  0.64360301  0.25222179  1
  C  C1  1  0.99499441  0.35546256  0.74154329  1
  C  C2  1  0.66340527  0.97686867  0.58854316  1
  C  C3  1  0.67022075  0.69715464  0.08145815  1
  C  C4  1  0.33499711  0.30601171  0.90505684  1
  C  C5  1  0.32176234  0.02255814  0.42077768  1
  C  C6  1  0.01008611  0.99939994  0.50272822  1
  C  C7  1  0.98663476  0.97965144  0.99490538  1
  C  C8  1  0.65470903  0.32763315  0.82057205  1
  C  C9  1  0.66440898  0.34346440  0.33242736  1
  C  C10  1  0.33134863  0.67521976  0.16913178  1
  C  C11  1  0.32888952  0.66658777  0.66019392  1
  C  C12  1  0.01397871  0.01747730  0.64682191  1
  C  C13  1  0.99991646  0.98477608  0.15134565  1
  C  C14  1  0.67989578  0.35031398  0.98047180  1
  C  C15  1  0.67823635  0.33834869  0.48499240  1
  C  C16  1  0.33400766  0.67051119  0.31380681  1
  C  C17  1  0.35631332  0.67239346  0.80930579  1
  C  C18  1  0.00022884  0.98264507  0.35047685  1
  C  C19  1  0.98540337  0.99396533  0.84730454  1
  C  C20  1  0.65170769  0.31418497  0.68469237  1
  C  C21  1  0.66713982  0.33771591  0.18960463  1
  C  C22  1  0.33125873  0.67283716  0.01792157  1
  C  C23  1  0.30692886  0.66075737  0.52203435  1
  Ni  Ni24  1  0.30104315  0.00621658  0.25249033  1
  Ni  Ni25  1  0.70248379  0.70420449  0.24991164  1
  Ni  Ni26  1  0.29686089  0.28863040  0.75477319  1
  Ni  Ni27  1  0.71208750  0.00559471  0.74783368  1
  Ni  Ni28  1  0.96206783  0.33691562  0.58751482  1
  Ni  Ni29  1  0.37307773  0.03831515  0.58059179  1
  Ni  Ni30  1  0.96801381  0.62664306  0.08609301  1
  Ni  Ni31  1  0.63157453  0.67634316  0.92028730  1
  Ni  Ni32  1  0.03409860  0.66379583  0.41579591  1
  Cu  Cu33  1  0.99987288  0.28889590  0.25040816  1
  Cu  Cu34  1  0.99902152  0.70707780  0.75112825  1
  Cu  Cu35  1  0.66620828  0.62603211  0.58413901  1
  Cu  Cu36  1  0.66643900  0.04261152  0.08333379  1
  Cu  Cu37  1  0.37372813  0.33307755  0.08269079  1
  Cu  Cu38  1  0.04298375  0.37553390  0.91730173  1
  Cu  Cu39  1  0.33226480  0.95945309  0.91790517  1
  Cu  Cu40  1  0.62805229  0.95854791  0.41749424  1
  Cu  Cu41  1  0.33184972  0.37446109  0.41697399  1
  C  C42  1  0.21406443  0.03143248  0.30981964  1
  C  C43  1  0.83092618  0.80045850  0.30265773  1
  C  C44  1  0.97911507  0.18778145  0.30187125  1
  C  C45  1  0.20989979  0.18274559  0.81420943  1
  C  C46  1  0.97885607  0.78993574  0.80335287  1
  C  C47  1  0.82861999  0.02804120  0.80411707  1
  C  C48  1  0.79220887  0.96901049  0.69008336  1
  C  C49  1  0.16934574  0.19897702  0.69936271  1
  C  C50  1  0.02757040  0.81144277  0.69903127  1
  C  C51  1  0.78699430  0.81898871  0.18991072  1
  C  C52  1  0.02285922  0.20931299  0.19721648  1
  C  C53  1  0.17083259  0.96911126  0.19682226  1
  C  C54  1  0.87664278  0.36216598  0.64494578  1
  C  C55  1  0.49661873  0.13232360  0.63513717  1
  C  C56  1  0.64276045  0.52276275  0.63536703  1
  C  C57  1  0.87272477  0.51426938  0.14230963  1
  C  C58  1  0.64340105  0.12234289  0.13471719  1
  C  C59  1  0.48248282  0.35732409  0.13283852  1
  C  C60  1  0.45108671  0.30532961  0.02923388  1
  C  C61  1  0.83779956  0.53210053  0.03006822  1
  C  C62  1  0.68242445  0.14363267  0.03054300  1
  C  C63  1  0.45669226  0.15241762  0.52081484  1
  C  C64  1  0.69044871  0.54400055  0.53106435  1
  C  C65  1  0.83746260  0.30608116  0.53107411  1
  C  C66  1  0.53622558  0.68774442  0.97883365  1
  C  C67  1  0.14955173  0.46355376  0.96808813  1
  C  C68  1  0.31083013  0.85452001  0.96980524  1
  C  C69  1  0.55265403  0.85783207  0.46985599  1
  C  C70  1  0.31858220  0.46076119  0.46836982  1
  C  C71  1  0.16347383  0.69794723  0.46887645  1
  C  C72  1  0.12629143  0.63993913  0.35685172  1
  C  C73  1  0.51586771  0.87089706  0.36615743  1
  C  C74  1  0.35529916  0.47969022  0.36411178  1
  C  C75  1  0.11332031  0.47730194  0.86442883  1
  C  C76  1  0.35389043  0.87844686  0.86588796  1
  C  C77  1  0.50021565  0.63456764  0.86561138  1
  C  C78  1  0.02606269  0.84187459  0.41181441  1
  C  C79  1  0.79955749  0.98634806  0.40837717  1
  C  C80  1  0.17779200  0.20380861  0.41154109  1
  C  C81  1  0.03278340  0.20708858  0.91413277  1
  C  C82  1  0.18493304  0.98631410  0.91450775  1
  C  C83  1  0.82078090  0.83588762  0.91320569  1
  C  C84  1  0.96312176  0.15383490  0.58791442  1
  C  C85  1  0.18176609  0.01033053  0.58822982  1
  C  C86  1  0.82082330  0.79773651  0.58769187  1
  C  C87  1  0.97108696  0.81372894  0.08705380  1
  C  C88  1  0.82234648  0.02560644  0.08629357  1
  C  C89  1  0.20123999  0.18391843  0.08854225  1
  C  C90  1  0.70267510  0.17993123  0.74606304  1
  C  C91  1  0.48673006  0.32393221  0.74601763  1
  C  C92  1  0.84965406  0.53581397  0.74628808  1
  C  C93  1  0.69820476  0.52204869  0.24342771  1
  C  C94  1  0.85086537  0.31390163  0.24452106  1
  C  C95  1  0.48763686  0.16446345  0.24106580  1
  C  C96  1  0.63320644  0.48948947  0.92493031  1
  C  C97  1  0.86765407  0.34954730  0.92528598  1
  C  C98  1  0.48790778  0.13232396  0.92445260  1
  C  C99  1  0.63103877  0.12668142  0.41999732  1
  C  C100  1  0.48297877  0.34913745  0.41933748  1
  C  C101  1  0.84459585  0.49515255  0.42118131  1
  C  C102  1  0.36397241  0.49197970  0.07682860  1
  C  C103  1  0.15500146  0.65019924  0.07565578  1
  C  C104  1  0.51780153  0.86610033  0.07806165  1
  C  C105  1  0.37333636  0.85756074  0.57543586  1
  C  C106  1  0.51856793  0.65093844  0.57594537  1
  C  C107  1  0.15147875  0.49504845  0.57851280  1
  C  C108  1  0.30092584  0.82245217  0.25571788  1
  C  C109  1  0.51335126  0.67965920  0.25641131  1
  C  C110  1  0.15382493  0.46363357  0.25401214  1
  C  C111  1  0.29271166  0.47251729  0.75861357  1
  C  C112  1  0.15160440  0.68461375  0.75855180  1
  C  C113  1  0.52019777  0.83931438  0.75592832  1
