# generated using pymatgen
data_Cu11NiC58
_symmetry_space_group_name_H-M   'P 1'
_cell_length_a   17.71624567
_cell_length_b   8.90566615
_cell_length_c   23.54323428
_cell_angle_alpha   90.10360217
_cell_angle_beta   90.23419775
_cell_angle_gamma   120.36333779
_symmetry_Int_Tables_number   1
_chemical_formula_structural   Cu11NiC58
_chemical_formula_sum   'Cu33 Ni3 C174'
_cell_volume   3204.97856594
_cell_formula_units_Z   3
loop_
 _symmetry_equiv_pos_site_id
 _symmetry_equiv_pos_as_xyz
  1  'x, y, z'
loop_
 _atom_site_type_symbol
 _atom_site_label
 _atom_site_symmetry_multiplicity
 _atom_site_fract_x
 _atom_site_fract_y
 _atom_site_fract_z
 _atom_site_occupancy
  C  C0  1  0.99966860  0.97539416  0.48613540  1
  C  C1  1  0.50229064  0.02677126  0.00684753  1
  C  C2  1  0.34251089  0.33385492  0.83534751  1
  C  C3  1  0.83695398  0.34587135  0.83259744  1
  C  C4  1  0.33536177  0.33321277  0.33219593  1
  C  C5  1  0.84034043  0.34890976  0.32085335  1
  C  C6  1  0.00185139  0.99495486  0.86100345  1
  C  C7  1  0.49676688  0.00191125  0.86329415  1
  C  C8  1  0.00055941  0.98682609  0.64553610  1
  C  C9  1  0.49736603  0.99934579  0.63591490  1
  C  C10  1  0.34498285  0.33547256  0.67960855  1
  C  C11  1  0.83871301  0.36173985  0.67814339  1
  C  C12  1  0.34673217  0.34087350  0.99339565  1
  C  C13  1  0.84190230  0.34824751  0.46558730  1
  C  C14  1  0.65875891  0.65138479  0.03584278  1
  C  C15  1  0.15572140  0.66767866  0.50007977  1
  C  C16  1  0.14948032  0.64521650  0.81356669  1
  C  C17  1  0.67157431  0.67074991  0.82366045  1
  C  C18  1  0.00936016  0.99883365  0.33713597  1
  C  C19  1  0.50076893  0.01173210  0.34663685  1
  C  C20  1  0.99903290  0.01418033  0.15427985  1
  C  C21  1  0.49383405  0.99124819  0.16702451  1
  C  C22  1  0.31403515  0.30794201  0.17542277  1
  C  C23  1  0.85431530  0.36480339  0.18027586  1
  C  C24  1  0.83760298  0.33655496  0.99710957  1
  C  C25  1  0.33823265  0.34027920  0.47607651  1
  C  C26  1  0.15911382  0.65930143  0.02413976  1
  C  C27  1  0.66387231  0.67055613  0.50442375  1
  C  C28  1  0.17386537  0.65757371  0.31999097  1
  C  C29  1  0.64998021  0.65687867  0.31520066  1
  Ni  Ni30  1  0.99175627  0.68525472  0.74907333  1
  Ni  Ni31  1  0.50888493  0.36510621  0.92071616  1
  Ni  Ni32  1  0.02176881  0.68537963  0.39687402  1
  Cu  Cu33  1  0.14503713  0.01011822  0.24234004  1
  Cu  Cu34  1  0.63864295  0.99468445  0.25773169  1
  Cu  Cu35  1  0.35438968  0.71499868  0.25832754  1
  Cu  Cu36  1  0.86069703  0.71885184  0.24401857  1
  Cu  Cu37  1  0.00116914  0.28615216  0.25322804  1
  Cu  Cu38  1  0.50092788  0.28638879  0.24947962  1
  Cu  Cu39  1  0.16251189  0.30768383  0.75095237  1
  Cu  Cu40  1  0.64922902  0.30083457  0.74995769  1
  Cu  Cu41  1  0.50286515  0.70047229  0.75184785  1
  Cu  Cu42  1  0.34599817  -0.00004187  0.74996397  1
  Cu  Cu43  1  0.84675136  0.00620131  0.75070751  1
  Cu  Cu44  1  0.48842138  0.35818752  0.56251429  1
  Cu  Cu45  1  0.99165739  0.33212907  0.57797777  1
  Cu  Cu46  1  0.19173014  0.05583243  0.56599149  1
  Cu  Cu47  1  0.68743522  0.00743164  0.57305986  1
  Cu  Cu48  1  0.33260613  0.61510331  0.56714031  1
  Cu  Cu49  1  0.81539989  0.63966723  0.57006160  1
  Cu  Cu50  1  0.47063631  0.64300772  0.10497295  1
  Cu  Cu51  1  0.97989998  0.63263154  0.08638577  1
  Cu  Cu52  1  0.33689416  0.02498042  0.09530183  1
  Cu  Cu53  1  0.85035439  0.07798585  0.09527394  1
  Cu  Cu54  1  0.17463764  0.32391711  0.09063870  1
  Cu  Cu55  1  0.69431671  0.30133018  0.09498955  1
  Cu  Cu56  1  0.30406579  0.66452236  0.93315270  1
  Cu  Cu57  1  0.81611811  0.63141734  0.92968336  1
  Cu  Cu58  1  0.01080367  0.37628441  0.93623649  1
  Cu  Cu59  1  0.16507601  0.94482200  0.93302591  1
  Cu  Cu60  1  0.68556195  0.99897147  0.93041263  1
  Cu  Cu61  1  0.32578728  0.97657467  0.40558974  1
  Cu  Cu62  1  0.80159807  0.92157513  0.40551625  1
  Cu  Cu63  1  0.16884331  0.35733356  0.40527462  1
  Cu  Cu64  1  0.65169286  0.37831523  0.40354590  1
  Cu  Cu65  1  0.52120442  0.67201936  0.41105427  1
  C  C66  1  0.11046009  0.05890403  0.29253371  1
  C  C67  1  0.59728422  0.03124224  0.30749701  1
  C  C68  1  0.41572661  0.79980692  0.30728663  1
  C  C69  1  0.92096603  0.80199844  0.29333410  1
  C  C70  1  0.48434623  0.16851261  0.29857063  1
  C  C71  1  0.97887754  0.16304713  0.30246117  1
  C  C72  1  0.11206258  0.22771932  0.80371399  1
  C  C73  1  0.59863880  0.20227557  0.80009329  1
  C  C74  1  0.50427146  0.79117801  0.80495287  1
  C  C75  1  0.99782363  0.80375530  0.80381380  1
  C  C76  1  0.39653702  0.99939742  0.79973059  1
  C  C77  1  0.89363499  0.01340873  0.80466085  1
  C  C78  1  0.39592722  0.02800054  0.69611027  1
  C  C79  1  0.89978568  0.01767518  0.70076704  1
  C  C80  1  0.11502303  0.20708745  0.69993776  1
  C  C81  1  0.60456568  0.20808924  0.69630148  1
  C  C82  1  0.97776137  0.75261072  0.68718209  1
  C  C83  1  0.48982553  0.78387585  0.70098441  1
  C  C84  1  0.39262424  0.83106167  0.20816508  1
  C  C85  1  0.90038356  0.83372765  0.19295380  1
  C  C86  1  0.01402414  0.20358782  0.20207807  1
  C  C87  1  0.52150885  0.20825782  0.19907952  1
  C  C88  1  0.08452567  0.97693023  0.19346421  1
  C  C89  1  0.58141944  0.96447340  0.20684920  1
  C  C90  1  0.46177444  0.39495494  0.61769866  1
  C  C91  1  0.94699058  0.32049047  0.63180296  1
  C  C92  1  0.22945095  0.14307080  0.62082033  1
  C  C93  1  0.73474484  0.06952879  0.62727536  1
  C  C94  1  0.32869650  0.52973997  0.62179311  1
  C  C95  1  0.80272895  0.55800682  0.62605685  1
  C  C96  1  0.41196020  0.50129735  0.14556295  1
  C  C97  1  0.94650619  0.51903752  0.13873741  1
  C  C98  1  0.31753194  0.12885571  0.13820201  1
  C  C99  1  0.83987793  0.16390027  0.14715747  1
  C  C100  1  0.23986141  0.36211547  0.13875649  1
  C  C101  1  0.75187949  0.32780037  0.14546837  1
  C  C102  1  0.20434755  0.27306751  0.04036605  1
  C  C103  1  0.73522290  0.27926845  0.04255748  1
  C  C104  1  0.43166064  0.60511106  0.04775053  1
  C  C105  1  0.91510784  0.54169743  0.04010998  1
  C  C106  1  0.36703914  0.12485757  0.04223687  1
  C  C107  1  0.86562137  0.18924190  0.04485387  1
  C  C108  1  0.24800829  0.15954650  0.51679502  1
  C  C109  1  0.73247284  0.13261900  0.52655520  1
  C  C110  1  0.33344028  0.50661761  0.51825177  1
  C  C111  1  0.83425104  0.54297830  0.52639952  1
  C  C112  1  0.42322991  0.33210297  0.51738539  1
  C  C113  1  0.93969267  0.33806592  0.52886302  1
  C  C114  1  0.24843200  0.65621800  0.98227003  1
  C  C115  1  0.76326853  0.65176775  0.97417596  1
  C  C116  1  0.07501277  0.48638727  0.98085146  1
  C  C117  1  0.55438681  0.47777633  0.97889470  1
  C  C118  1  0.17250847  0.84728323  0.98291043  1
  C  C119  1  0.67307619  0.87388102  0.97545377  1
  C  C120  1  0.29705791  0.88027754  0.45880956  1
  C  C121  1  0.75942726  0.81918352  0.45778781  1
  C  C122  1  0.14731614  0.40739346  0.45914576  1
  C  C123  1  0.64007742  0.45912960  0.45490977  1
  C  C124  1  0.05461080  0.70889942  0.46328462  1
  C  C125  1  0.58068113  0.70478322  0.45947457  1
  C  C126  1  0.09014747  0.66236539  0.35560893  1
  C  C127  1  0.55590377  0.62713865  0.35912570  1
  C  C128  1  0.26290472  0.88365959  0.35798747  1
  C  C129  1  0.74573769  0.82945165  0.35450839  1
  C  C130  1  0.19164469  0.49410120  0.36049048  1
  C  C131  1  0.66293876  0.48682349  0.35225184  1
  C  C132  1  0.03540196  0.46151849  0.88035001  1
  C  C133  1  0.55898642  0.45287472  0.86208311  1
  C  C134  1  0.17170299  0.87020606  0.87885299  1
  C  C135  1  0.69709963  0.94137738  0.87393485  1
  C  C136  1  0.26968243  0.67951790  0.87805767  1
  C  C137  1  0.77359113  0.60010627  0.87309416  1
  C  C138  1  0.01498154  0.85879703  0.38555928  1
  C  C139  1  0.51393461  0.82670766  0.40009330  1
  C  C140  1  0.41142913  0.99427655  0.39134433  1
  C  C141  1  0.88942794  0.94430082  0.40060909  1
  C  C142  1  0.09125328  0.19249632  0.38702605  1
  C  C143  1  0.57331846  0.20206305  0.39543151  1
  C  C144  1  0.00456957  0.20659485  0.93508395  1
  C  C145  1  0.50060045  0.17642565  0.93049418  1
  C  C146  1  0.08246387  0.94432083  0.93712920  1
  C  C147  1  0.60899615  0.02370279  0.93035766  1
  C  C148  1  0.39327331  0.81574335  0.94244567  1
  C  C149  1  0.90325040  0.78677857  0.92862236  1
  C  C150  1  0.49416238  0.19997508  0.56618677  1
  C  C151  1  0.00037451  0.17726416  0.56935879  1
  C  C152  1  0.10429426  0.03539983  0.55887712  1
  C  C153  1  0.59800175  0.98066336  0.57890241  1
  C  C154  1  0.41449532  0.78402163  0.56492633  1
  C  C155  1  0.89016291  0.82108314  0.57037054  1
  C  C156  1  0.47958367  0.81254121  0.12043784  1
  C  C157  1  0.98732959  0.80134703  0.09824893  1
  C  C158  1  0.41267507  0.01050754  0.11606364  1
  C  C159  1  0.92755473  0.05612906  0.10370991  1
  C  C160  1  0.09000451  0.17462499  0.10906247  1
  C  C161  1  0.60609733  0.14482979  0.10201885  1
  C  C162  1  0.33270715  0.15065572  0.75713022  1
  C  C163  1  0.83164511  0.15430533  0.75138850  1
  C  C164  1  0.24688891  0.31114309  0.75538032  1
  C  C165  1  0.73496264  0.31176904  0.75359929  1
  C  C166  1  0.42560646  0.52059728  0.75621209  1
  C  C167  1  0.90692804  0.49221563  0.75665115  1
  C  C168  1  0.34337250  0.54169149  0.24835574  1
  C  C169  1  0.85521148  0.54317613  0.23306353  1
  C  C170  1  0.42193000  0.29869593  0.23931327  1
  C  C171  1  0.92451637  0.31474808  0.24323507  1
  C  C172  1  0.23486117  0.17390673  0.23119634  1
  C  C173  1  0.72662219  0.14385198  0.24974576  1
  C  C174  1  0.30784765  0.50272637  0.93168789  1
  C  C175  1  0.82275913  0.47525829  0.94283020  1
  C  C176  1  0.41209712  0.34462238  0.91528596  1
  C  C177  1  0.92593879  0.36056861  0.94995584  1
  C  C178  1  0.23926242  0.12433931  0.93524244  1
  C  C179  1  0.76673124  0.16557801  0.94293602  1
  C  C180  1  0.33622950  0.15489369  0.41264602  1
  C  C181  1  0.80686395  0.09233677  0.40834381  1
  C  C182  1  0.24818162  0.33791818  0.41257227  1
  C  C183  1  0.72928683  0.35941895  0.40721226  1
  C  C184  1  0.43201938  0.51494811  0.42132770  1
  C  C185  1  0.92567078  0.50686535  0.39278316  1
  C  C186  1  0.16712440  0.48055055  0.08164070  1
  C  C187  1  0.68609587  0.45656791  0.09040734  1
  C  C188  1  0.06594574  0.65085900  0.07266445  1
  C  C189  1  0.55629840  0.65605516  0.10615632  1
  C  C190  1  0.25779471  0.85416782  0.08641648  1
  C  C191  1  0.77202028  0.90756651  0.08834795  1
  C  C192  1  0.18766606  0.88768004  0.56792277  1
  C  C193  1  0.67863177  0.83832745  0.55718162  1
  C  C194  1  0.25653211  0.63546024  0.56238310  1
  C  C195  1  0.73364643  0.63347384  0.55398168  1
  C  C196  1  0.07825592  0.49119492  0.57897570  1
  C  C197  1  0.57250361  0.50888097  0.54772414  1
  C  C198  1  0.15788517  0.86489736  0.25242833  1
  C  C199  1  0.64220970  0.83203135  0.26814743  1
  C  C200  1  0.26680815  0.69764732  0.26931344  1
  C  C201  1  0.77384119  0.69089601  0.25532963  1
  C  C202  1  0.08131781  0.45385953  0.26472598  1
  C  C203  1  0.57807984  0.46343576  0.26026642  1
  C  C204  1  0.17981325  0.48582761  0.74531462  1
  C  C205  1  0.65986708  0.47494798  0.74880994  1
  C  C206  1  0.07896834  0.67153614  0.74578686  1
  C  C207  1  0.58322207  0.69412703  0.74640184  1
  C  C208  1  0.26261910  0.83795604  0.74633980  1
  C  C209  1  0.76319193  0.84141992  0.74757238  1
