# generated using pymatgen
data_CuNiC15
_symmetry_space_group_name_H-M   'P 1'
_cell_length_a   8.77056548
_cell_length_b   8.77056519
_cell_length_c   22.52787292
_cell_angle_alpha   90.00000000
_cell_angle_beta   90.00000000
_cell_angle_gamma   120.00000108
_symmetry_Int_Tables_number   1
_chemical_formula_structural   CuNiC15
_chemical_formula_sum   'Cu6 Ni6 C90'
_cell_volume   1500.74184110
_cell_formula_units_Z   6
loop_
 _symmetry_equiv_pos_site_id
 _symmetry_equiv_pos_as_xyz
  1  'x, y, z'
loop_
 _atom_site_type_symbol
 _atom_site_label
 _atom_site_symmetry_multiplicity
 _atom_site_fract_x
 _atom_site_fract_y
 _atom_site_fract_z
 _atom_site_occupancy
  Ni  Ni0  1  -0.00000000  -0.00000000  0.64483556  1
  Ni  Ni1  1  -0.00000000  -0.00000000  0.14483556  1
  Ni  Ni2  1  0.66666700  0.33333300  0.97816856  1
  Ni  Ni3  1  0.66666700  0.33333300  0.47816856  1
  Ni  Ni4  1  0.33333300  0.66666700  0.31150256  1
  Ni  Ni5  1  0.33333300  0.66666700  0.81150256  1
  Cu  Cu6  1  -0.00000000  -0.00000000  0.35385483  1
  Cu  Cu7  1  -0.00000000  -0.00000000  0.85385483  1
  Cu  Cu8  1  0.66666700  0.33333300  0.68718783  1
  Cu  Cu9  1  0.66666700  0.33333300  0.18718783  1
  Cu  Cu10  1  0.33333300  0.66666700  0.02052183  1
  Cu  Cu11  1  0.33333300  0.66666700  0.52052183  1
  C  C12  1  0.29296334  0.00593460  0.25121736  1
  C  C13  1  0.71297126  0.70703666  0.25121736  1
  C  C14  1  0.99406540  0.28702874  0.25121736  1
  C  C15  1  0.29296334  0.28702874  0.75121736  1
  C  C16  1  0.99406540  0.70703666  0.75121736  1
  C  C17  1  0.71297126  0.00593460  0.75121736  1
  C  C18  1  0.95963034  0.33926760  0.58455036  1
  C  C19  1  0.37963826  0.04036966  0.58455036  1
  C  C20  1  0.66073240  0.62036174  0.58455036  1
  C  C21  1  0.95963034  0.62036174  0.08455036  1
  C  C22  1  0.66073240  0.04036966  0.08455036  1
  C  C23  1  0.37963826  0.33926760  0.08455036  1
  C  C24  1  0.62629634  0.67260160  0.91788436  1
  C  C25  1  0.04630426  0.37370366  0.91788436  1
  C  C26  1  0.32739840  0.95369574  0.91788436  1
  C  C27  1  0.62629634  0.95369574  0.41788436  1
  C  C28  1  0.32739840  0.37370366  0.41788436  1
  C  C29  1  0.04630426  0.67260160  0.41788436  1
  C  C30  1  0.20836505  0.02926894  0.30300593  1
  C  C31  1  0.82090389  0.79163495  0.30300593  1
  C  C32  1  0.97073106  0.17909611  0.30300593  1
  C  C33  1  0.20836505  0.17909611  0.80300593  1
  C  C34  1  0.97073106  0.79163495  0.80300593  1
  C  C35  1  0.82090389  0.02926894  0.80300593  1
  C  C36  1  0.79094384  0.96802137  0.69706129  1
  C  C37  1  0.17707753  0.20905616  0.69706129  1
  C  C38  1  0.03197863  0.82292247  0.69706129  1
  C  C39  1  0.79094384  0.82292247  0.19706129  1
  C  C40  1  0.03197863  0.20905616  0.19706129  1
  C  C41  1  0.17707753  0.96802137  0.19706129  1
  C  C42  1  0.87503205  0.36260194  0.63633893  1
  C  C43  1  0.48757089  0.12496795  0.63633893  1
  C  C44  1  0.63739806  0.51242911  0.63633893  1
  C  C45  1  0.87503205  0.51242911  0.13633893  1
  C  C46  1  0.63739806  0.12496795  0.13633893  1
  C  C47  1  0.48757089  0.36260194  0.13633893  1
  C  C48  1  0.45761084  0.30135437  0.03039429  1
  C  C49  1  0.84374453  0.54238916  0.03039429  1
  C  C50  1  0.69864563  0.15625547  0.03039429  1
  C  C51  1  0.45761084  0.15625547  0.53039429  1
  C  C52  1  0.69864563  0.54238916  0.53039429  1
  C  C53  1  0.84374453  0.30135437  0.53039429  1
  C  C54  1  0.54169805  0.69593594  0.96967293  1
  C  C55  1  0.15423689  0.45830195  0.96967293  1
  C  C56  1  0.30406406  0.84576311  0.96967293  1
  C  C57  1  0.54169805  0.84576311  0.46967293  1
  C  C58  1  0.30406406  0.45830195  0.46967293  1
  C  C59  1  0.15423689  0.69593594  0.46967293  1
  C  C60  1  0.12427684  0.63468837  0.36372829  1
  C  C61  1  0.51041053  0.87572316  0.36372829  1
  C  C62  1  0.36531163  0.48958947  0.36372829  1
  C  C63  1  0.12427684  0.48958947  0.86372829  1
  C  C64  1  0.36531163  0.87572316  0.86372829  1
  C  C65  1  0.51041053  0.63468837  0.86372829  1
  C  C66  1  0.02305080  0.82285973  0.40751422  1
  C  C67  1  0.79980893  0.97694920  0.40751422  1
  C  C68  1  0.17714027  0.20019107  0.40751422  1
  C  C69  1  0.02305080  0.20019107  0.90751422  1
  C  C70  1  0.17714027  0.97694920  0.90751422  1
  C  C71  1  0.79980893  0.82285973  0.90751422  1
  C  C72  1  0.97403357  0.17562287  0.59163773  1
  C  C73  1  0.20158930  0.02596643  0.59163773  1
  C  C74  1  0.82437713  0.79841070  0.59163773  1
  C  C75  1  0.97403357  0.79841070  0.09163773  1
  C  C76  1  0.82437713  0.02596643  0.09163773  1
  C  C77  1  0.20158930  0.17562287  0.09163773  1
  C  C78  1  0.68971780  0.15619273  0.74084722  1
  C  C79  1  0.46647593  0.31028220  0.74084722  1
  C  C80  1  0.84380727  0.53352407  0.74084722  1
  C  C81  1  0.68971780  0.53352407  0.24084722  1
  C  C82  1  0.84380727  0.31028220  0.24084722  1
  C  C83  1  0.46647593  0.15619273  0.24084722  1
  C  C84  1  0.64070057  0.50895587  0.92497073  1
  C  C85  1  0.86825630  0.35929943  0.92497073  1
  C  C86  1  0.49104413  0.13174370  0.92497073  1
  C  C87  1  0.64070057  0.13174370  0.42497073  1
  C  C88  1  0.49104413  0.35929943  0.42497073  1
  C  C89  1  0.86825630  0.50895587  0.42497073  1
  C  C90  1  0.35638380  0.48952673  0.07418122  1
  C  C91  1  0.13314193  0.64361620  0.07418122  1
  C  C92  1  0.51047327  0.86685807  0.07418122  1
  C  C93  1  0.35638380  0.86685807  0.57418122  1
  C  C94  1  0.51047327  0.64361620  0.57418122  1
  C  C95  1  0.13314193  0.48952673  0.57418122  1
  C  C96  1  0.30736657  0.84228987  0.25830473  1
  C  C97  1  0.53492230  0.69263343  0.25830473  1
  C  C98  1  0.15771013  0.46507770  0.25830473  1
  C  C99  1  0.30736657  0.46507770  0.75830473  1
  C  C100  1  0.15771013  0.69263343  0.75830473  1
  C  C101  1  0.53492230  0.84228987  0.75830473  1
