# generated using pymatgen
data_Cu(NiC3)3
_symmetry_space_group_name_H-M   'P 1'
_cell_length_a   5.85871046
_cell_length_b   5.98495398
_cell_length_c   5.98496510
_cell_angle_alpha   58.80322072
_cell_angle_beta   61.44824680
_cell_angle_gamma   61.44837400
_symmetry_Int_Tables_number   1
_chemical_formula_structural   Cu(NiC3)3
_chemical_formula_sum   'Cu1 Ni3 C9'
_cell_volume   150.08470390
_cell_formula_units_Z   1
loop_
 _symmetry_equiv_pos_site_id
 _symmetry_equiv_pos_as_xyz
  1  'x, y, z'
loop_
 _atom_site_type_symbol
 _atom_site_label
 _atom_site_symmetry_multiplicity
 _atom_site_fract_x
 _atom_site_fract_y
 _atom_site_fract_z
 _atom_site_occupancy
  C  C0  1  0.50000000  0.00000000  0.00000000  1
  Ni  Ni1  1  0.50000000  0.50000000  0.00000000  1
  Ni  Ni2  1  0.50000000  0.00000000  0.50000000  1
  Ni  Ni3  1  0.00000000  0.50000000  0.50000000  1
  Cu  Cu4  1  0.50000000  0.50000000  0.50000000  1
  C  C5  1  0.29847700  0.23658800  0.23658900  1
  C  C6  1  0.70115900  0.26624900  0.26624800  1
  C  C7  1  0.27316400  0.70585200  0.24192500  1
  C  C8  1  0.27316300  0.24192500  0.70585100  1
  C  C9  1  0.72683700  0.75807500  0.29414900  1
  C  C10  1  0.72683600  0.29414800  0.75807500  1
  C  C11  1  0.29884100  0.73375100  0.73375200  1
  C  C12  1  0.70152300  0.76341200  0.76341100  1
