# generated using pymatgen
data_Cu6NiC12
_symmetry_space_group_name_H-M   'P 1'
_cell_length_a   5.08737613
_cell_length_b   7.79122316
_cell_length_c   5.93357442
_cell_angle_alpha   95.73871861
_cell_angle_beta   98.28131012
_cell_angle_gamma   89.99867143
_symmetry_Int_Tables_number   1
_chemical_formula_structural   Cu6NiC12
_chemical_formula_sum   'Cu6 Ni1 C12'
_cell_volume   231.54492792
_cell_formula_units_Z   1
loop_
 _symmetry_equiv_pos_site_id
 _symmetry_equiv_pos_as_xyz
  1  'x, y, z'
loop_
 _atom_site_type_symbol
 _atom_site_label
 _atom_site_symmetry_multiplicity
 _atom_site_fract_x
 _atom_site_fract_y
 _atom_site_fract_z
 _atom_site_occupancy
  Ni  Ni0  1  0.50000000  -0.00000000  -0.00000000  1
  Cu  Cu1  1  0.50000000  -0.00000000  0.50000000  1
  Cu  Cu2  1  0.51039075  0.63202210  0.19463254  1
  Cu  Cu3  1  0.48960925  0.36797790  0.80536746  1
  Cu  Cu4  1  0.02744755  0.68171256  0.66297890  1
  Cu  Cu5  1  0.97255245  0.31828744  0.33702110  1
  Cu  Cu6  1  0.00000000  -0.00000000  -0.00000000  1
  C  C7  1  0.78592992  0.09467884  0.26266367  1
  C  C8  1  0.71181079  0.76417155  0.46312597  1
  C  C9  1  0.70958745  0.43161421  0.11639710  1
  C  C10  1  0.29041255  0.56838579  0.88360290  1
  C  C11  1  0.28818921  0.23582845  0.53687403  1
  C  C12  1  0.21407008  0.90532116  0.73733633  1
  C  C13  1  0.81235053  0.45364639  0.62551236  1
  C  C14  1  0.73520623  0.79731244  0.95325870  1
  C  C15  1  0.69968803  0.13469320  0.80279255  1
  C  C16  1  0.30031197  0.86530680  0.19720745  1
  C  C17  1  0.18764947  0.54635361  0.37448764  1
  C  C18  1  0.26479377  0.20268856  0.04674130  1
