# generated using pymatgen
data_Cu5(NiC)7
_symmetry_space_group_name_H-M   'P 1'
_cell_length_a   5.34684148
_cell_length_b   7.73793575
_cell_length_c   5.74091274
_cell_angle_alpha   97.92018045
_cell_angle_beta   84.89293754
_cell_angle_gamma   89.68732341
_symmetry_Int_Tables_number   1
_chemical_formula_structural   Cu5(NiC)7
_chemical_formula_sum   'Cu5 Ni7 C7'
_cell_volume   234.28426298
_cell_formula_units_Z   1
loop_
 _symmetry_equiv_pos_site_id
 _symmetry_equiv_pos_as_xyz
  1  'x, y, z'
loop_
 _atom_site_type_symbol
 _atom_site_label
 _atom_site_symmetry_multiplicity
 _atom_site_fract_x
 _atom_site_fract_y
 _atom_site_fract_z
 _atom_site_occupancy
  C  C0  1  0.49882954  0.49096481  0.48393323  1
  C  C1  1  0.50060492  0.98651844  0.48815581  1
  C  C2  1  0.53286749  0.67502271  0.09820338  1
  C  C3  1  0.46350450  0.32970705  0.89071534  1
  C  C4  1  -0.02756854  0.71414784  0.60652378  1
  C  C5  1  0.01126599  0.19779430  0.52357504  1
  C  C6  1  0.98996398  0.99262622  0.00493021  1
  Ni  Ni7  1  0.81563744  0.78490822  0.91228207  1
  Ni  Ni8  1  0.79223516  0.06178878  0.30405471  1
  Ni  Ni9  1  0.63858699  0.74788182  0.42476704  1
  Ni  Ni10  1  0.62504654  0.44512990  0.14133041  1
  Ni  Ni11  1  0.37191673  0.55909820  0.83198262  1
  Ni  Ni12  1  0.37804286  0.24132379  0.57012264  1
  Ni  Ni13  1  0.16129167  0.93634701  0.66373510  1
  Cu  Cu14  1  0.84075223  0.45344627  0.60321985  1
  Cu  Cu15  1  0.72682061  0.13399144  0.81044300  1
  Cu  Cu16  1  0.32314082  0.89592974  0.15316529  1
  Cu  Cu17  1  0.19542086  0.59191839  0.35397596  1
  Cu  Cu18  1  0.17552721  0.21145508  0.07536252  1
