# generated using pymatgen
data_Cu12Ni12C13
_symmetry_space_group_name_H-M   'P 1'
_cell_length_a   9.93456399
_cell_length_b   14.37997589
_cell_length_c   3.11818500
_cell_angle_alpha   90.00000000
_cell_angle_beta   90.00000000
_cell_angle_gamma   95.19588504
_symmetry_Int_Tables_number   1
_chemical_formula_structural   Cu12Ni12C13
_chemical_formula_sum   'Cu12 Ni12 C13'
_cell_volume   443.62970036
_cell_formula_units_Z   1
loop_
 _symmetry_equiv_pos_site_id
 _symmetry_equiv_pos_as_xyz
  1  'x, y, z'
loop_
 _atom_site_type_symbol
 _atom_site_label
 _atom_site_symmetry_multiplicity
 _atom_site_fract_x
 _atom_site_fract_y
 _atom_site_fract_z
 _atom_site_occupancy
  C  C0  1  0.99209400  0.50466100  0.00000000  1
  C  C1  1  0.99711600  0.01187000  0.00000000  1
  C  C2  1  0.06173800  0.26713700  0.00000000  1
  C  C3  1  0.97115900  0.70334100  0.00000000  1
  C  C4  1  0.26289600  0.15848000  0.50000000  1
  C  C5  1  0.26179000  0.42394700  0.50000000  1
  C  C6  1  0.23340200  0.87604500  0.50000000  1
  C  C7  1  0.52904200  0.32836700  0.00000000  1
  C  C8  1  0.51192100  0.99335300  0.00000000  1
  C  C9  1  0.48878400  0.65497500  0.00000000  1
  C  C10  1  0.75396900  0.14308600  0.50000000  1
  C  C11  1  0.69861800  0.50746200  0.50000000  1
  C  C12  1  0.69917800  0.83473400  0.50000000  1
  Ni  Ni13  1  0.18837500  0.28086700  0.50000000  1
  Ni  Ni14  1  0.08081800  0.94504700  0.50000000  1
  Ni  Ni15  1  0.15456400  0.11779200  0.00000000  1
  Ni  Ni16  1  0.13981600  0.42485000  0.00000000  1
  Ni  Ni17  1  0.33904500  0.90911200  0.00000000  1
  Ni  Ni18  1  0.43576600  0.37620600  0.50000000  1
  Ni  Ni19  1  0.58738900  0.93772100  0.50000000  1
  Ni  Ni20  1  0.57859200  0.60003300  0.50000000  1
  Ni  Ni21  1  0.65187400  0.10246400  0.00000000  1
  Ni  Ni22  1  0.66415000  0.43326100  0.00000000  1
  Ni  Ni23  1  0.62303500  0.76742800  0.00000000  1
  Ni  Ni24  1  0.90862500  0.07302100  0.50000000  1
  Cu  Cu25  1  0.04745300  0.60498400  0.50000000  1
  Cu  Cu26  1  0.14563700  0.78010700  0.00000000  1
  Cu  Cu27  1  0.39655800  0.21174800  0.00000000  1
  Cu  Cu28  1  0.35023500  0.53317300  0.00000000  1
  Cu  Cu29  1  0.40347200  0.06399800  0.50000000  1
  Cu  Cu30  1  0.38191200  0.70563400  0.50000000  1
  Cu  Cu31  1  0.63053800  0.26511900  0.50000000  1
  Cu  Cu32  1  0.86294700  0.23513500  0.00000000  1
  Cu  Cu33  1  0.82356000  0.90276600  0.00000000  1
  Cu  Cu34  1  0.82900100  0.58618000  0.00000000  1
  Cu  Cu35  1  0.89475800  0.44837900  0.50000000  1
  Cu  Cu36  1  0.87017200  0.75510800  0.50000000  1
