# generated using pymatgen
data_Cu16NiC3
_symmetry_space_group_name_H-M   'P 1'
_cell_length_a   12.10058541
_cell_length_b   12.10058541
_cell_length_c   12.10058541
_cell_angle_alpha   60.00000000
_cell_angle_beta   60.00000000
_cell_angle_gamma   60.00000000
_symmetry_Int_Tables_number   1
_chemical_formula_structural   Cu16NiC3
_chemical_formula_sum   'Cu32 Ni2 C6'
_cell_volume   1252.86462341
_cell_formula_units_Z   2
loop_
 _symmetry_equiv_pos_site_id
 _symmetry_equiv_pos_as_xyz
  1  'x, y, z'
loop_
 _atom_site_type_symbol
 _atom_site_label
 _atom_site_symmetry_multiplicity
 _atom_site_fract_x
 _atom_site_fract_y
 _atom_site_fract_z
 _atom_site_occupancy
  C  C0  1  0.50000000  0.50000000  0.50000000  1
  C  C1  1  0.75000000  0.75000000  0.75000000  1
  C  C2  1  0.12500000  0.12500000  0.12500000  1
  C  C3  1  0.12500000  0.12500000  0.62500000  1
  C  C4  1  0.12500000  0.62500000  0.12500000  1
  C  C5  1  0.62500000  0.12500000  0.12500000  1
  Ni  Ni6  1  0.25000000  0.25000000  0.25000000  1
  Ni  Ni7  1  0.00000000  0.00000000  0.00000000  1
  Cu  Cu8  1  0.79847400  0.17606600  0.58814000  1
  Cu  Cu9  1  0.43732000  0.79847400  0.58814000  1
  Cu  Cu10  1  0.58814000  0.79847400  0.17606600  1
  Cu  Cu11  1  0.58814000  0.17606600  0.43732000  1
  Cu  Cu12  1  0.58814000  0.43732000  0.79847400  1
  Cu  Cu13  1  0.43732000  0.58814000  0.17606600  1
  Cu  Cu14  1  0.32999000  0.32999000  0.01003000  1
  Cu  Cu15  1  0.01003000  0.32999000  0.32999000  1
  Cu  Cu16  1  0.32999000  0.01003100  0.32999000  1
  Cu  Cu17  1  0.32999000  0.32999000  0.32999000  1
  Cu  Cu18  1  0.92001000  0.92001000  0.23996900  1
  Cu  Cu19  1  0.23996900  0.92001000  0.92001000  1
  Cu  Cu20  1  0.92001000  0.23996900  0.92001000  1
  Cu  Cu21  1  0.92001000  0.92001000  0.92001000  1
  Cu  Cu22  1  0.07393400  0.45152600  0.81268000  1
  Cu  Cu23  1  0.81268000  0.07393400  0.45152600  1
  Cu  Cu24  1  0.45152600  0.81268000  0.07393400  1
  Cu  Cu25  1  0.07393400  0.66186000  0.45152600  1
  Cu  Cu26  1  0.07393400  0.81268000  0.66186000  1
  Cu  Cu27  1  0.45152600  0.66186000  0.81268000  1
  Cu  Cu28  1  0.66186000  0.07393400  0.81268000  1
  Cu  Cu29  1  0.66186000  0.45152600  0.07393400  1
  Cu  Cu30  1  0.81268000  0.45152600  0.66186000  1
  Cu  Cu31  1  0.45152600  0.07393400  0.66186000  1
  Cu  Cu32  1  0.81268000  0.66186000  0.07393400  1
  Cu  Cu33  1  0.66186000  0.81268000  0.45152600  1
  Cu  Cu34  1  0.17606600  0.79847400  0.43732000  1
  Cu  Cu35  1  0.43732000  0.17606600  0.79847400  1
  Cu  Cu36  1  0.79847400  0.43732000  0.17606600  1
  Cu  Cu37  1  0.17606600  0.58814000  0.79847400  1
  Cu  Cu38  1  0.17606600  0.43732000  0.58814000  1
  Cu  Cu39  1  0.79847400  0.58814000  0.43732000  1
