# generated using pymatgen
data_CuNiC12
_symmetry_space_group_name_H-M   'P 1'
_cell_length_a   5.01160344
_cell_length_b   8.82673759
_cell_length_c   8.82673729
_cell_angle_alpha   35.03813636
_cell_angle_beta   90.00000000
_cell_angle_gamma   90.00000000
_symmetry_Int_Tables_number   1
_chemical_formula_structural   CuNiC12
_chemical_formula_sum   'Cu1 Ni1 C12'
_cell_volume   224.17178853
_cell_formula_units_Z   1
loop_
 _symmetry_equiv_pos_site_id
 _symmetry_equiv_pos_as_xyz
  1  'x, y, z'
loop_
 _atom_site_type_symbol
 _atom_site_label
 _atom_site_symmetry_multiplicity
 _atom_site_fract_x
 _atom_site_fract_y
 _atom_site_fract_z
 _atom_site_occupancy
  C  C0  1  -0.00000000  0.10096511  0.10096511  1
  C  C1  1  -0.00000000  0.89903489  0.89903489  1
  C  C2  1  0.50000000  0.32081405  0.32081405  1
  C  C3  1  0.50000000  0.67918595  0.67918595  1
  Ni  Ni4  1  0.50000000  0.50000000  0.50000000  1
  Cu  Cu5  1  0.50000000  -0.00000000  0.00000000  1
  C  C6  1  -0.00000000  0.33332225  0.33332225  1
  C  C7  1  -0.00000000  0.66667775  0.66667775  1
  C  C8  1  0.24227141  0.23564801  0.76435199  1
  C  C9  1  0.24227141  0.76435199  0.23564801  1
  C  C10  1  0.50000000  0.81122505  0.81122505  1
  C  C11  1  0.50000000  0.18877495  0.18877495  1
  C  C12  1  0.75772859  0.76435199  0.23564801  1
  C  C13  1  0.75772859  0.23564801  0.76435199  1
