# generated using pymatgen
data_Cu4Ni2C3
_symmetry_space_group_name_H-M   'P 1'
_cell_length_a   6.38270500
_cell_length_b   10.26759500
_cell_length_c   13.72474200
_cell_angle_alpha   90.00000000
_cell_angle_beta   90.00000000
_cell_angle_gamma   90.00000000
_symmetry_Int_Tables_number   1
_chemical_formula_structural   Cu4Ni2C3
_chemical_formula_sum   'Cu32 Ni16 C24'
_cell_volume   899.45137795
_cell_formula_units_Z   8
loop_
 _symmetry_equiv_pos_site_id
 _symmetry_equiv_pos_as_xyz
  1  'x, y, z'
loop_
 _atom_site_type_symbol
 _atom_site_label
 _atom_site_symmetry_multiplicity
 _atom_site_fract_x
 _atom_site_fract_y
 _atom_site_fract_z
 _atom_site_occupancy
  C  C0  1  0.03014400  0.63469100  0.60699600  1
  C  C1  1  0.53014400  0.36530900  0.89300400  1
  C  C2  1  0.46985600  0.13469100  0.39300400  1
  C  C3  1  0.96985600  0.86530900  0.10699600  1
  C  C4  1  0.96985600  0.36530900  0.39300400  1
  C  C5  1  0.46985600  0.63469100  0.10699600  1
  C  C6  1  0.53014400  0.86530900  0.60699600  1
  C  C7  1  0.03014400  0.13469100  0.89300400  1
  C  C8  1  0.47444200  0.65561300  0.79147100  1
  C  C9  1  0.97444200  0.34438700  0.70852900  1
  C  C10  1  0.02555800  0.15561300  0.20852900  1
  C  C11  1  0.52555800  0.84438700  0.29147100  1
  C  C12  1  0.52555800  0.34438700  0.20852900  1
  C  C13  1  0.02555800  0.65561300  0.29147100  1
  C  C14  1  0.97444200  0.84438700  0.79147100  1
  C  C15  1  0.47444200  0.15561300  0.70852900  1
  C  C16  1  0.03729500  0.10280600  0.60628000  1
  C  C17  1  0.53729500  0.89719400  0.89372000  1
  C  C18  1  0.53729500  0.39719400  0.60628000  1
  C  C19  1  0.03729500  0.60280600  0.89372000  1
  C  C20  1  0.96270500  0.89719400  0.39372000  1
  C  C21  1  0.46270500  0.10280600  0.10628000  1
  C  C22  1  0.46270500  0.60280600  0.39372000  1
  C  C23  1  0.96270500  0.39719400  0.10628000  1
  Ni  Ni24  1  0.63089500  0.12505300  0.73495600  1
  Ni  Ni25  1  0.13089500  0.87494700  0.76504400  1
  Ni  Ni26  1  0.86910500  0.62505300  0.26504400  1
  Ni  Ni27  1  0.36910500  0.37494700  0.23495600  1
  Ni  Ni28  1  0.36910500  0.87494700  0.26504400  1
  Ni  Ni29  1  0.86910500  0.12505300  0.23495600  1
  Ni  Ni30  1  0.13089500  0.37494700  0.73495600  1
  Ni  Ni31  1  0.63089500  0.62505300  0.76504400  1
  Ni  Ni32  1  0.34287900  0.11330300  0.04827700  1
  Ni  Ni33  1  0.84287900  0.88669700  0.45172300  1
  Ni  Ni34  1  0.15712100  0.61330300  0.95172300  1
  Ni  Ni35  1  0.65712100  0.38669700  0.54827700  1
  Ni  Ni36  1  0.65712100  0.88669700  0.95172300  1
  Ni  Ni37  1  0.15712100  0.11330300  0.54827700  1
  Ni  Ni38  1  0.84287900  0.38669700  0.04827700  1
  Ni  Ni39  1  0.34287900  0.61330300  0.45172300  1
  Cu  Cu40  1  0.36592700  0.70146900  0.51573800  1
  Cu  Cu41  1  0.86592700  0.79853100  0.51573800  1
  Cu  Cu42  1  0.13407300  0.70146900  0.01573800  1
  Cu  Cu43  1  0.63407300  0.29853100  0.48426200  1
  Cu  Cu44  1  0.63407300  0.79853100  0.01573800  1
  Cu  Cu45  1  0.13407300  0.20146900  0.48426200  1
  Cu  Cu46  1  0.86592700  0.29853100  0.98426200  1
  Cu  Cu47  1  0.36592700  0.20146900  0.98426200  1
  Cu  Cu48  1  0.71610000  0.19765000  0.79970000  1
  Cu  Cu49  1  0.21610000  0.80235000  0.70030000  1
  Cu  Cu50  1  0.78390000  0.69765000  0.20030000  1
  Cu  Cu51  1  0.28390000  0.30235000  0.29970000  1
  Cu  Cu52  1  0.28390000  0.80235000  0.20030000  1
  Cu  Cu53  1  0.78390000  0.19765000  0.29970000  1
  Cu  Cu54  1  0.18741800  0.53632800  0.45229200  1
  Cu  Cu55  1  0.71610000  0.69765000  0.70030000  1
  Cu  Cu56  1  0.71106500  0.02303100  0.69995300  1
  Cu  Cu57  1  0.21106500  0.97696900  0.80004700  1
  Cu  Cu58  1  0.78893500  0.52303100  0.30004700  1
  Cu  Cu59  1  0.28893500  0.47696900  0.19995300  1
  Cu  Cu60  1  0.28893500  0.97696900  0.30004700  1
  Cu  Cu61  1  0.78893500  0.02303100  0.19995300  1
  Cu  Cu62  1  0.68741800  0.46367200  0.04770800  1
  Cu  Cu63  1  0.71106500  0.52303100  0.80004700  1
  Cu  Cu64  1  0.31258200  0.03632800  0.54770800  1
  Cu  Cu65  1  0.81258200  0.96367200  0.95229200  1
  Cu  Cu66  1  0.81258200  0.46367200  0.54770800  1
  Cu  Cu67  1  0.31258200  0.53632800  0.95229200  1
  Cu  Cu68  1  0.68741800  0.96367200  0.45229200  1
  Cu  Cu69  1  0.18741800  0.03632800  0.04770800  1
  Cu  Cu70  1  0.21610000  0.30235000  0.79970000  1
  Cu  Cu71  1  0.21106500  0.47696900  0.69995300  1
