# generated using pymatgen
data_Cu4Ni2C9
_symmetry_space_group_name_H-M   'P 1'
_cell_length_a   7.34448600
_cell_length_b   7.34448600
_cell_length_c   7.34829769
_cell_angle_alpha   119.98284245
_cell_angle_beta   119.98284245
_cell_angle_gamma   90.00000000
_symmetry_Int_Tables_number   1
_chemical_formula_structural   Cu4Ni2C9
_chemical_formula_sum   'Cu4 Ni2 C9'
_cell_volume   280.42689256
_cell_formula_units_Z   1
loop_
 _symmetry_equiv_pos_site_id
 _symmetry_equiv_pos_as_xyz
  1  'x, y, z'
loop_
 _atom_site_type_symbol
 _atom_site_label
 _atom_site_symmetry_multiplicity
 _atom_site_fract_x
 _atom_site_fract_y
 _atom_site_fract_z
 _atom_site_occupancy
  C  C0  1  0.50000000  0.50000000  0.00000000  1
  Ni  Ni1  1  0.75000000  0.25000000  0.50000000  1
  Ni  Ni2  1  0.00000000  0.00000000  0.00000000  1
  Cu  Cu3  1  0.90109800  0.63369300  0.26738700  1
  Cu  Cu4  1  0.36628800  0.63369300  0.26738700  1
  Cu  Cu5  1  0.36630700  0.63371200  0.73261300  1
  Cu  Cu6  1  0.36630700  0.09890200  0.73261300  1
  C  C7  1  0.14043600  0.85905900  0.71812000  1
  C  C8  1  0.57768400  0.85905900  0.71812000  1
  C  C9  1  0.12758500  0.37608900  0.75217700  1
  C  C10  1  0.62459200  0.37608900  0.75217700  1
  C  C11  1  0.14094100  0.42231600  0.28188000  1
  C  C12  1  0.14094100  0.85956400  0.28188000  1
  C  C13  1  0.62391100  0.37540800  0.24782300  1
  C  C14  1  0.62391100  0.87241500  0.24782300  1
