# generated using pymatgen
data_CuNiC9
_symmetry_space_group_name_H-M   'P 1'
_cell_length_a   6.84357084
_cell_length_b   6.84357064
_cell_length_c   5.64974208
_cell_angle_alpha   65.62057580
_cell_angle_beta   65.62057654
_cell_angle_gamma   49.60568133
_symmetry_Int_Tables_number   1
_chemical_formula_structural   CuNiC9
_chemical_formula_sum   'Cu1 Ni1 C9'
_cell_volume   179.48221459
_cell_formula_units_Z   1
loop_
 _symmetry_equiv_pos_site_id
 _symmetry_equiv_pos_as_xyz
  1  'x, y, z'
loop_
 _atom_site_type_symbol
 _atom_site_label
 _atom_site_symmetry_multiplicity
 _atom_site_fract_x
 _atom_site_fract_y
 _atom_site_fract_z
 _atom_site_occupancy
  C  C0  1  0.18351920  0.18351920  0.31648080  1
  C  C1  1  0.81648080  0.81648080  0.68351920  1
  C  C2  1  0.50000000  0.50000000  0.00000000  1
  Ni  Ni3  1  0.50000000  0.50000000  0.50000000  1
  Cu  Cu4  1  -0.00000000  -0.00000000  0.00000000  1
  C  C5  1  0.25245686  0.74754314  0.75609104  1
  C  C6  1  0.25245686  0.74754314  0.24390896  1
  C  C7  1  0.74754314  0.25245686  0.75609104  1
  C  C8  1  0.18580566  0.18580566  0.81419434  1
  C  C9  1  0.74754314  0.25245686  0.24390896  1
  C  C10  1  0.81419434  0.81419434  0.18580566  1
