# generated using pymatgen
data_CuNi3C37
_symmetry_space_group_name_H-M   'P 1'
_cell_length_a   9.09403361
_cell_length_b   9.11971560
_cell_length_c   22.23786895
_cell_angle_alpha   89.67479023
_cell_angle_beta   90.49550582
_cell_angle_gamma   120.29031966
_symmetry_Int_Tables_number   1
_chemical_formula_structural   CuNi3C37
_chemical_formula_sum   'Cu3 Ni9 C111'
_cell_volume   1592.45419015
_cell_formula_units_Z   3
loop_
 _symmetry_equiv_pos_site_id
 _symmetry_equiv_pos_as_xyz
  1  'x, y, z'
loop_
 _atom_site_type_symbol
 _atom_site_label
 _atom_site_symmetry_multiplicity
 _atom_site_fract_x
 _atom_site_fract_y
 _atom_site_fract_z
 _atom_site_occupancy
  C  C0  1  0.63418352  0.00182994  0.23746082  1
  C  C1  1  0.38138528  0.35135523  0.25542235  1
  C  C2  1  0.98851917  0.65793913  0.25124686  1
  C  C3  1  0.66522612  0.63926107  0.75195824  1
  C  C4  1  0.98025313  0.34468013  0.75050811  1
  C  C5  1  0.35971279  0.01507426  0.75015629  1
  C  C6  1  0.29263787  0.32879564  0.58802876  1
  C  C7  1  0.03775492  0.70877400  0.58763873  1
  C  C8  1  0.67340722  0.96856083  0.59512465  1
  C  C9  1  0.31015793  0.96929073  0.09328509  1
  C  C10  1  0.66758156  0.72321888  0.08079609  1
  C  C11  1  0.02427192  0.31963350  0.08055119  1
  C  C12  1  0.98211902  0.31238188  0.42103388  1
  C  C13  1  0.31470800  0.03694292  0.41259519  1
  C  C14  1  0.71043855  0.65751674  0.40803721  1
  C  C15  1  0.01540624  0.00104315  0.49421236  1
  C  C16  1  0.97270013  0.98941329  0.99012114  1
  C  C17  1  0.66704866  0.33941102  0.81979685  1
  C  C18  1  0.65427816  0.34364323  0.33307602  1
  C  C19  1  0.35876924  0.69423867  0.16452077  1
  C  C20  1  0.32891679  0.66697081  0.66823964  1
  Ni  Ni21  1  0.00867149  0.98779946  0.35051215  1
  Ni  Ni22  1  0.98601973  0.98557649  0.84470837  1
  Ni  Ni23  1  0.99847012  0.99462817  0.66839211  1
  Ni  Ni24  1  0.98476077  0.98512353  0.15332627  1
  Ni  Ni25  1  0.66389230  0.33387485  0.68876878  1
  Ni  Ni26  1  0.65633447  0.32556653  0.18688066  1
  Ni  Ni27  1  0.66636734  0.34325849  0.47803027  1
  Ni  Ni28  1  0.35470127  0.68310155  0.01444363  1
  Ni  Ni29  1  0.32436253  0.65709684  0.51337615  1
  Cu  Cu30  1  0.66841248  0.32823884  0.97486064  1
  Cu  Cu31  1  0.33044643  0.66313785  0.31636319  1
  Cu  Cu32  1  0.34615122  0.66227858  0.81183246  1
  C  C33  1  0.29668255  0.00108423  0.24931497  1
  C  C34  1  0.70154090  0.70346511  0.24987174  1
  C  C35  1  0.28963800  0.28608799  0.74952327  1
  C  C36  1  0.00257848  0.70373677  0.74864595  1
  C  C37  1  0.70884350  0.00491420  0.74832924  1
  C  C38  1  0.66820581  0.03903409  0.08628809  1
  C  C39  1  0.63983083  0.67671786  0.92234998  1
  C  C40  1  0.32668065  0.36319502  0.42104009  1
  C  C41  1  0.03509047  0.66639399  0.42157593  1
  C  C42  1  0.00330873  0.29560259  0.25018910  1
  C  C43  1  0.95781638  0.33175357  0.58150517  1
  C  C44  1  0.37745185  0.04045652  0.58059228  1
  C  C45  1  0.66730148  0.63126830  0.58119968  1
  C  C46  1  0.95659110  0.61901939  0.08228704  1
  C  C47  1  0.37525370  0.33337992  0.08232290  1
  C  C48  1  0.04479396  0.37804718  0.92085651  1
  C  C49  1  0.33107787  0.95841642  0.91947566  1
  C  C50  1  0.62352414  0.95723315  0.41871570  1
  C  C51  1  0.21461095  0.03555940  0.30756200  1
  C  C52  1  0.81245652  0.79153876  0.30961801  1
  C  C53  1  0.97786258  0.19332988  0.30421203  1
  C  C54  1  0.20283432  0.16456516  0.80570547  1
  C  C55  1  0.95712437  0.78866023  0.80202345  1
  C  C56  1  0.83500988  0.04921121  0.80386448  1
  C  C57  1  0.76413042  0.94386926  0.68780046  1
  C  C58  1  0.17820383  0.23012823  0.68707196  1
  C  C59  1  0.06051504  0.81764937  0.68662060  1
  C  C60  1  0.76616468  0.81996759  0.18928616  1
  C  C61  1  0.03467493  0.22233174  0.19588296  1
  C  C62  1  0.17849396  0.95739870  0.18842147  1
  C  C63  1  0.87235502  0.34701584  0.63508626  1
  C  C64  1  0.47705858  0.12619151  0.63505581  1
  C  C65  1  0.64553965  0.52777064  0.63526947  1
  C  C66  1  0.87960533  0.52138517  0.13744645  1
  C  C67  1  0.64620161  0.13145369  0.14405891  1
  C  C68  1  0.47993848  0.36517983  0.13709669  1
  C  C69  1  0.46907287  0.31511051  0.02960854  1
  C  C70  1  0.84176818  0.52649236  0.02908064  1
  C  C71  1  0.68458385  0.17095187  0.02821274  1
  C  C72  1  0.46420804  0.14057494  0.52589830  1
  C  C73  1  0.68263566  0.54585316  0.52681319  1
  C  C74  1  0.85684206  0.31637583  0.52625050  1
  C  C75  1  0.54693485  0.68021886  0.98255275  1
  C  C76  1  0.13693181  0.46564249  0.97566507  1
  C  C77  1  0.31557077  0.86287391  0.97447810  1
  C  C78  1  0.54603006  0.85110127  0.47198626  1
  C  C79  1  0.30624536  0.45367159  0.47963298  1
  C  C80  1  0.15830596  0.70469449  0.47876906  1
  C  C81  1  0.14523759  0.64847979  0.36150668  1
  C  C82  1  0.51216845  0.86923882  0.36332226  1
  C  C83  1  0.35414652  0.49702280  0.36164062  1
  C  C84  1  0.12215294  0.48391756  0.86655270  1
  C  C85  1  0.35941284  0.88041593  0.86610524  1
  C  C86  1  0.50696876  0.64467598  0.86376868  1
  C  C87  1  0.00684629  0.82741413  0.41448661  1
  C  C88  1  0.79363045  0.98023576  0.41003783  1
  C  C89  1  0.15054493  0.18403731  0.41121204  1
  C  C90  1  0.02180377  0.20889953  0.91642669  1
  C  C91  1  0.19073387  0.99118785  0.91392698  1
  C  C92  1  0.82604248  0.83411407  0.91346066  1
  C  C93  1  0.97591056  0.17814902  0.58321348  1
  C  C94  1  0.20447591  0.02082731  0.58138469  1
  C  C95  1  0.82413218  0.80253811  0.58383018  1
  C  C96  1  0.97360250  0.78910420  0.08231110  1
  C  C97  1  0.84413886  0.02991518  0.08321262  1
  C  C98  1  0.20865368  0.17341961  0.08507493  1
  C  C99  1  0.66397850  0.15450279  0.74027415  1
  C  C100  1  0.48594742  0.33193494  0.74257508  1
  C  C101  1  0.84619903  0.51010921  0.74056806  1
  C  C102  1  0.68277700  0.51563854  0.24328393  1
  C  C103  1  0.86070398  0.32761243  0.24320952  1
  C  C104  1  0.49205844  0.15973851  0.24645811  1
  C  C105  1  0.64652372  0.49016514  0.92679744  1
  C  C106  1  0.86474042  0.36104725  0.92380730  1
  C  C107  1  0.49775976  0.13603785  0.92447561  1
  C  C108  1  0.63158961  0.12264692  0.42117229  1
  C  C109  1  0.49696323  0.34643490  0.41820738  1
  C  C110  1  0.85571113  0.48523280  0.41849827  1
  C  C111  1  0.34475959  0.47777920  0.07559379  1
  C  C112  1  0.12512535  0.63284366  0.07462808  1
  C  C113  1  0.49351244  0.85254423  0.08031827  1
  C  C114  1  0.36341744  0.86827383  0.57937270  1
  C  C115  1  0.51385630  0.65332331  0.57763439  1
  C  C116  1  0.13216310  0.48913346  0.58017919  1
  C  C117  1  0.31256379  0.82247370  0.25837541  1
  C  C118  1  0.50299913  0.67580844  0.25870380  1
  C  C119  1  0.16447123  0.47090351  0.25596016  1
  C  C120  1  0.30691858  0.48237551  0.76082997  1
  C  C121  1  0.17561637  0.68654157  0.76613079  1
  C  C122  1  0.51285650  0.82707434  0.76105238  1
