# generated using pymatgen
data_CuNiC5
_symmetry_space_group_name_H-M   'P 1'
_cell_length_a   8.54455617
_cell_length_b   8.54455617
_cell_length_c   8.54455612
_cell_angle_alpha   107.73492463
_cell_angle_beta   107.73492463
_cell_angle_gamma   107.73492830
_symmetry_Int_Tables_number   1
_chemical_formula_structural   CuNiC5
_chemical_formula_sum   'Cu6 Ni6 C30'
_cell_volume   508.75945905
_cell_formula_units_Z   6
loop_
 _symmetry_equiv_pos_site_id
 _symmetry_equiv_pos_as_xyz
  1  'x, y, z'
loop_
 _atom_site_type_symbol
 _atom_site_label
 _atom_site_symmetry_multiplicity
 _atom_site_fract_x
 _atom_site_fract_y
 _atom_site_fract_z
 _atom_site_occupancy
  C  C0  1  0.89883200  0.12427800  0.72719300  1
  C  C1  1  0.72719300  0.89883200  0.12427800  1
  C  C2  1  0.19892000  0.61154400  0.42049200  1
  C  C3  1  0.12427800  0.72719300  0.89883200  1
  C  C4  1  0.61154400  0.42049200  0.19892000  1
  C  C5  1  0.42049200  0.19892000  0.61154400  1
  Ni  Ni6  1  0.53585500  0.93187800  0.76487900  1
  Ni  Ni7  1  0.23358500  0.46072800  0.04214900  1
  Ni  Ni8  1  0.93187800  0.76487900  0.53585500  1
  Ni  Ni9  1  0.04214900  0.23358500  0.46072800  1
  Ni  Ni10  1  0.76487900  0.53585500  0.93187800  1
  Ni  Ni11  1  0.46072800  0.04214900  0.23358500  1
  Cu  Cu12  1  0.27906000  0.09556100  0.87673700  1
  Cu  Cu13  1  0.78571700  0.38868400  0.57304700  1
  Cu  Cu14  1  0.87673700  0.27906000  0.09556100  1
  Cu  Cu15  1  0.38868400  0.57304700  0.78571700  1
  Cu  Cu16  1  0.57304700  0.78571700  0.38868400  1
  Cu  Cu17  1  0.09556100  0.87673700  0.27906000  1
  C  C18  1  0.90486500  0.59839800  0.65599800  1
  C  C19  1  0.65599800  0.90486500  0.59839800  1
  C  C20  1  0.28956300  0.98630200  0.99234200  1
  C  C21  1  0.98630200  0.99234200  0.28956300  1
  C  C22  1  0.07423200  0.77313300  0.39835900  1
  C  C23  1  0.60421900  0.91684200  0.29546500  1
  C  C24  1  0.99234200  0.28956300  0.98630200  1
  C  C25  1  0.39835900  0.07423200  0.77313300  1
  C  C26  1  0.07785100  0.02007100  0.73723600  1
  C  C27  1  0.30100600  0.00506500  0.35691200  1
  C  C28  1  0.91684200  0.29546500  0.60421900  1
  C  C29  1  0.36856300  0.65451900  0.30881000  1
  C  C30  1  0.67343900  0.34853700  0.68154700  1
  C  C31  1  0.65451900  0.30881000  0.36856300  1
  C  C32  1  0.30881000  0.36856300  0.65451900  1
  C  C33  1  0.73723600  0.07785100  0.02007100  1
  C  C34  1  0.77313300  0.39835900  0.07423200  1
  C  C35  1  0.59839800  0.65599800  0.90486500  1
  C  C36  1  0.35691200  0.30100600  0.00506500  1
  C  C37  1  0.29546500  0.60421900  0.91684200  1
  C  C38  1  0.00506500  0.35691200  0.30100600  1
  C  C39  1  0.68154700  0.67343900  0.34853700  1
  C  C40  1  0.34853700  0.68154700  0.67343900  1
  C  C41  1  0.02007100  0.73723600  0.07785100  1
