# generated using pymatgen
data_Cu6NiC34
_symmetry_space_group_name_H-M   'P 1'
_cell_length_a   9.09829212
_cell_length_b   9.09829180
_cell_length_c   22.40981244
_cell_angle_alpha   90.00000000
_cell_angle_beta   90.00000000
_cell_angle_gamma   120.00000116
_symmetry_Int_Tables_number   1
_chemical_formula_structural   Cu6NiC34
_chemical_formula_sum   'Cu18 Ni3 C102'
_cell_volume   1606.52906268
_cell_formula_units_Z   3
loop_
 _symmetry_equiv_pos_site_id
 _symmetry_equiv_pos_as_xyz
  1  'x, y, z'
loop_
 _atom_site_type_symbol
 _atom_site_label
 _atom_site_symmetry_multiplicity
 _atom_site_fract_x
 _atom_site_fract_y
 _atom_site_fract_z
 _atom_site_occupancy
  C  C0  1  0.64225213  0.02355664  0.24404974  1
  C  C1  1  0.38130451  0.35774787  0.24404974  1
  C  C2  1  0.97644336  0.61869549  0.24404974  1
  C  C3  1  0.63279645  0.61257288  0.74592121  1
  C  C4  1  0.97977643  0.36720355  0.74592121  1
  C  C5  1  0.38742712  0.02022357  0.74592121  1
  C  C6  1  0.31119533  0.33553488  0.58638295  1
  C  C7  1  0.02434056  0.68880467  0.58638295  1
  C  C8  1  0.66446512  0.97565944  0.58638295  1
  C  C9  1  0.31358084  0.97813922  0.08712020  1
  C  C10  1  0.66455938  0.68641916  0.08712020  1
  C  C11  1  0.02186078  0.33544062  0.08712020  1
  C  C12  1  0.96547763  0.28001883  0.40568246  1
  C  C13  1  0.31454020  0.03452237  0.40568246  1
  C  C14  1  0.71998117  0.68545980  0.40568246  1
  C  C15  1  -0.00000000  0.00000000  0.49090143  1
  C  C16  1  -0.00000000  -0.00000000  0.99804731  1
  C  C17  1  0.66666700  0.33333300  0.83129355  1
  C  C18  1  0.66666700  0.33333300  0.31931142  1
  C  C19  1  0.33333300  0.66666700  0.16601124  1
  C  C20  1  0.33333300  0.66666700  0.66874123  1
  Ni  Ni21  1  -0.00000000  0.00000000  0.35209614  1
  Ni  Ni22  1  0.66666700  0.33333300  0.68704987  1
  Ni  Ni23  1  0.66666700  0.33333300  0.18398521  1
  C  C24  1  -0.00000000  -0.00000000  0.85746876  1
  C  C25  1  -0.00000000  -0.00000000  0.64659396  1
  C  C26  1  -0.00000000  -0.00000000  0.14873439  1
  C  C27  1  0.66666700  0.33333300  0.97780189  1
  C  C28  1  0.66666700  0.33333300  0.47930171  1
  C  C29  1  0.33333300  0.66666700  0.01771762  1
  C  C30  1  0.33333300  0.66666700  0.51917628  1
  C  C31  1  0.33333300  0.66666700  0.31033544  1
  C  C32  1  0.33333300  0.66666700  0.81408079  1
  Cu  Cu33  1  0.29160831  0.00151340  0.25423290  1
  Cu  Cu34  1  0.70990509  0.70839169  0.25423290  1
  Cu  Cu35  1  0.99848660  0.29009491  0.25423290  1
  Cu  Cu36  1  0.28897730  0.29074361  0.75154331  1
  Cu  Cu37  1  0.00176632  0.71102270  0.75154331  1
  Cu  Cu38  1  0.70925639  0.99823368  0.75154331  1
  Cu  Cu39  1  0.95767220  0.33458887  0.58580491  1
  Cu  Cu40  1  0.37691767  0.04232780  0.58580491  1
  Cu  Cu41  1  0.66541113  0.62308233  0.58580491  1
  Cu  Cu42  1  0.95785222  0.62384295  0.08455107  1
  Cu  Cu43  1  0.66599172  0.04214778  0.08455107  1
  Cu  Cu44  1  0.37615705  0.33400828  0.08455107  1
  Cu  Cu45  1  0.62485075  0.66423413  0.91619728  1
  Cu  Cu46  1  0.03938238  0.37514925  0.91619728  1
  Cu  Cu47  1  0.33576587  0.96061762  0.91619728  1
  Cu  Cu48  1  0.62352784  0.95925813  0.41654833  1
  Cu  Cu49  1  0.33572930  0.37647216  0.41654833  1
  Cu  Cu50  1  0.04074187  0.66427070  0.41654833  1
  C  C51  1  0.20933767  0.02887157  0.31266223  1
  C  C52  1  0.81953390  0.79066233  0.31266223  1
  C  C53  1  0.97112843  0.18046610  0.31266223  1
  C  C54  1  0.18369762  0.16521786  0.80668068  1
  C  C55  1  0.98152023  0.81630238  0.80668068  1
  C  C56  1  0.83478214  0.01847977  0.80668068  1
  C  C57  1  0.80096469  0.96723357  0.69063838  1
  C  C58  1  0.16626887  0.19903531  0.69063838  1
  C  C59  1  0.03276643  0.83373113  0.69063838  1
  C  C60  1  0.80362678  0.83399485  0.19344383  1
  C  C61  1  0.03036807  0.19637322  0.19344383  1
  C  C62  1  0.16600515  0.96963193  0.19344383  1
  C  C63  1  0.88757443  0.37987262  0.64378721  1
  C  C64  1  0.49229919  0.11242557  0.64378721  1
  C  C65  1  0.62012738  0.50770081  0.64378721  1
  C  C66  1  0.89141302  0.51139053  0.14364770  1
  C  C67  1  0.61997851  0.10858698  0.14364770  1
  C  C68  1  0.48860947  0.38002149  0.14364770  1
  C  C69  1  0.47203940  0.30079408  0.02753629  1
  C  C70  1  0.82875567  0.52796060  0.02753629  1
  C  C71  1  0.69920592  0.17124433  0.02753629  1
  C  C72  1  0.46948261  0.16702038  0.52682365  1
  C  C73  1  0.69753877  0.53051739  0.52682365  1
  C  C74  1  0.83297962  0.30246123  0.52682365  1
  C  C75  1  0.52839935  0.68778132  0.97412403  1
  C  C76  1  0.15938097  0.47160065  0.97412403  1
  C  C77  1  0.31221868  0.84061903  0.97412403  1
  C  C78  1  0.52029951  0.84058724  0.47524958  1
  C  C79  1  0.32028672  0.47970049  0.47524958  1
  C  C80  1  0.15941276  0.67971328  0.47524958  1
  C  C81  1  0.13444851  0.63104973  0.35909685  1
  C  C82  1  0.49660022  0.86555149  0.35909685  1
  C  C83  1  0.36895027  0.50339978  0.35909685  1
  C  C84  1  0.13788761  0.49588204  0.85739523  1
  C  C85  1  0.35799343  0.86211239  0.85739523  1
  C  C86  1  0.50411796  0.64200657  0.85739523  1
  C  C87  1  0.02235197  0.82887894  0.41751591  1
  C  C88  1  0.80652698  0.97764803  0.41751591  1
  C  C89  1  0.17112106  0.19347302  0.41751591  1
  C  C90  1  0.02414520  0.18859183  0.91030706  1
  C  C91  1  0.16444664  0.97585480  0.91030706  1
  C  C92  1  0.81140817  0.83555336  0.91030706  1
  C  C93  1  0.97516091  0.16115195  0.58854427  1
  C  C94  1  0.18599104  0.02483909  0.58854427  1
  C  C95  1  0.83884805  0.81400896  0.58854427  1
  C  C96  1  0.97693875  0.81562377  0.08852567  1
  C  C97  1  0.83868503  0.02306125  0.08852567  1
  C  C98  1  0.18437623  0.16131497  0.08852567  1
  C  C99  1  0.69048769  0.16363005  0.74877133  1
  C  C100  1  0.47314336  0.30951231  0.74877133  1
  C  C101  1  0.83636995  0.52685664  0.74877133  1
  C  C102  1  0.67962182  0.51946288  0.24553654  1
  C  C103  1  0.83984206  0.32037818  0.24553654  1
  C  C104  1  0.48053712  0.16015794  0.24553654  1
  C  C105  1  0.63970816  0.49401335  0.92279511  1
  C  C106  1  0.85430618  0.36029184  0.92279511  1
  C  C107  1  0.50598665  0.14569382  0.92279511  1
  C  C108  1  0.63137419  0.14486760  0.42356552  1
  C  C109  1  0.51349441  0.36862581  0.42356552  1
  C  C110  1  0.85513240  0.48650559  0.42356552  1
  C  C111  1  0.34466687  0.49774115  0.07349416  1
  C  C112  1  0.15307328  0.65533313  0.07349416  1
  C  C113  1  0.50225885  0.84692672  0.07349416  1
  C  C114  1  0.34375569  0.84720794  0.57534067  1
  C  C115  1  0.50345125  0.65624431  0.57534067  1
  C  C116  1  0.15279206  0.49654875  0.57534067  1
  C  C117  1  0.29735354  0.81881029  0.25547679  1
  C  C118  1  0.52145574  0.70264646  0.25547679  1
  C  C119  1  0.18118971  0.47854426  0.25547679  1
  C  C120  1  0.29734978  0.47700292  0.75479054  1
  C  C121  1  0.17965214  0.70265022  0.75479054  1
  C  C122  1  0.52299708  0.82034786  0.75479054  1
