# generated using pymatgen
data_CuNiC
_symmetry_space_group_name_H-M   'P 1'
_cell_length_a   4.89025730
_cell_length_b   9.80758737
_cell_length_c   3.06046200
_cell_angle_alpha   90.00000000
_cell_angle_beta   90.00000000
_cell_angle_gamma   89.55221423
_symmetry_Int_Tables_number   1
_chemical_formula_structural   CuNiC
_chemical_formula_sum   'Cu4 Ni4 C4'
_cell_volume   146.78025023
_cell_formula_units_Z   4
loop_
 _symmetry_equiv_pos_site_id
 _symmetry_equiv_pos_as_xyz
  1  'x, y, z'
loop_
 _atom_site_type_symbol
 _atom_site_label
 _atom_site_symmetry_multiplicity
 _atom_site_fract_x
 _atom_site_fract_y
 _atom_site_fract_z
 _atom_site_occupancy
  C  C0  1  0.44615300  0.09424900  0.75000000  1
  C  C1  1  0.03462700  0.84010600  0.75000000  1
  C  C2  1  0.41070000  0.38631900  0.75000000  1
  C  C3  1  0.55037400  0.63631800  0.25000000  1
  Ni  Ni4  1  0.27841400  0.48638600  0.25000000  1
  Ni  Ni5  1  0.36551100  0.73744700  0.75000000  1
  Ni  Ni6  1  0.69023200  0.52921900  0.75000000  1
  Ni  Ni7  1  0.86159400  0.75798700  0.25000000  1
  Cu  Cu8  1  0.15605500  0.23321300  0.75000000  1
  Cu  Cu9  1  0.27343000  0.98187000  0.25000000  1
  Cu  Cu10  1  0.57495900  0.23775900  0.25000000  1
  Cu  Cu11  1  0.78985300  0.00110900  0.75000000  1
