# generated using pymatgen
data_CuNiC15
_symmetry_space_group_name_H-M   'P 1'
_cell_length_a   8.90404745
_cell_length_b   8.94959201
_cell_length_c   23.02038752
_cell_angle_alpha   89.64832271
_cell_angle_beta   90.00000000
_cell_angle_gamma   119.83179925
_symmetry_Int_Tables_number   1
_chemical_formula_structural   CuNiC15
_chemical_formula_sum   'Cu6 Ni6 C90'
_cell_volume   1591.31694742
_cell_formula_units_Z   6
loop_
 _symmetry_equiv_pos_site_id
 _symmetry_equiv_pos_as_xyz
  1  'x, y, z'
loop_
 _atom_site_type_symbol
 _atom_site_label
 _atom_site_symmetry_multiplicity
 _atom_site_fract_x
 _atom_site_fract_y
 _atom_site_fract_z
 _atom_site_occupancy
  C  C0  1  0.00686967  0.01712712  0.64286106  1
  C  C1  1  0.01025745  0.01712712  0.14286106  1
  C  C2  1  0.65436949  0.32656115  0.97571863  1
  C  C3  1  0.67219265  0.32656115  0.47571863  1
  C  C4  1  0.33600695  0.66939805  0.30979148  1
  C  C5  1  0.33339009  0.66939805  0.80979148  1
  Ni  Ni6  1  0.98879951  0.00707175  0.35578935  1
  Ni  Ni7  1  0.01827224  0.00707175  0.85578935  1
  Ni  Ni8  1  0.66955861  0.33531150  0.68789856  1
  Ni  Ni9  1  0.66575389  0.33531150  0.18789856  1
  Ni  Ni10  1  0.32962057  0.66270721  0.02182104  1
  Ni  Ni11  1  0.33308564  0.66270721  0.52182104  1
  Cu  Cu12  1  0.99971207  0.29374687  0.24967964  1
  Cu  Cu13  1  0.29403480  0.29374687  0.74967964  1
  Cu  Cu14  1  0.95504560  0.33947861  0.58434747  1
  Cu  Cu15  1  0.38443401  0.33947861  0.08434747  1
  Cu  Cu16  1  0.33126587  0.94685081  0.91842401  1
  Cu  Cu17  1  0.61558394  0.94685081  0.41842401  1
  C  C18  1  0.27922029  0.99111752  0.25110388  1
  C  C19  1  0.71072487  0.71411854  0.25040799  1
  C  C20  1  0.00339367  0.71411854  0.75040799  1
  C  C21  1  0.71189724  0.99111752  0.75110388  1
  C  C22  1  0.37497595  0.04803432  0.58279281  1
  C  C23  1  0.67634021  0.62755839  0.58353716  1
  C  C24  1  0.95121918  0.62755839  0.08353716  1
  C  C25  1  0.67305938  0.04803432  0.08279281  1
  C  C26  1  0.62217236  0.66377648  0.91506509  1
  C  C27  1  0.04034278  0.38100750  0.91617251  1
  C  C28  1  0.34066372  0.38100750  0.41617251  1
  C  C29  1  0.04160313  0.66377648  0.41506509  1
  C  C30  1  0.20205933  0.01339414  0.30351244  1
  C  C31  1  0.81537372  0.78517338  0.30251576  1
  C  C32  1  0.97537386  0.18016600  0.30514640  1
  C  C33  1  0.20479214  0.18016600  0.80514640  1
  C  C34  1  0.96979967  0.78517338  0.80251576  1
  C  C35  1  0.81133481  0.01339414  0.80351244  1
  C  C36  1  0.79525868  0.96087512  0.69865025  1
  C  C37  1  0.16065397  0.19002121  0.69198790  1
  C  C38  1  0.03398206  0.82493678  0.69822593  1
  C  C39  1  0.79095472  0.82493678  0.19822593  1
  C  C40  1  0.02936724  0.19002121  0.19198790  1
  C  C41  1  0.16561644  0.96087512  0.19865025  1
  C  C42  1  0.87036335  0.35965173  0.64193427  1
  C  C43  1  0.47694103  0.12137203  0.63496337  1
  C  C44  1  0.64226436  0.52156148  0.63557945  1
  C  C45  1  0.87929812  0.52156148  0.13557945  1
  C  C46  1  0.64443200  0.12137203  0.13496337  1
  C  C47  1  0.48928937  0.35965173  0.14193427  1
  C  C48  1  0.48351188  0.30810543  0.02668900  1
  C  C49  1  0.84136454  0.54344410  0.03118273  1
  C  C50  1  0.70918470  0.16529631  0.03071483  1
  C  C51  1  0.45611262  0.16529631  0.53071483  1
  C  C52  1  0.70208056  0.54344410  0.53118273  1
  C  C53  1  0.82459455  0.30810543  0.52668900  1
  C  C54  1  0.54947497  0.69000957  0.96803052  1
  C  C55  1  0.14783196  0.44716467  0.96770207  1
  C  C56  1  0.31697207  0.84294612  0.97591444  1
  C  C57  1  0.52597305  0.84294612  0.47591444  1
  C  C58  1  0.29933170  0.44716467  0.46770207  1
  C  C59  1  0.14053360  0.69000957  0.46803052  1
  C  C60  1  0.12358749  0.62689714  0.36384015  1
  C  C61  1  0.48891755  0.85229258  0.36057680  1
  C  C62  1  0.36691374  0.49546468  0.36402589  1
  C  C63  1  0.12854994  0.49546468  0.86402589  1
  C  C64  1  0.36337402  0.85229258  0.86057680  1
  C  C65  1  0.50330864  0.62689714  0.86384015  1
  C  C66  1  0.01821281  0.81027634  0.40348224  1
  C  C67  1  0.80655728  0.97944198  0.41261101  1
  C  C68  1  0.20489612  0.20394957  0.40627293  1
  C  C69  1  0.99905345  0.20394957  0.90627293  1
  C  C70  1  0.17288470  0.97944198  0.91261101  1
  C  C71  1  0.79206353  0.81027634  0.90348224  1
  C  C72  1  0.96061249  0.15380920  0.59414571  1
  C  C73  1  0.19811259  0.03397028  0.59074989  1
  C  C74  1  0.84031618  0.79803440  0.59307450  1
  C  C75  1  0.95771822  0.79803440  0.09307450  1
  C  C76  1  0.83585769  0.03397028  0.09074989  1
  C  C77  1  0.19319670  0.15380920  0.09414571  1
  C  C78  1  0.68097735  0.13429162  0.74206157  1
  C  C79  1  0.48259115  0.32537082  0.73762200  1
  C  C80  1  0.86333810  0.53856348  0.74346208  1
  C  C81  1  0.67522638  0.53856348  0.24346208  1
  C  C82  1  0.84278067  0.32537082  0.23762200  1
  C  C83  1  0.45331527  0.13429162  0.24206157  1
  C  C84  1  0.64057369  0.50425078  0.92350295  1
  C  C85  1  0.87314865  0.38154295  0.92530181  1
  C  C86  1  0.51596455  0.14347607  0.92836738  1
  C  C87  1  0.62751252  0.14347607  0.42836738  1
  C  C88  1  0.50839530  0.38154295  0.42530181  1
  C  C89  1  0.86367809  0.50425078  0.42350295  1
  C  C90  1  0.34414085  0.48989998  0.07244315  1
  C  C91  1  0.12741649  0.65901221  0.07600681  1
  C  C92  1  0.53011067  0.87542893  0.07418815  1
  C  C93  1  0.34531726  0.87542893  0.57418815  1
  C  C94  1  0.53159472  0.65901221  0.57600681  1
  C  C95  1  0.14575813  0.48989998  0.57244315  1
  C  C96  1  0.29068888  0.82734591  0.25811817  1
  C  C97  1  0.53514567  0.70547539  0.25936233  1
  C  C98  1  0.17926903  0.48322180  0.26262442  1
  C  C99  1  0.30395177  0.48322180  0.76262442  1
  C  C100  1  0.17032872  0.70547539  0.75936233  1
  C  C101  1  0.53665603  0.82734591  0.75811817  1
