# generated using pymatgen
data_Cu(NiC4)2
_symmetry_space_group_name_H-M   'P 1'
_cell_length_a   6.05318129
_cell_length_b   6.05318178
_cell_length_c   6.72929134
_cell_angle_alpha   63.27147990
_cell_angle_beta   63.27147646
_cell_angle_gamma   60.00000061
_symmetry_Int_Tables_number   1
_chemical_formula_structural   Cu(NiC4)2
_chemical_formula_sum   'Cu1 Ni2 C8'
_cell_volume   182.47909362
_cell_formula_units_Z   1
loop_
 _symmetry_equiv_pos_site_id
 _symmetry_equiv_pos_as_xyz
  1  'x, y, z'
loop_
 _atom_site_type_symbol
 _atom_site_label
 _atom_site_symmetry_multiplicity
 _atom_site_fract_x
 _atom_site_fract_y
 _atom_site_fract_z
 _atom_site_occupancy
  Ni  Ni0  1  0.76866616  0.76866616  0.69400153  1
  Ni  Ni1  1  0.31342892  0.31342892  0.05971325  1
  Cu  Cu2  1  0.96890202  0.96890202  0.09329393  1
  C  C3  1  0.13584957  0.13584957  0.59245130  1
  C  C4  1  0.49473815  0.49473815  0.51578556  1
  C  C5  1  0.25032828  0.75570662  0.74363681  1
  C  C6  1  0.24809529  0.71947836  0.31294800  1
  C  C7  1  0.75570662  0.25032828  0.74363682  1
  C  C8  1  0.25032828  0.25032828  0.74363681  1
  C  C9  1  0.71947836  0.24809529  0.31294800  1
  C  C10  1  0.71947836  0.71947836  0.31294800  1
