# generated using pymatgen
data_Cu2NiC16
_symmetry_space_group_name_H-M   'P 1'
_cell_length_a   10.38492325
_cell_length_b   5.78052255
_cell_length_c   5.60396774
_cell_angle_alpha   90.00000000
_cell_angle_beta   97.69052457
_cell_angle_gamma   90.00000000
_symmetry_Int_Tables_number   1
_chemical_formula_structural   Cu2NiC16
_chemical_formula_sum   'Cu2 Ni1 C16'
_cell_volume   333.38189737
_cell_formula_units_Z   1
loop_
 _symmetry_equiv_pos_site_id
 _symmetry_equiv_pos_as_xyz
  1  'x, y, z'
loop_
 _atom_site_type_symbol
 _atom_site_label
 _atom_site_symmetry_multiplicity
 _atom_site_fract_x
 _atom_site_fract_y
 _atom_site_fract_z
 _atom_site_occupancy
  Ni  Ni0  1  0.44203038  0.75000000  0.58915406  1
  Cu  Cu1  1  0.62891694  0.25000000  0.02762452  1
  Cu  Cu2  1  0.30295623  0.75000000  0.07787392  1
  C  C3  1  0.97243441  0.47774550  0.96729175  1
  C  C4  1  0.97243441  0.02225450  0.96729175  1
  C  C5  1  0.83267355  0.25000000  0.64709417  1
  C  C6  1  0.06117844  0.75000000  0.28273102  1
  C  C7  1  0.28604087  0.25000000  0.53841459  1
  C  C8  1  0.76519735  0.75000000  0.52133152  1
  C  C9  1  0.84511056  0.25000000  0.82450624  1
  C  C10  1  0.06248429  0.75000000  0.10812827  1
  C  C11  1  0.34738126  0.49430216  0.71333790  1
  C  C12  1  0.77183436  0.98991863  0.36166975  1
  C  C13  1  0.77183436  0.51008137  0.36166975  1
  C  C14  1  0.34738126  0.00569784  0.71333790  1
  C  C15  1  0.38720519  0.25000000  0.32783130  1
  C  C16  1  0.62750364  0.75000000  0.65615345  1
  C  C17  1  0.06972379  0.25000000  0.13914842  1
  C  C18  1  0.89139270  0.75000000  0.75874272  1
