# generated using pymatgen
data_Cu6NiC12
_symmetry_space_group_name_H-M   'P 1'
_cell_length_a   8.45180819
_cell_length_b   5.97120839
_cell_length_c   5.87665986
_cell_angle_alpha   65.61568624
_cell_angle_beta   65.22799525
_cell_angle_gamma   64.26712818
_symmetry_Int_Tables_number   1
_chemical_formula_structural   Cu6NiC12
_chemical_formula_sum   'Cu6 Ni1 C12'
_cell_volume   232.71447355
_cell_formula_units_Z   1
loop_
 _symmetry_equiv_pos_site_id
 _symmetry_equiv_pos_as_xyz
  1  'x, y, z'
loop_
 _atom_site_type_symbol
 _atom_site_label
 _atom_site_symmetry_multiplicity
 _atom_site_fract_x
 _atom_site_fract_y
 _atom_site_fract_z
 _atom_site_occupancy
  Ni  Ni0  1  0.50255582  0.49042876  0.99907253  1
  Cu  Cu1  1  0.87947800  0.68367568  0.70746618  1
  Cu  Cu2  1  0.69888693  0.31986427  0.35834287  1
  Cu  Cu3  1  0.30943992  0.65935402  0.63922752  1
  Cu  Cu4  1  0.12790893  0.29523839  0.31348007  1
  Cu  Cu5  1  0.50298443  0.99147782  0.99916611  1
  Cu  Cu6  1  0.00580193  0.02222722  0.97446442  1
  C  C7  1  0.68541038  0.02123502  0.65176404  1
  C  C8  1  0.33467535  0.35720953  0.95886284  1
  C  C9  1  0.95575151  0.21488282  0.21015907  1
  C  C10  1  0.05128211  0.79884358  0.76896360  1
  C  C11  1  0.32915837  0.95429016  0.34673135  1
  C  C12  1  0.66774701  0.62505136  0.04246690  1
  C  C13  1  0.00939397  0.32467692  0.68273816  1
  C  C14  1  0.32065415  0.84592775  0.91745481  1
  C  C15  1  0.58884544  0.56205835  0.60216671  1
  C  C16  1  0.68728418  0.13820778  0.08072219  1
  C  C17  1  0.41831298  0.41496992  0.39765164  1
  C  C18  1  0.99585759  0.70894967  0.28957799  1
