# generated using pymatgen
data_Cu2NiC7
_symmetry_space_group_name_H-M   'P 1'
_cell_length_a   3.83039641
_cell_length_b   4.18589396
_cell_length_c   9.68652653
_cell_angle_alpha   90.00000000
_cell_angle_beta   90.00000000
_cell_angle_gamma   90.00000000
_symmetry_Int_Tables_number   1
_chemical_formula_structural   Cu2NiC7
_chemical_formula_sum   'Cu2 Ni1 C7'
_cell_volume   155.31021334
_cell_formula_units_Z   1
loop_
 _symmetry_equiv_pos_site_id
 _symmetry_equiv_pos_as_xyz
  1  'x, y, z'
loop_
 _atom_site_type_symbol
 _atom_site_label
 _atom_site_symmetry_multiplicity
 _atom_site_fract_x
 _atom_site_fract_y
 _atom_site_fract_z
 _atom_site_occupancy
  C  C0  1  0.50000000  0.50000000  0.35413969  1
  C  C1  1  0.50000000  0.50000000  0.98792519  1
  Ni  Ni2  1  0.50000000  0.00000000  0.63446578  1
  Cu  Cu3  1  0.00000000  0.00000000  0.85643856  1
  Cu  Cu4  1  0.00000000  0.00000000  0.14552393  1
  C  C5  1  0.50000000  0.00000000  0.83460213  1
  C  C6  1  0.50000000  0.00000000  0.16907816  1
  C  C7  1  0.00000000  0.50000000  0.85191903  1
  C  C8  1  0.00000000  0.50000000  0.17367350  1
  C  C9  1  0.00000000  0.00000000  0.54223402  1
