# generated using pymatgen
data_Cu2NiC32
_symmetry_space_group_name_H-M   'P 1'
_cell_length_a   8.62529043
_cell_length_b   8.62175254
_cell_length_c   22.15130683
_cell_angle_alpha   90.04055609
_cell_angle_beta   89.94090446
_cell_angle_gamma   119.92756367
_symmetry_Int_Tables_number   1
_chemical_formula_structural   Cu2NiC32
_chemical_formula_sum   'Cu6 Ni3 C96'
_cell_volume   1427.62965368
_cell_formula_units_Z   3
loop_
 _symmetry_equiv_pos_site_id
 _symmetry_equiv_pos_as_xyz
  1  'x, y, z'
loop_
 _atom_site_type_symbol
 _atom_site_label
 _atom_site_symmetry_multiplicity
 _atom_site_fract_x
 _atom_site_fract_y
 _atom_site_fract_z
 _atom_site_occupancy
  C  C0  1  0.99971517  0.99937031  0.99840256  1
  C  C1  1  0.66668376  0.33378607  0.82951102  1
  C  C2  1  0.66816290  0.33409261  0.33858153  1
  C  C3  1  0.99817941  0.00386663  0.36271918  1
  C  C4  1  0.00073978  0.99939519  0.63642193  1
  C  C5  1  0.66811576  0.33367260  0.19367267  1
  C  C6  1  0.66463821  0.33382690  0.97673855  1
  C  C7  1  0.33653486  0.67194512  0.02356817  1
  C  C8  1  0.33847216  0.66986247  0.80463579  1
  Ni  Ni9  1  0.01835704  0.29352760  0.25061733  1
  Ni  Ni10  1  0.62982173  0.67988752  0.91336930  1
  Ni  Ni11  1  0.32133152  0.95113726  0.91375356  1
  Cu  Cu12  1  0.99962790  0.99830485  0.85292140  1
  Cu  Cu13  1  0.00207782  0.00225902  0.15041675  1
  Cu  Cu14  1  0.66608529  0.33363195  0.68381461  1
  Cu  Cu15  1  0.66764369  0.33374006  0.47985596  1
  Cu  Cu16  1  0.33189362  0.66597780  0.52261297  1
  Cu  Cu17  1  0.33170610  0.66463478  0.31236908  1
  C  C18  1  0.27597009  0.98572620  0.25148565  1
  C  C19  1  0.71000538  0.72486764  0.25168193  1
  C  C20  1  0.28937151  0.27481750  0.74853028  1
  C  C21  1  0.98419966  0.70748832  0.74846074  1
  C  C22  1  0.72621597  0.01661222  0.74839091  1
  C  C23  1  0.95269112  0.34767550  0.58124325  1
  C  C24  1  0.39601031  0.04724228  0.58108767  1
  C  C25  1  0.65126741  0.60465201  0.58114072  1
  C  C26  1  0.95338698  0.63217543  0.08612270  1
  C  C27  1  0.67981795  0.04714401  0.08576795  1
  C  C28  1  0.36642833  0.32012724  0.08575359  1
  C  C29  1  0.05134974  0.37564134  0.91411252  1
  C  C30  1  0.60189649  0.94872209  0.41881384  1
  C  C31  1  0.34787367  0.39613391  0.41912675  1
  C  C32  1  0.04917145  0.65452393  0.41905180  1
  C  C33  1  0.19648162  0.02732140  0.30711762  1
  C  C34  1  0.83199349  0.79894622  0.30737471  1
  C  C35  1  0.97027024  0.16295008  0.30981292  1
  C  C36  1  0.20589376  0.16021276  0.80568130  1
  C  C37  1  0.95218840  0.79090826  0.80558889  1
  C  C38  1  0.83985778  0.04783795  0.80560913  1
  C  C39  1  0.80862495  0.98307389  0.69199341  1
  C  C40  1  0.17460824  0.19060951  0.69194271  1
  C  C41  1  0.01827034  0.82415342  0.69204064  1
  C  C42  1  0.79519361  0.83319520  0.19351303  1
  C  C43  1  0.04270849  0.20037849  0.19046995  1
  C  C44  1  0.16447670  0.95466510  0.19345742  1
  C  C45  1  0.87102811  0.37997310  0.63900879  1
  C  C46  1  0.50864391  0.12847803  0.63904456  1
  C  C47  1  0.61895493  0.49128363  0.63899437  1
  C  C48  1  0.86279295  0.51183495  0.14136180  1
  C  C49  1  0.64837501  0.13623253  0.14102000  1
  C  C50  1  0.48649867  0.35281085  0.14065094  1
  C  C51  1  0.46004695  0.29664394  0.02887223  1
  C  C52  1  0.83740544  0.54368823  0.02944418  1
  C  C53  1  0.70591160  0.16263061  0.02915892  1
  C  C54  1  0.47011978  0.16974074  0.52540751  1
  C  C55  1  0.70059368  0.53080979  0.52550769  1
  C  C56  1  0.83047656  0.29901520  0.52547017  1
  C  C57  1  0.53310926  0.70109798  0.97411925  1
  C  C58  1  0.16209972  0.46027080  0.97182076  1
  C  C59  1  0.29388851  0.83155069  0.97451796  1
  C  C60  1  0.52620068  0.83295973  0.47536362  1
  C  C61  1  0.30498384  0.47009398  0.47573548  1
  C  C62  1  0.16466383  0.69490232  0.47590937  1
  C  C63  1  0.12933596  0.62069909  0.36171560  1
  C  C64  1  0.49066926  0.87043177  0.36092110  1
  C  C65  1  0.38290701  0.50945859  0.36171907  1
  C  C66  1  0.12998071  0.49387510  0.85826246  1
  C  C67  1  0.36092332  0.86105297  0.85584193  1
  C  C68  1  0.49860452  0.63180945  0.85544804  1
  C  C69  1  0.02702025  0.82148290  0.40998837  1
  C  C70  1  0.79110028  0.96748561  0.41096582  1
  C  C71  1  0.18017302  0.20543325  0.41070553  1
  C  C72  1  0.03249010  0.19088905  0.90692462  1
  C  C73  1  0.15087029  0.97692702  0.90679251  1
  C  C74  1  0.81962884  0.85867720  0.90641146  1
  C  C75  1  0.97262427  0.17789444  0.59061534  1
  C  C76  1  0.20642931  0.02779539  0.59028046  1
  C  C77  1  0.82137627  0.79392763  0.59064859  1
  C  C78  1  0.97072101  0.81738887  0.09302080  1
  C  C79  1  0.84483270  0.02514569  0.09152082  1
  C  C80  1  0.18406051  0.14800275  0.09028723  1
  C  C81  1  0.70169592  0.18184035  0.74123041  1
  C  C82  1  0.47868085  0.29757085  0.74138698  1
  C  C83  1  0.81605295  0.51953310  0.74101804  1
  C  C84  1  0.68503964  0.53175271  0.24402152  1
  C  C85  1  0.83501882  0.31151597  0.24440404  1
  C  C86  1  0.46471671  0.15930047  0.24376782  1
  C  C87  1  0.65125413  0.50259641  0.92329493  1
  C  C88  1  0.86376566  0.35683245  0.92354713  1
  C  C89  1  0.50502982  0.14469820  0.92346769  1
  C  C90  1  0.63070649  0.14173129  0.42478442  1
  C  C91  1  0.51322342  0.36910476  0.42521926  1
  C  C92  1  0.85745886  0.48740054  0.42506927  1
  C  C93  1  0.34745651  0.48593824  0.07617558  1
  C  C94  1  0.13539143  0.64387743  0.07792778  1
  C  C95  1  0.50826663  0.86356517  0.07821518  1
  C  C96  1  0.36940732  0.85942988  0.57359720  1
  C  C97  1  0.49020419  0.63124137  0.57333467  1
  C  C98  1  0.14009575  0.50921693  0.57360965  1
  C  C99  1  0.30411006  0.82724144  0.26092968  1
  C  C100  1  0.52832144  0.70902962  0.26107036  1
  C  C101  1  0.18765138  0.48724451  0.26161692  1
  C  C102  1  0.30443241  0.46025374  0.75531671  1
  C  C103  1  0.15089094  0.68642369  0.75594993  1
  C  C104  1  0.53891118  0.84621238  0.75487910  1
