# generated using pymatgen
data_Cu4Ni5C61
_symmetry_space_group_name_H-M   'P 1'
_cell_length_a   17.14492997
_cell_length_b   8.55484663
_cell_length_c   22.23911342
_cell_angle_alpha   90.02694558
_cell_angle_beta   90.58107023
_cell_angle_gamma   120.04386266
_symmetry_Int_Tables_number   1
_chemical_formula_structural   Cu4Ni5C61
_chemical_formula_sum   'Cu12 Ni15 C183'
_cell_volume   2823.40167224
_cell_formula_units_Z   3
loop_
 _symmetry_equiv_pos_site_id
 _symmetry_equiv_pos_as_xyz
  1  'x, y, z'
loop_
 _atom_site_type_symbol
 _atom_site_label
 _atom_site_symmetry_multiplicity
 _atom_site_fract_x
 _atom_site_fract_y
 _atom_site_fract_z
 _atom_site_occupancy
  C  C0  1  0.99703446  0.99968910  0.50005097  1
  C  C1  1  0.49652882  0.99621256  0.99631876  1
  C  C2  1  0.33691428  0.33961826  0.83350668  1
  C  C3  1  0.83268334  0.33764876  0.83158358  1
  C  C4  1  0.33418602  0.33042367  0.33223074  1
  C  C5  1  0.83369662  0.33265753  0.33539759  1
  C  C6  1  0.00151477  0.98920871  0.35807916  1
  C  C7  1  0.49937846  0.99868402  0.85316298  1
  C  C8  1  0.00046227  0.99615476  0.64718253  1
  C  C9  1  0.49966386  0.00532686  0.14575226  1
  C  C10  1  0.83995304  0.34887352  0.69113456  1
  C  C11  1  0.34152242  0.33192795  0.19001095  1
  C  C12  1  0.34155592  0.35944841  0.97434081  1
  C  C13  1  0.84197706  0.32329394  0.97787453  1
  C  C14  1  0.34362948  0.36124648  0.48093307  1
  C  C15  1  0.83950799  0.32046155  0.47669114  1
  C  C16  1  0.15997673  0.67692376  0.30952361  1
  C  C17  1  0.65366492  0.64164915  0.80578690  1
  Ni  Ni18  1  0.14150701  0.00804568  0.24733955  1
  Ni  Ni19  1  0.50727543  0.29343610  0.25388070  1
  Ni  Ni20  1  0.64064614  0.27487022  0.74698277  1
  Ni  Ni21  1  0.00729593  0.72083797  0.75396351  1
  Ni  Ni22  1  0.49681535  0.71066247  0.74887609  1
  Ni  Ni23  1  0.97981244  0.33360835  0.58535287  1
  Ni  Ni24  1  0.33499989  0.63678676  0.58583900  1
  Ni  Ni25  1  0.48066657  0.62555269  0.08431947  1
  Ni  Ni26  1  0.83416864  0.03408776  0.08486346  1
  Ni  Ni27  1  0.30787563  0.67285619  0.91434111  1
  Ni  Ni28  1  0.02613253  0.37272095  0.91450470  1
  Ni  Ni29  1  0.52709552  0.38062383  0.91897388  1
  Ni  Ni30  1  0.80617052  0.94213469  0.41453081  1
  Ni  Ni31  1  0.02597348  0.66373566  0.42012314  1
  Ni  Ni32  1  0.52478523  0.67774992  0.41524191  1
  Cu  Cu33  1  0.49761380  0.00192596  0.35629714  1
  Cu  Cu34  1  0.99594373  0.99216609  0.85597844  1
  Cu  Cu35  1  0.50308903  0.98985476  0.64799140  1
  Cu  Cu36  1  0.00290574  0.00275789  0.14328170  1
  Cu  Cu37  1  0.33820517  0.35275459  0.68463081  1
  Cu  Cu38  1  0.83236398  0.32514245  0.18080512  1
  Cu  Cu39  1  0.16898405  0.65250932  0.01472359  1
  Cu  Cu40  1  0.66163457  0.66749705  0.02396915  1
  Cu  Cu41  1  0.16194575  0.66065440  0.52721850  1
  Cu  Cu42  1  0.66812701  0.68607716  0.51731219  1
  Cu  Cu43  1  0.65793368  0.66149304  0.31616089  1
  Cu  Cu44  1  0.16000802  0.65558016  0.81455418  1
  C  C45  1  0.64640664  0.00174923  0.25009120  1
  C  C46  1  0.35542708  0.71307212  0.25082118  1
  C  C47  1  0.85347563  0.70708245  0.24806506  1
  C  C48  1  0.99856400  0.28760951  0.24890699  1
  C  C49  1  0.14531900  0.28939492  0.75056978  1
  C  C50  1  0.35244553  0.99856278  0.74826951  1
  C  C51  1  0.85586527  0.99745907  0.75086108  1
  C  C52  1  0.48136596  0.33505025  0.58337502  1
  C  C53  1  0.19204716  0.04808464  0.58336423  1
  C  C54  1  0.68793464  0.04268486  0.58300620  1
  C  C55  1  0.82852161  0.61929423  0.58164014  1
  C  C56  1  0.98045633  0.62505224  0.08323668  1
  C  C57  1  0.32820730  0.03754503  0.08170129  1
  C  C58  1  0.18807972  0.33478532  0.08352447  1
  C  C59  1  0.69100126  0.33704416  0.08249926  1
  C  C60  1  0.81086450  0.66867482  0.91719698  1
  C  C61  1  0.16476027  0.95123786  0.91698636  1
  C  C62  1  0.66704213  0.95274685  0.91669172  1
  C  C63  1  0.31112292  0.95369502  0.41724379  1
  C  C64  1  0.16773868  0.38198417  0.41640725  1
  C  C65  1  0.66508708  0.37876219  0.41698566  1
  C  C66  1  0.09473078  0.03385989  0.30704280  1
  C  C67  1  0.60830303  0.03780264  0.30451452  1
  C  C68  1  0.41394037  0.79050550  0.30583772  1
  C  C69  1  0.91102328  0.78392441  0.30272821  1
  C  C70  1  0.48324464  0.15602346  0.31106851  1
  C  C71  1  0.98039638  0.17707671  0.30304471  1
  C  C72  1  0.10623019  0.17709218  0.80492306  1
  C  C73  1  0.59712048  0.15866255  0.80754448  1
  C  C74  1  0.47780014  0.79510775  0.80845667  1
  C  C75  1  0.98327450  0.81005632  0.81106510  1
  C  C76  1  0.40979108  0.04012363  0.80296136  1
  C  C77  1  0.91541400  0.04024962  0.80578585  1
  C  C78  1  0.39168505  0.96685366  0.69393862  1
  C  C79  1  0.89876527  0.97180169  0.69673129  1
  C  C80  1  0.08866246  0.20804439  0.69564563  1
  C  C81  1  0.57668529  0.19416776  0.68692874  1
  C  C82  1  0.01699381  0.84021709  0.69368553  1
  C  C83  1  0.51725799  0.83076852  0.68957842  1
  C  C84  1  0.39716945  0.82494746  0.19694582  1
  C  C85  1  0.89337176  0.81885452  0.19389606  1
  C  C86  1  0.01385567  0.20871935  0.19429191  1
  C  C87  1  0.51704673  0.19353501  0.19381840  1
  C  C88  1  0.07577562  0.96247550  0.18851761  1
  C  C89  1  0.59033406  0.97197526  0.19545640  1
  C  C90  1  0.44068673  0.37090867  0.63764555  1
  C  C91  1  0.92917420  0.36307305  0.64143756  1
  C  C92  1  0.24733357  0.12644910  0.63962458  1
  C  C93  1  0.74432901  0.12175550  0.63677156  1
  C  C94  1  0.31156833  0.49337568  0.64094834  1
  C  C95  1  0.81516849  0.51347196  0.63673754  1
  C  C96  1  0.42974489  0.49623079  0.14159343  1
  C  C97  1  0.94030080  0.51052713  0.13909835  1
  C  C98  1  0.31532929  0.11709102  0.13724737  1
  C  C99  1  0.81354584  0.12858492  0.14278820  1
  C  C100  1  0.24342256  0.36559439  0.13779316  1
  C  C101  1  0.74667441  0.36993136  0.14016328  1
  C  C102  1  0.22520904  0.29867946  0.02947528  1
  C  C103  1  0.73139576  0.30304029  0.03008881  1
  C  C104  1  0.41449894  0.53523616  0.02579014  1
  C  C105  1  0.92108454  0.54208676  0.03015645  1
  C  C106  1  0.34584485  0.15091279  0.02864385  1
  C  C107  1  0.85207188  0.17123140  0.02766124  1
  C  C108  1  0.23129792  0.15869205  0.52936442  1
  C  C109  1  0.72796459  0.15280676  0.52840565  1
  C  C110  1  0.35163576  0.53488031  0.52723593  1
  C  C111  1  0.84571990  0.54045812  0.52806224  1
  C  C112  1  0.42169415  0.30250880  0.52922954  1
  C  C113  1  0.91533516  0.29533648  0.52519086  1
  C  C114  1  0.26910704  0.71057409  0.97690823  1
  C  C115  1  0.77391848  0.70379655  0.97204160  1
  C  C116  1  0.08199648  0.46021594  0.97711639  1
  C  C117  1  0.59145296  0.47536096  0.97813552  1
  C  C118  1  0.14670728  0.83773277  0.97231256  1
  C  C119  1  0.65315664  0.84642091  0.97253143  1
  C  C120  1  0.27292543  0.84238345  0.47107054  1
  C  C121  1  0.76852983  0.82551018  0.47629869  1
  C  C122  1  0.15223194  0.46002245  0.47117126  1
  C  C123  1  0.64727385  0.45602583  0.47162421  1
  C  C124  1  0.09302679  0.70782852  0.47720348  1
  C  C125  1  0.58337153  0.70481849  0.47629583  1
  C  C126  1  0.06874815  0.63093219  0.35907560  1
  C  C127  1  0.56209566  0.62607525  0.35655895  1
  C  C128  1  0.25553302  0.87077196  0.36182174  1
  C  C129  1  0.74518484  0.85479504  0.35390986  1
  C  C130  1  0.18370978  0.48998357  0.36188441  1
  C  C131  1  0.68408040  0.49168731  0.36197100  1
  C  C132  1  0.06353841  0.50109795  0.85657600  1
  C  C133  1  0.56750611  0.50627493  0.85993388  1
  C  C134  1  0.18384314  0.87611203  0.86249481  1
  C  C135  1  0.68602191  0.87983426  0.86315859  1
  C  C136  1  0.24437181  0.63387358  0.85485804  1
  C  C137  1  0.75669798  0.63957701  0.86257518  1
  C  C138  1  0.01522672  0.84184872  0.41086805  1
  C  C139  1  0.51165031  0.85124554  0.40345367  1
  C  C140  1  0.40186878  0.97217146  0.40967460  1
  C  C141  1  0.90796523  0.97788214  0.40582945  1
  C  C142  1  0.08512851  0.20099255  0.41077744  1
  C  C143  1  0.58336205  0.19722932  0.40901274  1
  C  C144  1  0.01177696  0.17209804  0.90387414  1
  C  C145  1  0.51431704  0.18226225  0.91120359  1
  C  C146  1  0.08348993  0.96933633  0.90947245  1
  C  C147  1  0.58677313  0.97202010  0.91263833  1
  C  C148  1  0.40809350  0.84147368  0.90983715  1
  C  C149  1  0.90323183  0.83195671  0.91086123  1
  C  C150  1  0.48693877  0.17120670  0.58989611  1
  C  C151  1  0.98907751  0.15379380  0.59300912  1
  C  C152  1  0.10080927  0.02836269  0.58987066  1
  C  C153  1  0.59756790  0.02347182  0.58813636  1
  C  C154  1  0.42362052  0.83205505  0.59463587  1
  C  C155  1  0.91075886  0.80298659  0.58919230  1
  C  C156  1  0.48922924  0.82348566  0.09453189  1
  C  C157  1  0.98610216  0.80267428  0.09064470  1
  C  C158  1  0.41048495  0.01830084  0.08998894  1
  C  C159  1  0.92448967  0.02179325  0.09699795  1
  C  C160  1  0.09574365  0.17226550  0.09078436  1
  C  C161  1  0.60067407  0.17227220  0.09031894  1
  C  C162  1  0.34287658  0.16553956  0.74039250  1
  C  C163  1  0.84753264  0.16076407  0.74414528  1
  C  C164  1  0.23480758  0.30051408  0.74355319  1
  C  C165  1  0.74102620  0.30073856  0.73855196  1
  C  C166  1  0.40868277  0.50375870  0.74235989  1
  C  C167  1  0.91623071  0.52349434  0.74456082  1
  C  C168  1  0.34616288  0.53270124  0.24411799  1
  C  C169  1  0.84630018  0.52018451  0.24099524  1
  C  C170  1  0.41635130  0.30905351  0.24457883  1
  C  C171  1  0.91634947  0.31196317  0.24205595  1
  C  C172  1  0.24123515  0.17919551  0.23976984  1
  C  C173  1  0.73830477  0.17180175  0.24369798  1
  C  C174  1  0.31259142  0.48620662  0.92190048  1
  C  C175  1  0.82086427  0.50587668  0.92525913  1
  C  C176  1  0.42514074  0.35377923  0.92593435  1
  C  C177  1  0.92628945  0.35644272  0.92392325  1
  C  C178  1  0.24486581  0.13089348  0.92517486  1
  C  C179  1  0.74746208  0.14004846  0.92483919  1
  C  C180  1  0.31946286  0.13381214  0.42320054  1
  C  C181  1  0.81370390  0.14017890  0.42161006  1
  C  C182  1  0.24650157  0.35379195  0.42355535  1
  C  C183  1  0.74486776  0.35852054  0.42414780  1
  C  C184  1  0.42502480  0.49443110  0.42371638  1
  C  C185  1  0.92382519  0.49477773  0.42463728  1
  C  C186  1  0.17833320  0.50056113  0.07740085  1
  C  C187  1  0.68247809  0.49777660  0.07792327  1
  C  C188  1  0.07040940  0.64444194  0.07624559  1
  C  C189  1  0.57732134  0.64455299  0.07518023  1
  C  C190  1  0.24615017  0.85489258  0.07585773  1
  C  C191  1  0.74802350  0.84161492  0.06961633  1
  C  C192  1  0.18254358  0.86767497  0.57749173  1
  C  C193  1  0.67979870  0.85766400  0.57683260  1
  C  C194  1  0.24733958  0.65143925  0.56912488  1
  C  C195  1  0.74631625  0.63710374  0.57513959  1
  C  C196  1  0.07559925  0.50923995  0.57466375  1
  C  C197  1  0.57117245  0.49930399  0.57488154  1
  C  C198  1  0.15339206  0.83030015  0.25856648  1
  C  C199  1  0.65583779  0.84056476  0.25577144  1
  C  C200  1  0.26672667  0.69475707  0.25884324  1
  C  C201  1  0.76463104  0.68701013  0.25648674  1
  C  C202  1  0.08018763  0.46631149  0.25598835  1
  C  C203  1  0.59603029  0.49091828  0.26109157  1
  C  C204  1  0.15469314  0.46990148  0.75574306  1
  C  C205  1  0.65655296  0.47698231  0.75777217  1
  C  C206  1  0.09562157  0.70084098  0.76100908  1
  C  C207  1  0.58680206  0.69624938  0.75771908  1
  C  C208  1  0.26319850  0.83822932  0.75711164  1
  C  C209  1  0.76884209  0.83879095  0.75853353  1
