# generated using pymatgen
data_Cu6NiC12
_symmetry_space_group_name_H-M   'P 1'
_cell_length_a   4.75249885
_cell_length_b   4.35217403
_cell_length_c   10.66772859
_cell_angle_alpha   88.02378173
_cell_angle_beta   98.26968645
_cell_angle_gamma   89.42420895
_symmetry_Int_Tables_number   1
_chemical_formula_structural   Cu6NiC12
_chemical_formula_sum   'Cu6 Ni1 C12'
_cell_volume   218.19882413
_cell_formula_units_Z   1
loop_
 _symmetry_equiv_pos_site_id
 _symmetry_equiv_pos_as_xyz
  1  'x, y, z'
loop_
 _atom_site_type_symbol
 _atom_site_label
 _atom_site_symmetry_multiplicity
 _atom_site_fract_x
 _atom_site_fract_y
 _atom_site_fract_z
 _atom_site_occupancy
  Ni  Ni0  1  0.79014543  0.71099422  0.48829399  1
  Cu  Cu1  1  0.00516137  0.02070355  0.00368916  1
  Cu  Cu2  1  0.06532718  0.95099461  0.29539097  1
  Cu  Cu3  1  0.95939552  0.09210884  0.70432174  1
  Cu  Cu4  1  0.43111471  0.54894711  0.85773804  1
  Cu  Cu5  1  0.57676852  0.48222669  0.14639549  1
  Cu  Cu6  1  0.33658623  0.29095723  0.51861218  1
  C  C7  1  0.22468073  0.80073694  0.46584180  1
  C  C8  1  0.14404156  0.85878231  0.85273732  1
  C  C9  1  0.31829308  0.30960121  0.01219884  1
  C  C10  1  0.25222990  0.37475162  0.70023845  1
  C  C11  1  0.69221659  0.70685361  0.00248935  1
  C  C12  1  0.77094066  0.67395770  0.29802791  1
  C  C13  1  0.86264367  0.18451367  0.15103837  1
  C  C14  1  0.79314932  0.23308817  0.53168765  1
  C  C15  1  0.26583161  0.76749025  0.15579907  1
  C  C16  1  0.36377175  0.26557089  0.30940837  1
  C  C17  1  0.69921163  0.75226757  0.66738763  1
  C  C18  1  0.74015755  0.25323284  0.84584667  1
