# generated using pymatgen
data_Cu2Ni2C35
_symmetry_space_group_name_H-M   'P 1'
_cell_length_a   12.74705600
_cell_length_b   6.51136400
_cell_length_c   9.39710577
_cell_angle_alpha   73.56716675
_cell_angle_beta   90.00000000
_cell_angle_gamma   90.00000000
_symmetry_Int_Tables_number   1
_chemical_formula_structural   Cu2Ni2C35
_chemical_formula_sum   'Cu4 Ni4 C70'
_cell_volume   748.10650246
_cell_formula_units_Z   2
loop_
 _symmetry_equiv_pos_site_id
 _symmetry_equiv_pos_as_xyz
  1  'x, y, z'
loop_
 _atom_site_type_symbol
 _atom_site_label
 _atom_site_symmetry_multiplicity
 _atom_site_fract_x
 _atom_site_fract_y
 _atom_site_fract_z
 _atom_site_occupancy
  C  C0  1  0.00000000  0.00000000  0.00000000  1
  C  C1  1  0.50000000  0.00000000  0.50000000  1
  C  C2  1  0.17944600  0.54472600  0.57227300  1
  C  C3  1  0.59698500  0.94390000  0.76238000  1
  C  C4  1  0.09698500  0.05610000  0.73762000  1
  C  C5  1  0.40301500  0.05610000  0.23762000  1
  C  C6  1  0.32903800  0.80087400  0.06958500  1
  C  C7  1  0.82903800  0.19912600  0.43041500  1
  C  C8  1  0.67096200  0.19912600  0.93041500  1
  C  C9  1  0.17096200  0.80087400  0.56958500  1
  C  C10  1  0.41933800  0.62576000  0.16837700  1
  C  C11  1  0.91933800  0.37424000  0.33162300  1
  C  C12  1  0.58066200  0.37424000  0.83162300  1
  C  C13  1  0.08066200  0.62576000  0.66837700  1
  C  C14  1  0.29352600  0.61101400  0.22981500  1
  C  C15  1  0.79352600  0.38898600  0.27018500  1
  C  C16  1  0.70647400  0.38898600  0.77018500  1
  C  C17  1  0.20647400  0.61101400  0.72981500  1
  C  C18  1  0.32055400  0.54472600  0.07227300  1
  C  C19  1  0.82055400  0.45527400  0.42772700  1
  C  C20  1  0.67944600  0.45527400  0.92772700  1
  C  C21  1  0.87902700  0.10488900  0.74850900  1
  C  C22  1  0.68520600  0.00573000  0.63765000  1
  C  C23  1  0.18520600  0.99427000  0.86235000  1
  C  C24  1  0.31479400  0.99427000  0.36235000  1
  C  C25  1  0.81479400  0.00573000  0.13765000  1
  C  C26  1  0.58480600  0.32045700  0.28480300  1
  C  C27  1  0.08480600  0.67954300  0.21519700  1
  C  C28  1  0.41519400  0.67954300  0.71519700  1
  C  C29  1  0.91519400  0.32045700  0.78480300  1
  C  C30  1  0.62097300  0.10488900  0.24850900  1
  C  C31  1  0.12097300  0.89511100  0.25149100  1
  C  C32  1  0.85850400  0.67618600  0.02461600  1
  C  C33  1  0.35850400  0.32381400  0.47538400  1
  C  C34  1  0.14149600  0.32381400  0.97538400  1
  C  C35  1  0.64149600  0.67618600  0.52461600  1
  C  C36  1  0.94300900  0.66893100  0.90231200  1
  C  C37  1  0.44300900  0.33106900  0.59768800  1
  C  C38  1  0.05699100  0.33106900  0.09768800  1
  C  C39  1  0.55699100  0.66893100  0.40231200  1
  C  C40  1  0.37902700  0.89511100  0.75149100  1
  C  C41  1  0.90301500  0.94390000  0.26238000  1
  Ni  Ni42  1  0.86748700  0.74025500  0.58652900  1
  Ni  Ni43  1  0.36748700  0.25974500  0.91347100  1
  Ni  Ni44  1  0.63251300  0.74025500  0.08652900  1
  Ni  Ni45  1  0.13251300  0.25974500  0.41347100  1
  Cu  Cu46  1  0.34052600  0.64563300  0.13626700  1
  Cu  Cu47  1  0.15947400  0.64563300  0.63626700  1
  Cu  Cu48  1  0.84052600  0.35436700  0.36373300  1
  Cu  Cu49  1  0.65947400  0.35436700  0.86373300  1
  C  C50  1  0.60768100  0.17042800  0.32965800  1
  C  C51  1  0.06673900  0.29293900  0.00349500  1
  C  C52  1  0.43326100  0.29293900  0.50349500  1
  C  C53  1  0.93326100  0.70706100  0.99650500  1
  C  C54  1  0.17949700  0.03159400  0.38659900  1
  C  C55  1  0.67949700  0.96840600  0.11340100  1
  C  C56  1  0.88828000  0.03686900  0.15991700  1
  C  C57  1  0.38828000  0.96313100  0.34008300  1
  C  C58  1  0.11172000  0.96313100  0.84008300  1
  C  C59  1  0.61172000  0.03686900  0.65991700  1
  C  C60  1  0.82050300  0.96840600  0.61340100  1
  C  C61  1  0.32050300  0.03159400  0.88659900  1
  C  C62  1  0.05568200  0.39057700  0.27041900  1
  C  C63  1  0.55568200  0.60942300  0.22958100  1
  C  C64  1  0.10768100  0.82957200  0.17034200  1
  C  C65  1  0.56673900  0.70706100  0.49650500  1
  C  C66  1  0.89231900  0.17042800  0.82965800  1
  C  C67  1  0.94431800  0.60942300  0.72958100  1
  C  C68  1  0.43710500  0.21036800  0.06875100  1
  C  C69  1  0.93710500  0.78963200  0.43124900  1
  C  C70  1  0.56289500  0.78963200  0.93124900  1
  C  C71  1  0.06289500  0.21036800  0.56875100  1
  C  C72  1  0.26666200  0.42408800  0.92197100  1
  C  C73  1  0.76666200  0.57591200  0.57802900  1
  C  C74  1  0.73333800  0.57591200  0.07802900  1
  C  C75  1  0.23333800  0.42408800  0.42197100  1
  C  C76  1  0.44431800  0.39057700  0.77041900  1
  C  C77  1  0.39231900  0.82957200  0.67034200  1
