# generated using pymatgen
data_Cu2NiC
_symmetry_space_group_name_H-M   'P 1'
_cell_length_a   4.09552777
_cell_length_b   7.11932551
_cell_length_c   10.57381709
_cell_angle_alpha   67.15145423
_cell_angle_beta   85.44578820
_cell_angle_gamma   88.84724363
_symmetry_Int_Tables_number   1
_chemical_formula_structural   Cu2NiC
_chemical_formula_sum   'Cu4 Ni2 C2'
_cell_volume   283.19734961
_cell_formula_units_Z   2
loop_
 _symmetry_equiv_pos_site_id
 _symmetry_equiv_pos_as_xyz
  1  'x, y, z'
loop_
 _atom_site_type_symbol
 _atom_site_label
 _atom_site_symmetry_multiplicity
 _atom_site_fract_x
 _atom_site_fract_y
 _atom_site_fract_z
 _atom_site_occupancy
  Ni  Ni0  1  0.21182828  0.51025660  0.13139978  1
  Ni  Ni1  1  0.78817172  0.48974340  0.86860022  1
  C  C2  1  0.24972300  0.24086615  0.01609137  1
  C  C3  1  0.75027700  0.75913385  0.98390863  1
  Cu  Cu4  1  0.29390979  0.03984736  0.83323180  1
  Cu  Cu5  1  0.28046646  0.70298081  0.62549045  1
  Cu  Cu6  1  0.70609021  0.96015264  0.16676820  1
  Cu  Cu7  1  0.71953354  0.29701919  0.37450955  1
