# generated using pymatgen
data_Cu16NiC33
_symmetry_space_group_name_H-M   'P 1'
_cell_length_a   5.90487511
_cell_length_b   9.98808177
_cell_length_c   10.28471409
_cell_angle_alpha   89.58502453
_cell_angle_beta   89.98817325
_cell_angle_gamma   90.01879999
_symmetry_Int_Tables_number   1
_chemical_formula_structural   Cu16NiC33
_chemical_formula_sum   'Cu16 Ni1 C33'
_cell_volume   606.55977389
_cell_formula_units_Z   1
loop_
 _symmetry_equiv_pos_site_id
 _symmetry_equiv_pos_as_xyz
  1  'x, y, z'
loop_
 _atom_site_type_symbol
 _atom_site_label
 _atom_site_symmetry_multiplicity
 _atom_site_fract_x
 _atom_site_fract_y
 _atom_site_fract_z
 _atom_site_occupancy
  C  C0  1  0.99826200  0.50365900  0.49815700  1
  Ni  Ni1  1  0.49975800  0.99908400  0.49540100  1
  Cu  Cu2  1  0.49771700  0.19407600  0.33897800  1
  Cu  Cu3  1  0.99796100  0.16323800  0.34655200  1
  Cu  Cu4  1  0.49808700  0.35142000  0.83383600  1
  Cu  Cu5  1  0.99818500  0.34858700  0.83719600  1
  Cu  Cu6  1  0.99819600  0.64969300  0.15482400  1
  Cu  Cu7  1  0.49813300  0.64802300  0.15934800  1
  Cu  Cu8  1  0.99804400  0.84114500  0.64675100  1
  Cu  Cu9  1  0.49762800  0.80518100  0.65454600  1
  Cu  Cu10  1  0.75304100  0.66607700  0.85226900  1
  Cu  Cu11  1  0.24216600  0.66583500  0.85221900  1
  Cu  Cu12  1  0.75357300  0.83755800  0.32401900  1
  Cu  Cu13  1  0.24398600  0.83758300  0.32413000  1
  Cu  Cu14  1  0.75194000  0.16208500  0.66415700  1
  Cu  Cu15  1  0.24515900  0.16207600  0.66389500  1
  Cu  Cu16  1  0.75118300  0.33201700  0.14138100  1
  Cu  Cu17  1  0.24402000  0.33212600  0.14159300  1
  C  C18  1  0.73697700  0.96644700  0.63992200  1
  C  C19  1  0.26017400  0.96616500  0.63975500  1
  C  C20  1  0.74517900  0.66625700  0.04000500  1
  C  C21  1  0.25100600  0.66649800  0.03998900  1
  C  C22  1  0.74642400  0.32626700  0.95406300  1
  C  C23  1  0.24967700  0.32604400  0.95413800  1
  C  C24  1  0.73978100  0.03669600  0.34993700  1
  C  C25  1  0.25749700  0.03691900  0.35003400  1
  C  C26  1  0.99768600  0.45574400  0.14565900  1
  C  C27  1  0.49774300  0.45411200  0.15446200  1
  C  C28  1  0.99831100  0.18538400  0.54015200  1
  C  C29  1  0.49848000  0.18899500  0.53738700  1
  C  C30  1  0.49841400  0.81104000  0.45261000  1
  C  C31  1  0.99856400  0.81969000  0.44429600  1
  C  C32  1  0.49782600  0.54187500  0.84120700  1
  C  C33  1  0.99753600  0.54005200  0.84645200  1
  C  C34  1  0.49752900  0.79108500  0.83915300  1
  C  C35  1  0.99781400  0.79060600  0.85541900  1
  C  C36  1  0.99867600  0.84078600  0.19873900  1
  C  C37  1  0.49852600  0.83737700  0.20172900  1
  C  C38  1  0.99764700  0.20045400  0.15335900  1
  C  C39  1  0.49746400  0.20670800  0.15511500  1
  C  C40  1  0.49823300  0.16121400  0.78628100  1
  C  C41  1  0.99849300  0.15736200  0.78811100  1
  C  C42  1  0.76837500  0.30396000  0.33027400  1
  C  C43  1  0.22647200  0.30418800  0.33052800  1
  C  C44  1  0.75255500  0.35406100  0.71051700  1
  C  C45  1  0.24413900  0.35467300  0.71087700  1
  C  C46  1  0.76822400  0.69733600  0.66494000  1
  C  C47  1  0.22719300  0.69694000  0.66473100  1
  C  C48  1  0.75337100  0.64572700  0.28242700  1
  C  C49  1  0.24322500  0.64553300  0.28232600  1
