# generated using pymatgen
data_Cu(Ni6C5)2
_symmetry_space_group_name_H-M   'P 1'
_cell_length_a   5.94920466
_cell_length_b   5.94920466
_cell_length_c   5.94920509
_cell_angle_alpha   96.00119357
_cell_angle_beta   96.00119357
_cell_angle_gamma   96.00119016
_symmetry_Int_Tables_number   1
_chemical_formula_structural   Cu(Ni6C5)2
_chemical_formula_sum   'Cu1 Ni12 C10'
_cell_volume   206.83453662
_cell_formula_units_Z   1
loop_
 _symmetry_equiv_pos_site_id
 _symmetry_equiv_pos_as_xyz
  1  'x, y, z'
loop_
 _atom_site_type_symbol
 _atom_site_label
 _atom_site_symmetry_multiplicity
 _atom_site_fract_x
 _atom_site_fract_y
 _atom_site_fract_z
 _atom_site_occupancy
  C  C0  1  0.99090300  0.99090300  0.99090300  1
  Ni  Ni1  1  0.79712700  0.18436100  0.36728500  1
  Ni  Ni2  1  0.36728500  0.79712700  0.18436100  1
  Ni  Ni3  1  0.18436100  0.36728500  0.79712700  1
  Ni  Ni4  1  0.06239900  0.26580600  0.40078600  1
  Ni  Ni5  1  0.40078600  0.06239900  0.26580600  1
  Ni  Ni6  1  0.26580600  0.40078600  0.06239900  1
  Ni  Ni7  1  0.13270100  0.73324000  0.61991700  1
  Ni  Ni8  1  0.61991700  0.13270100  0.73324000  1
  Ni  Ni9  1  0.73324000  0.61991700  0.13270100  1
  Ni  Ni10  1  0.01670400  0.94514700  0.53267600  1
  Ni  Ni11  1  0.53267600  0.01670400  0.94514700  1
  Ni  Ni12  1  0.94514700  0.53267600  0.01670400  1
  Cu  Cu13  1  0.49534900  0.49534900  0.49534900  1
  C  C14  1  0.94626900  0.13575800  0.32876900  1
  C  C15  1  0.32876900  0.94626900  0.13575800  1
  C  C16  1  0.13575800  0.32876900  0.94626900  1
  C  C17  1  0.06819100  0.87489500  0.67015700  1
  C  C18  1  0.67015700  0.06819100  0.87489500  1
  C  C19  1  0.87489500  0.67015700  0.06819100  1
  C  C20  1  0.24511500  0.47343600  0.55342900  1
  C  C21  1  0.55342900  0.24511500  0.47343600  1
  C  C22  1  0.47343600  0.55342900  0.24511500  1
