# generated using pymatgen
data_CuNi2C7
_symmetry_space_group_name_H-M   'P 1'
_cell_length_a   5.44422370
_cell_length_b   5.42740477
_cell_length_c   5.45330102
_cell_angle_alpha   54.92008456
_cell_angle_beta   55.84448928
_cell_angle_gamma   55.62286859
_symmetry_Int_Tables_number   1
_chemical_formula_structural   CuNi2C7
_chemical_formula_sum   'Cu1 Ni2 C7'
_cell_volume   101.91667898
_cell_formula_units_Z   1
loop_
 _symmetry_equiv_pos_site_id
 _symmetry_equiv_pos_as_xyz
  1  'x, y, z'
loop_
 _atom_site_type_symbol
 _atom_site_label
 _atom_site_symmetry_multiplicity
 _atom_site_fract_x
 _atom_site_fract_y
 _atom_site_fract_z
 _atom_site_occupancy
  C  C0  1  0.20079900  0.20722100  0.21030600  1
  Ni  Ni1  1  0.99572000  0.99227100  0.00369500  1
  Ni  Ni2  1  0.49748100  0.48917400  0.49894400  1
  Cu  Cu3  1  0.69954900  0.69441400  0.70423500  1
  C  C4  1  0.12219600  0.77832300  0.37953500  1
  C  C5  1  0.38853200  0.12980500  0.76890100  1
  C  C6  1  0.77849300  0.38576300  0.12505700  1
  C  C7  1  0.27351600  0.62828200  0.88510700  1
  C  C8  1  0.62065900  0.87887400  0.27940900  1
  C  C9  1  0.88635700  0.26667200  0.63290900  1
