# generated using pymatgen
data_Cu2Ni2C9
_symmetry_space_group_name_H-M   'P 1'
_cell_length_a   3.40113909
_cell_length_b   3.40100633
_cell_length_c   45.51990975
_cell_angle_alpha   90.03041396
_cell_angle_beta   89.97457284
_cell_angle_gamma   120.00038169
_symmetry_Int_Tables_number   1
_chemical_formula_structural   Cu2Ni2C9
_chemical_formula_sum   'Cu2 Ni2 C9'
_cell_volume   455.99713674
_cell_formula_units_Z   1
loop_
 _symmetry_equiv_pos_site_id
 _symmetry_equiv_pos_as_xyz
  1  'x, y, z'
loop_
 _atom_site_type_symbol
 _atom_site_label
 _atom_site_symmetry_multiplicity
 _atom_site_fract_x
 _atom_site_fract_y
 _atom_site_fract_z
 _atom_site_occupancy
  C  C0  1  0.00015700  0.99985300  0.55102600  1
  C  C1  1  0.33327100  0.66685000  0.32307800  1
  C  C2  1  0.33321000  0.66685500  0.70581500  1
  C  C3  1  0.33352800  0.66640600  0.24077100  1
  C  C4  1  0.33343100  0.66638500  0.62289500  1
  C  C5  1  0.33342300  0.66668900  0.09394500  1
  C  C6  1  0.33314400  0.66675900  0.46273900  1
  C  C7  1  0.66673800  0.33330600  0.28192200  1
  C  C8  1  0.66665500  0.33330800  0.66450300  1
  Ni  Ni9  1  0.66683800  0.33319000  0.05774700  1
  Ni  Ni10  1  0.66666400  0.33352100  0.13015300  1
  Cu  Cu11  1  0.66658300  0.33325400  0.43008100  1
  Cu  Cu12  1  0.66635800  0.33362600  0.49615700  1
