# generated using pymatgen
data_Cu(NiC6)2
_symmetry_space_group_name_H-M   'P 1'
_cell_length_a   6.24093782
_cell_length_b   5.82697288
_cell_length_c   8.28618569
_cell_angle_alpha   90.00000002
_cell_angle_beta   89.90477522
_cell_angle_gamma   117.82902866
_symmetry_Int_Tables_number   1
_chemical_formula_structural   Cu(NiC6)2
_chemical_formula_sum   'Cu1 Ni2 C12'
_cell_volume   266.48223332
_cell_formula_units_Z   1
loop_
 _symmetry_equiv_pos_site_id
 _symmetry_equiv_pos_as_xyz
  1  'x, y, z'
loop_
 _atom_site_type_symbol
 _atom_site_label
 _atom_site_symmetry_multiplicity
 _atom_site_fract_x
 _atom_site_fract_y
 _atom_site_fract_z
 _atom_site_occupancy
  Ni  Ni0  1  0.71665491  0.35832695  0.80032732  1
  Ni  Ni1  1  0.16244901  0.58122501  0.27600828  1
  Cu  Cu2  1  0.88736985  0.94368493  0.46325877  1
  C  C3  1  0.06445581  0.03222791  0.99201127  1
  C  C4  1  0.55315018  0.77657509  0.02985385  1
  C  C5  1  0.61443324  0.30721612  0.24029536  1
  C  C6  1  0.39338957  0.69669528  0.74543250  1
  C  C7  1  0.75515940  0.12466340  0.12613726  1
  C  C8  1  0.75515940  0.63049600  0.12613726  1
  C  C9  1  0.28508143  0.14254072  0.21669923  1
  C  C10  1  0.72930335  0.86465167  0.80985398  1
  C  C11  1  0.29848201  0.42004757  0.88888519  1
  C  C12  1  0.29848201  0.87843444  0.88888519  1
  C  C13  1  0.36738642  0.68369371  0.54068359  1
  C  C14  1  0.74404339  0.37202119  0.43052996  1
