# generated using pymatgen
data_Cu2Ni3C14
_symmetry_space_group_name_H-M   'P 1'
_cell_length_a   8.66864617
_cell_length_b   8.66864617
_cell_length_c   10.04706434
_cell_angle_alpha   85.64079438
_cell_angle_beta   85.64079438
_cell_angle_gamma   31.82094053
_symmetry_Int_Tables_number   1
_chemical_formula_structural   Cu2Ni3C14
_chemical_formula_sum   'Cu4 Ni6 C28'
_cell_volume   396.83601484
_cell_formula_units_Z   2
loop_
 _symmetry_equiv_pos_site_id
 _symmetry_equiv_pos_as_xyz
  1  'x, y, z'
loop_
 _atom_site_type_symbol
 _atom_site_label
 _atom_site_symmetry_multiplicity
 _atom_site_fract_x
 _atom_site_fract_y
 _atom_site_fract_z
 _atom_site_occupancy
  Ni  Ni0  1  0.70169600  0.79254100  0.33887300  1
  Ni  Ni1  1  0.20745900  0.29830400  0.16112700  1
  Ni  Ni2  1  0.29830400  0.20745900  0.66112700  1
  Ni  Ni3  1  0.79254100  0.70169600  0.83887300  1
  Ni  Ni4  1  0.68316900  0.31683100  0.75000000  1
  Ni  Ni5  1  0.31683100  0.68316900  0.25000000  1
  Cu  Cu6  1  0.38651000  0.30246500  0.89875700  1
  Cu  Cu7  1  0.30246500  0.38651000  0.39875700  1
  Cu  Cu8  1  0.61349000  0.69753500  0.10124300  1
  Cu  Cu9  1  0.69753500  0.61349000  0.60124300  1
  C  C10  1  0.90694900  0.27783800  0.89628600  1
  C  C11  1  0.95583000  0.14667300  0.33757200  1
  C  C12  1  0.85332700  0.04417000  0.16242800  1
  C  C13  1  0.04417000  0.85332700  0.66242800  1
  C  C14  1  0.14667300  0.95583000  0.83757200  1
  C  C15  1  0.27783800  0.90694900  0.39628600  1
  C  C16  1  0.09305100  0.72216200  0.10371400  1
  C  C17  1  0.72216200  0.09305100  0.60371400  1
  C  C18  1  0.24776600  0.42075600  0.05833700  1
  C  C19  1  0.42075600  0.24776600  0.55833700  1
  C  C20  1  0.75223400  0.57924400  0.94166300  1
  C  C21  1  0.57924400  0.75223400  0.44166300  1
  C  C22  1  0.58967000  0.53238900  0.16850200  1
  C  C23  1  0.28903900  0.06874500  0.10164700  1
  C  C24  1  0.41033000  0.46761100  0.83149800  1
  C  C25  1  0.53238900  0.58967000  0.66850200  1
  C  C26  1  0.84844600  0.59720200  0.20244900  1
  C  C27  1  0.40279800  0.15155400  0.29755100  1
  C  C28  1  0.15155400  0.40279800  0.79755100  1
  C  C29  1  0.59720200  0.84844600  0.70244900  1
  C  C30  1  0.46761100  0.41033000  0.33149800  1
  C  C31  1  0.93125500  0.71096100  0.39835300  1
  C  C32  1  0.71096100  0.93125500  0.89835300  1
  C  C33  1  0.06874500  0.28903900  0.60164700  1
  C  C34  1  0.84861300  0.06137800  0.64641600  1
  C  C35  1  0.06137800  0.84861300  0.14641600  1
  C  C36  1  0.15138700  0.93862200  0.35358400  1
  C  C37  1  0.93862200  0.15138700  0.85358400  1
