# generated using pymatgen
data_Cu2Ni2C9
_symmetry_space_group_name_H-M   'P 1'
_cell_length_a   3.39320601
_cell_length_b   3.39263884
_cell_length_c   46.58435058
_cell_angle_alpha   89.98489995
_cell_angle_beta   89.99744417
_cell_angle_gamma   119.99579156
_symmetry_Int_Tables_number   1
_chemical_formula_structural   Cu2Ni2C9
_chemical_formula_sum   'Cu2 Ni2 C9'
_cell_volume   464.44781783
_cell_formula_units_Z   1
loop_
 _symmetry_equiv_pos_site_id
 _symmetry_equiv_pos_as_xyz
  1  'x, y, z'
loop_
 _atom_site_type_symbol
 _atom_site_label
 _atom_site_symmetry_multiplicity
 _atom_site_fract_x
 _atom_site_fract_y
 _atom_site_fract_z
 _atom_site_occupancy
  C  C0  1  0.99991700  0.99993100  0.18361900  1
  C  C1  1  0.33335300  0.66660700  0.32956900  1
  C  C2  1  0.33323100  0.66653800  0.69763500  1
  C  C3  1  0.33356100  0.66693400  0.24879800  1
  C  C4  1  0.33351900  0.66700200  0.61719100  1
  C  C5  1  0.33310100  0.66640300  0.08533900  1
  C  C6  1  0.33326300  0.66663000  0.46976200  1
  C  C7  1  0.66687100  0.33349500  0.28933800  1
  C  C8  1  0.66678700  0.33349200  0.65742300  1
  Ni  Ni9  1  0.66663200  0.33329500  0.05002000  1
  Ni  Ni10  1  0.66637900  0.33296000  0.12106700  1
  Cu  Cu11  1  0.66678700  0.33351100  0.43752500  1
  Cu  Cu12  1  0.66659800  0.33320100  0.50201900  1
