# generated using pymatgen
data_Cu6Ni3C32
_symmetry_space_group_name_H-M   'P 1'
_cell_length_a   8.82060026
_cell_length_b   8.83392438
_cell_length_c   21.78085270
_cell_angle_alpha   90.08284461
_cell_angle_beta   90.03344386
_cell_angle_gamma   119.95804681
_symmetry_Int_Tables_number   1
_chemical_formula_structural   Cu6Ni3C32
_chemical_formula_sum   'Cu18 Ni9 C96'
_cell_volume   1470.41465599
_cell_formula_units_Z   3
loop_
 _symmetry_equiv_pos_site_id
 _symmetry_equiv_pos_as_xyz
  1  'x, y, z'
loop_
 _atom_site_type_symbol
 _atom_site_label
 _atom_site_symmetry_multiplicity
 _atom_site_fract_x
 _atom_site_fract_y
 _atom_site_fract_z
 _atom_site_occupancy
  C  C0  1  0.63734715  0.00649355  0.24581158  1
  C  C1  1  0.36839121  0.36108704  0.24600738  1
  C  C2  1  0.99290838  0.63109556  0.24564556  1
  C  C3  1  0.63306972  0.62630908  0.74739690  1
  C  C4  1  0.99340867  0.36682204  0.74780663  1
  C  C5  1  0.37518241  0.00650436  0.74753823  1
  C  C6  1  0.02754883  0.69499411  0.58438142  1
  C  C7  1  0.66484455  0.97133673  0.58396363  1
  C  C8  1  0.30723865  0.97169353  0.08408641  1
  C  C9  1  0.66745991  0.69384894  0.08443870  1
  C  C10  1  0.69811961  0.03300915  0.91923433  1
  C  C11  1  0.33194656  0.30039749  0.91870698  1
  C  C12  1  0.96654280  0.29347994  0.41411507  1
  C  C13  1  0.32688433  0.03370773  0.41413641  1
  C  C14  1  0.70785635  0.67378616  0.41391641  1
  C  C15  1  0.01095091  0.01205555  0.49975445  1
  C  C16  1  0.99982922  0.99913258  0.00097739  1
  C  C17  1  0.67806709  0.34621969  0.83401627  1
  C  C18  1  0.66679691  0.33330485  0.32955187  1
  C  C19  1  0.31993303  0.65203220  0.16355732  1
  C  C20  1  0.33188941  0.65250281  0.66457284  1
  C  C21  1  0.00017380  0.00086262  0.34803868  1
  C  C22  1  0.66462581  0.33405064  0.67994231  1
  C  C23  1  0.67058098  0.33493788  0.17776208  1
  Ni  Ni24  1  0.99971387  0.99454401  0.85292786  1
  Ni  Ni25  1  0.00590341  0.00585036  0.64816843  1
  Ni  Ni26  1  0.00092753  0.00668229  0.14884248  1
  Ni  Ni27  1  0.67501693  0.34000865  0.98427148  1
  Ni  Ni28  1  0.66394717  0.33258227  0.48517292  1
  Ni  Ni29  1  0.32709101  0.66232768  0.01631498  1
  Ni  Ni30  1  0.33273673  0.66155695  0.51841326  1
  Ni  Ni31  1  0.33334702  0.66585896  0.31569138  1
  Ni  Ni32  1  0.32989480  0.66463253  0.81747551  1
  Cu  Cu33  1  0.29336912  0.99644531  0.25105293  1
  Cu  Cu34  1  0.70302590  0.70673085  0.25115643  1
  Cu  Cu35  1  0.00347927  0.29617897  0.25221270  1
  Cu  Cu36  1  0.28669615  0.29120942  0.75261991  1
  Cu  Cu37  1  0.00423344  0.71299885  0.75042931  1
  Cu  Cu38  1  0.70862490  0.99554410  0.75152597  1
  Cu  Cu39  1  0.96533329  0.33323488  0.58363661  1
  Cu  Cu40  1  0.36839725  0.03712433  0.58320462  1
  Cu  Cu41  1  0.66456508  0.62976026  0.58406220  1
  Cu  Cu42  1  0.96518194  0.63010043  0.08408151  1
  Cu  Cu43  1  0.66823496  0.03644932  0.08199639  1
  Cu  Cu44  1  0.36806720  0.33378273  0.08222311  1
  Cu  Cu45  1  0.62735387  0.66558803  0.91672792  1
  Cu  Cu46  1  0.03862277  0.37558937  0.91548271  1
  Cu  Cu47  1  0.33170857  0.95870343  0.91684562  1
  Cu  Cu48  1  0.62123462  0.96015351  0.41847279  1
  Cu  Cu49  1  0.33880484  0.37907759  0.41742675  1
  Cu  Cu50  1  0.04002140  0.66144218  0.41854318  1
  C  C51  1  0.21681887  0.02543657  0.30999361  1
  C  C52  1  0.80885377  0.78392310  0.31008472  1
  C  C53  1  0.97316834  0.19398644  0.31226612  1
  C  C54  1  0.20538594  0.18241310  0.81166451  1
  C  C55  1  0.97438636  0.80215865  0.80587514  1
  C  C56  1  0.82206844  0.02375911  0.80935695  1
  C  C57  1  0.79127410  0.96512432  0.69276193  1
  C  C58  1  0.16714977  0.20491132  0.69625442  1
  C  C59  1  0.03499197  0.82247448  0.69065257  1
  C  C60  1  0.79143858  0.82413981  0.19358097  1
  C  C61  1  0.03689254  0.20500323  0.19712995  1
  C  C62  1  0.17572718  0.96705001  0.19341610  1
  C  C63  1  0.88914295  0.36768534  0.64171866  1
  C  C64  1  0.47921265  0.11196051  0.64106915  1
  C  C65  1  0.63970741  0.52914500  0.64323842  1
  C  C66  1  0.89514545  0.53327663  0.14421592  1
  C  C67  1  0.63217165  0.11076996  0.13976267  1
  C  C68  1  0.47828947  0.36910010  0.14036495  1
  C  C69  1  0.45604754  0.30051040  0.02507704  1
  C  C70  1  0.83865135  0.54028737  0.02963468  1
  C  C71  1  0.69121222  0.14747852  0.02373245  1
  C  C72  1  0.45582001  0.14784235  0.52483178  1
  C  C73  1  0.69739182  0.54263668  0.52700675  1
  C  C74  1  0.84466594  0.30058783  0.52631050  1
  C  C75  1  0.54184789  0.69880601  0.97337619  1
  C  C76  1  0.16405967  0.46354544  0.96931798  1
  C  C77  1  0.30979215  0.85064981  0.97460536  1
  C  C78  1  0.53379613  0.84763398  0.47593842  1
  C  C79  1  0.30839165  0.46883379  0.47238091  1
  C  C80  1  0.15371372  0.68903747  0.47602215  1
  C  C81  1  0.12312170  0.63093893  0.35988342  1
  C  C82  1  0.50798208  0.87637147  0.35973491  1
  C  C83  1  0.37077882  0.48897773  0.35763369  1
  C  C84  1  0.11623208  0.47926358  0.85493005  1
  C  C85  1  0.36400925  0.87555583  0.85862274  1
  C  C86  1  0.51078451  0.63208963  0.85828054  1
  C  C87  1  0.01840982  0.82420786  0.41530634  1
  C  C88  1  0.80551165  0.98111517  0.41570858  1
  C  C89  1  0.17721193  0.19382859  0.41447520  1
  C  C90  1  0.01797887  0.18786140  0.91225869  1
  C  C91  1  0.16936972  0.98451804  0.91238573  1
  C  C92  1  0.80962922  0.83495369  0.91146951  1
  C  C93  1  0.97613025  0.16233298  0.58791833  1
  C  C94  1  0.18100427  0.01349697  0.58720534  1
  C  C95  1  0.83435077  0.81633814  0.58648762  1
  C  C96  1  0.98367451  0.81748679  0.08714592  1
  C  C97  1  0.83143994  0.01166865  0.08695703  1
  C  C98  1  0.18620011  0.16313668  0.08726549  1
  C  C99  1  0.68685227  0.15831264  0.74774326  1
  C  C100  1  0.47095410  0.31201986  0.74789951  1
  C  C101  1  0.84257477  0.52778676  0.74716170  1
  C  C102  1  0.67783871  0.52140646  0.24543315  1
  C  C103  1  0.84205057  0.31907309  0.24498690  1
  C  C104  1  0.47849950  0.15685406  0.24483969  1
  C  C105  1  0.64106688  0.49744209  0.92268873  1
  C  C106  1  0.85194412  0.35053481  0.92232628  1
  C  C107  1  0.49939546  0.14531731  0.92059258  1
  C  C108  1  0.63754265  0.14559794  0.42217973  1
  C  C109  1  0.50849458  0.36399553  0.42279945  1
  C  C110  1  0.85477311  0.49221984  0.42287254  1
  C  C111  1  0.35215454  0.50073083  0.07395106  1
  C  C112  1  0.15318232  0.65807903  0.07513286  1
  C  C113  1  0.50221376  0.84839370  0.07567067  1
  C  C114  1  0.34611780  0.84920600  0.57751569  1
  C  C115  1  0.50530894  0.65936989  0.57699535  1
  C  C116  1  0.14827016  0.49958079  0.57635816  1
  C  C117  1  0.30611868  0.82461243  0.25416655  1
  C  C118  1  0.51838102  0.69428368  0.25396159  1
  C  C119  1  0.17398973  0.48156594  0.25488829  1
  C  C120  1  0.30513174  0.47802449  0.75583571  1
  C  C121  1  0.17450882  0.69808706  0.75526250  1
  C  C122  1  0.52310444  0.82604183  0.75575712  1
