# generated using pymatgen
data_Cu2NiC8
_symmetry_space_group_name_H-M   'P 1'
_cell_length_a   5.35429437
_cell_length_b   6.00484484
_cell_length_c   8.03610146
_cell_angle_alpha   98.07176006
_cell_angle_beta   130.77683448
_cell_angle_gamma   118.53072234
_symmetry_Int_Tables_number   1
_chemical_formula_structural   Cu2NiC8
_chemical_formula_sum   'Cu2 Ni1 C8'
_cell_volume   126.04651961
_cell_formula_units_Z   1
loop_
 _symmetry_equiv_pos_site_id
 _symmetry_equiv_pos_as_xyz
  1  'x, y, z'
loop_
 _atom_site_type_symbol
 _atom_site_label
 _atom_site_symmetry_multiplicity
 _atom_site_fract_x
 _atom_site_fract_y
 _atom_site_fract_z
 _atom_site_occupancy
  Ni  Ni0  1  0.00327200  0.28697300  0.34569600  1
  Cu  Cu1  1  0.01034300  0.63001300  0.17831900  1
  Cu  Cu2  1  0.98609100  0.45239800  0.75661100  1
  C  C3  1  0.02701000  0.92163200  0.54709900  1
  C  C4  1  0.99457600  0.99195000  0.99034200  1
  C  C5  1  0.72102200  0.83157300  0.10182100  1
  C  C6  1  0.38518600  0.15348800  0.96149400  1
  C  C7  1  0.31990100  0.47046100  0.25719900  1
  C  C8  1  0.37143600  0.80826000  0.59652000  1
  C  C9  1  0.60432000  0.11443300  0.37527600  1
  C  C10  1  0.61958600  0.46053500  0.74927000  1
