# generated using pymatgen
data_Cu5NiC29
_symmetry_space_group_name_H-M   'P 1'
_cell_length_a   8.70449254
_cell_length_b   8.70535482
_cell_length_c   22.52021546
_cell_angle_alpha   90.02606062
_cell_angle_beta   89.84895470
_cell_angle_gamma   120.01376327
_symmetry_Int_Tables_number   1
_chemical_formula_structural   Cu5NiC29
_chemical_formula_sum   'Cu15 Ni3 C87'
_cell_volume   1477.64848868
_cell_formula_units_Z   3
loop_
 _symmetry_equiv_pos_site_id
 _symmetry_equiv_pos_as_xyz
  1  'x, y, z'
loop_
 _atom_site_type_symbol
 _atom_site_label
 _atom_site_symmetry_multiplicity
 _atom_site_fract_x
 _atom_site_fract_y
 _atom_site_fract_z
 _atom_site_occupancy
  C  C0  1  0.99972136  0.99890291  0.99926556  1
  C  C1  1  0.66551250  0.33277316  0.82891971  1
  C  C2  1  0.66693567  0.33282472  0.33842300  1
  C  C3  1  0.99837418  0.00253434  0.36006107  1
  C  C4  1  0.00016308  0.00033186  0.64160358  1
  C  C5  1  0.66768265  0.33423593  0.19015670  1
  C  C6  1  0.66548716  0.33394140  0.97635769  1
  C  C7  1  0.33583449  0.67148320  0.02345090  1
  C  C8  1  0.33825849  0.66946087  0.80739187  1
  C  C9  1  0.00023796  0.99512116  0.85578304  1
  C  C10  1  0.00238157  0.00487508  0.14929508  1
  C  C11  1  0.66568919  0.33327421  0.68499876  1
  C  C12  1  0.66749763  0.33360466  0.47946724  1
  C  C13  1  0.33359336  0.66705630  0.52252005  1
  C  C14  1  0.32956412  0.66311197  0.30990263  1
  Ni  Ni15  1  0.00522385  0.28833157  0.25103201  1
  Ni  Ni16  1  0.62229969  0.67244708  0.91530695  1
  Ni  Ni17  1  0.32844639  0.95061139  0.91544537  1
  Cu  Cu18  1  0.28126518  0.99515402  0.25081319  1
  Cu  Cu19  1  0.71388961  0.71920383  0.25093712  1
  Cu  Cu20  1  0.28672760  0.28131065  0.74987127  1
  Cu  Cu21  1  0.99374051  0.71082958  0.74958028  1
  Cu  Cu22  1  0.71997517  0.00784215  0.74990450  1
  Cu  Cu23  1  0.95219679  0.33876112  0.58242891  1
  Cu  Cu24  1  0.38645349  0.04781150  0.58234907  1
  Cu  Cu25  1  0.66158792  0.61368989  0.58232991  1
  Cu  Cu26  1  0.95328631  0.62485910  0.08375675  1
  Cu  Cu27  1  0.67233277  0.04756496  0.08398252  1
  Cu  Cu28  1  0.37438848  0.32809854  0.08390262  1
  Cu  Cu29  1  0.05128841  0.37979614  0.91600466  1
  Cu  Cu30  1  0.61042525  0.95029518  0.41728755  1
  Cu  Cu31  1  0.34019053  0.38854109  0.41741701  1
  Cu  Cu32  1  0.04928052  0.66162232  0.41734588  1
  C  C33  1  0.19855011  0.03154809  0.30553915  1
  C  C34  1  0.83397164  0.79807156  0.30569976  1
  C  C35  1  0.96727809  0.15991596  0.30798639  1
  C  C36  1  0.20103993  0.16771610  0.80517053  1
  C  C37  1  0.96600613  0.79802516  0.80517768  1
  C  C38  1  0.83132512  0.03372348  0.80520260  1
  C  C39  1  0.80532076  0.97657288  0.69427898  1
  C  C40  1  0.17098823  0.19401514  0.69424369  1
  C  C41  1  0.02459086  0.82862594  0.69441242  1
  C  C42  1  0.80226853  0.82893064  0.19460363  1
  C  C43  1  0.03017535  0.19358587  0.19176410  1
  C  C44  1  0.17048541  0.96919614  0.19443434  1
  C  C45  1  0.86396159  0.36445426  0.63828125  1
  C  C46  1  0.50009575  0.13564339  0.63817004  1
  C  C47  1  0.63527867  0.49953897  0.63815967  1
  C  C48  1  0.86187326  0.50536366  0.13887256  1
  C  C49  1  0.64159189  0.13651846  0.13887658  1
  C  C50  1  0.49218315  0.35836904  0.13867284  1
  C  C51  1  0.46811880  0.30324957  0.02852595  1
  C  C52  1  0.83662271  0.53274277  0.02867886  1
  C  C53  1  0.69831636  0.16313293  0.02870866  1
  C  C54  1  0.46972034  0.16716499  0.52781857  1
  C  C55  1  0.69774979  0.53038848  0.52784879  1
  C  C56  1  0.83293305  0.30239949  0.52796576  1
  C  C57  1  0.52862030  0.69660112  0.97475054  1
  C  C58  1  0.16237217  0.46622137  0.97234041  1
  C  C59  1  0.29828490  0.83120744  0.97495535  1
  C  C60  1  0.52840313  0.83658583  0.47283568  1
  C  C61  1  0.30649014  0.46944699  0.47267443  1
  C  C62  1  0.16323672  0.69275479  0.47264518  1
  C  C63  1  0.13355655  0.63281858  0.36142270  1
  C  C64  1  0.50106049  0.86831405  0.36137487  1
  C  C65  1  0.36784495  0.50006800  0.36144134  1
  C  C66  1  0.13109050  0.49610406  0.86058039  1
  C  C67  1  0.36239020  0.86021934  0.85777793  1
  C  C68  1  0.49657369  0.63193413  0.85758937  1
  C  C69  1  0.02838535  0.82731434  0.40713978  1
  C  C70  1  0.79835334  0.96844499  0.40862268  1
  C  C71  1  0.17342282  0.19939715  0.40795590  1
  C  C72  1  0.02791998  0.19578254  0.90948416  1
  C  C73  1  0.16024616  0.97944714  0.90849001  1
  C  C74  1  0.81570412  0.84604795  0.90842840  1
  C  C75  1  0.97128112  0.17133869  0.59349208  1
  C  C76  1  0.19990645  0.02855923  0.59344087  1
  C  C77  1  0.82886997  0.79997882  0.59360310  1
  C  C78  1  0.97342649  0.80753510  0.09031168  1
  C  C79  1  0.83387717  0.02444797  0.09040930  1
  C  C80  1  0.19232901  0.16116438  0.08940036  1
  C  C81  1  0.69406669  0.16870392  0.74172925  1
  C  C82  1  0.47338975  0.30560223  0.74160057  1
  C  C83  1  0.82971456  0.52587494  0.74182366  1
  C  C84  1  0.69148359  0.52959114  0.24159115  1
  C  C85  1  0.82788862  0.30855745  0.24197156  1
  C  C86  1  0.46792240  0.16627110  0.24152986  1
  C  C87  1  0.64643270  0.49866360  0.92447539  1
  C  C88  1  0.86500529  0.36205361  0.92507766  1
  C  C89  1  0.50749533  0.14451456  0.92459806  1
  C  C90  1  0.63991864  0.14001996  0.42522636  1
  C  C91  1  0.50204260  0.36179682  0.42489013  1
  C  C92  1  0.86095866  0.49854015  0.42507976  1
  C  C93  1  0.35661144  0.49339696  0.07485583  1
  C  C94  1  0.13374186  0.63464292  0.07605698  1
  C  C95  1  0.50223811  0.86470384  0.07651809  1
  C  C96  1  0.36226845  0.86340827  0.57293934  1
  C  C97  1  0.50116829  0.63740473  0.57281987  1
  C  C98  1  0.13654810  0.49894173  0.57285636  1
  C  C99  1  0.30828656  0.83799464  0.26006030  1
  C  C100  1  0.53208040  0.69822817  0.26015197  1
  C  C101  1  0.17516648  0.48198645  0.26119700  1
  C  C102  1  0.30161942  0.46521007  0.75742620  1
  C  C103  1  0.15969866  0.69180629  0.75799108  1
  C  C104  1  0.53356426  0.83782353  0.75664784  1
