# generated using pymatgen
data_Cu2Ni4C7
_symmetry_space_group_name_H-M   'P 1'
_cell_length_a   3.34393200
_cell_length_b   3.34403467
_cell_length_c   44.14144249
_cell_angle_alpha   89.96511058
_cell_angle_beta   90.00000000
_cell_angle_gamma   119.99896455
_symmetry_Int_Tables_number   1
_chemical_formula_structural   Cu2Ni4C7
_chemical_formula_sum   'Cu2 Ni4 C7'
_cell_volume   427.47407992
_cell_formula_units_Z   1
loop_
 _symmetry_equiv_pos_site_id
 _symmetry_equiv_pos_as_xyz
  1  'x, y, z'
loop_
 _atom_site_type_symbol
 _atom_site_label
 _atom_site_symmetry_multiplicity
 _atom_site_fract_x
 _atom_site_fract_y
 _atom_site_fract_z
 _atom_site_occupancy
  C  C0  1  0.99975700  0.99951500  0.38454700  1
  C  C1  1  0.66673500  0.33346700  0.05031300  1
  C  C2  1  0.66629000  0.33257900  0.13624000  1
  C  C3  1  0.33315900  0.66631900  0.09326600  1
  C  C4  1  0.33333500  0.66667000  0.47489300  1
  C  C5  1  0.66669700  0.33339400  0.27610000  1
  C  C6  1  0.66686300  0.33372600  0.65747300  1
  Ni  Ni7  1  0.33315600  0.66631300  0.31415500  1
  Ni  Ni8  1  0.33330400  0.66660900  0.69538900  1
  Ni  Ni9  1  0.33355400  0.66711000  0.23841900  1
  Ni  Ni10  1  0.33373300  0.66746700  0.61953400  1
  Cu  Cu11  1  0.66686600  0.33373100  0.43973500  1
  Cu  Cu12  1  0.66655200  0.33310100  0.50889200  1
