# generated using pymatgen
data_Cu4NiC2
_symmetry_space_group_name_H-M   'P 1'
_cell_length_a   8.00733700
_cell_length_b   6.54705000
_cell_length_c   16.37409525
_cell_angle_alpha   74.18050232
_cell_angle_beta   90.00000000
_cell_angle_gamma   90.00000000
_symmetry_Int_Tables_number   1
_chemical_formula_structural   Cu4NiC2
_chemical_formula_sum   'Cu16 Ni4 C8'
_cell_volume   825.89094282
_cell_formula_units_Z   4
loop_
 _symmetry_equiv_pos_site_id
 _symmetry_equiv_pos_as_xyz
  1  'x, y, z'
loop_
 _atom_site_type_symbol
 _atom_site_label
 _atom_site_symmetry_multiplicity
 _atom_site_fract_x
 _atom_site_fract_y
 _atom_site_fract_z
 _atom_site_occupancy
  C  C0  1  0.03437300  0.64257400  0.25004100  1
  C  C1  1  0.53437300  0.35742600  0.24995900  1
  C  C2  1  0.96562700  0.35742600  0.74995900  1
  C  C3  1  0.46562700  0.64257400  0.75004100  1
  C  C4  1  0.78547900  0.85731200  0.74996300  1
  C  C5  1  0.28547900  0.14268800  0.75003700  1
  C  C6  1  0.21452100  0.14268800  0.25003700  1
  C  C7  1  0.71452100  0.85731200  0.24996300  1
  Ni  Ni8  1  0.62559700  0.24983900  0.75014800  1
  Ni  Ni9  1  0.12559700  0.75016100  0.74985200  1
  Ni  Ni10  1  0.37440300  0.75016100  0.24985200  1
  Ni  Ni11  1  0.87440300  0.24983900  0.25014800  1
  Cu  Cu12  1  0.98979900  0.87823600  0.37058600  1
  Cu  Cu13  1  0.48979900  0.12176400  0.12941400  1
  Cu  Cu14  1  0.01020100  0.12176400  0.62941400  1
  Cu  Cu15  1  0.51020100  0.87823600  0.87058600  1
  Cu  Cu16  1  0.75929700  0.62143600  0.12944500  1
  Cu  Cu17  1  0.25929700  0.37856400  0.37055500  1
  Cu  Cu18  1  0.24070300  0.37856400  0.87055500  1
  Cu  Cu19  1  0.74070300  0.62143600  0.62944500  1
  Cu  Cu20  1  0.48975400  0.95731100  0.37045500  1
  Cu  Cu21  1  0.98975400  0.04268900  0.12954500  1
  Cu  Cu22  1  0.51024600  0.04268900  0.62954500  1
  Cu  Cu23  1  0.01024600  0.95731100  0.87045500  1
  Cu  Cu24  1  0.25883600  0.54249200  0.12942500  1
  Cu  Cu25  1  0.75883600  0.45750800  0.37057500  1
  Cu  Cu26  1  0.74116400  0.45750800  0.87057500  1
  Cu  Cu27  1  0.24116400  0.54249200  0.62942500  1
