# generated using pymatgen
data_Cu3NiC17
_symmetry_space_group_name_H-M   'P 1'
_cell_length_a   9.21437247
_cell_length_b   9.21437214
_cell_length_c   22.44779953
_cell_angle_alpha   90.00000000
_cell_angle_beta   90.00000000
_cell_angle_gamma   120.00000121
_symmetry_Int_Tables_number   1
_chemical_formula_structural   Cu3NiC17
_chemical_formula_sum   'Cu18 Ni6 C102'
_cell_volume   1650.57747298
_cell_formula_units_Z   6
loop_
 _symmetry_equiv_pos_site_id
 _symmetry_equiv_pos_as_xyz
  1  'x, y, z'
loop_
 _atom_site_type_symbol
 _atom_site_label
 _atom_site_symmetry_multiplicity
 _atom_site_fract_x
 _atom_site_fract_y
 _atom_site_fract_z
 _atom_site_occupancy
  C  C0  1  0.63956412  0.01370011  0.24697844  1
  C  C1  1  0.37413599  0.36043588  0.24697844  1
  C  C2  1  0.98629989  0.62586401  0.24697844  1
  C  C3  1  0.63956412  0.62586401  0.74697844  1
  C  C4  1  0.98629989  0.36043588  0.74697844  1
  C  C5  1  0.37413599  0.01370011  0.74697844  1
  C  C6  1  0.30623112  0.34703311  0.58031144  1
  C  C7  1  0.04080299  0.69376888  0.58031144  1
  C  C8  1  0.65296689  0.95919701  0.58031144  1
  C  C9  1  0.30623112  0.95919701  0.08031144  1
  C  C10  1  0.65296689  0.69376888  0.08031144  1
  C  C11  1  0.04080299  0.34703311  0.08031144  1
  C  C12  1  0.97289712  0.68036711  0.91364544  1
  C  C13  1  0.70746899  0.02710288  0.91364544  1
  C  C14  1  0.31963289  0.29253101  0.91364544  1
  C  C15  1  0.97289712  0.29253101  0.41364544  1
  C  C16  1  0.31963289  0.02710288  0.41364544  1
  C  C17  1  0.70746899  0.68036711  0.41364544  1
  C  C18  1  -0.00000000  -0.00000000  0.49467479  1
  C  C19  1  -0.00000000  -0.00000000  0.99467479  1
  C  C20  1  0.66666700  0.33333300  0.82800779  1
  C  C21  1  0.66666700  0.33333300  0.32800779  1
  C  C22  1  0.33333300  0.66666700  0.16134179  1
  C  C23  1  0.33333300  0.66666700  0.66134179  1
  C  C24  1  0.00000000  -0.00000000  0.64655929  1
  C  C25  1  -0.00000000  -0.00000000  0.14655929  1
  C  C26  1  0.66666700  0.33333300  0.97989229  1
  C  C27  1  0.66666700  0.33333300  0.47989229  1
  C  C28  1  0.33333300  0.66666700  0.31322629  1
  C  C29  1  0.33333300  0.66666700  0.81322629  1
  Ni  Ni30  1  -0.00000000  -0.00000000  0.34964784  1
  Ni  Ni31  1  -0.00000000  -0.00000000  0.84964784  1
  Ni  Ni32  1  0.66666700  0.33333300  0.68298084  1
  Ni  Ni33  1  0.66666700  0.33333300  0.18298084  1
  Ni  Ni34  1  0.33333300  0.66666700  0.01631484  1
  Ni  Ni35  1  0.33333300  0.66666700  0.51631484  1
  Cu  Cu36  1  0.29285690  0.99676166  0.25089317  1
  Cu  Cu37  1  0.70390476  0.70714310  0.25089317  1
  Cu  Cu38  1  0.00323834  0.29609524  0.25089317  1
  Cu  Cu39  1  0.29285690  0.29609524  0.75089317  1
  Cu  Cu40  1  0.00323834  0.70714310  0.75089317  1
  Cu  Cu41  1  0.70390476  0.99676166  0.75089317  1
  Cu  Cu42  1  0.95952390  0.33009466  0.58422617  1
  Cu  Cu43  1  0.37057176  0.04047610  0.58422617  1
  Cu  Cu44  1  0.66990534  0.62942824  0.58422617  1
  Cu  Cu45  1  0.95952390  0.62942824  0.08422617  1
  Cu  Cu46  1  0.66990534  0.04047610  0.08422617  1
  Cu  Cu47  1  0.37057176  0.33009466  0.08422617  1
  Cu  Cu48  1  0.62618990  0.66342866  0.91756017  1
  Cu  Cu49  1  0.03723776  0.37381010  0.91756017  1
  Cu  Cu50  1  0.33657134  0.96276224  0.91756017  1
  Cu  Cu51  1  0.62618990  0.96276224  0.41756017  1
  Cu  Cu52  1  0.33657134  0.37381010  0.41756017  1
  Cu  Cu53  1  0.03723776  0.66342866  0.41756017  1
  C  C54  1  0.21914832  0.03264762  0.31053294  1
  C  C55  1  0.81349930  0.78085168  0.31053294  1
  C  C56  1  0.96735238  0.18650070  0.31053294  1
  C  C57  1  0.21914832  0.18650070  0.81053294  1
  C  C58  1  0.96735238  0.78085168  0.81053294  1
  C  C59  1  0.81349930  0.03264762  0.81053294  1
  C  C60  1  0.80366044  0.96892812  0.69324818  1
  C  C61  1  0.16526767  0.19633956  0.69324818  1
  C  C62  1  0.03107188  0.83473233  0.69324818  1
  C  C63  1  0.80366044  0.83473233  0.19324818  1
  C  C64  1  0.03107188  0.19633956  0.19324818  1
  C  C65  1  0.16526767  0.96892812  0.19324818  1
  C  C66  1  0.88581532  0.36598062  0.64386594  1
  C  C67  1  0.48016630  0.11418468  0.64386594  1
  C  C68  1  0.63401938  0.51983370  0.64386594  1
  C  C69  1  0.88581532  0.51983370  0.14386594  1
  C  C70  1  0.63401938  0.11418468  0.14386594  1
  C  C71  1  0.48016630  0.36598062  0.14386594  1
  C  C72  1  0.47032744  0.30226112  0.02658118  1
  C  C73  1  0.83193467  0.52967256  0.02658118  1
  C  C74  1  0.69773888  0.16806533  0.02658118  1
  C  C75  1  0.47032744  0.16806533  0.52658118  1
  C  C76  1  0.69773888  0.52967256  0.52658118  1
  C  C77  1  0.83193467  0.30226112  0.52658118  1
  C  C78  1  0.55248132  0.69931462  0.97719994  1
  C  C79  1  0.14683230  0.44751868  0.97719994  1
  C  C80  1  0.30068538  0.85316770  0.97719994  1
  C  C81  1  0.55248132  0.85316770  0.47719994  1
  C  C82  1  0.30068538  0.44751868  0.47719994  1
  C  C83  1  0.14683230  0.69931462  0.47719994  1
  C  C84  1  0.13699344  0.63559512  0.35991518  1
  C  C85  1  0.49860067  0.86300656  0.35991518  1
  C  C86  1  0.36440488  0.50139933  0.35991518  1
  C  C87  1  0.13699344  0.50139933  0.85991518  1
  C  C88  1  0.36440488  0.86300656  0.85991518  1
  C  C89  1  0.49860067  0.63559512  0.85991518  1
  C  C90  1  0.00860570  0.82251804  0.41257681  1
  C  C91  1  0.81391234  0.99139430  0.41257681  1
  C  C92  1  0.17748196  0.18608766  0.41257681  1
  C  C93  1  0.00860570  0.18608766  0.91257681  1
  C  C94  1  0.17748196  0.99139430  0.91257681  1
  C  C95  1  0.81391234  0.82251804  0.91257681  1
  C  C96  1  0.96589518  0.15307940  0.58880983  1
  C  C97  1  0.18718422  0.03410482  0.58880983  1
  C  C98  1  0.84692060  0.81281578  0.58880983  1
  C  C99  1  0.96589518  0.81281578  0.08880983  1
  C  C100  1  0.84692060  0.03410482  0.08880983  1
  C  C101  1  0.18718422  0.15307940  0.08880983  1
  C  C102  1  0.67527270  0.15585104  0.74590981  1
  C  C103  1  0.48057934  0.32472730  0.74590981  1
  C  C104  1  0.84414896  0.51942066  0.74590981  1
  C  C105  1  0.67527270  0.51942066  0.24590981  1
  C  C106  1  0.84414896  0.32472730  0.24590981  1
  C  C107  1  0.48057934  0.15585104  0.24590981  1
  C  C108  1  0.63256218  0.48641240  0.92214283  1
  C  C109  1  0.85385122  0.36743782  0.92214283  1
  C  C110  1  0.51358760  0.14614878  0.92214283  1
  C  C111  1  0.63256218  0.14614878  0.42214283  1
  C  C112  1  0.51358760  0.36743782  0.42214283  1
  C  C113  1  0.85385122  0.48641240  0.42214283  1
  C  C114  1  0.34193870  0.48918504  0.07924381  1
  C  C115  1  0.14724534  0.65806130  0.07924381  1
  C  C116  1  0.51081496  0.85275466  0.07924381  1
  C  C117  1  0.34193870  0.85275466  0.57924381  1
  C  C118  1  0.51081496  0.65806130  0.57924381  1
  C  C119  1  0.14724534  0.48918504  0.57924381  1
  C  C120  1  0.29922818  0.81974640  0.25547683  1
  C  C121  1  0.52051722  0.70077182  0.25547683  1
  C  C122  1  0.18025360  0.47948278  0.25547683  1
  C  C123  1  0.29922818  0.47948278  0.75547683  1
  C  C124  1  0.18025360  0.70077182  0.75547683  1
  C  C125  1  0.52051722  0.81974640  0.75547683  1
