# generated using pymatgen
data_CuNi5C12
_symmetry_space_group_name_H-M   'P 1'
_cell_length_a   6.78984663
_cell_length_b   6.91168178
_cell_length_c   5.87912483
_cell_angle_alpha   75.58700269
_cell_angle_beta   104.93116968
_cell_angle_gamma   95.71367999
_symmetry_Int_Tables_number   1
_chemical_formula_structural   CuNi5C12
_chemical_formula_sum   'Cu1 Ni5 C12'
_cell_volume   258.01197704
_cell_formula_units_Z   1
loop_
 _symmetry_equiv_pos_site_id
 _symmetry_equiv_pos_as_xyz
  1  'x, y, z'
loop_
 _atom_site_type_symbol
 _atom_site_label
 _atom_site_symmetry_multiplicity
 _atom_site_fract_x
 _atom_site_fract_y
 _atom_site_fract_z
 _atom_site_occupancy
  Ni  Ni0  1  0.91570400  0.91595800  0.24592300  1
  Ni  Ni1  1  0.20827700  0.61537900  0.75195600  1
  Ni  Ni2  1  0.38974400  0.79220400  0.26010700  1
  Ni  Ni3  1  0.61294400  0.20640700  0.75160300  1
  Ni  Ni4  1  0.79980600  0.39362100  0.24758900  1
  Cu  Cu5  1  0.08385200  0.08890400  0.73766400  1
  C  C6  1  0.03759100  0.80396500  0.62534100  1
  C  C7  1  0.08969900  0.39122300  0.75707100  1
  C  C8  1  0.19610200  0.95952200  0.16308100  1
  C  C9  1  0.37905300  0.64924900  0.55444400  1
  C  C10  1  0.38244600  0.08052300  0.74091600  1
  C  C11  1  0.34147200  0.63126200  0.05518500  1
  C  C12  1  0.63942000  0.37013500  0.94367100  1
  C  C13  1  0.62533700  0.90307300  0.27672400  1
  C  C14  1  0.62809300  0.33913200  0.45914500  1
  C  C15  1  0.81823200  0.04283200  0.87242400  1
  C  C16  1  0.89801700  0.64049200  0.20879900  1
  C  C17  1  0.95420800  0.17611800  0.34835900  1
