# generated using pymatgen
data_Cu(NiC9)2
_symmetry_space_group_name_H-M   'P 1'
_cell_length_a   9.11732697
_cell_length_b   9.11732665
_cell_length_c   22.18608137
_cell_angle_alpha   90.00095441
_cell_angle_beta   89.99904559
_cell_angle_gamma   119.74227159
_symmetry_Int_Tables_number   1
_chemical_formula_structural   Cu(NiC9)2
_chemical_formula_sum   'Cu6 Ni12 C108'
_cell_volume   1601.28380358
_cell_formula_units_Z   6
loop_
 _symmetry_equiv_pos_site_id
 _symmetry_equiv_pos_as_xyz
  1  'x, y, z'
loop_
 _atom_site_type_symbol
 _atom_site_label
 _atom_site_symmetry_multiplicity
 _atom_site_fract_x
 _atom_site_fract_y
 _atom_site_fract_z
 _atom_site_occupancy
  C  C0  1  0.64756913  0.01639547  0.24882055  1
  C  C1  1  0.37764939  0.36320181  0.24249266  1
  C  C2  1  0.97470698  0.61706154  0.24502642  1
  C  C3  1  0.63679819  0.62235061  0.74249266  1
  C  C4  1  0.98360453  0.35243087  0.74882055  1
  C  C5  1  0.38293846  0.02529302  0.74502642  1
  C  C6  1  0.31423613  0.34972847  0.58215355  1
  C  C7  1  0.04431639  0.69653481  0.57582566  1
  C  C8  1  0.64137398  0.95039454  0.57835942  1
  C  C9  1  0.30346519  0.95568361  0.07582566  1
  C  C10  1  0.65027153  0.68576387  0.08215355  1
  C  C11  1  0.04960546  0.35862602  0.07835942  1
  C  C12  1  0.98090213  0.68306247  0.91548755  1
  C  C13  1  0.71098239  0.02986881  0.90915966  1
  C  C14  1  0.30803998  0.28372854  0.91169342  1
  C  C15  1  0.97013119  0.28901761  0.40915966  1
  C  C16  1  0.31693753  0.01909787  0.41548755  1
  C  C17  1  0.71627146  0.69196002  0.41169342  1
  C  C18  1  0.99369333  0.99201136  0.49238652  1
  C  C19  1  0.00798864  0.00630667  0.99238652  1
  C  C20  1  0.66036033  0.32534436  0.82571952  1
  C  C21  1  0.67465564  0.33963967  0.32571952  1
  C  C22  1  0.32702633  0.65867836  0.15905352  1
  C  C23  1  0.34132164  0.67297367  0.65905352  1
  C  C24  1  0.99466197  0.99611579  0.35114781  1
  C  C25  1  0.00388421  0.00533803  0.85114781  1
  C  C26  1  0.66132897  0.32944879  0.68448081  1
  C  C27  1  0.67055121  0.33867103  0.18448081  1
  C  C28  1  0.32799497  0.66278279  0.01781481  1
  C  C29  1  0.33721721  0.67200503  0.51781481  1
  C  C30  1  0.99838028  0.00114832  0.64724731  1
  C  C31  1  0.99885168  0.00161972  0.14724731  1
  C  C32  1  0.66504728  0.33448132  0.98058031  1
  C  C33  1  0.66551868  0.33495272  0.48058031  1
  C  C34  1  0.33171328  0.66781532  0.31391431  1
  C  C35  1  0.33218468  0.66828672  0.81391431  1
  Ni  Ni36  1  0.70476000  0.70363831  0.25353134  1
  Ni  Ni37  1  0.99895814  0.29393559  0.25373923  1
  Ni  Ni38  1  0.29636169  0.29524000  0.75353134  1
  Ni  Ni39  1  0.70606441  0.00104186  0.75373923  1
  Ni  Ni40  1  0.37142700  0.03697131  0.58686434  1
  Ni  Ni41  1  0.66562514  0.62726859  0.58707223  1
  Ni  Ni42  1  0.96302869  0.62857300  0.08686434  1
  Ni  Ni43  1  0.37273141  0.33437486  0.08707223  1
  Ni  Ni44  1  0.03809300  0.37030531  0.92019834  1
  Ni  Ni45  1  0.33229114  0.96060259  0.92040623  1
  Ni  Ni46  1  0.62969469  0.96190700  0.42019834  1
  Ni  Ni47  1  0.03939741  0.66770886  0.42040623  1
  Cu  Cu48  1  0.28992702  0.99831545  0.25234886  1
  Cu  Cu49  1  0.00168455  0.71007298  0.75234886  1
  Cu  Cu50  1  0.95659402  0.33164845  0.58568186  1
  Cu  Cu51  1  0.66835155  0.04340598  0.08568186  1
  Cu  Cu52  1  0.62326002  0.66498245  0.91901586  1
  Cu  Cu53  1  0.33501755  0.37673998  0.41901586  1
  C  C54  1  0.21032043  0.02428918  0.30847323  1
  C  C55  1  0.81993251  0.78973406  0.31110849  1
  C  C56  1  0.98150765  0.18454052  0.31186304  1
  C  C57  1  0.21026594  0.18006749  0.81110849  1
  C  C58  1  0.97571082  0.78967957  0.80847323  1
  C  C59  1  0.81545948  0.01849235  0.81186304  1
  C  C60  1  0.80254010  0.96919107  0.69301384  1
  C  C61  1  0.16625646  0.19632739  0.69321019  1
  C  C62  1  0.02925487  0.82768359  0.69520063  1
  C  C63  1  0.80367261  0.83374354  0.19321019  1
  C  C64  1  0.03080893  0.19745990  0.19301384  1
  C  C65  1  0.17231641  0.97074513  0.19520063  1
  C  C66  1  0.87698743  0.35762218  0.64180623  1
  C  C67  1  0.48659951  0.12306706  0.64444149  1
  C  C68  1  0.64817465  0.51787352  0.64519604  1
  C  C69  1  0.87693294  0.51340049  0.14444149  1
  C  C70  1  0.64237782  0.12301257  0.14180623  1
  C  C71  1  0.48212648  0.35182535  0.14519604  1
  C  C72  1  0.46920710  0.30252407  0.02634684  1
  C  C73  1  0.83292346  0.52966039  0.02654319  1
  C  C74  1  0.69592187  0.16101659  0.02853363  1
  C  C75  1  0.47033961  0.16707654  0.52654319  1
  C  C76  1  0.69747593  0.53079290  0.52634684  1
  C  C77  1  0.83898341  0.30407813  0.52853363  1
  C  C78  1  0.54365343  0.69095618  0.97514023  1
  C  C79  1  0.15326551  0.45640106  0.97777549  1
  C  C80  1  0.31484065  0.85120752  0.97853004  1
  C  C81  1  0.54359894  0.84673449  0.47777549  1
  C  C82  1  0.30904382  0.45634657  0.47514023  1
  C  C83  1  0.14879248  0.68515935  0.47853004  1
  C  C84  1  0.13587310  0.63585807  0.35968084  1
  C  C85  1  0.49958946  0.86299439  0.35987719  1
  C  C86  1  0.36258787  0.49435059  0.36186763  1
  C  C87  1  0.13700561  0.50041054  0.85987719  1
  C  C88  1  0.36414193  0.86412690  0.85968084  1
  C  C89  1  0.50564941  0.63741213  0.86186763  1
  C  C90  1  0.01884223  0.83274461  0.41285936  1
  C  C91  1  0.81999046  0.99506488  0.41326349  1
  C  C92  1  0.18795017  0.19735095  0.41065694  1
  C  C93  1  0.00493512  0.18000954  0.91326349  1
  C  C94  1  0.16725539  0.98115777  0.91285936  1
  C  C95  1  0.80264905  0.81204983  0.91065694  1
  C  C96  1  0.96271163  0.16089336  0.58743171  1
  C  C97  1  0.18448829  0.03240455  0.58822243  1
  C  C98  1  0.84424927  0.81630251  0.58795595  1
  C  C99  1  0.96759545  0.81551171  0.08822243  1
  C  C100  1  0.83910664  0.03728837  0.08743171  1
  C  C101  1  0.18369749  0.15575073  0.08795595  1
  C  C102  1  0.68550923  0.16607761  0.74619236  1
  C  C103  1  0.48665746  0.32839788  0.74659649  1
  C  C104  1  0.85461717  0.53068395  0.74398994  1
  C  C105  1  0.67160212  0.51334254  0.24659649  1
  C  C106  1  0.83392239  0.31449077  0.24619236  1
  C  C107  1  0.46931605  0.14538283  0.24398994  1
  C  C108  1  0.62937863  0.49422636  0.92076471  1
  C  C109  1  0.85115529  0.36573755  0.92155543  1
  C  C110  1  0.51091627  0.14963551  0.92128895  1
  C  C111  1  0.63426245  0.14884471  0.42155543  1
  C  C112  1  0.50577364  0.37062137  0.42076471  1
  C  C113  1  0.85036449  0.48908373  0.42128895  1
  C  C114  1  0.35217523  0.49941161  0.07952636  1
  C  C115  1  0.15332346  0.66173188  0.07993049  1
  C  C116  1  0.52128317  0.86401795  0.07732394  1
  C  C117  1  0.33826812  0.84667654  0.57993049  1
  C  C118  1  0.50058839  0.64782477  0.57952636  1
  C  C119  1  0.13598205  0.47871683  0.57732394  1
  C  C120  1  0.29604463  0.82756036  0.25409871  1
  C  C121  1  0.51782129  0.69907155  0.25488943  1
  C  C122  1  0.17758227  0.48296951  0.25462295  1
  C  C123  1  0.30092845  0.48217871  0.75488943  1
  C  C124  1  0.17243964  0.70395537  0.75409871  1
  C  C125  1  0.51703049  0.82241773  0.75462295  1
