# generated using pymatgen
data_Cu3NiC
_symmetry_space_group_name_H-M   'P 1'
_cell_length_a   5.87489319
_cell_length_b   10.33324698
_cell_length_c   7.67721000
_cell_angle_alpha   89.94263304
_cell_angle_beta   105.90537383
_cell_angle_gamma   89.99965100
_symmetry_Int_Tables_number   1
_chemical_formula_structural   Cu3NiC
_chemical_formula_sum   'Cu12 Ni4 C4'
_cell_volume   448.21525599
_cell_formula_units_Z   4
loop_
 _symmetry_equiv_pos_site_id
 _symmetry_equiv_pos_as_xyz
  1  'x, y, z'
loop_
 _atom_site_type_symbol
 _atom_site_label
 _atom_site_symmetry_multiplicity
 _atom_site_fract_x
 _atom_site_fract_y
 _atom_site_fract_z
 _atom_site_occupancy
  C  C0  1  0.95967126  0.31777121  0.00598889  1
  C  C1  1  0.54032002  0.18222489  0.99400669  1
  C  C2  1  0.54002813  0.81786169  0.99395467  1
  C  C3  1  0.95997220  0.68214089  0.00604841  1
  Ni  Ni4  1  0.96373921  0.00004632  0.84066452  1
  Ni  Ni5  1  0.44522469  0.50004747  0.86144844  1
  Ni  Ni6  1  0.05478462  0.99995519  0.13854067  1
  Ni  Ni7  1  0.53626870  0.49993271  0.15934124  1
  Cu  Cu8  1  0.27477807  0.00009377  0.77791054  1
  Cu  Cu9  1  0.77174208  0.50010484  0.81088106  1
  Cu  Cu10  1  0.72826348  0.99989529  0.18912066  1
  Cu  Cu11  1  0.22520196  0.49990545  0.22209524  1
  Cu  Cu12  1  0.76372742  0.16612845  0.77217062  1
  Cu  Cu13  1  0.26048573  0.66784030  0.79298235  1
  Cu  Cu14  1  0.23940619  0.16759547  0.20692610  1
  Cu  Cu15  1  0.73623638  0.66591306  0.22770203  1
  Cu  Cu16  1  0.23950778  0.83216660  0.20701978  1
  Cu  Cu17  1  0.73627291  0.33387090  0.22782213  1
  Cu  Cu18  1  0.76378442  0.83410297  0.77231093  1
  Cu  Cu19  1  0.26058477  0.33239952  0.79306805  1
