# generated using pymatgen
data_Cu2(NiC)3
_symmetry_space_group_name_H-M   'P 1'
_cell_length_a   7.02627883
_cell_length_b   7.02627883
_cell_length_c   11.56697800
_cell_angle_alpha   90.00000000
_cell_angle_beta   90.00000000
_cell_angle_gamma   148.10936501
_symmetry_Int_Tables_number   1
_chemical_formula_structural   Cu2(NiC)3
_chemical_formula_sum   'Cu4 Ni6 C6'
_cell_volume   301.68305802
_cell_formula_units_Z   2
loop_
 _symmetry_equiv_pos_site_id
 _symmetry_equiv_pos_as_xyz
  1  'x, y, z'
loop_
 _atom_site_type_symbol
 _atom_site_label
 _atom_site_symmetry_multiplicity
 _atom_site_fract_x
 _atom_site_fract_y
 _atom_site_fract_z
 _atom_site_occupancy
  C  C0  1  0.65678200  0.34321800  0.56091000  1
  C  C1  1  0.34321800  0.65678200  0.43909000  1
  C  C2  1  0.34321800  0.65678200  0.06091000  1
  C  C3  1  0.65678200  0.34321800  0.93909000  1
  C  C4  1  0.12127900  0.87872100  0.25000000  1
  C  C5  1  0.87872100  0.12127900  0.75000000  1
  Ni  Ni6  1  0.26728800  0.73271200  0.63514800  1
  Ni  Ni7  1  0.73271200  0.26728800  0.36485200  1
  Ni  Ni8  1  0.73271200  0.26728800  0.13514800  1
  Ni  Ni9  1  0.26728800  0.73271200  0.86485200  1
  Ni  Ni10  1  0.74217300  0.25782700  0.25000000  1
  Ni  Ni11  1  0.25782700  0.74217300  0.75000000  1
  Cu  Cu12  1  0.52899300  0.47100700  0.75000000  1
  Cu  Cu13  1  0.47100700  0.52899300  0.25000000  1
  Cu  Cu14  1  0.00000000  0.00000000  0.00000000  1
  Cu  Cu15  1  0.00000000  0.00000000  0.50000000  1
