# generated using pymatgen
data_Cu3NiC15
_symmetry_space_group_name_H-M   'P 1'
_cell_length_a   7.52251867
_cell_length_b   7.52251867
_cell_length_c   7.52251891
_cell_angle_alpha   112.67178124
_cell_angle_beta   112.67178124
_cell_angle_gamma   112.67178912
_symmetry_Int_Tables_number   1
_chemical_formula_structural   Cu3NiC15
_chemical_formula_sum   'Cu3 Ni1 C15'
_cell_volume   282.28680793
_cell_formula_units_Z   1
loop_
 _symmetry_equiv_pos_site_id
 _symmetry_equiv_pos_as_xyz
  1  'x, y, z'
loop_
 _atom_site_type_symbol
 _atom_site_label
 _atom_site_symmetry_multiplicity
 _atom_site_fract_x
 _atom_site_fract_y
 _atom_site_fract_z
 _atom_site_occupancy
  Ni  Ni0  1  0.49391200  0.49391200  0.49391200  1
  Cu  Cu1  1  0.85517800  0.28635200  0.85517800  1
  Cu  Cu2  1  0.28635200  0.85517800  0.85517800  1
  Cu  Cu3  1  0.85517800  0.85517800  0.28635200  1
  C  C4  1  0.59867200  0.92880200  0.14256600  1
  C  C5  1  0.92880200  0.14256600  0.59867200  1
  C  C6  1  0.14256600  0.59867200  0.92880200  1
  C  C7  1  0.92880200  0.59867200  0.14256600  1
  C  C8  1  0.59624600  0.59624600  0.25629000  1
  C  C9  1  0.25629000  0.59624600  0.59624600  1
  C  C10  1  0.59624600  0.25629000  0.59624600  1
  C  C11  1  0.13717200  0.13717200  0.35957800  1
  C  C12  1  0.35957800  0.13717200  0.13717200  1
  C  C13  1  0.13717200  0.35957800  0.13717200  1
  C  C14  1  0.67880200  0.67880200  0.91615900  1
  C  C15  1  0.91615900  0.67880200  0.67880200  1
  C  C16  1  0.67880200  0.91615900  0.67880200  1
  C  C17  1  0.14256600  0.92880200  0.59867200  1
  C  C18  1  0.59867200  0.14256600  0.92880200  1
