# generated using pymatgen
data_Cu6NiC12
_symmetry_space_group_name_H-M   'P 1'
_cell_length_a   5.12745918
_cell_length_b   7.63154131
_cell_length_c   5.69429828
_cell_angle_alpha   97.21103323
_cell_angle_beta   98.51013830
_cell_angle_gamma   83.97447234
_symmetry_Int_Tables_number   1
_chemical_formula_structural   Cu6NiC12
_chemical_formula_sum   'Cu6 Ni1 C12'
_cell_volume   217.77475790
_cell_formula_units_Z   1
loop_
 _symmetry_equiv_pos_site_id
 _symmetry_equiv_pos_as_xyz
  1  'x, y, z'
loop_
 _atom_site_type_symbol
 _atom_site_label
 _atom_site_symmetry_multiplicity
 _atom_site_fract_x
 _atom_site_fract_y
 _atom_site_fract_z
 _atom_site_occupancy
  Ni  Ni0  1  0.50058700  0.17116100  0.17098300  1
  Cu  Cu1  1  0.44162300  0.97942900  0.55409600  1
  Cu  Cu2  1  0.50070100  0.67107600  0.17105500  1
  Cu  Cu3  1  0.55993000  0.36274600  0.78803200  1
  Cu  Cu4  1  0.00072800  0.67101700  0.67105900  1
  Cu  Cu5  1  0.00672000  0.35334100  0.34259400  1
  Cu  Cu6  1  0.99471700  0.98868500  0.99954700  1
  C  C7  1  0.86659200  0.43898700  0.62347000  1
  C  C8  1  0.64744900  0.10039600  0.84536900  1
  C  C9  1  0.65941500  0.76184900  0.49075100  1
  C  C10  1  0.66186500  0.41346400  0.14256500  1
  C  C11  1  0.34220300  0.58031300  0.85126100  1
  C  C12  1  0.35401500  0.24170400  0.49674000  1
  C  C13  1  0.33953100  0.92870700  0.19961100  1
  C  C14  1  0.13500700  0.90297500  0.71878900  1
  C  C15  1  0.82473000  0.75092400  0.99505700  1
  C  C16  1  0.85718500  0.08734500  0.30624500  1
  C  C17  1  0.17688400  0.59093700  0.34709300  1
  C  C18  1  0.14400600  0.25494600  0.03568000  1
