# generated using pymatgen
data_Cu4NiC10
_symmetry_space_group_name_H-M   'P 1'
_cell_length_a   3.24472932
_cell_length_b   5.68052499
_cell_length_c   10.24880488
_cell_angle_alpha   90.00182537
_cell_angle_beta   89.85098052
_cell_angle_gamma   68.37492378
_symmetry_Int_Tables_number   1
_chemical_formula_structural   Cu4NiC10
_chemical_formula_sum   'Cu4 Ni1 C10'
_cell_volume   175.60695464
_cell_formula_units_Z   1
loop_
 _symmetry_equiv_pos_site_id
 _symmetry_equiv_pos_as_xyz
  1  'x, y, z'
loop_
 _atom_site_type_symbol
 _atom_site_label
 _atom_site_symmetry_multiplicity
 _atom_site_fract_x
 _atom_site_fract_y
 _atom_site_fract_z
 _atom_site_occupancy
  C  C0  1  0.16727700  0.32920700  0.25036800  1
  C  C1  1  0.88011600  0.69018300  0.74701900  1
  Ni  Ni2  1  0.85344900  0.85052800  0.24981800  1
  Cu  Cu3  1  0.59122200  0.20618300  0.91574600  1
  Cu  Cu4  1  0.41596800  0.75692600  0.46827500  1
  Cu  Cu5  1  0.59184900  0.20811700  0.58384400  1
  Cu  Cu6  1  0.42107400  0.75460400  0.03008700  1
  C  C7  1  0.20046400  0.96883600  0.61680300  1
  C  C8  1  0.20026700  0.96744300  0.88255700  1
  C  C9  1  0.64700000  0.02581000  0.41056500  1
  C  C10  1  0.64541500  0.02358400  0.08895400  1
  C  C11  1  0.47819900  0.65189600  0.25295700  1
  C  C12  1  0.55669600  0.36260800  0.75045400  1
  C  C13  1  0.12269300  0.52179700  0.50789700  1
  C  C14  1  0.12473700  0.51977700  0.99460500  1
