# generated using pymatgen
data_Cu6NiC12
_symmetry_space_group_name_H-M   'P 1'
_cell_length_a   7.54627409
_cell_length_b   5.66212800
_cell_length_c   5.87233794
_cell_angle_alpha   74.51565773
_cell_angle_beta   68.36428627
_cell_angle_gamma   72.20746398
_symmetry_Int_Tables_number   1
_chemical_formula_structural   Cu6NiC12
_chemical_formula_sum   'Cu6 Ni1 C12'
_cell_volume   218.67841960
_cell_formula_units_Z   1
loop_
 _symmetry_equiv_pos_site_id
 _symmetry_equiv_pos_as_xyz
  1  'x, y, z'
loop_
 _atom_site_type_symbol
 _atom_site_label
 _atom_site_symmetry_multiplicity
 _atom_site_fract_x
 _atom_site_fract_y
 _atom_site_fract_z
 _atom_site_occupancy
  Ni  Ni0  1  0.15126600  0.33185300  0.84677900  1
  Cu  Cu1  1  0.81899100  0.68223600  0.66205500  1
  Cu  Cu2  1  0.67983900  0.37992400  0.29923500  1
  Cu  Cu3  1  0.34780100  0.71074100  0.64450800  1
  Cu  Cu4  1  0.16078400  0.30993100  0.32418300  1
  Cu  Cu5  1  0.51424600  0.02644500  0.01851500  1
  Cu  Cu6  1  0.96316000  0.92298900  0.05928600  1
  C  C7  1  0.34005600  0.36904900  0.98849800  1
  C  C8  1  0.62967800  0.60380200  0.53932400  1
  C  C9  1  0.97124100  0.21068000  0.19148600  1
  C  C10  1  0.69538100  0.12806200  0.11618400  1
  C  C11  1  0.04362700  0.71303500  0.79151500  1
  C  C12  1  0.32986700  0.97445900  0.34424900  1
  C  C13  1  0.65367700  0.68279200  0.00946300  1
  C  C14  1  0.00846000  0.64872200  0.33160800  1
  C  C15  1  0.66207200  0.07274400  0.65290000  1
  C  C16  1  0.28120500  0.95759900  0.88262000  1
  C  C17  1  0.35305100  0.39963500  0.49498800  1
  C  C18  1  0.99744900  0.25625300  0.68355400  1
