# generated using pymatgen
data_Cu6NiC6
_symmetry_space_group_name_H-M   'P 1'
_cell_length_a   7.67207322
_cell_length_b   7.67207322
_cell_length_c   7.67207322
_cell_angle_alpha   60.00000000
_cell_angle_beta   60.00000000
_cell_angle_gamma   60.00000000
_symmetry_Int_Tables_number   1
_chemical_formula_structural   Cu6NiC6
_chemical_formula_sum   'Cu12 Ni2 C12'
_cell_volume   319.31786668
_cell_formula_units_Z   2
loop_
 _symmetry_equiv_pos_site_id
 _symmetry_equiv_pos_as_xyz
  1  'x, y, z'
loop_
 _atom_site_type_symbol
 _atom_site_label
 _atom_site_symmetry_multiplicity
 _atom_site_fract_x
 _atom_site_fract_y
 _atom_site_fract_z
 _atom_site_occupancy
  Ni  Ni0  1  0.25000000  0.25000000  0.25000000  1
  Ni  Ni1  1  0.75000000  0.75000000  0.75000000  1
  Cu  Cu2  1  0.21456200  0.78543800  0.94890100  1
  Cu  Cu3  1  0.94890100  0.05109900  0.21456200  1
  Cu  Cu4  1  0.78543800  0.94890100  0.21456200  1
  Cu  Cu5  1  0.05109900  0.78543800  0.21456200  1
  Cu  Cu6  1  0.21456200  0.05109900  0.78543800  1
  Cu  Cu7  1  0.94890100  0.78543800  0.05109900  1
  Cu  Cu8  1  0.21456200  0.94890100  0.05109900  1
  Cu  Cu9  1  0.94890100  0.21456200  0.78543800  1
  Cu  Cu10  1  0.05109900  0.21456200  0.94890100  1
  Cu  Cu11  1  0.78543800  0.21456200  0.05109900  1
  Cu  Cu12  1  0.05109900  0.94890100  0.78543800  1
  Cu  Cu13  1  0.78543800  0.05109900  0.94890100  1
  C  C14  1  0.91211000  0.08789000  0.36744100  1
  C  C15  1  0.36744100  0.63255900  0.91211000  1
  C  C16  1  0.63255900  0.91211000  0.36744100  1
  C  C17  1  0.08789000  0.63255900  0.36744100  1
  C  C18  1  0.36744100  0.08789000  0.63255900  1
  C  C19  1  0.91211000  0.63255900  0.08789000  1
  C  C20  1  0.36744100  0.91211000  0.08789000  1
  C  C21  1  0.91211000  0.36744100  0.63255900  1
  C  C22  1  0.08789000  0.36744100  0.91211000  1
  C  C23  1  0.63255900  0.36744100  0.08789000  1
  C  C24  1  0.08789000  0.91211000  0.63255900  1
  C  C25  1  0.63255900  0.08789000  0.91211000  1
