# generated using pymatgen
data_Cu4NiC8
_symmetry_space_group_name_H-M   'P 1'
_cell_length_a   2.97549500
_cell_length_b   5.13097084
_cell_length_c   9.67119306
_cell_angle_alpha   91.96827756
_cell_angle_beta   90.00000000
_cell_angle_gamma   90.00000000
_symmetry_Int_Tables_number   1
_chemical_formula_structural   Cu4NiC8
_chemical_formula_sum   'Cu4 Ni1 C8'
_cell_volume   147.56471159
_cell_formula_units_Z   1
loop_
 _symmetry_equiv_pos_site_id
 _symmetry_equiv_pos_as_xyz
  1  'x, y, z'
loop_
 _atom_site_type_symbol
 _atom_site_label
 _atom_site_symmetry_multiplicity
 _atom_site_fract_x
 _atom_site_fract_y
 _atom_site_fract_z
 _atom_site_occupancy
  Ni  Ni0  1  0.25000000  0.49617300  0.92469700  1
  Cu  Cu1  1  0.25000000  0.52055100  0.35538800  1
  Cu  Cu2  1  0.25000000  0.98585100  0.84959800  1
  Cu  Cu3  1  0.75000000  0.47616200  0.62718700  1
  Cu  Cu4  1  0.75000000  0.00850500  0.14220500  1
  C  C5  1  0.25000000  0.67685100  0.72551600  1
  C  C6  1  0.25000000  0.81319200  0.21906700  1
  C  C7  1  0.75000000  0.32774500  0.27027500  1
  C  C8  1  0.75000000  0.23779700  0.80360800  1
  C  C9  1  0.25000000  0.30198400  0.53438800  1
  C  C10  1  0.25000000  0.18321300  0.03891400  1
  C  C11  1  0.75000000  0.68903200  0.45189900  1
  C  C12  1  0.75000000  0.76905800  0.95725700  1
