# generated using pymatgen
data_Cu12NiC24
_symmetry_space_group_name_H-M   'P 1'
_cell_length_a   9.61864565
_cell_length_b   14.46764696
_cell_length_c   3.13160000
_cell_angle_alpha   90.00000000
_cell_angle_beta   90.00000000
_cell_angle_gamma   91.98665889
_symmetry_Int_Tables_number   1
_chemical_formula_structural   Cu12NiC24
_chemical_formula_sum   'Cu12 Ni1 C24'
_cell_volume   435.52891279
_cell_formula_units_Z   1
loop_
 _symmetry_equiv_pos_site_id
 _symmetry_equiv_pos_as_xyz
  1  'x, y, z'
loop_
 _atom_site_type_symbol
 _atom_site_label
 _atom_site_symmetry_multiplicity
 _atom_site_fract_x
 _atom_site_fract_y
 _atom_site_fract_z
 _atom_site_occupancy
  Ni  Ni0  1  0.35154100  0.78801700  0.00000000  1
  Cu  Cu1  1  0.97365500  0.01171500  0.00000000  1
  Cu  Cu2  1  0.02427600  0.32196300  0.00000000  1
  Cu  Cu3  1  0.00616800  0.66618600  0.00000000  1
  Cu  Cu4  1  0.23196700  0.16221900  0.50000000  1
  Cu  Cu5  1  0.24629300  0.48118500  0.50000000  1
  Cu  Cu6  1  0.24247100  0.96952200  0.50000000  1
  Cu  Cu7  1  0.49366500  0.34417700  0.00000000  1
  Cu  Cu8  1  0.53430100  0.99473400  0.00000000  1
  Cu  Cu9  1  0.54888000  0.63382200  0.00000000  1
  Cu  Cu10  1  0.73923100  0.15880700  0.50000000  1
  Cu  Cu11  1  0.75201000  0.47870700  0.50000000  1
  Cu  Cu12  1  0.71798900  0.82155300  0.50000000  1
  C  C13  1  0.09769100  0.26095300  0.50000000  1
  C  C14  1  0.04686000  0.94324800  0.50000000  1
  C  C15  1  0.16641300  0.09036700  0.00000000  1
  C  C16  1  0.15450800  0.43015500  0.00000000  1
  C  C17  1  0.35671700  0.92022800  0.00000000  1
  C  C18  1  0.40584200  0.39927900  0.50000000  1
  C  C19  1  0.60763900  0.93218300  0.50000000  1
  C  C20  1  0.62642000  0.58517500  0.50000000  1
  C  C21  1  0.64221800  0.10987500  0.00000000  1
  C  C22  1  0.66621400  0.42306900  0.00000000  1
  C  C23  1  0.61397600  0.76114500  0.00000000  1
  C  C24  1  0.88818500  0.07809900  0.50000000  1
  C  C25  1  0.11681900  0.59276600  0.50000000  1
  C  C26  1  0.15881500  0.75910700  0.00000000  1
  C  C27  1  0.34788600  0.23230000  0.00000000  1
  C  C28  1  0.36310200  0.56153500  0.00000000  1
  C  C29  1  0.40987200  0.07292800  0.50000000  1
  C  C30  1  0.39713500  0.71384300  0.50000000  1
  C  C31  1  0.58787900  0.27013800  0.50000000  1
  C  C32  1  0.83922200  0.24445600  0.00000000  1
  C  C33  1  0.82575000  0.87932600  0.00000000  1
  C  C34  1  0.86573900  0.55010300  0.00000000  1
  C  C35  1  0.91557600  0.39301000  0.50000000  1
  C  C36  1  0.87636200  0.72336100  0.50000000  1
