# generated using pymatgen
data_CuNiC12
_symmetry_space_group_name_H-M   'P 1'
_cell_length_a   5.53663501
_cell_length_b   6.90551883
_cell_length_c   6.90314696
_cell_angle_alpha   47.29192345
_cell_angle_beta   89.99532855
_cell_angle_gamma   89.99406504
_symmetry_Int_Tables_number   1
_chemical_formula_structural   CuNiC12
_chemical_formula_sum   'Cu1 Ni1 C12'
_cell_volume   193.94102999
_cell_formula_units_Z   1
loop_
 _symmetry_equiv_pos_site_id
 _symmetry_equiv_pos_as_xyz
  1  'x, y, z'
loop_
 _atom_site_type_symbol
 _atom_site_label
 _atom_site_symmetry_multiplicity
 _atom_site_fract_x
 _atom_site_fract_y
 _atom_site_fract_z
 _atom_site_occupancy
  C  C0  1  0.50002500  0.63839900  0.63640100  1
  C  C1  1  0.99979700  0.86204900  0.86248500  1
  C  C2  1  0.00021700  0.13795700  0.13750700  1
  C  C3  1  0.49997200  0.36159700  0.36360200  1
  Ni  Ni4  1  0.00000000  0.50000100  0.50000000  1
  Cu  Cu5  1  0.50000200  0.00000000  0.00000100  1
  C  C6  1  0.75183500  0.74916900  0.25073300  1
  C  C7  1  0.75184900  0.25084800  0.74928500  1
  C  C8  1  0.50008100  0.81852900  0.81744100  1
  C  C9  1  0.49989900  0.18148500  0.18254700  1
  C  C10  1  0.24816800  0.25082800  0.74926700  1
  C  C11  1  0.99999600  0.32103600  0.32129400  1
  C  C12  1  0.00001000  0.67894900  0.67872000  1
  C  C13  1  0.24815200  0.74915100  0.25071700  1
