# generated using pymatgen
data_Cu2Ni5C37
_symmetry_space_group_name_H-M   'P 1'
_cell_length_a   10.87818900
_cell_length_b   10.87818900
_cell_length_c   10.87818900
_cell_angle_alpha   90.00000000
_cell_angle_beta   90.00000000
_cell_angle_gamma   90.00000000
_symmetry_Int_Tables_number   1
_chemical_formula_structural   Cu2Ni5C37
_chemical_formula_sum   'Cu4 Ni10 C74'
_cell_volume   1287.27045093
_cell_formula_units_Z   2
loop_
 _symmetry_equiv_pos_site_id
 _symmetry_equiv_pos_as_xyz
  1  'x, y, z'
loop_
 _atom_site_type_symbol
 _atom_site_label
 _atom_site_symmetry_multiplicity
 _atom_site_fract_x
 _atom_site_fract_y
 _atom_site_fract_z
 _atom_site_occupancy
  C  C0  1  0.50000000  0.50000000  0.50000000  1
  C  C1  1  0.00000000  0.00000000  0.00000000  1
  Ni  Ni2  1  0.50000000  0.00000000  0.00000000  1
  Ni  Ni3  1  0.00000000  0.50000000  0.00000000  1
  Ni  Ni4  1  0.00000000  0.00000000  0.50000000  1
  Ni  Ni5  1  0.50000000  0.50000000  0.00000000  1
  Ni  Ni6  1  0.50000000  0.00000000  0.50000000  1
  Ni  Ni7  1  0.00000000  0.50000000  0.50000000  1
  Ni  Ni8  1  0.25000000  0.75000000  0.25000000  1
  Ni  Ni9  1  0.75000000  0.25000000  0.25000000  1
  Ni  Ni10  1  0.25000000  0.25000000  0.75000000  1
  Ni  Ni11  1  0.75000000  0.75000000  0.75000000  1
  Cu  Cu12  1  0.75000000  0.25000000  0.75000000  1
  Cu  Cu13  1  0.25000000  0.75000000  0.75000000  1
  Cu  Cu14  1  0.75000000  0.75000000  0.25000000  1
  Cu  Cu15  1  0.25000000  0.25000000  0.25000000  1
  C  C16  1  0.24314200  0.05497100  0.23913000  1
  C  C17  1  0.55497100  0.73913000  0.25685800  1
  C  C18  1  0.55497100  0.26087000  0.74314200  1
  C  C19  1  0.44502900  0.73913000  0.74314200  1
  C  C20  1  0.26087000  0.74314200  0.55497100  1
  C  C21  1  0.74314200  0.44502900  0.73913000  1
  C  C22  1  0.74314200  0.55497100  0.26087000  1
  C  C23  1  0.73913000  0.25685800  0.55497100  1
  C  C24  1  0.25685800  0.55497100  0.73913000  1
  C  C25  1  0.73913000  0.74314200  0.44502900  1
  C  C26  1  0.26087000  0.25685800  0.44502900  1
  C  C27  1  0.25685800  0.44502900  0.26087000  1
  C  C28  1  0.44502900  0.26087000  0.25685800  1
  C  C29  1  0.94502900  0.76087000  0.24314200  1
  C  C30  1  0.94502900  0.23913000  0.75685800  1
  C  C31  1  0.05497100  0.76087000  0.75685800  1
  C  C32  1  0.05497100  0.23913000  0.24314200  1
  C  C33  1  0.23913000  0.75685800  0.94502900  1
  C  C34  1  0.23913000  0.24314200  0.05497100  1
  C  C35  1  0.76087000  0.75685800  0.05497100  1
  C  C36  1  0.24314200  0.94502900  0.76087000  1
  C  C37  1  0.76087000  0.24314200  0.94502900  1
  C  C38  1  0.75685800  0.94502900  0.23913000  1
  C  C39  1  0.75685800  0.05497100  0.76087000  1
  C  C40  1  0.49667700  0.83814400  0.24615600  1
  C  C41  1  0.33814400  0.74615600  0.00332300  1
  C  C42  1  0.99667700  0.66185600  0.74615600  1
  C  C43  1  0.00332300  0.33814400  0.74615600  1
  C  C44  1  0.00332300  0.66185600  0.25384400  1
  C  C45  1  0.50332300  0.16185600  0.24615600  1
  C  C46  1  0.24615600  0.50332300  0.16185600  1
  C  C47  1  0.16185600  0.24615600  0.50332300  1
  C  C48  1  0.83814400  0.75384400  0.50332300  1
  C  C49  1  0.24615600  0.49667700  0.83814400  1
  C  C50  1  0.83814400  0.24615600  0.49667700  1
  C  C51  1  0.75384400  0.49667700  0.16185600  1
  C  C52  1  0.75384400  0.50332300  0.83814400  1
  C  C53  1  0.16185600  0.75384400  0.49667700  1
  C  C54  1  0.50332300  0.83814400  0.75384400  1
  C  C55  1  0.49667700  0.16185600  0.75384400  1
  C  C56  1  0.99642300  0.14509500  0.20573000  1
  C  C57  1  0.20573000  0.99642300  0.14509500  1
  C  C58  1  0.14509500  0.20573000  0.99642300  1
  C  C59  1  0.85490500  0.79427000  0.99642300  1
  C  C60  1  0.20573000  0.00357700  0.85490500  1
  C  C61  1  0.85490500  0.20573000  0.00357700  1
  C  C62  1  0.79427000  0.00357700  0.14509500  1
  C  C63  1  0.79427000  0.99642300  0.85490500  1
  C  C64  1  0.14509500  0.79427000  0.00357700  1
  C  C65  1  0.99642300  0.85490500  0.79427000  1
  C  C66  1  0.00357700  0.14509500  0.79427000  1
  C  C67  1  0.00357700  0.85490500  0.20573000  1
  C  C68  1  0.50357700  0.35490500  0.29427000  1
  C  C69  1  0.29427000  0.50357700  0.35490500  1
  C  C70  1  0.35490500  0.29427000  0.50357700  1
  C  C71  1  0.64509500  0.70573000  0.50357700  1
  C  C72  1  0.29427000  0.49642300  0.64509500  1
  C  C73  1  0.64509500  0.29427000  0.49642300  1
  C  C74  1  0.70573000  0.49642300  0.35490500  1
  C  C75  1  0.70573000  0.50357700  0.64509500  1
  C  C76  1  0.35490500  0.70573000  0.49642300  1
  C  C77  1  0.50357700  0.64509500  0.70573000  1
  C  C78  1  0.49642300  0.35490500  0.70573000  1
  C  C79  1  0.49642300  0.64509500  0.29427000  1
  C  C80  1  0.99667700  0.33814400  0.25384400  1
  C  C81  1  0.25384400  0.99667700  0.33814400  1
  C  C82  1  0.74615600  0.99667700  0.66185600  1
  C  C83  1  0.66185600  0.74615600  0.99667700  1
  C  C84  1  0.25384400  0.00332300  0.66185600  1
  C  C85  1  0.66185600  0.25384400  0.00332300  1
  C  C86  1  0.74615600  0.00332300  0.33814400  1
  C  C87  1  0.33814400  0.25384400  0.99667700  1
