# generated using pymatgen
data_Cu9Ni3C58
_symmetry_space_group_name_H-M   'P 1'
_cell_length_a   18.74051785
_cell_length_b   9.38244300
_cell_length_c   24.74997013
_cell_angle_alpha   89.90701785
_cell_angle_beta   90.16811455
_cell_angle_gamma   120.19713607
_symmetry_Int_Tables_number   1
_chemical_formula_structural   Cu9Ni3C58
_chemical_formula_sum   'Cu27 Ni9 C174'
_cell_volume   3761.27260116
_cell_formula_units_Z   3
loop_
 _symmetry_equiv_pos_site_id
 _symmetry_equiv_pos_as_xyz
  1  'x, y, z'
loop_
 _atom_site_type_symbol
 _atom_site_label
 _atom_site_symmetry_multiplicity
 _atom_site_fract_x
 _atom_site_fract_y
 _atom_site_fract_z
 _atom_site_occupancy
  C  C0  1  -0.00002376  0.98929053  0.49922819  1
  C  C1  1  0.50251838  0.01316026  0.99659182  1
  C  C2  1  0.34035375  0.33581142  0.83458469  1
  C  C3  1  0.83940640  0.35767163  0.82989846  1
  C  C4  1  0.33999604  0.32346971  0.33613986  1
  C  C5  1  0.84063145  0.34308565  0.34275123  1
  C  C6  1  0.00691646  0.98595962  0.36049309  1
  C  C7  1  0.50544722  0.02376972  0.85731514  1
  C  C8  1  0.00172417  0.99515999  0.64927185  1
  C  C9  1  0.50240497  0.00811188  0.15002550  1
  C  C10  1  0.32451572  0.34061885  0.68005710  1
  C  C11  1  0.84130545  0.33739709  0.68431073  1
  C  C12  1  0.34789781  0.34356285  0.18894102  1
  C  C13  1  0.82269949  0.30555942  0.18038705  1
  C  C14  1  0.33395200  0.33276812  0.98174809  1
  C  C15  1  0.84123435  0.33425043  0.98395220  1
  C  C16  1  0.34214396  0.34986754  0.48521613  1
  C  C17  1  0.82689390  0.32349558  0.48555528  1
  C  C18  1  0.16004268  0.65914041  0.01815798  1
  C  C19  1  0.66147184  0.67557586  0.52301796  1
  C  C20  1  0.16027188  0.67220235  0.31280781  1
  C  C21  1  0.66835803  0.66287415  0.30785727  1
  C  C22  1  0.16815221  0.67540039  0.80606813  1
  C  C23  1  0.65912054  0.64661477  0.81064157  1
  C  C24  1  0.49096745  0.00397294  0.35587631  1
  C  C25  1  0.99089866  0.97767057  0.85340143  1
  C  C26  1  0.49738051  0.98830269  0.64369400  1
  C  C27  1  0.99424509  0.00056653  0.14669896  1
  C  C28  1  0.67768112  0.66940131  0.01258751  1
  C  C29  1  0.17592826  0.68456788  0.51385095  1
  Ni  Ni30  1  0.49496166  0.27949450  0.25487644  1
  Ni  Ni31  1  0.99258411  0.70345590  0.75379855  1
  Ni  Ni32  1  0.68228341  0.04042620  0.58751479  1
  Ni  Ni33  1  0.32969826  0.63901091  0.58220520  1
  Ni  Ni34  1  0.82975761  0.02132677  0.08231247  1
  Ni  Ni35  1  0.81337090  0.66580417  0.91372775  1
  Ni  Ni36  1  0.52307225  0.37862078  0.92123610  1
  Ni  Ni37  1  0.31247106  0.96191000  0.41490364  1
  Ni  Ni38  1  0.02066212  0.66022077  0.42131643  1
  Cu  Cu39  1  0.14127320  0.00583475  0.24361324  1
  Cu  Cu40  1  0.64363290  0.00958358  0.25655978  1
  Cu  Cu41  1  0.35962220  0.71405388  0.25606765  1
  Cu  Cu42  1  0.86190535  0.71754619  0.24509196  1
  Cu  Cu43  1  0.99885917  0.27572467  0.24585228  1
  Cu  Cu44  1  0.14324768  0.27660661  0.75699877  1
  Cu  Cu45  1  0.64155331  0.27800166  0.74416696  1
  Cu  Cu46  1  0.49815874  0.72146456  0.74635690  1
  Cu  Cu47  1  0.36115667  0.00865480  0.74595047  1
  Cu  Cu48  1  0.86026583  0.00576290  0.75668293  1
  Cu  Cu49  1  0.48109706  0.31451598  0.58867072  1
  Cu  Cu50  1  0.99409063  0.34906973  0.57843904  1
  Cu  Cu51  1  0.18346087  0.02056073  0.57802253  1
  Cu  Cu52  1  0.83456228  0.63605362  0.58210170  1
  Cu  Cu53  1  0.49209151  0.63725308  0.07885901  1
  Cu  Cu54  1  0.98223306  0.64888032  0.08876338  1
  Cu  Cu55  1  0.33290275  0.03218396  0.08231440  1
  Cu  Cu56  1  0.17659600  0.31652052  0.08843226  1
  Cu  Cu57  1  0.68354579  0.34656019  0.07780987  1
  Cu  Cu58  1  0.31463228  0.66810185  0.91706899  1
  Cu  Cu59  1  0.01928360  0.35676000  0.91126053  1
  Cu  Cu60  1  0.15870344  0.96461850  0.91254750  1
  Cu  Cu61  1  0.66629738  0.94852038  0.92076779  1
  Cu  Cu62  1  0.81571066  0.96322128  0.41579013  1
  Cu  Cu63  1  0.16718370  0.38402394  0.42081223  1
  Cu  Cu64  1  0.65883596  0.35255218  0.41196283  1
  Cu  Cu65  1  0.51792099  0.68176180  0.41019138  1
  C  C66  1  0.10642901  0.02540532  0.29506005  1
  C  C67  1  0.59521723  0.01784268  0.30233632  1
  C  C68  1  0.41395215  0.80954902  0.30347442  1
  C  C69  1  0.90891460  0.79209693  0.29517302  1
  C  C70  1  0.48956526  0.15474404  0.30757926  1
  C  C71  1  0.98907480  0.18019777  0.29513298  1
  C  C72  1  0.09392372  0.17082619  0.80311977  1
  C  C73  1  0.60554519  0.18838882  0.79594425  1
  C  C74  1  0.48917742  0.79758403  0.79605204  1
  C  C75  1  0.98942787  0.82264329  0.80750699  1
  C  C76  1  0.40689165  0.02692524  0.79725387  1
  C  C77  1  0.91498806  0.01553043  0.80442784  1
  C  C78  1  0.40772202  0.99824133  0.69894295  1
  C  C79  1  0.89777506  0.99369805  0.70599820  1
  C  C80  1  0.10168738  0.21051822  0.70461050  1
  C  C81  1  0.58754348  0.17994167  0.69822859  1
  C  C82  1  0.00296453  0.81052715  0.70035532  1
  C  C83  1  0.50007090  0.82214834  0.69774610  1
  C  C84  1  0.39685048  0.80115834  0.20507216  1
  C  C85  1  0.91106580  0.82481697  0.19730437  1
  C  C86  1  0.00120189  0.17600464  0.19685380  1
  C  C87  1  0.50248636  0.19586039  0.19997541  1
  C  C88  1  0.08726503  0.99720860  0.19733546  1
  C  C89  1  0.60229745  0.99288171  0.20389146  1
  C  C90  1  0.43973049  0.34340421  0.63440375  1
  C  C91  1  0.95928213  0.37547053  0.62866231  1
  C  C92  1  0.23007493  0.08865795  0.62872526  1
  C  C93  1  0.74091525  0.13021458  0.63907278  1
  C  C94  1  0.30959947  0.52289735  0.63536618  1
  C  C95  1  0.82911633  0.54304729  0.63146260  1
  C  C96  1  0.45487622  0.53954429  0.12919683  1
  C  C97  1  0.94173740  0.53773802  0.13472001  1
  C  C98  1  0.32543103  0.11363540  0.13134998  1
  C  C99  1  0.81118884  0.09596959  0.13608630  1
  C  C100  1  0.23195930  0.34731280  0.13463547  1
  C  C101  1  0.73024317  0.37192038  0.12869017  1
  C  C102  1  0.20647141  0.27623613  0.03928189  1
  C  C103  1  0.72584799  0.31970474  0.03231716  1
  C  C104  1  0.43351089  0.55344779  0.03341018  1
  C  C105  1  0.93238233  0.58944531  0.03919688  1
  C  C106  1  0.34245613  0.13307392  0.03392025  1
  C  C107  1  0.85782819  0.14594832  0.03200480  1
  C  C108  1  0.22545563  0.13125440  0.53214245  1
  C  C109  1  0.71455039  0.14979432  0.53325513  1
  C  C110  1  0.35541362  0.56728177  0.53147455  1
  C  C111  1  0.84598461  0.55740225  0.53353840  1
  C  C112  1  0.43122275  0.27669851  0.53893712  1
  C  C113  1  0.93649661  0.31563154  0.53259148  1
  C  C114  1  0.27217584  0.68040535  0.96651892  1
  C  C115  1  0.76416203  0.68775425  0.96918254  1
  C  C116  1  0.06584655  0.42727903  0.96283935  1
  C  C117  1  0.58738282  0.49942499  0.97172097  1
  C  C118  1  0.14495377  0.86642383  0.96251204  1
  C  C119  1  0.66341017  0.84639201  0.96896266  1
  C  C120  1  0.26350849  0.84113990  0.46946879  1
  C  C121  1  0.77507783  0.86704030  0.46498260  1
  C  C122  1  0.16353615  0.47873406  0.46851388  1
  C  C123  1  0.64399286  0.41771303  0.46150957  1
  C  C124  1  0.08685784  0.67249609  0.47116654  1
  C  C125  1  0.56305630  0.70728692  0.46140184  1
  C  C126  1  0.06097968  0.64933507  0.36445534  1
  C  C127  1  0.56110188  0.65673198  0.36484665  1
  C  C128  1  0.26046904  0.87061843  0.36212615  1
  C  C129  1  0.76885310  0.87809143  0.36668919  1
  C  C130  1  0.17397644  0.46927669  0.36954505  1
  C  C131  1  0.67149542  0.46013351  0.36523606  1
  C  C132  1  0.06235953  0.47009080  0.86636367  1
  C  C133  1  0.56024925  0.47299003  0.86467972  1
  C  C134  1  0.17381506  0.88522156  0.86644837  1
  C  C135  1  0.67338546  0.87657119  0.87000759  1
  C  C136  1  0.26794624  0.65776737  0.86807824  1
  C  C137  1  0.75848594  0.64929487  0.86239493  1
  C  C138  1  0.01929962  0.83566332  0.42469768  1
  C  C139  1  0.51016777  0.83154652  0.39910820  1
  C  C140  1  0.40630605  0.97186709  0.40246971  1
  C  C141  1  0.89987254  0.98284276  0.41373990  1
  C  C142  1  0.08975222  0.21971152  0.42149313  1
  C  C143  1  0.58256787  0.18328929  0.40082757  1
  C  C144  1  0.01189386  0.19271001  0.90164834  1
  C  C145  1  0.51880111  0.19909400  0.92501011  1
  C  C146  1  0.08320147  0.97932886  0.90234623  1
  C  C147  1  0.58899668  0.95669875  0.92202625  1
  C  C148  1  0.39847972  0.81656410  0.91620623  1
  C  C149  1  0.90638953  0.84295532  0.90157060  1
  C  C150  1  0.49021675  0.16671939  0.60162290  1
  C  C151  1  0.00416345  0.20182546  0.58433469  1
  C  C152  1  0.09912844  0.99600550  0.58230454  1
  C  C153  1  0.58595201  0.01247933  0.60449647  1
  C  C154  1  0.41080097  0.82379355  0.60305227  1
  C  C155  1  0.90814876  0.80632928  0.58425676  1
  C  C156  1  0.50121730  0.80364805  0.08434162  1
  C  C157  1  0.99356037  0.81706089  0.10240193  1
  C  C158  1  0.40653423  0.01197727  0.08500947  1
  C  C159  1  0.91211188  0.99857051  0.10421239  1
  C  C160  1  0.09109560  0.16751843  0.10195130  1
  C  C161  1  0.59925192  0.20165538  0.08233216  1
  C  C162  1  0.34976612  0.15385839  0.74123174  1
  C  C163  1  0.85729930  0.15976344  0.75861172  1
  C  C164  1  0.22553605  0.28671890  0.75697830  1
  C  C165  1  0.72469433  0.29813918  0.74063766  1
  C  C166  1  0.42465648  0.55284905  0.74107833  1
  C  C167  1  0.90931293  0.52611632  0.75728310  1
  C  C168  1  0.35478368  0.55059417  0.25591671  1
  C  C169  1  0.85193979  0.55269582  0.23784067  1
  C  C170  1  0.41049389  0.29094945  0.25638663  1
  C  C171  1  0.92560538  0.29537473  0.23862080  1
  C  C172  1  0.22423633  0.15399951  0.23772604  1
  C  C173  1  0.72653793  0.16446136  0.25567178  1
  C  C174  1  0.32160345  0.51739827  0.91987041  1
  C  C175  1  0.83269398  0.52067577  0.92642936  1
  C  C176  1  0.42993154  0.35312463  0.92700888  1
  C  C177  1  0.93552813  0.33567814  0.91612970  1
  C  C178  1  0.23015175  0.13366276  0.91848585  1
  C  C179  1  0.73849047  0.11668232  0.92661637  1
  C  C180  1  0.33274561  0.14744943  0.42544718  1
  C  C181  1  0.82342015  0.12867606  0.41700426  1
  C  C182  1  0.23908163  0.35973589  0.42599155  1
  C  C183  1  0.73024304  0.32620010  0.41523036  1
  C  C184  1  0.43338132  0.53603331  0.41380540  1
  C  C185  1  0.92773181  0.50207437  0.42558601  1
  C  C186  1  0.16309172  0.45722985  0.07914981  1
  C  C187  1  0.67721269  0.49769226  0.06748436  1
  C  C188  1  0.06559319  0.67350682  0.07996269  1
  C  C189  1  0.57288495  0.65072652  0.06861347  1
  C  C190  1  0.25788448  0.86745381  0.07612209  1
  C  C191  1  0.75196204  0.83977840  0.06395428  1
  C  C192  1  0.17678063  0.85598910  0.56801536  1
  C  C193  1  0.66330293  0.85368329  0.57722335  1
  C  C194  1  0.25166114  0.66424033  0.56338297  1
  C  C195  1  0.75962048  0.64825811  0.57658725  1
  C  C196  1  0.07595041  0.49746699  0.56741414  1
  C  C197  1  0.56415670  0.45535279  0.58061054  1
  C  C198  1  0.14565576  0.85413477  0.24419589  1
  C  C199  1  0.65528898  0.86632437  0.26170066  1
  C  C200  1  0.27791436  0.69532853  0.26176347  1
  C  C201  1  0.78258396  0.71265675  0.24509006  1
  C  C202  1  0.07532660  0.43423953  0.24421969  1
  C  C203  1  0.57561708  0.45625028  0.26401949  1
  C  C204  1  0.15480546  0.44285206  0.76257241  1
  C  C205  1  0.64591787  0.43903678  0.74505318  1
  C  C206  1  0.07529675  0.69629762  0.76423889  1
  C  C207  1  0.57434513  0.71418622  0.74628954  1
  C  C208  1  0.28032062  0.85547776  0.74792330  1
  C  C209  1  0.77927227  0.85975815  0.76305426  1
