# generated using pymatgen
data_Cu3NiC7
_symmetry_space_group_name_H-M   'P 1'
_cell_length_a   13.77470400
_cell_length_b   13.77470400
_cell_length_c   13.77470400
_cell_angle_alpha   90.00000000
_cell_angle_beta   90.00000000
_cell_angle_gamma   90.00000000
_symmetry_Int_Tables_number   1
_chemical_formula_structural   Cu3NiC7
_chemical_formula_sum   'Cu24 Ni8 C56'
_cell_volume   2613.64636444
_cell_formula_units_Z   8
loop_
 _symmetry_equiv_pos_site_id
 _symmetry_equiv_pos_as_xyz
  1  'x, y, z'
loop_
 _atom_site_type_symbol
 _atom_site_label
 _atom_site_symmetry_multiplicity
 _atom_site_fract_x
 _atom_site_fract_y
 _atom_site_fract_z
 _atom_site_occupancy
  Ni  Ni0  1  0.68799400  0.68799400  0.68799400  1
  Ni  Ni1  1  0.31200600  0.31200600  0.68799400  1
  Ni  Ni2  1  0.68799400  0.31200600  0.31200600  1
  Ni  Ni3  1  0.31200600  0.68799400  0.31200600  1
  Ni  Ni4  1  0.81200600  0.81200600  0.81200600  1
  Ni  Ni5  1  0.18799400  0.18799400  0.81200600  1
  Ni  Ni6  1  0.81200600  0.18799400  0.18799400  1
  Ni  Ni7  1  0.18799400  0.81200600  0.18799400  1
  Cu  Cu8  1  0.27394400  0.88084400  0.77979500  1
  Cu  Cu9  1  0.77979500  0.27394400  0.88084400  1
  Cu  Cu10  1  0.88084400  0.77979500  0.27394400  1
  Cu  Cu11  1  0.11915600  0.22020500  0.27394400  1
  Cu  Cu12  1  0.77979500  0.72605600  0.11915600  1
  Cu  Cu13  1  0.11915600  0.77979500  0.72605600  1
  Cu  Cu14  1  0.22020500  0.72605600  0.88084400  1
  Cu  Cu15  1  0.22020500  0.27394400  0.11915600  1
  Cu  Cu16  1  0.88084400  0.22020500  0.72605600  1
  Cu  Cu17  1  0.27394400  0.11915600  0.22020500  1
  Cu  Cu18  1  0.72605600  0.88084400  0.22020500  1
  Cu  Cu19  1  0.72605600  0.11915600  0.77979500  1
  Cu  Cu20  1  0.22605600  0.61915600  0.72020500  1
  Cu  Cu21  1  0.72020500  0.22605600  0.61915600  1
  Cu  Cu22  1  0.61915600  0.72020500  0.22605600  1
  Cu  Cu23  1  0.38084400  0.27979500  0.22605600  1
  Cu  Cu24  1  0.72020500  0.77394400  0.38084400  1
  Cu  Cu25  1  0.38084400  0.72020500  0.77394400  1
  Cu  Cu26  1  0.27979500  0.77394400  0.61915600  1
  Cu  Cu27  1  0.27979500  0.22605600  0.38084400  1
  Cu  Cu28  1  0.61915600  0.27979500  0.77394400  1
  Cu  Cu29  1  0.22605600  0.38084400  0.27979500  1
  Cu  Cu30  1  0.77394400  0.61915600  0.27979500  1
  Cu  Cu31  1  0.77394400  0.38084400  0.72020500  1
  C  C32  1  0.17409500  0.93393000  0.62465200  1
  C  C33  1  0.62465200  0.17409500  0.93393000  1
  C  C34  1  0.93393000  0.62465200  0.17409500  1
  C  C35  1  0.06607000  0.37534800  0.17409500  1
  C  C36  1  0.62465200  0.82590500  0.06607000  1
  C  C37  1  0.06607000  0.62465200  0.82590500  1
  C  C38  1  0.37534800  0.82590500  0.93393000  1
  C  C39  1  0.37534800  0.17409500  0.06607000  1
  C  C40  1  0.93393000  0.37534800  0.82590500  1
  C  C41  1  0.17409500  0.06607000  0.37534800  1
  C  C42  1  0.82590500  0.93393000  0.37534800  1
  C  C43  1  0.82590500  0.06607000  0.62465200  1
  C  C44  1  0.32590500  0.56607000  0.87534800  1
  C  C45  1  0.87534800  0.32590500  0.56607000  1
  C  C46  1  0.56607000  0.87534800  0.32590500  1
  C  C47  1  0.43393000  0.12465200  0.32590500  1
  C  C48  1  0.87534800  0.67409500  0.43393000  1
  C  C49  1  0.43393000  0.87534800  0.67409500  1
  C  C50  1  0.12465200  0.67409500  0.56607000  1
  C  C51  1  0.12465200  0.32590500  0.43393000  1
  C  C52  1  0.56607000  0.12465200  0.67409500  1
  C  C53  1  0.32590500  0.43393000  0.12465200  1
  C  C54  1  0.67409500  0.56607000  0.12465200  1
  C  C55  1  0.67409500  0.43393000  0.87534800  1
  C  C56  1  0.56464100  0.67350500  0.81053700  1
  C  C57  1  0.81053700  0.56464100  0.67350500  1
  C  C58  1  0.67350500  0.81053700  0.56464100  1
  C  C59  1  0.32649500  0.18946300  0.56464100  1
  C  C60  1  0.81053700  0.43535900  0.32649500  1
  C  C61  1  0.32649500  0.81053700  0.43535900  1
  C  C62  1  0.18946300  0.43535900  0.67350500  1
  C  C63  1  0.18946300  0.56464100  0.32649500  1
  C  C64  1  0.67350500  0.18946300  0.43535900  1
  C  C65  1  0.56464100  0.32649500  0.18946300  1
  C  C66  1  0.43535900  0.67350500  0.18946300  1
  C  C67  1  0.43535900  0.32649500  0.81053700  1
  C  C68  1  0.93535900  0.82649500  0.68946300  1
  C  C69  1  0.68946300  0.93535900  0.82649500  1
  C  C70  1  0.82649500  0.68946300  0.93535900  1
  C  C71  1  0.17350500  0.31053700  0.93535900  1
  C  C72  1  0.68946300  0.06464100  0.17350500  1
  C  C73  1  0.17350500  0.68946300  0.06464100  1
  C  C74  1  0.31053700  0.06464100  0.82649500  1
  C  C75  1  0.31053700  0.93535900  0.17350500  1
  C  C76  1  0.82649500  0.31053700  0.06464100  1
  C  C77  1  0.93535900  0.17350500  0.31053700  1
  C  C78  1  0.06464100  0.82649500  0.31053700  1
  C  C79  1  0.06464100  0.17350500  0.68946300  1
  C  C80  1  0.38663100  0.38663100  0.38663100  1
  C  C81  1  0.61336900  0.61336900  0.38663100  1
  C  C82  1  0.38663100  0.61336900  0.61336900  1
  C  C83  1  0.61336900  0.38663100  0.61336900  1
  C  C84  1  0.11336900  0.11336900  0.11336900  1
  C  C85  1  0.88663100  0.88663100  0.11336900  1
  C  C86  1  0.11336900  0.88663100  0.88663100  1
  C  C87  1  0.88663100  0.11336900  0.88663100  1
