# generated using pymatgen
data_Cu5NiC14
_symmetry_space_group_name_H-M   'P 1'
_cell_length_a   5.35872105
_cell_length_b   5.25504631
_cell_length_c   9.95364299
_cell_angle_alpha   83.04360380
_cell_angle_beta   96.61778757
_cell_angle_gamma   56.94717270
_symmetry_Int_Tables_number   1
_chemical_formula_structural   Cu5NiC14
_chemical_formula_sum   'Cu5 Ni1 C14'
_cell_volume   227.60288544
_cell_formula_units_Z   1
loop_
 _symmetry_equiv_pos_site_id
 _symmetry_equiv_pos_as_xyz
  1  'x, y, z'
loop_
 _atom_site_type_symbol
 _atom_site_label
 _atom_site_symmetry_multiplicity
 _atom_site_fract_x
 _atom_site_fract_y
 _atom_site_fract_z
 _atom_site_occupancy
  Ni  Ni0  1  0.82920600  0.29421700  0.51408300  1
  Cu  Cu1  1  0.08125400  0.08048200  0.23975500  1
  Cu  Cu2  1  0.00727500  0.54719700  0.97692800  1
  Cu  Cu3  1  0.50540800  0.00213600  0.51359000  1
  Cu  Cu4  1  0.41719600  0.42444900  0.24106900  1
  Cu  Cu5  1  0.58036000  0.56518600  0.75606800  1
  C  C6  1  0.26944300  0.25506300  0.75148600  1
  C  C7  1  0.74662500  0.74898900  0.24828800  1
  C  C8  1  0.98411200  0.26757400  0.87108600  1
  C  C9  1  0.25427500  0.97235200  0.62886100  1
  C  C10  1  0.10437500  0.32677100  0.37474200  1
  C  C11  1  0.36360400  0.16758600  0.13771500  1
  C  C12  1  0.31545800  0.51812700  0.85342200  1
  C  C13  1  0.54079500  0.29722500  0.63718600  1
  C  C14  1  0.46576600  0.69506800  0.34988100  1
  C  C15  1  0.73673800  0.46507900  0.13978800  1
  C  C16  1  0.60056100  0.83721700  0.86509200  1
  C  C17  1  0.83375900  0.59384000  0.62430400  1
  C  C18  1  0.74423400  0.04428100  0.37846100  1
  C  C19  1  0.02313400  0.78823800  0.14194600  1
