# generated using pymatgen
data_Cu2NiC10
_symmetry_space_group_name_H-M   'P 1'
_cell_length_a   5.25534164
_cell_length_b   5.31615628
_cell_length_c   8.01338769
_cell_angle_alpha   105.26426998
_cell_angle_beta   104.99205032
_cell_angle_gamma   102.04588297
_symmetry_Int_Tables_number   1
_chemical_formula_structural   Cu2NiC10
_chemical_formula_sum   'Cu2 Ni1 C10'
_cell_volume   199.21406448
_cell_formula_units_Z   1
loop_
 _symmetry_equiv_pos_site_id
 _symmetry_equiv_pos_as_xyz
  1  'x, y, z'
loop_
 _atom_site_type_symbol
 _atom_site_label
 _atom_site_symmetry_multiplicity
 _atom_site_fract_x
 _atom_site_fract_y
 _atom_site_fract_z
 _atom_site_occupancy
  C  C0  1  0.59700389  0.84700389  0.19400778  1
  C  C1  1  0.42411870  0.17411870  0.84823740  1
  Ni  Ni2  1  0.26901993  0.51901993  0.53803986  1
  Cu  Cu3  1  0.07424552  0.32424552  0.14849104  1
  Cu  Cu4  1  0.92939316  0.67939316  0.85878633  1
  C  C5  1  0.79978678  0.52944798  0.07930494  1
  C  C6  1  0.27951816  0.04985695  0.07930494  1
  C  C7  1  0.11791228  0.76643156  0.68656362  1
  C  C8  1  0.56865134  0.42013206  0.68656362  1
  C  C9  1  0.20988669  0.48238391  0.94292841  1
  C  C10  1  0.73304172  0.96054449  0.94292841  1
  C  C11  1  0.96749001  0.20328202  0.34742183  1
  C  C12  1  0.37993182  0.64413981  0.34742183  1
