# generated using pymatgen
data_Cu4NiC36
_symmetry_space_group_name_H-M   'P 1'
_cell_length_a   7.00860202
_cell_length_b   8.32359102
_cell_length_c   9.83525551
_cell_angle_alpha   95.70215719
_cell_angle_beta   109.71742644
_cell_angle_gamma   90.95703533
_symmetry_Int_Tables_number   1
_chemical_formula_structural   Cu4NiC36
_chemical_formula_sum   'Cu4 Ni1 C36'
_cell_volume   536.67052316
_cell_formula_units_Z   1
loop_
 _symmetry_equiv_pos_site_id
 _symmetry_equiv_pos_as_xyz
  1  'x, y, z'
loop_
 _atom_site_type_symbol
 _atom_site_label
 _atom_site_symmetry_multiplicity
 _atom_site_fract_x
 _atom_site_fract_y
 _atom_site_fract_z
 _atom_site_occupancy
  Ni  Ni0  1  0.18200300  0.20351300  0.71509400  1
  Cu  Cu1  1  0.72158800  0.77620200  0.01391400  1
  Cu  Cu2  1  0.72358100  0.73244900  0.50384600  1
  Cu  Cu3  1  0.26860800  0.32212200  0.44930100  1
  Cu  Cu4  1  0.31833300  0.18390700  0.03706600  1
  C  C5  1  0.53561000  0.06588300  0.81517500  1
  C  C6  1  0.48552300  0.89981300  0.22679600  1
  C  C7  1  0.53776000  0.42269500  0.29045800  1
  C  C8  1  0.92392400  0.95544300  0.80566500  1
  C  C9  1  0.06447900  0.49981500  0.67340900  1
  C  C10  1  0.09193700  0.02284600  0.21842000  1
  C  C11  1  0.46929700  0.60586800  0.69335500  1
  C  C12  1  0.91819300  0.55175700  0.28405100  1
  C  C13  1  0.52483500  0.59497500  0.35852200  1
  C  C14  1  0.86837800  0.60363100  0.13298900  1
  C  C15  1  0.88507900  0.93260600  0.17094700  1
  C  C16  1  0.91508600  0.68828800  0.40363700  1
  C  C17  1  0.11423800  0.42041500  0.81257800  1
  C  C18  1  0.12391000  0.06606700  0.85271000  1
  C  C19  1  0.07291800  0.35439100  0.55912400  1
  C  C20  1  0.23431600  0.63762800  0.68046700  1
  C  C21  1  0.14007500  0.11447400  0.37183000  1
  C  C22  1  0.12539100  0.47492300  0.32430000  1
  C  C23  1  0.10577500  0.14332700  0.11353100  1
  C  C24  1  0.48253700  0.21333300  0.90545100  1
  C  C25  1  0.38296100  0.06697600  0.66253500  1
  C  C26  1  0.53179400  0.91677600  0.89343600  1
  C  C27  1  0.25257900  0.88437000  0.22413100  1
  C  C28  1  0.46279900  0.43047600  0.62293700  1
  C  C29  1  0.59371600  0.60941100  0.85493000  1
  C  C30  1  0.89727500  0.89877600  0.64562300  1
  C  C31  1  0.49798600  0.29476500  0.38093700  1
  C  C32  1  0.39228100  0.39335300  0.13201200  1
  C  C33  1  0.76225600  0.40534400  0.28456700  1
  C  C34  1  0.75972300  0.09125800  0.80874500  1
  C  C35  1  0.51005400  0.06307700  0.17045600  1
  C  C36  1  0.61876300  0.90546000  0.38976400  1
  C  C37  1  0.51917400  0.76096800  0.12608900  1
  C  C38  1  0.92286700  0.82934500  0.90470700  1
  C  C39  1  0.85856700  0.57643200  0.63142700  1
  C  C40  1  0.52790200  0.73684600  0.61220900  1
