# generated using pymatgen
data_Cu2Ni4C9
_symmetry_space_group_name_H-M   'P 1'
_cell_length_a   6.22845674
_cell_length_b   6.55738413
_cell_length_c   6.55738413
_cell_angle_alpha   58.85205474
_cell_angle_beta   61.64590332
_cell_angle_gamma   61.64590332
_symmetry_Int_Tables_number   1
_chemical_formula_structural   Cu2Ni4C9
_chemical_formula_sum   'Cu2 Ni4 C9'
_cell_volume   192.13777228
_cell_formula_units_Z   1
loop_
 _symmetry_equiv_pos_site_id
 _symmetry_equiv_pos_as_xyz
  1  'x, y, z'
loop_
 _atom_site_type_symbol
 _atom_site_label
 _atom_site_symmetry_multiplicity
 _atom_site_fract_x
 _atom_site_fract_y
 _atom_site_fract_z
 _atom_site_occupancy
  C  C0  1  0.89993500  0.35006500  0.35006500  1
  Ni  Ni1  1  0.50346300  0.48725000  0.00582300  1
  Ni  Ni2  1  0.50346300  0.00582300  0.48725000  1
  Ni  Ni3  1  0.98295900  0.54653400  0.54653400  1
  Ni  Ni4  1  0.42397300  0.54653400  0.54653400  1
  Cu  Cu5  1  0.20071900  0.04928100  0.04928100  1
  Cu  Cu6  1  0.84775600  0.90224400  0.90224400  1
  C  C7  1  0.28197700  0.24234100  0.24234100  1
  C  C8  1  0.73334000  0.24234100  0.24234100  1
  C  C9  1  0.28888700  0.66113000  0.26109600  1
  C  C10  1  0.28888700  0.26109600  0.66113000  1
  C  C11  1  0.72337700  0.73038400  0.32286300  1
  C  C12  1  0.72337700  0.32286300  0.73038400  1
  C  C13  1  0.70556100  0.75314000  0.75314000  1
  C  C14  1  0.28816000  0.75314000  0.75314000  1
