# generated using pymatgen
data_Cu5NiC2
_symmetry_space_group_name_H-M   'P 1'
_cell_length_a   10.78168952
_cell_length_b   10.78168952
_cell_length_c   10.78168952
_cell_angle_alpha   158.08122438
_cell_angle_beta   158.08122438
_cell_angle_gamma   31.19295442
_symmetry_Int_Tables_number   1
_chemical_formula_structural   Cu5NiC2
_chemical_formula_sum   'Cu5 Ni1 C2'
_cell_volume   174.52266612
_cell_formula_units_Z   1
loop_
 _symmetry_equiv_pos_site_id
 _symmetry_equiv_pos_as_xyz
  1  'x, y, z'
loop_
 _atom_site_type_symbol
 _atom_site_label
 _atom_site_symmetry_multiplicity
 _atom_site_fract_x
 _atom_site_fract_y
 _atom_site_fract_z
 _atom_site_occupancy
  Ni  Ni0  1  0.50000000  0.50000000  0.00000000  1
  Cu  Cu1  1  0.58525300  0.08525300  0.50000000  1
  Cu  Cu2  1  0.08525300  0.58525300  0.50000000  1
  Cu  Cu3  1  0.91474700  0.41474700  0.50000000  1
  Cu  Cu4  1  0.41474700  0.91474700  0.50000000  1
  Cu  Cu5  1  0.00000000  0.00000000  0.00000000  1
  C  C6  1  0.17498200  0.17498200  0.00000000  1
  C  C7  1  0.82501800  0.82501800  0.00000000  1
