# generated using pymatgen
data_Cu3Ni9C4
_symmetry_space_group_name_H-M   'P 1'
_cell_length_a   10.07421500
_cell_length_b   10.07421500
_cell_length_c   10.07421500
_cell_angle_alpha   90.00000000
_cell_angle_beta   90.00000000
_cell_angle_gamma   90.00000000
_symmetry_Int_Tables_number   1
_chemical_formula_structural   Cu3Ni9C4
_chemical_formula_sum   'Cu24 Ni72 C32'
_cell_volume   1022.43014475
_cell_formula_units_Z   8
loop_
 _symmetry_equiv_pos_site_id
 _symmetry_equiv_pos_as_xyz
  1  'x, y, z'
loop_
 _atom_site_type_symbol
 _atom_site_label
 _atom_site_symmetry_multiplicity
 _atom_site_fract_x
 _atom_site_fract_y
 _atom_site_fract_z
 _atom_site_occupancy
  C  C0  1  0.00000000  0.50000000  0.50000000  1
  C  C1  1  0.50000000  0.50000000  0.00000000  1
  C  C2  1  0.50000000  0.00000000  0.50000000  1
  C  C3  1  0.00000000  0.00000000  0.00000000  1
  Ni  Ni4  1  0.89605200  0.24237700  0.44810900  1
  Ni  Ni5  1  0.39605200  0.25762300  0.55189100  1
  Ni  Ni6  1  0.10394800  0.74237700  0.05189100  1
  Ni  Ni7  1  0.25762300  0.55189100  0.39605200  1
  Ni  Ni8  1  0.05189100  0.10394800  0.74237700  1
  Ni  Ni9  1  0.55189100  0.39605200  0.25762300  1
  Ni  Ni10  1  0.24237700  0.44810900  0.89605200  1
  Ni  Ni11  1  0.44810900  0.89605200  0.24237700  1
  Ni  Ni12  1  0.74237700  0.05189100  0.10394800  1
  Ni  Ni13  1  0.75762300  0.94810900  0.60394800  1
  Ni  Ni14  1  0.94810900  0.60394800  0.75762300  1
  Ni  Ni15  1  0.60394800  0.75762300  0.94810900  1
  Ni  Ni16  1  0.10394800  0.75762300  0.55189100  1
  Ni  Ni17  1  0.60394800  0.74237700  0.44810900  1
  Ni  Ni18  1  0.89605200  0.25762300  0.94810900  1
  Ni  Ni19  1  0.74237700  0.44810900  0.60394800  1
  Ni  Ni20  1  0.94810900  0.89605200  0.25762300  1
  Ni  Ni21  1  0.44810900  0.60394800  0.74237700  1
  Ni  Ni22  1  0.75762300  0.55189100  0.10394800  1
  Ni  Ni23  1  0.55189100  0.10394800  0.75762300  1
  Ni  Ni24  1  0.25762300  0.94810900  0.89605200  1
  Ni  Ni25  1  0.24237700  0.05189100  0.39605200  1
  Ni  Ni26  1  0.05189100  0.39605200  0.24237700  1
  Ni  Ni27  1  0.39605200  0.24237700  0.05189100  1
  Ni  Ni28  1  0.77380000  0.13293600  0.45726400  1
  Ni  Ni29  1  0.27380000  0.36706400  0.54273600  1
  Ni  Ni30  1  0.22620000  0.63293600  0.04273600  1
  Ni  Ni31  1  0.36706400  0.54273600  0.27380000  1
  Ni  Ni32  1  0.04273600  0.22620000  0.63293600  1
  Ni  Ni33  1  0.54273600  0.27380000  0.36706400  1
  Ni  Ni34  1  0.13293600  0.45726400  0.77380000  1
  Ni  Ni35  1  0.64242000  0.17864000  0.12945100  1
  Ni  Ni36  1  0.45726400  0.77380000  0.13293600  1
  Ni  Ni37  1  0.86706400  0.95726400  0.72620000  1
  Ni  Ni38  1  0.95726400  0.72620000  0.86706400  1
  Ni  Ni39  1  0.72620000  0.86706400  0.95726400  1
  Ni  Ni40  1  0.22620000  0.86706400  0.54273600  1
  Ni  Ni41  1  0.72620000  0.63293600  0.45726400  1
  Ni  Ni42  1  0.77380000  0.36706400  0.95726400  1
  Ni  Ni43  1  0.63293600  0.45726400  0.72620000  1
  Ni  Ni44  1  0.95726400  0.77380000  0.36706400  1
  Ni  Ni45  1  0.45726400  0.72620000  0.63293600  1
  Ni  Ni46  1  0.86706400  0.54273600  0.22620000  1
  Ni  Ni47  1  0.54273600  0.22620000  0.86706400  1
  Ni  Ni48  1  0.36706400  0.95726400  0.77380000  1
  Ni  Ni49  1  0.13293600  0.04273600  0.27380000  1
  Ni  Ni50  1  0.04273600  0.27380000  0.13293600  1
  Ni  Ni51  1  0.27380000  0.13293600  0.04273600  1
  Ni  Ni52  1  0.87054900  0.14242000  0.32136000  1
  Ni  Ni53  1  0.37054900  0.35758000  0.67864000  1
  Ni  Ni54  1  0.12945100  0.64242000  0.17864000  1
  Ni  Ni55  1  0.35758000  0.67864000  0.37054900  1
  Ni  Ni56  1  0.17864000  0.12945100  0.64242000  1
  Ni  Ni57  1  0.67864000  0.37054900  0.35758000  1
  Ni  Ni58  1  0.14242000  0.32136000  0.87054900  1
  Ni  Ni59  1  0.32136000  0.87054900  0.14242000  1
  Ni  Ni60  1  0.37054900  0.14242000  0.17864000  1
  Ni  Ni61  1  0.17864000  0.37054900  0.14242000  1
  Ni  Ni62  1  0.14242000  0.17864000  0.37054900  1
  Ni  Ni63  1  0.35758000  0.82136000  0.87054900  1
  Ni  Ni64  1  0.67864000  0.12945100  0.85758000  1
  Ni  Ni65  1  0.85758000  0.67864000  0.12945100  1
  Ni  Ni66  1  0.32136000  0.62945100  0.64242000  1
  Ni  Ni67  1  0.82136000  0.87054900  0.35758000  1
  Ni  Ni68  1  0.64242000  0.32136000  0.62945100  1
  Ni  Ni69  1  0.87054900  0.35758000  0.82136000  1
  Ni  Ni70  1  0.62945100  0.64242000  0.32136000  1
  Ni  Ni71  1  0.12945100  0.85758000  0.67864000  1
  Ni  Ni72  1  0.62945100  0.85758000  0.82136000  1
  Ni  Ni73  1  0.82136000  0.62945100  0.85758000  1
  Ni  Ni74  1  0.85758000  0.82136000  0.62945100  1
  Ni  Ni75  1  0.63293600  0.04273600  0.22620000  1
  C  C76  1  0.50000000  0.00000000  0.00000000  1
  C  C77  1  0.00000000  0.00000000  0.50000000  1
  C  C78  1  0.00000000  0.50000000  0.00000000  1
  C  C79  1  0.50000000  0.50000000  0.50000000  1
  Cu  Cu80  1  0.86965500  0.14682000  0.42344700  1
  Cu  Cu81  1  0.36965500  0.35318000  0.57655300  1
  Cu  Cu82  1  0.13034500  0.64682000  0.07655300  1
  Cu  Cu83  1  0.35318000  0.57655300  0.36965500  1
  Cu  Cu84  1  0.07655300  0.13034500  0.64682000  1
  Cu  Cu85  1  0.57655300  0.36965500  0.35318000  1
  Cu  Cu86  1  0.14682000  0.42344700  0.86965500  1
  Cu  Cu87  1  0.42344700  0.86965500  0.14682000  1
  Cu  Cu88  1  0.64682000  0.07655300  0.13034500  1
  Cu  Cu89  1  0.85318000  0.92344700  0.63034500  1
  Cu  Cu90  1  0.92344700  0.63034500  0.85318000  1
  Cu  Cu91  1  0.63034500  0.85318000  0.92344700  1
  Cu  Cu92  1  0.13034500  0.85318000  0.57655300  1
  Cu  Cu93  1  0.63034500  0.64682000  0.42344700  1
  Cu  Cu94  1  0.86965500  0.35318000  0.92344700  1
  Cu  Cu95  1  0.64682000  0.42344700  0.63034500  1
  Cu  Cu96  1  0.92344700  0.86965500  0.35318000  1
  Cu  Cu97  1  0.42344700  0.63034500  0.64682000  1
  Cu  Cu98  1  0.85318000  0.57655300  0.13034500  1
  Cu  Cu99  1  0.57655300  0.13034500  0.85318000  1
  Cu  Cu100  1  0.35318000  0.92344700  0.86965500  1
  Cu  Cu101  1  0.14682000  0.07655300  0.36965500  1
  Cu  Cu102  1  0.07655300  0.36965500  0.14682000  1
  Cu  Cu103  1  0.36965500  0.14682000  0.07655300  1
  C  C104  1  0.61388000  0.13017900  0.56009700  1
  C  C105  1  0.11388000  0.36982100  0.43990300  1
  C  C106  1  0.38612000  0.63017900  0.93990300  1
  C  C107  1  0.36982100  0.43990300  0.11388000  1
  C  C108  1  0.93990300  0.38612000  0.63017900  1
  C  C109  1  0.43990300  0.11388000  0.36982100  1
  C  C110  1  0.13017900  0.56009700  0.61388000  1
  C  C111  1  0.56009700  0.61388000  0.13017900  1
  C  C112  1  0.63017900  0.93990300  0.38612000  1
  C  C113  1  0.86982100  0.06009700  0.88612000  1
  C  C114  1  0.06009700  0.88612000  0.86982100  1
  C  C115  1  0.88612000  0.86982100  0.06009700  1
  C  C116  1  0.38612000  0.86982100  0.43990300  1
  C  C117  1  0.88612000  0.63017900  0.56009700  1
  C  C118  1  0.61388000  0.36982100  0.06009700  1
  C  C119  1  0.63017900  0.56009700  0.88612000  1
  C  C120  1  0.06009700  0.61388000  0.36982100  1
  C  C121  1  0.56009700  0.88612000  0.63017900  1
  C  C122  1  0.86982100  0.43990300  0.38612000  1
  C  C123  1  0.43990300  0.38612000  0.86982100  1
  C  C124  1  0.36982100  0.06009700  0.61388000  1
  C  C125  1  0.13017900  0.93990300  0.11388000  1
  C  C126  1  0.93990300  0.11388000  0.13017900  1
  C  C127  1  0.11388000  0.13017900  0.93990300  1
