# generated using pymatgen
data_Cu6NiC24
_symmetry_space_group_name_H-M   'P 1'
_cell_length_a   5.42058818
_cell_length_b   5.35621453
_cell_length_c   15.59020653
_cell_angle_alpha   89.71184152
_cell_angle_beta   100.95360263
_cell_angle_gamma   91.40776639
_symmetry_Int_Tables_number   1
_chemical_formula_structural   Cu6NiC24
_chemical_formula_sum   'Cu6 Ni1 C24'
_cell_volume   444.26275217
_cell_formula_units_Z   1
loop_
 _symmetry_equiv_pos_site_id
 _symmetry_equiv_pos_as_xyz
  1  'x, y, z'
loop_
 _atom_site_type_symbol
 _atom_site_label
 _atom_site_symmetry_multiplicity
 _atom_site_fract_x
 _atom_site_fract_y
 _atom_site_fract_z
 _atom_site_occupancy
  Ni  Ni0  1  0.65261700  0.75127800  0.81472900  1
  Cu  Cu1  1  0.00801400  0.00508000  0.01071100  1
  Cu  Cu2  1  0.11134000  0.48349800  0.33148000  1
  Cu  Cu3  1  0.32150500  0.05875600  0.65337400  1
  Cu  Cu4  1  0.47627900  0.47464600  0.00804300  1
  Cu  Cu5  1  0.60607800  0.03003300  0.33134800  1
  Cu  Cu6  1  0.84485300  0.49729200  0.65587600  1
  C  C7  1  0.04698100  0.21499100  0.65121300  1
  C  C8  1  0.21749100  0.27327300  0.98677400  1
  C  C9  1  0.35742800  0.20757100  0.31108600  1
  C  C10  1  0.53620300  0.28314300  0.64163700  1
  C  C11  1  0.85808900  0.29875900  0.30959300  1
  C  C12  1  0.14056700  0.70810500  0.68365300  1
  C  C13  1  0.04704700  0.05731900  0.12299200  1
  C  C14  1  0.23346800  0.41238400  0.44254800  1
  C  C15  1  0.41854900  0.03207000  0.77657000  1
  C  C16  1  0.15078000  0.58103800  0.22632400  1
  C  C17  1  0.27337500  0.91885100  0.54952400  1
  C  C18  1  0.45580100  0.57470700  0.88419300  1
  C  C19  1  0.71549600  0.21541600  0.98640300  1
  C  C20  1  0.28789900  0.78203800  0.02309900  1
  C  C21  1  0.47383600  0.73206600  0.36043200  1
  C  C22  1  0.63797700  0.78871000  0.68327100  1
  C  C23  1  0.57720300  0.44475000  0.12400700  1
  C  C24  1  0.73909800  0.09217000  0.44253200  1
  C  C25  1  0.85080600  0.46859400  0.77773900  1
  C  C26  1  0.63802300  0.92397900  0.22699400  1
  C  C27  1  0.78414300  0.58556400  0.54621400  1
  C  C28  1  0.92979700  0.92772900  0.88757100  1
  C  C29  1  0.78514000  0.71656000  0.01768200  1
  C  C30  1  0.97888000  0.77213400  0.35828200  1
