# generated using pymatgen
data_Cu2Ni2C5
_symmetry_space_group_name_H-M   'P 1'
_cell_length_a   8.19776200
_cell_length_b   6.63691200
_cell_length_c   10.42502456
_cell_angle_alpha   50.40554024
_cell_angle_beta   90.00000000
_cell_angle_gamma   90.00000000
_symmetry_Int_Tables_number   1
_chemical_formula_structural   Cu2Ni2C5
_chemical_formula_sum   'Cu8 Ni8 C20'
_cell_volume   437.07231300
_cell_formula_units_Z   4
loop_
 _symmetry_equiv_pos_site_id
 _symmetry_equiv_pos_as_xyz
  1  'x, y, z'
loop_
 _atom_site_type_symbol
 _atom_site_label
 _atom_site_symmetry_multiplicity
 _atom_site_fract_x
 _atom_site_fract_y
 _atom_site_fract_z
 _atom_site_occupancy
  Ni  Ni0  1  0.97384000  0.24577900  0.49694300  1
  Ni  Ni1  1  0.74581300  0.75943300  0.75401600  1
  Ni  Ni2  1  0.52616000  0.24577900  0.99694300  1
  Ni  Ni3  1  0.25418700  0.24056700  0.24598400  1
  Ni  Ni4  1  0.24581300  0.24056700  0.74598400  1
  Ni  Ni5  1  0.02616000  0.75422100  0.50305700  1
  Ni  Ni6  1  0.47384000  0.75422100  0.00305700  1
  Ni  Ni7  1  0.75418700  0.75943300  0.25401600  1
  Cu  Cu8  1  0.91503200  0.26975900  0.20121800  1
  Cu  Cu9  1  0.85849800  0.74227600  0.01099100  1
  Cu  Cu10  1  0.64150200  0.74227600  0.51099100  1
  Cu  Cu11  1  0.58496800  0.26975900  0.70121800  1
  Cu  Cu12  1  0.08496800  0.73024100  0.79878200  1
  Cu  Cu13  1  0.14150200  0.25772400  0.98900900  1
  Cu  Cu14  1  0.35849800  0.25772400  0.48900900  1
  Cu  Cu15  1  0.41503200  0.73024100  0.29878200  1
  C  C16  1  0.87460400  0.24081000  0.78137300  1
  C  C17  1  0.62539600  0.24081000  0.28137300  1
  C  C18  1  0.37460400  0.75919000  0.71862700  1
  C  C19  1  0.12539600  0.75919000  0.21862700  1
  C  C20  1  0.96075800  0.97861800  0.78877900  1
  C  C21  1  0.77495300  0.04407200  0.44789600  1
  C  C22  1  0.99105500  0.45614400  0.79865000  1
  C  C23  1  0.79084800  0.46404300  0.56849000  1
  C  C24  1  0.50894500  0.45614400  0.29865000  1
  C  C25  1  0.53924200  0.97861800  0.28877900  1
  C  C26  1  0.49105500  0.54385600  0.70135000  1
  C  C27  1  0.20915200  0.53595700  0.43151000  1
  C  C28  1  0.46075800  0.02138200  0.71122100  1
  C  C29  1  0.27495300  0.95592800  0.05210400  1
  C  C30  1  0.70915200  0.46404300  0.06849000  1
  C  C31  1  0.29084800  0.53595700  0.93151000  1
  C  C32  1  0.03924200  0.02138200  0.21122100  1
  C  C33  1  0.00894500  0.54385600  0.20135000  1
  C  C34  1  0.22504700  0.95592800  0.55210400  1
  C  C35  1  0.72504700  0.04407200  0.94789600  1
