# generated using pymatgen
data_Cu2NiC8
_symmetry_space_group_name_H-M   'P 1'
_cell_length_a   5.23272854
_cell_length_b   5.23272854
_cell_length_c   6.04250400
_cell_angle_alpha   90.00000000
_cell_angle_beta   90.00000000
_cell_angle_gamma   120.00000680
_symmetry_Int_Tables_number   1
_chemical_formula_structural   Cu2NiC8
_chemical_formula_sum   'Cu2 Ni1 C8'
_cell_volume   143.28606589
_cell_formula_units_Z   1
loop_
 _symmetry_equiv_pos_site_id
 _symmetry_equiv_pos_as_xyz
  1  'x, y, z'
loop_
 _atom_site_type_symbol
 _atom_site_label
 _atom_site_symmetry_multiplicity
 _atom_site_fract_x
 _atom_site_fract_y
 _atom_site_fract_z
 _atom_site_occupancy
  Ni  Ni0  1  0.00000000  0.00000000  0.00000000  1
  Cu  Cu1  1  0.33333300  0.66666700  0.70575900  1
  Cu  Cu2  1  0.66666700  0.33333300  0.29424100  1
  C  C3  1  0.83244300  0.16755700  0.18992300  1
  C  C4  1  0.83244300  0.66488500  0.18992300  1
  C  C5  1  0.33511500  0.16755700  0.18992300  1
  C  C6  1  0.33333300  0.66666700  0.44043200  1
  C  C7  1  0.66666700  0.33333300  0.55956800  1
  C  C8  1  0.16755700  0.83244300  0.81007700  1
  C  C9  1  0.16755700  0.33511500  0.81007700  1
  C  C10  1  0.66488500  0.83244300  0.81007700  1
