# generated using pymatgen
data_Cu7(NiC)5
_symmetry_space_group_name_H-M   'P 1'
_cell_length_a   5.24160764
_cell_length_b   5.34196064
_cell_length_c   9.28954371
_cell_angle_alpha   76.07367178
_cell_angle_beta   91.21307503
_cell_angle_gamma   59.84585713
_symmetry_Int_Tables_number   1
_chemical_formula_structural   Cu7(NiC)5
_chemical_formula_sum   'Cu7 Ni5 C5'
_cell_volume   215.15096552
_cell_formula_units_Z   1
loop_
 _symmetry_equiv_pos_site_id
 _symmetry_equiv_pos_as_xyz
  1  'x, y, z'
loop_
 _atom_site_type_symbol
 _atom_site_label
 _atom_site_symmetry_multiplicity
 _atom_site_fract_x
 _atom_site_fract_y
 _atom_site_fract_z
 _atom_site_occupancy
  C  C0  1  0.40549200  0.26599700  0.11929100  1
  C  C1  1  0.76637200  0.48351700  0.25193100  1
  C  C2  1  0.46531600  0.02217300  0.51116600  1
  C  C3  1  0.25397000  0.52574600  0.73362200  1
  C  C4  1  0.03575800  0.00224000  0.01015500  1
  Ni  Ni5  1  0.02775000  0.26085900  0.12105700  1
  Ni  Ni6  1  0.41311200  0.64240000  0.11568400  1
  Ni  Ni7  1  0.34102400  0.78436100  0.64807000  1
  Ni  Ni8  1  0.46547500  0.23787100  0.61985300  1
  Ni  Ni9  1  0.07889900  0.30092100  0.39568200  1
  Cu  Cu10  1  0.88996000  0.68453000  0.59721900  1
  Cu  Cu11  1  0.78810000  0.85366800  0.14582400  1
  Cu  Cu12  1  0.51074500  0.76319000  0.37440800  1
  Cu  Cu13  1  0.63585600  0.17768200  0.33700200  1
  Cu  Cu14  1  0.58939400  0.30306700  0.91361700  1
  Cu  Cu15  1  0.02810200  0.74852700  0.87661800  1
  Cu  Cu16  1  0.17967700  0.20575400  0.85022900  1
