# generated using pymatgen
data_Cu5NiC31
_symmetry_space_group_name_H-M   'P 1'
_cell_length_a   8.70850711
_cell_length_b   8.68177682
_cell_length_c   22.33971616
_cell_angle_alpha   90.41477386
_cell_angle_beta   89.97316101
_cell_angle_gamma   120.27550406
_symmetry_Int_Tables_number   1
_chemical_formula_structural   Cu5NiC31
_chemical_formula_sum   'Cu15 Ni3 C93'
_cell_volume   1458.59226353
_cell_formula_units_Z   3
loop_
 _symmetry_equiv_pos_site_id
 _symmetry_equiv_pos_as_xyz
  1  'x, y, z'
loop_
 _atom_site_type_symbol
 _atom_site_label
 _atom_site_symmetry_multiplicity
 _atom_site_fract_x
 _atom_site_fract_y
 _atom_site_fract_z
 _atom_site_occupancy
  C  C0  1  0.36266719  0.36261520  0.25134994  1
  C  C1  1  0.03061313  0.70051066  0.58455999  1
  C  C2  1  0.29841750  0.96444088  0.08016131  1
  C  C3  1  0.99314509  0.00303407  0.50009091  1
  C  C4  1  0.99734280  0.00719162  0.99316351  1
  C  C5  1  0.66600320  0.33000148  0.83025648  1
  C  C6  1  0.67718292  0.33210339  0.33378149  1
  C  C7  1  0.33294520  0.66589639  0.16721478  1
  C  C8  1  0.35104301  0.66393756  0.66670346  1
  C  C9  1  0.99648051  0.99733620  0.35111236  1
  C  C10  1  0.00811905  0.00842963  0.85218322  1
  C  C11  1  0.98670364  0.99727818  0.65197848  1
  C  C12  1  0.98984751  0.99707164  0.15109085  1
  C  C13  1  0.66143786  0.33756452  0.68595426  1
  C  C14  1  0.67559556  0.33558725  0.18442360  1
  C  C15  1  0.32947324  0.66187128  0.01157080  1
  C  C16  1  0.34764092  0.66597902  0.51671220  1
  C  C17  1  0.33321254  0.67529260  0.32066887  1
  C  C18  1  0.67257074  0.32857377  0.97548739  1
  C  C19  1  0.66758837  0.33828307  0.48496601  1
  C  C20  1  0.32398441  0.66894340  0.81934957  1
  Ni  Ni21  1  0.66431655  0.62356257  0.58391508  1
  Ni  Ni22  1  0.04075576  0.37519230  0.91768981  1
  Ni  Ni23  1  0.33430676  0.95988374  0.91948410  1
  Cu  Cu24  1  0.29378795  0.99664960  0.24883854  1
  Cu  Cu25  1  0.70445883  0.70581063  0.25035268  1
  Cu  Cu26  1  0.99967166  0.29483698  0.25082214  1
  Cu  Cu27  1  0.29446397  0.30171084  0.75200980  1
  Cu  Cu28  1  0.00599264  0.70515928  0.75178176  1
  Cu  Cu29  1  0.69705694  0.99357649  0.75304032  1
  Cu  Cu30  1  0.95416538  0.33010782  0.58208188  1
  Cu  Cu31  1  0.37834383  0.04549017  0.58223919  1
  Cu  Cu32  1  0.95377641  0.62079493  0.08182998  1
  Cu  Cu33  1  0.66960754  0.04421934  0.08167963  1
  Cu  Cu34  1  0.38009433  0.33812626  0.08254807  1
  Cu  Cu35  1  0.62381540  0.66222131  0.91761541  1
  Cu  Cu36  1  0.63099748  0.97183099  0.41903371  1
  Cu  Cu37  1  0.33770913  0.36744407  0.41734568  1
  Cu  Cu38  1  0.03234020  0.66133837  0.41978615  1
  C  C39  1  0.21056345  0.02974479  0.30119031  1
  C  C40  1  0.81176318  0.78628698  0.30427396  1
  C  C41  1  0.97395551  0.18769447  0.30430847  1
  C  C42  1  0.21396940  0.19478033  0.80533596  1
  C  C43  1  0.98094640  0.79141981  0.80404385  1
  C  C44  1  0.80573045  0.01991257  0.80594108  1
  C  C45  1  0.76666183  0.95795524  0.69732742  1
  C  C46  1  0.18835639  0.22725591  0.69667051  1
  C  C47  1  0.03932232  0.80629827  0.69522191  1
  C  C48  1  0.78106324  0.80837125  0.19539110  1
  C  C49  1  0.03407802  0.21811394  0.19599429  1
  C  C50  1  0.19244750  0.97170684  0.19218022  1
  C  C51  1  0.87430994  0.36172485  0.63533602  1
  C  C52  1  0.48776159  0.12325338  0.63568688  1
  C  C53  1  0.63841609  0.51067907  0.63815123  1
  C  C54  1  0.87379103  0.51688161  0.13575356  1
  C  C55  1  0.63510074  0.12330988  0.13524580  1
  C  C56  1  0.48011161  0.35965472  0.13877428  1
  C  C57  1  0.46696082  0.30086205  0.02899590  1
  C  C58  1  0.84042797  0.53583610  0.02639740  1
  C  C59  1  0.69793682  0.15752808  0.02657243  1
  C  C60  1  0.46219141  0.15725697  0.52607642  1
  C  C61  1  0.70736575  0.53758641  0.52548935  1
  C  C62  1  0.83885443  0.29648683  0.52583522  1
  C  C63  1  0.54973362  0.69061409  0.97244064  1
  C  C64  1  0.14621014  0.45127771  0.97449831  1
  C  C65  1  0.31330854  0.86290556  0.97792247  1
  C  C66  1  0.54968226  0.86479319  0.47211646  1
  C  C67  1  0.30988183  0.45123284  0.46981045  1
  C  C68  1  0.13672075  0.68648030  0.47458032  1
  C  C69  1  0.10843694  0.62803865  0.36553182  1
  C  C70  1  0.52427083  0.89874855  0.36370819  1
  C  C71  1  0.37140246  0.47178190  0.36143557  1
  C  C72  1  0.12469900  0.49897283  0.86079411  1
  C  C73  1  0.37603237  0.87419544  0.86319816  1
  C  C74  1  0.50698743  0.62445367  0.86310523  1
  C  C75  1  0.00885764  0.81733145  0.41335876  1
  C  C76  1  0.81063747  0.99604926  0.41278379  1
  C  C77  1  0.18106298  0.18641558  0.41156316  1
  C  C78  1  0.00879117  0.18817611  0.90868428  1
  C  C79  1  0.17335729  0.98069875  0.90995701  1
  C  C80  1  0.80163756  0.81635030  0.90922758  1
  C  C81  1  0.97344397  0.17245443  0.58556970  1
  C  C82  1  0.20122065  0.03004938  0.58553344  1
  C  C83  1  0.83978777  0.80696557  0.58591760  1
  C  C84  1  0.97406820  0.80214981  0.08484938  1
  C  C85  1  0.83026522  0.03015513  0.08603501  1
  C  C86  1  0.20202622  0.17080428  0.08526271  1
  C  C87  1  0.67317940  0.14976095  0.74622095  1
  C  C88  1  0.47468001  0.32579015  0.74685883  1
  C  C89  1  0.85168261  0.52241947  0.74679625  1
  C  C90  1  0.68004715  0.52199422  0.24565311  1
  C  C91  1  0.84061300  0.31381853  0.24502383  1
  C  C92  1  0.47297287  0.16285917  0.24470802  1
  C  C93  1  0.63732109  0.49341063  0.92258267  1
  C  C94  1  0.85103417  0.36471702  0.92258144  1
  C  C95  1  0.51091715  0.15339406  0.92348864  1
  C  C96  1  0.64557590  0.15559147  0.42572786  1
  C  C97  1  0.50539836  0.35291464  0.42452106  1
  C  C98  1  0.84871532  0.49073177  0.42452567  1
  C  C99  1  0.36397358  0.49640071  0.07641856  1
  C  C100  1  0.13423009  0.64357471  0.07760390  1
  C  C101  1  0.50685694  0.86612869  0.07580314  1
  C  C102  1  0.35207581  0.86381789  0.57469007  1
  C  C103  1  0.49995857  0.64082364  0.57606312  1
  C  C104  1  0.12820141  0.49614466  0.57418773  1
  C  C105  1  0.31235088  0.83751993  0.25506849  1
  C  C106  1  0.52171078  0.68190834  0.25556468  1
  C  C107  1  0.16502353  0.47471519  0.25635727  1
  C  C108  1  0.31118559  0.48691997  0.75918436  1
  C  C109  1  0.17608878  0.69228115  0.75839427  1
  C  C110  1  0.51255763  0.82273645  0.75969094  1
