# generated using pymatgen
data_Cu6Ni6C7
_symmetry_space_group_name_H-M   'P 1'
_cell_length_a   4.83155433
_cell_length_b   4.89817684
_cell_length_c   8.94486229
_cell_angle_alpha   88.78668878
_cell_angle_beta   90.82483158
_cell_angle_gamma   89.77899020
_symmetry_Int_Tables_number   1
_chemical_formula_structural   Cu6Ni6C7
_chemical_formula_sum   'Cu6 Ni6 C7'
_cell_volume   211.61616259
_cell_formula_units_Z   1
loop_
 _symmetry_equiv_pos_site_id
 _symmetry_equiv_pos_as_xyz
  1  'x, y, z'
loop_
 _atom_site_type_symbol
 _atom_site_label
 _atom_site_symmetry_multiplicity
 _atom_site_fract_x
 _atom_site_fract_y
 _atom_site_fract_z
 _atom_site_occupancy
  C  C0  1  0.01090100  0.47812800  0.99348200  1
  C  C1  1  0.94356500  0.96841000  0.99139200  1
  C  C2  1  0.96271500  0.98351600  0.33339400  1
  C  C3  1  0.06527800  0.01775500  0.66135400  1
  C  C4  1  0.55312400  0.47320300  0.17794800  1
  C  C5  1  0.47887900  0.54039700  0.82089700  1
  C  C6  1  0.46682500  0.54783900  0.49736000  1
  Ni  Ni7  1  0.16346600  0.77171100  0.84081300  1
  Ni  Ni8  1  0.20065600  0.79780500  0.48993600  1
  Ni  Ni9  1  0.33712000  0.34643800  0.66146200  1
  Ni  Ni10  1  0.65575200  0.68269100  0.99519800  1
  Ni  Ni11  1  0.66797500  0.69277600  0.33597600  1
  Ni  Ni12  1  0.83589700  0.21071000  0.15393900  1
  Cu  Cu13  1  0.16217400  0.71546100  0.15641300  1
  Cu  Cu14  1  0.32833600  0.27999500  0.33792300  1
  Cu  Cu15  1  0.33023100  0.25266800  0.99463800  1
  Cu  Cu16  1  0.69556000  0.74601400  0.65692900  1
  Cu  Cu17  1  0.83162900  0.25743900  0.82888200  1
  Cu  Cu18  1  0.82380600  0.22315700  0.50064100  1
