# generated using pymatgen
data_Cu12Ni12C13
_symmetry_space_group_name_H-M   'P 1'
_cell_length_a   9.81905987
_cell_length_b   14.52629338
_cell_length_c   3.13082500
_cell_angle_alpha   90.00000000
_cell_angle_beta   90.00000000
_cell_angle_gamma   87.73130867
_symmetry_Int_Tables_number   1
_chemical_formula_structural   Cu12Ni12C13
_chemical_formula_sum   'Cu12 Ni12 C13'
_cell_volume   446.21376970
_cell_formula_units_Z   1
loop_
 _symmetry_equiv_pos_site_id
 _symmetry_equiv_pos_as_xyz
  1  'x, y, z'
loop_
 _atom_site_type_symbol
 _atom_site_label
 _atom_site_symmetry_multiplicity
 _atom_site_fract_x
 _atom_site_fract_y
 _atom_site_fract_z
 _atom_site_occupancy
  C  C0  1  0.26109100  0.67601000  0.50000000  1
  C  C1  1  0.99988200  0.01395000  0.00000000  1
  C  C2  1  0.99669600  0.31471300  0.00000000  1
  C  C3  1  0.97409800  0.65231800  0.00000000  1
  C  C4  1  0.23176300  0.16135200  0.50000000  1
  C  C5  1  0.20833100  0.44840200  0.50000000  1
  C  C6  1  0.26895000  0.92016900  0.50000000  1
  C  C7  1  0.48557500  0.34172800  0.00000000  1
  C  C8  1  0.52972000  0.00344700  0.00000000  1
  C  C9  1  0.55636200  0.67052500  0.00000000  1
  C  C10  1  0.74079100  0.15064400  0.50000000  1
  C  C11  1  0.71733500  0.48207400  0.50000000  1
  C  C12  1  0.74064500  0.84061600  0.50000000  1
  Ni  Ni13  1  0.08777700  0.26348500  0.50000000  1
  Ni  Ni14  1  0.07899100  0.94324800  0.50000000  1
  Ni  Ni15  1  0.16249600  0.10083500  0.00000000  1
  Ni  Ni16  1  0.11270400  0.42338400  0.00000000  1
  Ni  Ni17  1  0.37784900  0.91947400  0.00000000  1
  Ni  Ni18  1  0.39098900  0.39769300  0.50000000  1
  Ni  Ni19  1  0.61819600  0.94621300  0.50000000  1
  Ni  Ni20  1  0.61535000  0.59981300  0.50000000  1
  Ni  Ni21  1  0.64603300  0.11100800  0.00000000  1
  Ni  Ni22  1  0.63961100  0.42693200  0.00000000  1
  Ni  Ni23  1  0.67165700  0.77200200  0.00000000  1
  Ni  Ni24  1  0.90135200  0.07428200  0.50000000  1
  Cu  Cu25  1  0.11039900  0.58553900  0.50000000  1
  Cu  Cu26  1  0.15576300  0.72921900  0.00000000  1
  Cu  Cu27  1  0.34099800  0.23687300  0.00000000  1
  Cu  Cu28  1  0.35021500  0.60483100  0.00000000  1
  Cu  Cu29  1  0.41270800  0.08113500  0.50000000  1
  Cu  Cu30  1  0.43377600  0.73597000  0.50000000  1
  Cu  Cu31  1  0.58347200  0.27024900  0.50000000  1
  Cu  Cu32  1  0.83047700  0.23783600  0.00000000  1
  Cu  Cu33  1  0.85112700  0.89563300  0.00000000  1
  Cu  Cu34  1  0.84487600  0.54729300  0.00000000  1
  Cu  Cu35  1  0.88309000  0.38886000  0.50000000  1
  Cu  Cu36  1  0.90314200  0.73131300  0.50000000  1
