# generated using pymatgen
data_Cu3Ni3C28
_symmetry_space_group_name_H-M   'P 1'
_cell_length_a   8.78192604
_cell_length_b   8.79929618
_cell_length_c   22.65417970
_cell_angle_alpha   89.60131433
_cell_angle_beta   90.31668746
_cell_angle_gamma   119.81059447
_symmetry_Int_Tables_number   1
_chemical_formula_structural   Cu3Ni3C28
_chemical_formula_sum   'Cu9 Ni9 C84'
_cell_volume   1518.90517183
_cell_formula_units_Z   3
loop_
 _symmetry_equiv_pos_site_id
 _symmetry_equiv_pos_as_xyz
  1  'x, y, z'
loop_
 _atom_site_type_symbol
 _atom_site_label
 _atom_site_symmetry_multiplicity
 _atom_site_fract_x
 _atom_site_fract_y
 _atom_site_fract_z
 _atom_site_occupancy
  C  C0  1  0.98894641  0.00825761  0.64247016  1
  C  C1  1  0.01024728  0.01355133  0.13983778  1
  C  C2  1  0.65638782  0.33657700  0.97490063  1
  C  C3  1  0.67594618  0.33272968  0.47991692  1
  C  C4  1  0.33267843  0.67090652  0.31034318  1
  C  C5  1  0.34198034  0.67762296  0.80657113  1
  C  C6  1  0.98591546  0.01325132  0.35764770  1
  C  C7  1  0.01939643  0.01907354  0.85233058  1
  C  C8  1  0.67135225  0.34063272  0.69181885  1
  C  C9  1  0.68223683  0.35021638  0.18563710  1
  C  C10  1  0.31573296  0.66530363  0.02445971  1
  C  C11  1  0.35148427  0.67205848  0.52971465  1
  Ni  Ni12  1  0.99300126  0.28678570  0.24934862  1
  Ni  Ni13  1  0.29196499  0.28737470  0.74842052  1
  Ni  Ni14  1  0.72216605  0.01141258  0.75158965  1
  Ni  Ni15  1  0.96046042  0.34647078  0.58583488  1
  Ni  Ni16  1  0.67264909  0.61631030  0.58500682  1
  Ni  Ni17  1  0.95135155  0.61966932  0.08208458  1
  Ni  Ni18  1  0.39085925  0.34760117  0.08381363  1
  Ni  Ni19  1  0.32570572  0.94806981  0.91682433  1
  Ni  Ni20  1  0.61406542  0.95140071  0.41867757  1
  Cu  Cu21  1  0.28669788  0.00450074  0.25085103  1
  Cu  Cu22  1  0.71542476  0.71374387  0.25103552  1
  Cu  Cu23  1  0.99751822  0.71449306  0.75068860  1
  Cu  Cu24  1  0.38075308  0.04628149  0.58413922  1
  Cu  Cu25  1  0.66251532  0.04629019  0.08340961  1
  Cu  Cu26  1  0.62132853  0.67392655  0.91679679  1
  Cu  Cu27  1  0.04713495  0.37930428  0.91730580  1
  Cu  Cu28  1  0.33127699  0.37886253  0.41701896  1
  Cu  Cu29  1  0.04789546  0.67185746  0.41674343  1
  C  C30  1  0.20226922  0.02341401  0.30353801  1
  C  C31  1  0.82336403  0.79370961  0.30410050  1
  C  C32  1  0.97219574  0.16213578  0.30734892  1
  C  C33  1  0.19821228  0.16454182  0.80752750  1
  C  C34  1  0.97223249  0.79470136  0.80373632  1
  C  C35  1  0.83908769  0.02537374  0.80917933  1
  C  C36  1  0.80318311  0.96564985  0.69308814  1
  C  C37  1  0.16385883  0.18847350  0.69251042  1
  C  C38  1  0.03527896  0.82289397  0.69705019  1
  C  C39  1  0.78964453  0.82309236  0.19799760  1
  C  C40  1  0.02606562  0.18850125  0.19401766  1
  C  C41  1  0.17261967  0.96596037  0.19713270  1
  C  C42  1  0.86062307  0.36722303  0.64094452  1
  C  C43  1  0.49028130  0.12137608  0.63577080  1
  C  C44  1  0.63448771  0.49149750  0.64117115  1
  C  C45  1  0.86325054  0.49682502  0.14120781  1
  C  C46  1  0.63622518  0.12541584  0.13665018  1
  C  C47  1  0.50538693  0.35952604  0.14203826  1
  C  C48  1  0.47437861  0.30216910  0.02633266  1
  C  C49  1  0.82959074  0.52383235  0.02529287  1
  C  C50  1  0.70180032  0.15862229  0.03039611  1
  C  C51  1  0.46184724  0.15838708  0.52908777  1
  C  C52  1  0.69001319  0.52207618  0.52432403  1
  C  C53  1  0.83249985  0.30311089  0.52580110  1
  C  C54  1  0.53822116  0.69225638  0.96970351  1
  C  C55  1  0.15611693  0.45853015  0.97073303  1
  C  C56  1  0.30841638  0.82688844  0.97464901  1
  C  C57  1  0.51849624  0.82500103  0.47380058  1
  C  C58  1  0.29679471  0.45400653  0.46861040  1
  C  C59  1  0.15430864  0.69676224  0.46834863  1
  C  C60  1  0.12991362  0.63751511  0.36242972  1
  C  C61  1  0.49641230  0.85498837  0.35902074  1
  C  C62  1  0.35829779  0.49159787  0.36285136  1
  C  C63  1  0.12451376  0.48941794  0.86458648  1
  C  C64  1  0.35751885  0.85240581  0.86035785  1
  C  C65  1  0.50637782  0.63359840  0.86354168  1
  C  C66  1  0.02734249  0.82433976  0.40385162  1
  C  C67  1  0.80921935  0.97098884  0.40540045  1
  C  C68  1  0.17801995  0.20132162  0.40588080  1
  C  C69  1  0.02628688  0.20363786  0.91034550  1
  C  C70  1  0.15531893  0.96970690  0.90618092  1
  C  C71  1  0.79635135  0.82061291  0.90811389  1
  C  C72  1  0.97903005  0.17036701  0.59062361  1
  C  C73  1  0.20471254  0.02664731  0.58986785  1
  C  C74  1  0.84542664  0.80733295  0.59307175  1
  C  C75  1  0.96891791  0.80869765  0.09765953  1
  C  C76  1  0.82373341  0.02681975  0.09257385  1
  C  C77  1  0.19565251  0.16915160  0.09353828  1
  C  C78  1  0.69373327  0.17435958  0.73872055  1
  C  C79  1  0.48278157  0.30946505  0.73880919  1
  C  C80  1  0.84507912  0.53936761  0.74438562  1
  C  C81  1  0.69093823  0.53692461  0.24376737  1
  C  C82  1  0.82004716  0.30288711  0.23896186  1
  C  C83  1  0.46123643  0.15151663  0.24166521  1
  C  C84  1  0.63692653  0.50784654  0.92338452  1
  C  C85  1  0.86946239  0.36030931  0.92634397  1
  C  C86  1  0.50403504  0.14018744  0.92791340  1
  C  C87  1  0.63777683  0.14558034  0.42553595  1
  C  C88  1  0.48875108  0.36052328  0.42263341  1
  C  C89  1  0.87016711  0.51068438  0.42207845  1
  C  C90  1  0.36508170  0.51160222  0.06959523  1
  C  C91  1  0.14465428  0.64149840  0.07396483  1
  C  C92  1  0.51342682  0.87042271  0.07523819  1
  C  C93  1  0.36022167  0.87119933  0.57338321  1
  C  C94  1  0.50044580  0.64069926  0.57338672  1
  C  C95  1  0.14816940  0.51213378  0.56772305  1
  C  C96  1  0.30128463  0.83875745  0.25866502  1
  C  C97  1  0.53429653  0.69308420  0.25986075  1
  C  C98  1  0.16716375  0.47739172  0.26316212  1
  C  C99  1  0.30201929  0.47360089  0.76418436  1
  C  C100  1  0.15613710  0.69121811  0.75927962  1
  C  C101  1  0.52729355  0.83310226  0.76013383  1
