# generated using pymatgen
data_Cu2Ni2C5
_symmetry_space_group_name_H-M   'P 1'
_cell_length_a   3.09196433
_cell_length_b   3.09196267
_cell_length_c   14.16624109
_cell_angle_alpha   90.00000000
_cell_angle_beta   90.00000000
_cell_angle_gamma   120.00000534
_symmetry_Int_Tables_number   1
_chemical_formula_structural   Cu2Ni2C5
_chemical_formula_sum   'Cu2 Ni2 C5'
_cell_volume   117.28810077
_cell_formula_units_Z   1
loop_
 _symmetry_equiv_pos_site_id
 _symmetry_equiv_pos_as_xyz
  1  'x, y, z'
loop_
 _atom_site_type_symbol
 _atom_site_label
 _atom_site_symmetry_multiplicity
 _atom_site_fract_x
 _atom_site_fract_y
 _atom_site_fract_z
 _atom_site_occupancy
  C  C0  1  0.33333300  0.66666700  0.62377814  1
  Ni  Ni1  1  0.00000000  0.00000000  0.02182398  1
  Ni  Ni2  1  0.00000000  0.00000000  0.44771490  1
  Cu  Cu3  1  0.66666700  0.33333300  0.79599254  1
  Cu  Cu4  1  0.33333300  0.66666700  0.24094892  1
  C  C5  1  0.66666700  0.33333300  0.56334074  1
  C  C6  1  0.33333300  0.66666700  0.39152917  1
  C  C7  1  0.66666700  0.33333300  0.95234970  1
  C  C8  1  0.33333300  0.66666700  0.09272990  1
