# generated using pymatgen
data_Cu(NiC7)2
_symmetry_space_group_name_H-M   'P 1'
_cell_length_a   8.96752105
_cell_length_b   8.98110852
_cell_length_c   23.12901900
_cell_angle_alpha   90.10295020
_cell_angle_beta   90.00000000
_cell_angle_gamma   119.94996643
_symmetry_Int_Tables_number   1
_chemical_formula_structural   Cu(NiC7)2
_chemical_formula_sum   'Cu6 Ni12 C84'
_cell_volume   1614.01660229
_cell_formula_units_Z   6
loop_
 _symmetry_equiv_pos_site_id
 _symmetry_equiv_pos_as_xyz
  1  'x, y, z'
loop_
 _atom_site_type_symbol
 _atom_site_label
 _atom_site_symmetry_multiplicity
 _atom_site_fract_x
 _atom_site_fract_y
 _atom_site_fract_z
 _atom_site_occupancy
  C  C0  1  0.99984593  0.00361575  0.35625930  1
  C  C1  1  0.00376981  0.00361575  0.85625930  1
  C  C2  1  0.99173165  0.00605892  0.64384371  1
  C  C3  1  0.01432727  0.00605892  0.14384371  1
  C  C4  1  0.66651293  0.33694875  0.68959230  1
  C  C5  1  0.67043681  0.33694875  0.18959230  1
  C  C6  1  0.65839865  0.33939192  0.97717671  1
  C  C7  1  0.68099427  0.33939192  0.47717671  1
  C  C8  1  0.33317893  0.67028275  0.02292630  1
  C  C9  1  0.33710281  0.67028275  0.52292630  1
  C  C10  1  0.32506465  0.67272592  0.31051071  1
  C  C11  1  0.34766027  0.67272592  0.81051071  1
  Ni  Ni12  1  0.28901360  0.00352367  0.25036206  1
  Ni  Ni13  1  0.00075012  0.28684724  0.24991130  1
  Ni  Ni14  1  0.28609712  0.28684724  0.74991130  1
  Ni  Ni15  1  0.71451007  0.00352367  0.75036206  1
  Ni  Ni16  1  0.95568060  0.33685667  0.58369506  1
  Ni  Ni17  1  0.66741712  0.62018024  0.58324430  1
  Ni  Ni18  1  0.95276412  0.62018024  0.08324430  1
  Ni  Ni19  1  0.38117707  0.33685667  0.08369506  1
  Ni  Ni20  1  0.62234660  0.67019067  0.91702906  1
  Ni  Ni21  1  0.33408312  0.95351424  0.91657830  1
  Ni  Ni22  1  0.61943012  0.95351424  0.41657830  1
  Ni  Ni23  1  0.04784307  0.67019067  0.41702906  1
  Cu  Cu24  1  0.71098211  0.71281912  0.24995344  1
  Cu  Cu25  1  0.00183701  0.71281912  0.74995344  1
  Cu  Cu26  1  0.37764911  0.04615212  0.58328644  1
  Cu  Cu27  1  0.66850401  0.04615212  0.08328644  1
  Cu  Cu28  1  0.04431511  0.37948612  0.91662044  1
  Cu  Cu29  1  0.33517001  0.37948612  0.41662044  1
  C  C30  1  0.20170442  0.02788259  0.30372537  1
  C  C31  1  0.81904653  0.79048633  0.30179780  1
  C  C32  1  0.97205832  0.17359382  0.30359815  1
  C  C33  1  0.20153550  0.17359382  0.80359815  1
  C  C34  1  0.97143980  0.79048633  0.80179780  1
  C  C35  1  0.82617816  0.02788259  0.80372537  1
  C  C36  1  0.79628871  0.97041265  0.69656967  1
  C  C37  1  0.17392871  0.19944529  0.69622258  1
  C  C38  1  0.02874752  0.81827083  0.69821261  1
  C  C39  1  0.78952331  0.81827083  0.19821261  1
  C  C40  1  0.02551658  0.19944529  0.19622258  1
  C  C41  1  0.17412394  0.97041265  0.19656967  1
  C  C42  1  0.86837142  0.36121559  0.63705837  1
  C  C43  1  0.48571353  0.12381933  0.63513080  1
  C  C44  1  0.63872532  0.50692682  0.63693115  1
  C  C45  1  0.86820250  0.50692682  0.13693115  1
  C  C46  1  0.63810680  0.12381933  0.13513080  1
  C  C47  1  0.49284516  0.36121559  0.13705837  1
  C  C48  1  0.46295571  0.30374565  0.02990267  1
  C  C49  1  0.84059571  0.53277829  0.02955558  1
  C  C50  1  0.69541452  0.15160383  0.03154561  1
  C  C51  1  0.45619031  0.15160383  0.53154561  1
  C  C52  1  0.69218358  0.53277829  0.52955558  1
  C  C53  1  0.84079094  0.30374565  0.52990267  1
  C  C54  1  0.53503742  0.69454959  0.97039237  1
  C  C55  1  0.15237953  0.45715333  0.96846480  1
  C  C56  1  0.30539132  0.84026082  0.97026515  1
  C  C57  1  0.53486850  0.84026082  0.47026515  1
  C  C58  1  0.30477280  0.45715333  0.46846480  1
  C  C59  1  0.15951116  0.69454959  0.47039237  1
  C  C60  1  0.12962171  0.63707965  0.36323667  1
  C  C61  1  0.50726171  0.86611229  0.36288958  1
  C  C62  1  0.36208052  0.48493783  0.36487961  1
  C  C63  1  0.12285631  0.48493783  0.86487961  1
  C  C64  1  0.35884958  0.86611229  0.86288958  1
  C  C65  1  0.50745694  0.63707965  0.86323667  1
  C  C66  1  0.02471126  0.82578377  0.40622875  1
  C  C67  1  0.79919798  0.97512857  0.40653798  1
  C  C68  1  0.18117352  0.20704849  0.40872441  1
  C  C69  1  0.02587497  0.20704849  0.90872441  1
  C  C70  1  0.17593059  0.97512857  0.90653798  1
  C  C71  1  0.80107251  0.82578377  0.90622875  1
  C  C72  1  0.97609672  0.17733918  0.59205370  1
  C  C73  1  0.20498054  0.02344771  0.59237194  1
  C  C74  1  0.82631516  0.79829607  0.59362723  1
  C  C75  1  0.97198092  0.79829607  0.09362723  1
  C  C76  1  0.81846717  0.02344771  0.09237194  1
  C  C77  1  0.20124246  0.17733918  0.09205370  1
  C  C78  1  0.69137826  0.15911677  0.73956175  1
  C  C79  1  0.46586498  0.30846157  0.73987098  1
  C  C80  1  0.84784052  0.54038149  0.74205741  1
  C  C81  1  0.69254197  0.54038149  0.24205741  1
  C  C82  1  0.84259759  0.30846157  0.23987098  1
  C  C83  1  0.46773951  0.15911677  0.23956175  1
  C  C84  1  0.64276372  0.51067218  0.92538670  1
  C  C85  1  0.87164754  0.35678071  0.92570494  1
  C  C86  1  0.49298216  0.13162907  0.92696023  1
  C  C87  1  0.63864792  0.13162907  0.42696023  1
  C  C88  1  0.48513417  0.35678071  0.42570494  1
  C  C89  1  0.86790946  0.51067218  0.42538670  1
  C  C90  1  0.35804426  0.49245077  0.07289575  1
  C  C91  1  0.13253098  0.64179557  0.07320498  1
  C  C92  1  0.51450652  0.87371549  0.07539141  1
  C  C93  1  0.35920797  0.87371549  0.57539141  1
  C  C94  1  0.50926359  0.64179557  0.57320498  1
  C  C95  1  0.13440551  0.49245077  0.57289575  1
  C  C96  1  0.30942972  0.84400618  0.25872070  1
  C  C97  1  0.53831354  0.69011471  0.25903894  1
  C  C98  1  0.15964816  0.46496307  0.26029423  1
  C  C99  1  0.30531392  0.46496307  0.76029423  1
  C  C100  1  0.15180017  0.69011471  0.75903894  1
  C  C101  1  0.53457546  0.84400618  0.75872070  1
