# generated using pymatgen
data_Cu5NiC3
_symmetry_space_group_name_H-M   'P 1'
_cell_length_a   5.20429234
_cell_length_b   5.20429234
_cell_length_c   7.65709165
_cell_angle_alpha   73.50420163
_cell_angle_beta   73.50420163
_cell_angle_gamma   97.85182363
_symmetry_Int_Tables_number   1
_chemical_formula_structural   Cu5NiC3
_chemical_formula_sum   'Cu10 Ni2 C6'
_cell_volume   185.26984944
_cell_formula_units_Z   2
loop_
 _symmetry_equiv_pos_site_id
 _symmetry_equiv_pos_as_xyz
  1  'x, y, z'
loop_
 _atom_site_type_symbol
 _atom_site_label
 _atom_site_symmetry_multiplicity
 _atom_site_fract_x
 _atom_site_fract_y
 _atom_site_fract_z
 _atom_site_occupancy
  C  C0  1  0.50000000  0.00000000  0.00000000  1
  C  C1  1  0.00000000  0.50000000  0.50000000  1
  C  C2  1  0.95261100  0.86653300  0.20792500  1
  C  C3  1  0.13346700  0.04738900  0.29207500  1
  C  C4  1  0.04738900  0.13346700  0.79207500  1
  C  C5  1  0.86653300  0.95261100  0.70792500  1
  Ni  Ni6  1  0.41042700  0.58957300  0.75000000  1
  Ni  Ni7  1  0.58957300  0.41042700  0.25000000  1
  Cu  Cu8  1  0.27329800  0.66782400  0.60527100  1
  Cu  Cu9  1  0.33217600  0.72670200  0.89472900  1
  Cu  Cu10  1  0.72670200  0.33217600  0.39472900  1
  Cu  Cu11  1  0.66782400  0.27329800  0.10527100  1
  Cu  Cu12  1  0.32562100  0.28208500  0.84640000  1
  Cu  Cu13  1  0.71791500  0.67437900  0.65360000  1
  Cu  Cu14  1  0.67437900  0.71791500  0.15360000  1
  Cu  Cu15  1  0.28208500  0.32562100  0.34640000  1
  Cu  Cu16  1  0.88225800  0.11774200  0.75000000  1
  Cu  Cu17  1  0.11774200  0.88225800  0.25000000  1
