# generated using pymatgen
data_Cu(NiC4)2
_symmetry_space_group_name_H-M   'P 1'
_cell_length_a   6.67665661
_cell_length_b   6.67665651
_cell_length_c   6.33776700
_cell_angle_alpha   61.66530807
_cell_angle_beta   61.66530849
_cell_angle_gamma   55.68833393
_symmetry_Int_Tables_number   1
_chemical_formula_structural   Cu(NiC4)2
_chemical_formula_sum   'Cu1 Ni2 C8'
_cell_volume   196.89256418
_cell_formula_units_Z   1
loop_
 _symmetry_equiv_pos_site_id
 _symmetry_equiv_pos_as_xyz
  1  'x, y, z'
loop_
 _atom_site_type_symbol
 _atom_site_label
 _atom_site_symmetry_multiplicity
 _atom_site_fract_x
 _atom_site_fract_y
 _atom_site_fract_z
 _atom_site_occupancy
  Ni  Ni0  1  0.80762800  0.80762800  0.69237200  1
  Ni  Ni1  1  0.19237200  0.19237200  0.30762800  1
  Cu  Cu2  1  0.00000000  0.00000000  0.00000000  1
  C  C3  1  0.50000000  0.50000000  0.00000000  1
  C  C4  1  0.50000000  0.50000000  0.50000000  1
  C  C5  1  0.27144000  0.72856000  0.76646200  1
  C  C6  1  0.27144000  0.72856000  0.23353800  1
  C  C7  1  0.72856000  0.27144000  0.76646200  1
  C  C8  1  0.24620900  0.24620900  0.75379100  1
  C  C9  1  0.72856000  0.27144000  0.23353800  1
  C  C10  1  0.75379100  0.75379100  0.24620900  1
