# generated using pymatgen
data_Cu2NiC10
_symmetry_space_group_name_H-M   'P 1'
_cell_length_a   5.41564859
_cell_length_b   5.31298345
_cell_length_c   7.97327703
_cell_angle_alpha   105.52039897
_cell_angle_beta   105.97768384
_cell_angle_gamma   101.13610416
_symmetry_Int_Tables_number   1
_chemical_formula_structural   Cu2NiC10
_chemical_formula_sum   'Cu2 Ni1 C10'
_cell_volume   203.50677345
_cell_formula_units_Z   1
loop_
 _symmetry_equiv_pos_site_id
 _symmetry_equiv_pos_as_xyz
  1  'x, y, z'
loop_
 _atom_site_type_symbol
 _atom_site_label
 _atom_site_symmetry_multiplicity
 _atom_site_fract_x
 _atom_site_fract_y
 _atom_site_fract_z
 _atom_site_occupancy
  C  C0  1  0.33014599  0.58014599  0.66029099  1
  C  C1  1  0.64921829  0.39921829  0.29843757  1
  Ni  Ni2  1  0.97961343  0.72961343  0.95922685  1
  Cu  Cu3  1  0.81996697  0.06996697  0.63993494  1
  Cu  Cu4  1  0.17567503  0.92567503  0.35134906  1
  C  C5  1  0.01771672  0.79348494  0.55686080  1
  C  C6  1  0.53914407  0.26337586  0.55686080  1
  C  C7  1  0.97114852  0.19692528  0.42207537  1
  C  C8  1  0.45092684  0.72515009  0.42207536  1
  C  C9  1  0.07484248  0.42402235  0.81691820  1
  C  C10  1  0.74207672  0.89289685  0.81691820  1
  C  C11  1  0.85741991  0.62681627  0.14952593  1
  C  C12  1  0.29210502  0.02270865  0.14952593  1
