# generated using pymatgen
data_CuNi4C7
_symmetry_space_group_name_H-M   'P 1'
_cell_length_a   8.19557334
_cell_length_b   8.19557334
_cell_length_c   5.76418668
_cell_angle_alpha   80.76294127
_cell_angle_beta   80.76294127
_cell_angle_gamma   133.95335803
_symmetry_Int_Tables_number   1
_chemical_formula_structural   CuNi4C7
_chemical_formula_sum   'Cu2 Ni8 C14'
_cell_volume   254.16540893
_cell_formula_units_Z   2
loop_
 _symmetry_equiv_pos_site_id
 _symmetry_equiv_pos_as_xyz
  1  'x, y, z'
loop_
 _atom_site_type_symbol
 _atom_site_label
 _atom_site_symmetry_multiplicity
 _atom_site_fract_x
 _atom_site_fract_y
 _atom_site_fract_z
 _atom_site_occupancy
  C  C0  1  0.32992100  0.67007900  0.25000000  1
  C  C1  1  0.67007900  0.32992100  0.75000000  1
  Ni  Ni2  1  0.24745700  0.26080700  0.59001100  1
  Ni  Ni3  1  0.73919300  0.75254300  0.90998900  1
  Ni  Ni4  1  0.75254300  0.73919300  0.40998900  1
  Ni  Ni5  1  0.26080700  0.24745700  0.09001100  1
  Ni  Ni6  1  0.84004400  0.65994900  0.24235100  1
  Ni  Ni7  1  0.34005100  0.15995600  0.25764900  1
  Ni  Ni8  1  0.15995600  0.34005100  0.75764900  1
  Ni  Ni9  1  0.65994900  0.84004400  0.74235100  1
  Cu  Cu10  1  0.82855100  0.17144900  0.25000000  1
  Cu  Cu11  1  0.17144900  0.82855100  0.75000000  1
  C  C12  1  0.08203700  0.31292800  0.08420500  1
  C  C13  1  0.31350900  0.85829700  0.90475100  1
  C  C14  1  0.68649100  0.14170300  0.09524900  1
  C  C15  1  0.85829700  0.31350900  0.40475100  1
  C  C16  1  0.36274200  0.22278300  0.08090200  1
  C  C17  1  0.77721700  0.63725800  0.41909800  1
  C  C18  1  0.63725800  0.77721700  0.91909800  1
  C  C19  1  0.22278300  0.36274200  0.58090200  1
  C  C20  1  0.91796300  0.68707200  0.91579500  1
  C  C21  1  0.31292800  0.08203700  0.58420500  1
  C  C22  1  0.14170300  0.68649100  0.59524900  1
  C  C23  1  0.68707200  0.91796300  0.41579500  1
