# generated using pymatgen
data_Cu2NiC2
_symmetry_space_group_name_H-M   'P 1'
_cell_length_a   3.23660700
_cell_length_b   3.23661255
_cell_length_c   36.40090802
_cell_angle_alpha   90.00331606
_cell_angle_beta   90.00000000
_cell_angle_gamma   119.99995352
_symmetry_Int_Tables_number   1
_chemical_formula_structural   Cu2NiC2
_chemical_formula_sum   'Cu4 Ni2 C4'
_cell_volume   330.23548197
_cell_formula_units_Z   2
loop_
 _symmetry_equiv_pos_site_id
 _symmetry_equiv_pos_as_xyz
  1  'x, y, z'
loop_
 _atom_site_type_symbol
 _atom_site_label
 _atom_site_symmetry_multiplicity
 _atom_site_fract_x
 _atom_site_fract_y
 _atom_site_fract_z
 _atom_site_occupancy
  C  C0  1  0.00001700  0.00003300  0.22417700  1
  C  C1  1  0.33334700  0.66669600  0.10794700  1
  C  C2  1  0.33331000  0.66662200  0.57836600  1
  C  C3  1  0.66664200  0.33328500  0.35496100  1
  Ni  Ni4  1  0.33332700  0.66665600  0.40180700  1
  Ni  Ni5  1  0.33329200  0.66658500  0.30773200  1
  Cu  Cu6  1  0.66665700  0.33331200  0.06567100  1
  Cu  Cu7  1  0.66662600  0.33325000  0.53573800  1
  Cu  Cu8  1  0.66671300  0.33342400  0.15091000  1
  Cu  Cu9  1  0.66666900  0.33333700  0.62097900  1
