# generated using pymatgen
data_CuNi3C16
_symmetry_space_group_name_H-M   'P 1'
_cell_length_a   9.30792755
_cell_length_b   9.25452660
_cell_length_c   22.99565438
_cell_angle_alpha   90.49397161
_cell_angle_beta   90.00000000
_cell_angle_gamma   120.19106265
_symmetry_Int_Tables_number   1
_chemical_formula_structural   CuNi3C16
_chemical_formula_sum   'Cu6 Ni18 C96'
_cell_volume   1712.07443575
_cell_formula_units_Z   6
loop_
 _symmetry_equiv_pos_site_id
 _symmetry_equiv_pos_as_xyz
  1  'x, y, z'
loop_
 _atom_site_type_symbol
 _atom_site_label
 _atom_site_symmetry_multiplicity
 _atom_site_fract_x
 _atom_site_fract_y
 _atom_site_fract_z
 _atom_site_occupancy
  Ni  Ni0  1  0.35836302  0.35294071  0.24606702  1
  Ni  Ni1  1  0.00322357  0.63643014  0.24493984  1
  Ni  Ni2  1  0.63320657  0.63643014  0.74493984  1
  Ni  Ni3  1  0.99457769  0.35294071  0.74606702  1
  Ni  Ni4  1  0.02503002  0.68627371  0.57940002  1
  Ni  Ni5  1  0.66989057  0.96976314  0.57827284  1
  Ni  Ni6  1  0.29987357  0.96976314  0.07827284  1
  Ni  Ni7  1  0.66124469  0.68627371  0.07940002  1
  Ni  Ni8  1  0.69169602  0.01960771  0.91273402  1
  Ni  Ni9  1  0.33655657  0.30309714  0.91160684  1
  Ni  Ni10  1  0.96653957  0.30309714  0.41160684  1
  Ni  Ni11  1  0.32791069  0.01960771  0.41273402  1
  Ni  Ni12  1  0.97847557  0.98395283  0.49822679  1
  Ni  Ni13  1  0.00547726  0.98395283  0.99822679  1
  Ni  Ni14  1  0.64514257  0.31728583  0.83155979  1
  Ni  Ni15  1  0.67214426  0.31728583  0.33155979  1
  Ni  Ni16  1  0.31180857  0.65061983  0.16489379  1
  Ni  Ni17  1  0.33881026  0.65061983  0.66489379  1
  Cu  Cu18  1  0.98827061  0.99302572  0.35061178  1
  Cu  Cu19  1  0.00475511  0.99302572  0.85061178  1
  Cu  Cu20  1  0.65493761  0.32635872  0.68394478  1
  Cu  Cu21  1  0.67142211  0.32635872  0.18394478  1
  Cu  Cu22  1  0.32160361  0.65969272  0.01727878  1
  Cu  Cu23  1  0.33808811  0.65969272  0.51727878  1
  C  C24  1  0.00152160  0.01254541  0.65213675  1
  C  C25  1  0.01102381  0.01254541  0.15213675  1
  C  C26  1  0.66818860  0.34587841  0.98546975  1
  C  C27  1  0.67769081  0.34587841  0.48546975  1
  C  C28  1  0.33485460  0.67921241  0.31880375  1
  C  C29  1  0.34435681  0.67921241  0.81880375  1
  C  C30  1  0.29649402  0.99508241  0.25197013  1
  C  C31  1  0.01113776  0.30801001  0.25462553  1
  C  C32  1  0.29687225  0.30801001  0.75462553  1
  C  C33  1  0.69858839  0.99508241  0.75197013  1
  C  C34  1  0.96316102  0.32841541  0.58530313  1
  C  C35  1  0.67780476  0.64134301  0.58795853  1
  C  C36  1  0.96353925  0.64134301  0.08795853  1
  C  C37  1  0.36525539  0.32841541  0.08530313  1
  C  C38  1  0.62982702  0.66174941  0.91863713  1
  C  C39  1  0.34447076  0.97467701  0.92129253  1
  C  C40  1  0.63020525  0.97467701  0.42129253  1
  C  C41  1  0.03192139  0.66174941  0.41863713  1
  C  C42  1  0.69325744  0.70141133  0.24725464  1
  C  C43  1  0.00815389  0.70141133  0.74725464  1
  C  C44  1  0.35992444  0.03474433  0.58058764  1
  C  C45  1  0.67482089  0.03474433  0.08058764  1
  C  C46  1  0.02659044  0.36807833  0.91392164  1
  C  C47  1  0.34148689  0.36807833  0.41392164  1
  C  C48  1  0.21232456  0.01199412  0.30639869  1
  C  C49  1  0.79763351  0.78648610  0.29787406  1
  C  C50  1  0.99291609  0.21493723  0.31028783  1
  C  C51  1  0.22202115  0.21493723  0.81028783  1
  C  C52  1  0.98885259  0.78648610  0.79787406  1
  C  C53  1  0.79966956  0.01199412  0.80639869  1
  C  C54  1  0.77902757  0.96438914  0.69604321  1
  C  C55  1  0.18430526  0.21725283  0.70027884  1
  C  C56  1  0.02931623  0.79759203  0.69297262  1
  C  C57  1  0.76827580  0.79759203  0.19297262  1
  C  C58  1  0.03294757  0.21725283  0.20027884  1
  C  C59  1  0.18536157  0.96438914  0.19604321  1
  C  C60  1  0.87899156  0.34532712  0.63973169  1
  C  C61  1  0.46430051  0.11981910  0.63120706  1
  C  C62  1  0.65958309  0.54827023  0.64362083  1
  C  C63  1  0.88868815  0.54827023  0.14362083  1
  C  C64  1  0.65551959  0.11981910  0.13120706  1
  C  C65  1  0.46633656  0.34532712  0.13973169  1
  C  C66  1  0.44569457  0.29772214  0.02937621  1
  C  C67  1  0.85097226  0.55058583  0.03361184  1
  C  C68  1  0.69598323  0.13092503  0.02630562  1
  C  C69  1  0.43494280  0.13092503  0.52630562  1
  C  C70  1  0.69961457  0.55058583  0.53361184  1
  C  C71  1  0.85202857  0.29772214  0.52937621  1
  C  C72  1  0.54565756  0.67866112  0.97306569  1
  C  C73  1  0.13096651  0.45315310  0.96454106  1
  C  C74  1  0.32624909  0.88160423  0.97695483  1
  C  C75  1  0.55535415  0.88160423  0.47695483  1
  C  C76  1  0.32218559  0.45315310  0.46454106  1
  C  C77  1  0.13300256  0.67866112  0.47306569  1
  C  C78  1  0.11236057  0.63105614  0.36271021  1
  C  C79  1  0.51763826  0.88391983  0.36694584  1
  C  C80  1  0.36264923  0.46425903  0.35963962  1
  C  C81  1  0.10160880  0.46425903  0.85963962  1
  C  C82  1  0.36628057  0.88391983  0.86694584  1
  C  C83  1  0.51869457  0.63105614  0.86271021  1
  C  C84  1  0.02132419  0.82140645  0.41373999  1
  C  C85  1  0.81017209  0.01066501  0.41521092  1
  C  C86  1  0.19096001  0.19989366  0.41114572  1
  C  C87  1  0.00893365  0.19989366  0.91114572  1
  C  C88  1  0.20049292  0.01066501  0.91521092  1
  C  C89  1  0.80008226  0.82140645  0.91373999  1
  C  C90  1  0.97360999  0.16360068  0.58643655  1
  C  C91  1  0.18922078  0.01215680  0.58594643  1
  C  C92  1  0.84802514  0.81622738  0.58783267  1
  C  C93  1  0.96820224  0.81622738  0.08783267  1
  C  C94  1  0.82293602  0.01215680  0.08594643  1
  C  C95  1  0.18999069  0.16360068  0.08643655  1
  C  C96  1  0.68799119  0.15473945  0.74707299  1
  C  C97  1  0.47683909  0.34399801  0.74854392  1
  C  C98  1  0.85762701  0.53322666  0.74447872  1
  C  C99  1  0.67560065  0.53322666  0.24447872  1
  C  C100  1  0.86715992  0.34399801  0.24854392  1
  C  C101  1  0.46674926  0.15473945  0.24707299  1
  C  C102  1  0.64027699  0.49693368  0.91976955  1
  C  C103  1  0.85588778  0.34548980  0.91927943  1
  C  C104  1  0.51469214  0.14956038  0.92116567  1
  C  C105  1  0.63486924  0.14956038  0.42116567  1
  C  C106  1  0.48960302  0.34548980  0.41927943  1
  C  C107  1  0.85665769  0.49693368  0.41976955  1
  C  C108  1  0.35465719  0.48807345  0.08040699  1
  C  C109  1  0.14350509  0.67733201  0.08187792  1
  C  C110  1  0.52429301  0.86656066  0.07781272  1
  C  C111  1  0.34226665  0.86656066  0.57781272  1
  C  C112  1  0.53382592  0.67733201  0.58187792  1
  C  C113  1  0.13341526  0.48807345  0.58040699  1
  C  C114  1  0.30694299  0.83026768  0.25310355  1
  C  C115  1  0.52255378  0.67882380  0.25261343  1
  C  C116  1  0.18135814  0.48289438  0.25449967  1
  C  C117  1  0.30153524  0.48289438  0.75449967  1
  C  C118  1  0.15626902  0.67882380  0.75261343  1
  C  C119  1  0.52332369  0.83026768  0.75310355  1
