# generated using pymatgen
data_CuNi2C15
_symmetry_space_group_name_H-M   'P 1'
_cell_length_a   8.73965448
_cell_length_b   8.77104653
_cell_length_c   22.64696874
_cell_angle_alpha   89.43413892
_cell_angle_beta   90.00000000
_cell_angle_gamma   119.88167630
_symmetry_Int_Tables_number   1
_chemical_formula_structural   CuNi2C15
_chemical_formula_sum   'Cu6 Ni12 C90'
_cell_volume   1505.13271482
_cell_formula_units_Z   6
loop_
 _symmetry_equiv_pos_site_id
 _symmetry_equiv_pos_as_xyz
  1  'x, y, z'
loop_
 _atom_site_type_symbol
 _atom_site_label
 _atom_site_symmetry_multiplicity
 _atom_site_fract_x
 _atom_site_fract_y
 _atom_site_fract_z
 _atom_site_occupancy
  C  C0  1  0.98381924  0.99306832  0.50138976  1
  C  C1  1  0.00924908  0.99306832  0.00138976  1
  C  C2  1  0.65048624  0.32640132  0.83472276  1
  C  C3  1  0.67591608  0.32640132  0.33472276  1
  C  C4  1  0.31715224  0.65973532  0.16805676  1
  C  C5  1  0.34258208  0.65973532  0.66805676  1
  C  C6  1  0.00487750  0.00583815  0.35347301  1
  C  C7  1  0.00096065  0.00583815  0.85347301  1
  C  C8  1  0.67154450  0.33917115  0.68680601  1
  C  C9  1  0.66762765  0.33917115  0.18680601  1
  C  C10  1  0.33821050  0.67250515  0.02014001  1
  C  C11  1  0.33429365  0.67250515  0.52014001  1
  C  C12  1  0.99433250  0.00385657  0.64843208  1
  C  C13  1  0.00952407  0.00385657  0.14843208  1
  C  C14  1  0.66099950  0.33718957  0.98176508  1
  C  C15  1  0.67619107  0.33718957  0.48176508  1
  C  C16  1  0.32766550  0.67052357  0.31509908  1
  C  C17  1  0.34285707  0.67052357  0.81509908  1
  Ni  Ni18  1  0.29959920  0.00928647  0.24985294  1
  Ni  Ni19  1  0.99276819  0.28910089  0.24963958  1
  Ni  Ni20  1  0.29633270  0.28910089  0.74963958  1
  Ni  Ni21  1  0.70968727  0.00928647  0.74985294  1
  Ni  Ni22  1  0.96626620  0.34261947  0.58318594  1
  Ni  Ni23  1  0.65943519  0.62243389  0.58297258  1
  Ni  Ni24  1  0.96299970  0.62243389  0.08297258  1
  Ni  Ni25  1  0.37635427  0.34261947  0.08318594  1
  Ni  Ni26  1  0.63293220  0.67595347  0.91651994  1
  Ni  Ni27  1  0.32610119  0.95576789  0.91630658  1
  Ni  Ni28  1  0.62966570  0.95576789  0.41630658  1
  Ni  Ni29  1  0.04302027  0.67595347  0.41651994  1
  Cu  Cu30  1  0.71116996  0.70413010  0.25093881  1
  Cu  Cu31  1  0.99296014  0.70413010  0.75093881  1
  Cu  Cu32  1  0.37783696  0.03746310  0.58427181  1
  Cu  Cu33  1  0.65962714  0.03746310  0.08427181  1
  Cu  Cu34  1  0.04450296  0.37079710  0.91760581  1
  Cu  Cu35  1  0.32629314  0.37079710  0.41760581  1
  C  C36  1  0.19666469  0.02553387  0.30436752  1
  C  C37  1  0.82027048  0.79314554  0.30331289  1
  C  C38  1  0.97203364  0.16923642  0.30499579  1
  C  C39  1  0.19720278  0.16923642  0.80499579  1
  C  C40  1  0.97287505  0.79314554  0.80331289  1
  C  C41  1  0.82886918  0.02553387  0.80436752  1
  C  C42  1  0.78032167  0.97045425  0.69420134  1
  C  C43  1  0.19238579  0.21070713  0.69367382  1
  C  C44  1  0.02533068  0.80586382  0.69588282  1
  C  C45  1  0.78053314  0.80586382  0.19588282  1
  C  C46  1  0.01832134  0.21070713  0.19367382  1
  C  C47  1  0.19013258  0.97045425  0.19420134  1
  C  C48  1  0.86333169  0.35886687  0.63770052  1
  C  C49  1  0.48693748  0.12647854  0.63664589  1
  C  C50  1  0.63870064  0.50256942  0.63832879  1
  C  C51  1  0.86386978  0.50256942  0.13832879  1
  C  C52  1  0.63954205  0.12647854  0.13664589  1
  C  C53  1  0.49553618  0.35886687  0.13770052  1
  C  C54  1  0.44698867  0.30378725  0.02753434  1
  C  C55  1  0.85905279  0.54404013  0.02700682  1
  C  C56  1  0.69199768  0.13919682  0.02921582  1
  C  C57  1  0.44720014  0.13919682  0.52921582  1
  C  C58  1  0.68498834  0.54404013  0.52700682  1
  C  C59  1  0.85679958  0.30378725  0.52753434  1
  C  C60  1  0.52999769  0.69220087  0.97103452  1
  C  C61  1  0.15360348  0.45981254  0.96997989  1
  C  C62  1  0.30536664  0.83590342  0.97166279  1
  C  C63  1  0.53053578  0.83590342  0.47166279  1
  C  C64  1  0.30620805  0.45981254  0.46997989  1
  C  C65  1  0.16220218  0.69220087  0.47103452  1
  C  C66  1  0.11365467  0.63712125  0.36086834  1
  C  C67  1  0.52571879  0.87737413  0.36034082  1
  C  C68  1  0.35866368  0.47253082  0.36254982  1
  C  C69  1  0.11386614  0.47253082  0.86254982  1
  C  C70  1  0.35165434  0.87737413  0.86034082  1
  C  C71  1  0.52346558  0.63712125  0.86086834  1
  C  C72  1  0.04166095  0.85298135  0.40994541  1
  C  C73  1  0.81459849  0.96776187  0.41026080  1
  C  C74  1  0.15923171  0.19805138  0.41306592  1
  C  C75  1  0.03881967  0.19805138  0.91306592  1
  C  C76  1  0.15316337  0.96776187  0.91026080  1
  C  C77  1  0.81132040  0.85298135  0.90994541  1
  C  C78  1  0.00488898  0.19141936  0.58842840  1
  C  C79  1  0.19622344  0.00379379  0.58960925  1
  C  C80  1  0.82110283  0.80577073  0.58852983  1
  C  C81  1  0.98466791  0.80577073  0.08852983  1
  C  C82  1  0.80757035  0.00379379  0.08960925  1
  C  C83  1  0.18653038  0.19141936  0.08842840  1
  C  C84  1  0.70832795  0.18631435  0.74327841  1
  C  C85  1  0.48126549  0.30109487  0.74359380  1
  C  C86  1  0.82589871  0.53138438  0.74639892  1
  C  C87  1  0.70548667  0.53138438  0.24639892  1
  C  C88  1  0.81983037  0.30109487  0.24359380  1
  C  C89  1  0.47798740  0.18631435  0.24327841  1
  C  C90  1  0.67155598  0.52475236  0.92176140  1
  C  C91  1  0.86289044  0.33712679  0.92294225  1
  C  C92  1  0.48776983  0.13910373  0.92186283  1
  C  C93  1  0.65133491  0.13910373  0.42186283  1
  C  C94  1  0.47423735  0.33712679  0.42294225  1
  C  C95  1  0.85319738  0.52475236  0.42176140  1
  C  C96  1  0.37499395  0.51964835  0.07661241  1
  C  C97  1  0.14793149  0.63442887  0.07692780  1
  C  C98  1  0.49256471  0.86471838  0.07973292  1
  C  C99  1  0.37215267  0.86471838  0.57973292  1
  C  C100  1  0.48649637  0.63442887  0.57692780  1
  C  C101  1  0.14465340  0.51964835  0.57661241  1
  C  C102  1  0.33822198  0.85808636  0.25509540  1
  C  C103  1  0.52955644  0.67046079  0.25627625  1
  C  C104  1  0.15443583  0.47243773  0.25519683  1
  C  C105  1  0.31800091  0.47243773  0.75519683  1
  C  C106  1  0.14090335  0.67046079  0.75627625  1
  C  C107  1  0.51986338  0.85808636  0.75509540  1
