# generated using pymatgen
data_Cu2NiC12
_symmetry_space_group_name_H-M   'P 1'
_cell_length_a   4.28544845
_cell_length_b   6.59708500
_cell_length_c   6.85823734
_cell_angle_alpha   90.00000000
_cell_angle_beta   93.52140953
_cell_angle_gamma   90.00000000
_symmetry_Int_Tables_number   1
_chemical_formula_structural   Cu2NiC12
_chemical_formula_sum   'Cu2 Ni1 C12'
_cell_volume   193.52635012
_cell_formula_units_Z   1
loop_
 _symmetry_equiv_pos_site_id
 _symmetry_equiv_pos_as_xyz
  1  'x, y, z'
loop_
 _atom_site_type_symbol
 _atom_site_label
 _atom_site_symmetry_multiplicity
 _atom_site_fract_x
 _atom_site_fract_y
 _atom_site_fract_z
 _atom_site_occupancy
  Ni  Ni0  1  0.15319100  0.25000000  0.98042700  1
  Cu  Cu1  1  0.23237500  0.75000000  0.73152100  1
  Cu  Cu2  1  0.70969600  0.25000000  0.27809500  1
  C  C3  1  0.48002600  0.75000000  0.24605700  1
  C  C4  1  0.53136400  0.25000000  0.73671500  1
  C  C5  1  0.68994100  0.55618900  0.25283700  1
  C  C6  1  0.68994100  0.94381100  0.25283700  1
  C  C7  1  0.20175800  0.25000000  0.26055100  1
  C  C8  1  0.81435200  0.75000000  0.72952800  1
  C  C9  1  0.70946600  0.25000000  0.94462200  1
  C  C10  1  0.75509400  0.25000000  0.57723000  1
  C  C11  1  0.28632200  0.75000000  0.42799300  1
  C  C12  1  0.30674000  0.06767300  0.75166600  1
  C  C13  1  0.30674000  0.43232700  0.75166600  1
  C  C14  1  0.28924500  0.75000000  0.04700200  1
