# generated using pymatgen
data_Cu3(NiC)2
_symmetry_space_group_name_H-M   'P 1'
_cell_length_a   8.24796800
_cell_length_b   8.24796800
_cell_length_c   9.29560400
_cell_angle_alpha   90.00000000
_cell_angle_beta   90.00000000
_cell_angle_gamma   90.00000000
_symmetry_Int_Tables_number   1
_chemical_formula_structural   Cu3(NiC)2
_chemical_formula_sum   'Cu12 Ni8 C8'
_cell_volume   632.37042262
_cell_formula_units_Z   4
loop_
 _symmetry_equiv_pos_site_id
 _symmetry_equiv_pos_as_xyz
  1  'x, y, z'
loop_
 _atom_site_type_symbol
 _atom_site_label
 _atom_site_symmetry_multiplicity
 _atom_site_fract_x
 _atom_site_fract_y
 _atom_site_fract_z
 _atom_site_occupancy
  C  C0  1  0.43545600  0.69203700  0.62666200  1
  C  C1  1  0.56454400  0.30796300  0.62666200  1
  C  C2  1  0.80796300  0.06454400  0.12666200  1
  C  C3  1  0.30796300  0.43545600  0.37333800  1
  C  C4  1  0.19203700  0.93545600  0.12666200  1
  C  C5  1  0.93545600  0.80796300  0.87333800  1
  C  C6  1  0.06454400  0.19203700  0.87333800  1
  C  C7  1  0.69203700  0.56454400  0.37333800  1
  Ni  Ni8  1  0.38953900  0.83185300  0.71859900  1
  Ni  Ni9  1  0.61046100  0.16814700  0.71859900  1
  Ni  Ni10  1  0.66814700  0.11046100  0.21859900  1
  Ni  Ni11  1  0.16814700  0.38953900  0.28140100  1
  Ni  Ni12  1  0.83185300  0.61046100  0.28140100  1
  Ni  Ni13  1  0.11046100  0.33185300  0.78140100  1
  Ni  Ni14  1  0.88953900  0.66814700  0.78140100  1
  Ni  Ni15  1  0.33185300  0.88953900  0.21859900  1
  Cu  Cu16  1  0.50000000  0.50000000  0.77225200  1
  Cu  Cu17  1  0.50000000  0.50000000  0.22774800  1
  Cu  Cu18  1  0.00000000  0.00000000  0.72774800  1
  Cu  Cu19  1  0.00000000  0.00000000  0.27225200  1
  Cu  Cu20  1  0.63673000  0.77581800  0.49955500  1
  Cu  Cu21  1  0.36327000  0.22418200  0.49955500  1
  Cu  Cu22  1  0.72418200  0.86327000  0.99955500  1
  Cu  Cu23  1  0.22418200  0.63673000  0.50044500  1
  Cu  Cu24  1  0.77581800  0.36327000  0.50044500  1
  Cu  Cu25  1  0.86327000  0.27581800  0.00044500  1
  Cu  Cu26  1  0.13673000  0.72418200  0.00044500  1
  Cu  Cu27  1  0.27581800  0.13673000  0.99955500  1
