# generated using pymatgen
data_Cu2Ni2C3
_symmetry_space_group_name_H-M   'P 1'
_cell_length_a   7.10408500
_cell_length_b   6.48583800
_cell_length_c   6.95787098
_cell_angle_alpha   66.25148898
_cell_angle_beta   90.00000000
_cell_angle_gamma   90.00000000
_symmetry_Int_Tables_number   1
_chemical_formula_structural   Cu2Ni2C3
_chemical_formula_sum   'Cu4 Ni4 C6'
_cell_volume   293.44349880
_cell_formula_units_Z   2
loop_
 _symmetry_equiv_pos_site_id
 _symmetry_equiv_pos_as_xyz
  1  'x, y, z'
loop_
 _atom_site_type_symbol
 _atom_site_label
 _atom_site_symmetry_multiplicity
 _atom_site_fract_x
 _atom_site_fract_y
 _atom_site_fract_z
 _atom_site_occupancy
  C  C0  1  0.86401300  0.42324300  0.23863700  1
  C  C1  1  0.36401300  0.57675700  0.26136300  1
  C  C2  1  0.13598700  0.57675700  0.76136300  1
  C  C3  1  0.63598700  0.42324300  0.73863700  1
  C  C4  1  0.50000000  0.00000000  0.50000000  1
  C  C5  1  0.00000000  0.00000000  0.00000000  1
  Ni  Ni6  1  0.62586500  0.77951300  0.96081400  1
  Ni  Ni7  1  0.12586500  0.22048700  0.53918600  1
  Ni  Ni8  1  0.87413500  0.77951300  0.46081400  1
  Ni  Ni9  1  0.37413500  0.22048700  0.03918600  1
  Cu  Cu10  1  0.60391200  0.32496400  0.43957100  1
  Cu  Cu11  1  0.10391200  0.67503600  0.06042900  1
  Cu  Cu12  1  0.39608800  0.67503600  0.56042900  1
  Cu  Cu13  1  0.89608800  0.32496400  0.93957100  1
