# generated using pymatgen
data_Cu5NiC32
_symmetry_space_group_name_H-M   'P 1'
_cell_length_a   9.26434074
_cell_length_b   9.28566187
_cell_length_c   23.77571294
_cell_angle_alpha   89.97611196
_cell_angle_beta   90.09099229
_cell_angle_gamma   120.03408607
_symmetry_Int_Tables_number   1
_chemical_formula_structural   Cu5NiC32
_chemical_formula_sum   'Cu15 Ni3 C96'
_cell_volume   1770.68661768
_cell_formula_units_Z   3
loop_
 _symmetry_equiv_pos_site_id
 _symmetry_equiv_pos_as_xyz
  1  'x, y, z'
loop_
 _atom_site_type_symbol
 _atom_site_label
 _atom_site_symmetry_multiplicity
 _atom_site_fract_x
 _atom_site_fract_y
 _atom_site_fract_z
 _atom_site_occupancy
  C  C0  1  0.36056389  0.36005878  0.25056524  1
  C  C1  1  0.32302199  0.34999662  0.59069381  1
  C  C2  1  0.02305060  0.69428284  0.58010570  1
  C  C3  1  0.00695730  0.68661586  0.92191703  1
  C  C4  1  0.69334581  0.02350576  0.90868879  1
  C  C5  1  0.29938255  0.29121607  0.92071750  1
  C  C6  1  0.95362545  0.97505519  0.49934180  1
  C  C7  1  0.02478943  0.02347307  0.00170267  1
  C  C8  1  0.66339985  0.32205582  0.82345435  1
  C  C9  1  0.68800286  0.32580723  0.32911496  1
  C  C10  1  0.33016065  0.68591985  0.16814372  1
  C  C11  1  0.39471651  0.68742822  0.66447117  1
  C  C12  1  0.99285302  0.99117019  0.35028251  1
  C  C13  1  0.00250859  0.00367972  0.84519089  1
  C  C14  1  0.98062390  0.99205135  0.65068352  1
  C  C15  1  0.99383711  0.99309062  0.14719540  1
  C  C16  1  0.66420396  0.33424239  0.68499876  1
  C  C17  1  0.67659920  0.33263930  0.18419285  1
  C  C18  1  0.32245316  0.65844889  0.01847719  1
  C  C19  1  0.34833201  0.67474820  0.51321808  1
  C  C20  1  0.33646587  0.67863320  0.32012281  1
  C  C21  1  0.66804252  0.32565525  0.98149944  1
  C  C22  1  0.66557339  0.34184459  0.48287902  1
  C  C23  1  0.31916698  0.66947227  0.81983202  1
  Ni  Ni24  1  0.66669875  0.63310975  0.58435002  1
  Ni  Ni25  1  0.03456606  0.36740780  0.91834727  1
  Ni  Ni26  1  0.33461305  0.96596800  0.91848595  1
  Cu  Cu27  1  0.30009934  0.00238392  0.24960372  1
  Cu  Cu28  1  0.68991085  0.69173130  0.24974339  1
  Cu  Cu29  1  0.00774632  0.30196072  0.25092719  1
  Cu  Cu30  1  0.30846234  0.31888101  0.75236913  1
  Cu  Cu31  1  0.00617967  0.69321172  0.75199855  1
  Cu  Cu32  1  0.67993102  0.98974640  0.75512959  1
  Cu  Cu33  1  0.96122088  0.33407332  0.58056089  1
  Cu  Cu34  1  0.36965577  0.04061426  0.58174344  1
  Cu  Cu35  1  0.95804581  0.63281390  0.08065570  1
  Cu  Cu36  1  0.67332396  0.03912467  0.08047682  1
  Cu  Cu37  1  0.37335041  0.33045617  0.08305529  1
  Cu  Cu38  1  0.62153379  0.65756239  0.91655355  1
  Cu  Cu39  1  0.64359967  0.98453464  0.41796898  1
  Cu  Cu40  1  0.33618184  0.35716559  0.41770570  1
  Cu  Cu41  1  0.02193778  0.66096046  0.42149728  1
  C  C42  1  0.21242843  0.01209379  0.30024387  1
  C  C43  1  0.78296855  0.77608060  0.30124792  1
  C  C44  1  0.99652273  0.20630183  0.30213572  1
  C  C45  1  0.21858223  0.22315033  0.80244489  1
  C  C46  1  0.99349390  0.77558789  0.80265205  1
  C  C47  1  0.76629723  -0.00204543  0.80802618  1
  C  C48  1  0.77053994  0.98013481  0.70535239  1
  C  C49  1  0.21609844  0.24120928  0.69946374  1
  C  C50  1  0.02031069  0.78749931  0.69993623  1
  C  C51  1  0.77516509  0.78513736  0.19873471  1
  C  C52  1  0.01801124  0.21590467  0.19985656  1
  C  C53  1  0.20568708  0.99132444  0.19798797  1
  C  C54  1  0.87819709  0.34035806  0.63220207  1
  C  C55  1  0.46885155  0.10762722  0.63307170  1
  C  C56  1  0.64443985  0.51661236  0.63753157  1
  C  C57  1  0.86384537  0.53995554  0.13029727  1
  C  C58  1  0.66723038  0.12814047  0.13040728  1
  C  C59  1  0.45846809  0.32788927  0.13489649  1
  C  C60  1  0.47587394  0.32934915  0.03177513  1
  C  C61  1  0.86356092  0.53587763  0.02766703  1
  C  C62  1  0.67425138  0.13911262  0.02787752  1
  C  C63  1  0.46950654  0.14059192  0.53126894  1
  C  C64  1  0.67464917  0.51813278  0.52802858  1
  C  C65  1  0.85274975  0.31480527  0.53020682  1
  C  C66  1  0.55954833  0.69701914  0.96701876  1
  C  C67  1  0.16777516  0.43238785  0.96853542  1
  C  C68  1  0.29562660  0.84325393  0.97036773  1
  C  C69  1  0.55987301  0.88759142  0.46876976  1
  C  C70  1  0.32397067  0.44213859  0.46861311  1
  C  C71  1  0.11088904  0.67375492  0.47467226  1
  C  C72  1  0.10808296  0.64463234  0.37230689  1
  C  C73  1  0.54675418  0.90711816  0.36678304  1
  C  C74  1  0.36086655  0.45607052  0.36627350  1
  C  C75  1  0.12790839  0.49991941  0.86361956  1
  C  C76  1  0.37261131  0.87521230  0.86271987  1
  C  C77  1  0.51123947  0.63140517  0.86691697  1
  C  C78  1  -0.00774480  0.80226234  0.41705225  1
  C  C79  1  0.81307130  0.00760407  0.41555440  1
  C  C80  1  0.19138880  0.18849142  0.41408708  1
  C  C81  1  0.97847424  0.17429735  0.90612994  1
  C  C82  1  0.17936583  0.99913602  0.90942252  1
  C  C83  1  0.79501131  0.79204558  0.90565717  1
  C  C84  1  0.99570657  0.19419553  0.58091228  1
  C  C85  1  0.21558077  0.05390518  0.58359926  1
  C  C86  1  0.84503573  0.80693160  0.58128048  1
  C  C87  1  0.96990642  0.79693026  0.07673697  1
  C  C88  1  0.82844807  0.03271290  0.07720456  1
  C  C89  1  0.20770264  0.17878435  0.07799373  1
  C  C90  1  0.65491696  0.13455417  0.75184754  1
  C  C91  1  0.47654093  0.33660716  0.75216357  1
  C  C92  1  0.86523857  0.52048140  0.74990654  1
  C  C93  1  0.66554625  0.51861948  0.24882031  1
  C  C94  1  0.86232751  0.32813902  0.24918205  1
  C  C95  1  0.46639518  0.16151340  0.24861429  1
  C  C96  1  0.62380251  0.49571708  0.92329165  1
  C  C97  1  0.85973224  0.37828813  0.92765611  1
  C  C98  1  0.51094898  0.15215217  0.92471924  1
  C  C99  1  0.65934653  0.15549746  0.42295873  1
  C  C100  1  0.49209481  0.33926586  0.42384456  1
  C  C101  1  0.85143272  0.50021725  0.42384097  1
  C  C102  1  0.36292189  0.48329703  0.08146083  1
  C  C103  1  0.12382337  0.64705757  0.08183112  1
  C  C104  1  0.52434353  0.87215126  0.07832290  1
  C  C105  1  0.32089221  0.86337891  0.57496025  1
  C  C106  1  0.49680780  0.64410277  0.57960895  1
  C  C107  1  0.12246580  0.49361549  0.57521454  1
  C  C108  1  0.32567473  0.85657158  0.25211847  1
  C  C109  1  0.51662036  0.66892068  0.25132190  1
  C  C110  1  0.16715342  0.46822840  0.25329220  1
  C  C111  1  0.32712507  0.49109568  0.75661471  1
  C  C112  1  0.16755361  0.68590215  0.75566444  1
  C  C113  1  0.51137198  0.83046407  0.75520931  1
