# generated using pymatgen
data_Cu3Ni3C35
_symmetry_space_group_name_H-M   'P 1'
_cell_length_a   9.09271206
_cell_length_b   9.10737573
_cell_length_c   22.35254367
_cell_angle_alpha   89.56606036
_cell_angle_beta   90.50122009
_cell_angle_gamma   120.15563167
_symmetry_Int_Tables_number   1
_chemical_formula_structural   Cu3Ni3C35
_chemical_formula_sum   'Cu9 Ni9 C105'
_cell_volume   1600.44776057
_cell_formula_units_Z   3
loop_
 _symmetry_equiv_pos_site_id
 _symmetry_equiv_pos_as_xyz
  1  'x, y, z'
loop_
 _atom_site_type_symbol
 _atom_site_label
 _atom_site_symmetry_multiplicity
 _atom_site_fract_x
 _atom_site_fract_y
 _atom_site_fract_z
 _atom_site_occupancy
  C  C0  1  0.63344149  0.00136219  0.23970147  1
  C  C1  1  0.37934920  0.35422988  0.25401005  1
  C  C2  1  0.99037104  0.65416637  0.25041381  1
  C  C3  1  0.66085038  0.63894724  0.75178335  1
  C  C4  1  0.98358909  0.34840311  0.75110409  1
  C  C5  1  0.36086235  0.01241234  0.75057082  1
  C  C6  1  0.29380011  0.32947030  0.58714352  1
  C  C7  1  0.03709267  0.70745879  0.58704325  1
  C  C8  1  0.67272708  0.96828316  0.59329797  1
  C  C9  1  0.30854109  0.96900745  0.09163068  1
  C  C10  1  0.66746667  0.71905752  0.08138089  1
  C  C11  1  0.02515395  0.32110890  0.08120786  1
  C  C12  1  0.97963888  0.31020394  0.41990854  1
  C  C13  1  0.31716670  0.03574202  0.41271296  1
  C  C14  1  0.70912734  0.65951737  0.40904171  1
  C  C15  1  0.01280213  0.00066913  0.49443111  1
  C  C16  1  0.97627261  0.98998422  0.99118266  1
  C  C17  1  0.66717688  0.33797983  0.82163263  1
  C  C18  1  0.65587710  0.34201391  0.33288524  1
  C  C19  1  0.35410472  0.68925593  0.16468327  1
  C  C20  1  0.32936588  0.66701848  0.66792990  1
  C  C21  1  0.00933275  0.98898919  0.35034706  1
  C  C22  1  0.98757680  0.98635713  0.84550691  1
  C  C23  1  0.99896516  0.99633925  0.66592887  1
  C  C24  1  0.98590948  0.98608301  0.15297332  1
  C  C25  1  0.66471087  0.33415273  0.68970471  1
  C  C26  1  0.65574571  0.32524665  0.18669090  1
  C  C27  1  0.66702677  0.34316994  0.47841521  1
  C  C28  1  0.35288843  0.68164760  0.01457489  1
  C  C29  1  0.32498636  0.65775856  0.51309415  1
  C  C30  1  0.66917307  0.32685311  0.97400910  1
  C  C31  1  0.33007052  0.66259538  0.31574389  1
  C  C32  1  0.34662074  0.66231147  0.80984646  1
  Ni  Ni33  1  0.29478959  0.00293626  0.24911600  1
  Ni  Ni34  1  0.70550891  0.70470956  0.24988547  1
  Ni  Ni35  1  0.28905559  0.28261307  0.74924123  1
  Ni  Ni36  1  -0.00009916  0.70543662  0.74861864  1
  Ni  Ni37  1  0.71336512  0.00724703  0.74818332  1
  Ni  Ni38  1  0.66759349  0.03751080  0.08666374  1
  Ni  Ni39  1  0.63874713  0.67904206  0.92169941  1
  Ni  Ni40  1  0.32759989  0.36339139  0.42126100  1
  Ni  Ni41  1  0.03506182  0.66678227  0.42163966  1
  Cu  Cu42  1  0.00125862  0.29264234  0.24990325  1
  Cu  Cu43  1  0.95769760  0.33206788  0.58196776  1
  Cu  Cu44  1  0.37728763  0.04087172  0.58117617  1
  Cu  Cu45  1  0.66708781  0.62959312  0.58152652  1
  Cu  Cu46  1  0.95703766  0.62034567  0.08276539  1
  Cu  Cu47  1  0.37465744  0.33350407  0.08288657  1
  Cu  Cu48  1  0.04598647  0.37551457  0.92001704  1
  Cu  Cu49  1  0.32826738  0.95700552  0.91881498  1
  Cu  Cu50  1  0.62467357  0.95827578  0.41880572  1
  C  C51  1  0.21405230  0.03567981  0.30786710  1
  C  C52  1  0.81442405  0.79230431  0.30976557  1
  C  C53  1  0.97607955  0.19135783  0.30409036  1
  C  C54  1  0.20328995  0.16543444  0.80626800  1
  C  C55  1  0.95862859  0.78887435  0.80335452  1
  C  C56  1  0.83408331  0.04637415  0.80470359  1
  C  C57  1  0.76720281  0.94707814  0.68743135  1
  C  C58  1  0.17905043  0.22838050  0.68691889  1
  C  C59  1  0.05584428  0.81852794  0.68670255  1
  C  C60  1  0.77042691  0.82094227  0.18958450  1
  C  C61  1  0.03233576  0.21944276  0.19576245  1
  C  C62  1  0.17670557  0.95866994  0.18866369  1
  C  C63  1  0.87371069  0.35055435  0.63532517  1
  C  C64  1  0.47850276  0.12520755  0.63532217  1
  C  C65  1  0.64375201  0.52481720  0.63534096  1
  C  C66  1  0.88021593  0.52080628  0.13756089  1
  C  C67  1  0.64387028  0.13168711  0.14328769  1
  C  C68  1  0.47979690  0.36536996  0.13733307  1
  C  C69  1  0.46509565  0.31318581  0.03022265  1
  C  C70  1  0.84365311  0.53172349  0.02949485  1
  C  C71  1  0.68581247  0.17063761  0.02813063  1
  C  C72  1  0.46300178  0.14249650  0.52677639  1
  C  C73  1  0.68489064  0.54526895  0.52751007  1
  C  C74  1  0.85521349  0.31416048  0.52713500  1
  C  C75  1  0.54410453  0.68175858  0.98123399  1
  C  C76  1  0.13927725  0.46377378  0.97489719  1
  C  C77  1  0.31410179  0.86018766  0.97377036  1
  C  C78  1  0.54646758  0.85125457  0.47196538  1
  C  C79  1  0.30561995  0.45529753  0.47884638  1
  C  C80  1  0.15933327  0.70427586  0.47814774  1
  C  C81  1  0.14417890  0.64672840  0.36158451  1
  C  C82  1  0.51463633  0.87442451  0.36354074  1
  C  C83  1  0.35601053  0.49709897  0.36148922  1
  C  C84  1  0.12051248  0.48207819  0.86578850  1
  C  C85  1  0.36031114  0.88208596  0.86539540  1
  C  C86  1  0.50626110  0.64242216  0.86269429  1
  C  C87  1  0.00954616  0.82972262  0.41405611  1
  C  C88  1  0.79528273  0.98059320  0.41070912  1
  C  C89  1  0.15180088  0.18456824  0.41115410  1
  C  C90  1  0.02188530  0.20702044  0.91580127  1
  C  C91  1  0.18784362  0.98762574  0.91367241  1
  C  C92  1  0.82560520  0.83529609  0.91320114  1
  C  C93  1  0.97594489  0.17773744  0.58427462  1
  C  C94  1  0.20376595  0.02133753  0.58257535  1
  C  C95  1  0.82354223  0.80155818  0.58435546  1
  C  C96  1  0.97561348  0.79190931  0.08399093  1
  C  C97  1  0.84431661  0.02975261  0.08432367  1
  C  C98  1  0.20607171  0.17496459  0.08651246  1
  C  C99  1  0.66818848  0.15689052  0.74033611  1
  C  C100  1  0.48541274  0.32904365  0.74229427  1
  C  C101  1  0.84395322  0.51160249  0.74062799  1
  C  C102  1  0.68388054  0.51541754  0.24319652  1
  C  C103  1  0.85659515  0.32314439  0.24320452  1
  C  C104  1  0.48989895  0.16171091  0.24603269  1
  C  C105  1  0.64546078  0.49115893  0.92745287  1
  C  C106  1  0.86668006  0.36128865  0.92366274  1
  C  C107  1  0.49425799  0.13526878  0.92426750  1
  C  C108  1  0.63509771  0.12552410  0.42232934  1
  C  C109  1  0.49891889  0.34819198  0.41945721  1
  C  C110  1  0.85532939  0.48640458  0.41940622  1
  C  C111  1  0.34539223  0.48019370  0.07642631  1
  C  C112  1  0.12713169  0.63501462  0.07538334  1
  C  C113  1  0.49264484  0.85159725  0.08006278  1
  C  C114  1  0.36262066  0.86794650  0.57913722  1
  C  C115  1  0.51329921  0.65168777  0.57748106  1
  C  C116  1  0.13241437  0.48900092  0.57984520  1
  C  C117  1  0.31267191  0.82470565  0.25843044  1
  C  C118  1  0.50671418  0.67895574  0.25878265  1
  C  C119  1  0.16174063  0.46844108  0.25477983  1
  C  C120  1  0.30726090  0.48038915  0.75976351  1
  C  C121  1  0.17417824  0.68680667  0.76446300  1
  C  C122  1  0.51522481  0.82987369  0.75994013  1
