# generated using pymatgen
data_Cu3NiC9
_symmetry_space_group_name_H-M   'P 1'
_cell_length_a   6.63104754
_cell_length_b   6.63104896
_cell_length_c   6.75483265
_cell_angle_alpha   75.54587629
_cell_angle_beta   104.45412486
_cell_angle_gamma   146.86366036
_symmetry_Int_Tables_number   1
_chemical_formula_structural   Cu3NiC9
_chemical_formula_sum   'Cu3 Ni1 C9'
_cell_volume   156.75649463
_cell_formula_units_Z   1
loop_
 _symmetry_equiv_pos_site_id
 _symmetry_equiv_pos_as_xyz
  1  'x, y, z'
loop_
 _atom_site_type_symbol
 _atom_site_label
 _atom_site_symmetry_multiplicity
 _atom_site_fract_x
 _atom_site_fract_y
 _atom_site_fract_z
 _atom_site_occupancy
  Ni  Ni0  1  0.97966300  0.02033700  0.98265400  1
  Cu  Cu1  1  0.40583800  0.59416200  0.32727700  1
  Cu  Cu2  1  0.60384500  0.39615500  0.69541100  1
  Cu  Cu3  1  0.30064700  0.69935300  0.71951900  1
  C  C4  1  0.69916700  0.30083300  0.27621400  1
  C  C5  1  0.15088400  0.84911700  0.74005100  1
  C  C6  1  0.24578300  0.75421700  0.36744300  1
  C  C7  1  0.38389300  0.61610700  0.97667800  1
  C  C8  1  0.43976200  0.56023800  0.62751300  1
  C  C9  1  0.56662700  0.43337300  0.38750700  1
  C  C10  1  0.59140500  0.40859500  0.99971900  1
  C  C11  1  0.76950600  0.23049400  0.66245100  1
  C  C12  1  0.86297800  0.13702200  0.24756500  1
