# generated using pymatgen
data_Cu(NiC3)2
_symmetry_space_group_name_H-M   'P 1'
_cell_length_a   5.72071419
_cell_length_b   6.61785629
_cell_length_c   7.05279980
_cell_angle_alpha   117.77236044
_cell_angle_beta   113.68329108
_cell_angle_gamma   90.49293358
_symmetry_Int_Tables_number   1
_chemical_formula_structural   Cu(NiC3)2
_chemical_formula_sum   'Cu1 Ni2 C6'
_cell_volume   209.94595722
_cell_formula_units_Z   1
loop_
 _symmetry_equiv_pos_site_id
 _symmetry_equiv_pos_as_xyz
  1  'x, y, z'
loop_
 _atom_site_type_symbol
 _atom_site_label
 _atom_site_symmetry_multiplicity
 _atom_site_fract_x
 _atom_site_fract_y
 _atom_site_fract_z
 _atom_site_occupancy
  C  C0  1  0.50101200  0.00105100  0.00171900  1
  C  C1  1  0.00036500  0.00017800  0.00047600  1
  Ni  Ni2  1  0.77420900  0.27442400  0.54909500  1
  Ni  Ni3  1  0.22566800  0.72546700  0.45113400  1
  Cu  Cu4  1  0.49744500  0.49799700  0.99529300  1
  C  C5  1  0.89368200  0.91506000  0.24495000  1
  C  C6  1  0.65222000  0.08319900  0.75605000  1
  C  C7  1  0.10398800  0.67272400  0.75592700  1
  C  C8  1  0.35141100  0.32990000  0.24535500  1
