# generated using pymatgen
data_CuNiC16
_symmetry_space_group_name_H-M   'P 1'
_cell_length_a   9.34855610
_cell_length_b   9.34855575
_cell_length_c   25.00755336
_cell_angle_alpha   90.00000000
_cell_angle_beta   90.00000000
_cell_angle_gamma   120.00000123
_symmetry_Int_Tables_number   1
_chemical_formula_structural   CuNiC16
_chemical_formula_sum   'Cu6 Ni6 C96'
_cell_volume   1892.73969967
_cell_formula_units_Z   6
loop_
 _symmetry_equiv_pos_site_id
 _symmetry_equiv_pos_as_xyz
  1  'x, y, z'
loop_
 _atom_site_type_symbol
 _atom_site_label
 _atom_site_symmetry_multiplicity
 _atom_site_fract_x
 _atom_site_fract_y
 _atom_site_fract_z
 _atom_site_occupancy
  Ni  Ni0  1  0.00000000  -0.00000000  0.49575549  1
  Ni  Ni1  1  0.00000000  -0.00000000  0.99575549  1
  Ni  Ni2  1  0.66666700  0.33333300  0.82908849  1
  Ni  Ni3  1  0.66666700  0.33333300  0.32908849  1
  Ni  Ni4  1  0.33333300  0.66666700  0.16242249  1
  Ni  Ni5  1  0.33333300  0.66666700  0.66242249  1
  Cu  Cu6  1  0.00000000  -0.00000000  0.34975595  1
  Cu  Cu7  1  0.00000000  -0.00000000  0.84975595  1
  Cu  Cu8  1  0.66666700  0.33333300  0.68308895  1
  Cu  Cu9  1  0.66666700  0.33333300  0.18308895  1
  Cu  Cu10  1  0.33333300  0.66666700  0.01642295  1
  Cu  Cu11  1  0.33333300  0.66666700  0.51642295  1
  C  C12  1  0.00000000  -0.00000000  0.64952325  1
  C  C13  1  0.00000000  -0.00000000  0.14952325  1
  C  C14  1  0.66666700  0.33333300  0.98285625  1
  C  C15  1  0.66666700  0.33333300  0.48285625  1
  C  C16  1  0.33333300  0.66666700  0.31619025  1
  C  C17  1  0.33333300  0.66666700  0.81619025  1
  C  C18  1  0.30039312  0.00608436  0.25090123  1
  C  C19  1  0.70569124  0.69960688  0.25090123  1
  C  C20  1  0.99391564  0.29430876  0.25090123  1
  C  C21  1  0.30039312  0.29430876  0.75090123  1
  C  C22  1  0.99391564  0.69960688  0.75090123  1
  C  C23  1  0.70569124  0.00608436  0.75090123  1
  C  C24  1  0.96706012  0.33941736  0.58423423  1
  C  C25  1  0.37235824  0.03293988  0.58423423  1
  C  C26  1  0.66058264  0.62764176  0.58423423  1
  C  C27  1  0.96706012  0.62764176  0.08423423  1
  C  C28  1  0.66058264  0.03293988  0.08423423  1
  C  C29  1  0.37235824  0.33941736  0.08423423  1
  C  C30  1  0.63372612  0.67275136  0.91756823  1
  C  C31  1  0.03902424  0.36627388  0.91756823  1
  C  C32  1  0.32724864  0.96097576  0.91756823  1
  C  C33  1  0.63372612  0.96097576  0.41756823  1
  C  C34  1  0.32724864  0.36627388  0.41756823  1
  C  C35  1  0.03902424  0.67275136  0.41756823  1
  C  C36  1  0.21656538  0.02058957  0.29862797  1
  C  C37  1  0.80402419  0.78343462  0.29862797  1
  C  C38  1  0.97941043  0.19597581  0.29862797  1
  C  C39  1  0.21656538  0.19597581  0.79862797  1
  C  C40  1  0.97941043  0.78343462  0.79862797  1
  C  C41  1  0.80402419  0.02058957  0.79862797  1
  C  C42  1  0.78370152  0.98426057  0.70180403  1
  C  C43  1  0.20055905  0.21629848  0.70180403  1
  C  C44  1  0.01573943  0.79944095  0.70180403  1
  C  C45  1  0.78370152  0.79944095  0.20180403  1
  C  C46  1  0.01573943  0.21629848  0.20180403  1
  C  C47  1  0.20055905  0.98426057  0.20180403  1
  C  C48  1  0.88323238  0.35392257  0.63196097  1
  C  C49  1  0.47069119  0.11676762  0.63196097  1
  C  C50  1  0.64607743  0.52930881  0.63196097  1
  C  C51  1  0.88323238  0.52930881  0.13196097  1
  C  C52  1  0.64607743  0.11676762  0.13196097  1
  C  C53  1  0.47069119  0.35392257  0.13196097  1
  C  C54  1  0.45036852  0.31759357  0.03513703  1
  C  C55  1  0.86722605  0.54963148  0.03513703  1
  C  C56  1  0.68240643  0.13277395  0.03513703  1
  C  C57  1  0.45036852  0.13277395  0.53513703  1
  C  C58  1  0.68240643  0.54963148  0.53513703  1
  C  C59  1  0.86722605  0.31759357  0.53513703  1
  C  C60  1  0.54989838  0.68725657  0.96529497  1
  C  C61  1  0.13735719  0.45010162  0.96529497  1
  C  C62  1  0.31274343  0.86264281  0.96529497  1
  C  C63  1  0.54989838  0.86264281  0.46529497  1
  C  C64  1  0.31274343  0.45010162  0.46529497  1
  C  C65  1  0.13735719  0.68725657  0.46529497  1
  C  C66  1  0.11703452  0.65092757  0.36847103  1
  C  C67  1  0.53389205  0.88296548  0.36847103  1
  C  C68  1  0.34907243  0.46610795  0.36847103  1
  C  C69  1  0.11703452  0.46610795  0.86847103  1
  C  C70  1  0.34907243  0.88296548  0.86847103  1
  C  C71  1  0.53389205  0.65092757  0.86847103  1
  C  C72  1  0.02168122  0.82095517  0.41248582  1
  C  C73  1  0.79927395  0.97831878  0.41248582  1
  C  C74  1  0.17904483  0.20072605  0.41248582  1
  C  C75  1  0.02168122  0.20072605  0.91248582  1
  C  C76  1  0.17904483  0.97831878  0.91248582  1
  C  C77  1  0.79927395  0.82095517  0.91248582  1
  C  C78  1  0.98371126  0.18809565  0.58783606  1
  C  C79  1  0.20438440  0.01628874  0.58783606  1
  C  C80  1  0.81190435  0.79561560  0.58783606  1
  C  C81  1  0.98371126  0.79561560  0.08783606  1
  C  C82  1  0.81190435  0.01628874  0.08783606  1
  C  C83  1  0.20438440  0.18809565  0.08783606  1
  C  C84  1  0.68834822  0.15428817  0.74581882  1
  C  C85  1  0.46594095  0.31165178  0.74581882  1
  C  C86  1  0.84571183  0.53405905  0.74581882  1
  C  C87  1  0.68834822  0.53405905  0.24581882  1
  C  C88  1  0.84571183  0.31165178  0.24581882  1
  C  C89  1  0.46594095  0.15428817  0.24581882  1
  C  C90  1  0.65037826  0.52142865  0.92116906  1
  C  C91  1  0.87105140  0.34962174  0.92116906  1
  C  C92  1  0.47857135  0.12894860  0.92116906  1
  C  C93  1  0.65037826  0.12894860  0.42116906  1
  C  C94  1  0.47857135  0.34962174  0.42116906  1
  C  C95  1  0.87105140  0.52142865  0.42116906  1
  C  C96  1  0.35501422  0.48762217  0.07915282  1
  C  C97  1  0.13260695  0.64498578  0.07915282  1
  C  C98  1  0.51237783  0.86739305  0.07915282  1
  C  C99  1  0.35501422  0.86739305  0.57915282  1
  C  C100  1  0.51237783  0.64498578  0.57915282  1
  C  C101  1  0.13260695  0.48762217  0.57915282  1
  C  C102  1  0.31704426  0.85476265  0.25450306  1
  C  C103  1  0.53771740  0.68295574  0.25450306  1
  C  C104  1  0.14523735  0.46228260  0.25450306  1
  C  C105  1  0.31704426  0.46228260  0.75450306  1
  C  C106  1  0.14523735  0.68295574  0.75450306  1
  C  C107  1  0.53771740  0.85476265  0.75450306  1
