# generated using pymatgen
data_Cu4NiC
_symmetry_space_group_name_H-M   'P 1'
_cell_length_a   4.04339582
_cell_length_b   5.60644106
_cell_length_c   6.75021811
_cell_angle_alpha   114.52990471
_cell_angle_beta   107.33430986
_cell_angle_gamma   90.01774932
_symmetry_Int_Tables_number   1
_chemical_formula_structural   Cu4NiC
_chemical_formula_sum   'Cu12 Ni3 C3'
_cell_volume   131.52575771
_cell_formula_units_Z   3
loop_
 _symmetry_equiv_pos_site_id
 _symmetry_equiv_pos_as_xyz
  1  'x, y, z'
loop_
 _atom_site_type_symbol
 _atom_site_label
 _atom_site_symmetry_multiplicity
 _atom_site_fract_x
 _atom_site_fract_y
 _atom_site_fract_z
 _atom_site_occupancy
  C  C0  1  0.99984000  0.53458800  0.99980800  1
  C  C1  1  0.35531100  0.89394800  0.67446100  1
  C  C2  1  0.64452500  0.21950200  0.32558700  1
  Ni  Ni3  1  0.99995500  0.05216200  0.00003700  1
  Ni  Ni4  1  0.32665700  0.38659000  0.66769700  1
  Ni  Ni5  1  0.67350000  0.71886800  0.33233300  1
  Cu  Cu6  1  0.90456200  0.09129200  0.81337300  1
  Cu  Cu7  1  0.09548300  0.27796700  0.18663700  1
  Cu  Cu8  1  0.74503500  0.91018400  0.99516900  1
  Cu  Cu9  1  0.25479600  0.91515200  0.00482300  1
  Cu  Cu10  1  0.08069800  0.52524200  0.67760000  1
  Cu  Cu11  1  0.91960300  0.84752800  0.32237000  1
  Cu  Cu12  1  0.41238400  0.33485100  0.84233100  1
  Cu  Cu13  1  0.58739500  0.49249800  0.15767200  1
  Cu  Cu14  1  0.58482100  0.52135200  0.67259600  1
  Cu  Cu15  1  0.41548600  0.84870500  0.32755500  1
  Cu  Cu16  1  0.23449200  0.17541000  0.48073800  1
  Cu  Cu17  1  0.76545500  0.69456200  0.51921400  1
