# generated using pymatgen
data_CuNiC19
_symmetry_space_group_name_H-M   'P 1'
_cell_length_a   9.29365012
_cell_length_b   9.29364978
_cell_length_c   22.73011629
_cell_angle_alpha   90.00000000
_cell_angle_beta   90.00000000
_cell_angle_gamma   120.00000120
_symmetry_Int_Tables_number   1
_chemical_formula_structural   CuNiC19
_chemical_formula_sum   'Cu6 Ni6 C114'
_cell_volume   1700.21915750
_cell_formula_units_Z   6
loop_
 _symmetry_equiv_pos_site_id
 _symmetry_equiv_pos_as_xyz
  1  'x, y, z'
loop_
 _atom_site_type_symbol
 _atom_site_label
 _atom_site_symmetry_multiplicity
 _atom_site_fract_x
 _atom_site_fract_y
 _atom_site_fract_z
 _atom_site_occupancy
  C  C0  1  0.63784875  0.00595548  0.24829809  1
  C  C1  1  0.36810673  0.36215125  0.24829809  1
  C  C2  1  0.99404452  0.63189327  0.24829809  1
  C  C3  1  0.63784875  0.63189327  0.74829809  1
  C  C4  1  0.99404452  0.36215125  0.74829809  1
  C  C5  1  0.36810673  0.00595548  0.74829809  1
  C  C6  1  0.30451575  0.33928848  0.58163109  1
  C  C7  1  0.03477373  0.69548425  0.58163109  1
  C  C8  1  0.66071152  0.96522627  0.58163109  1
  C  C9  1  0.30451575  0.96522627  0.08163109  1
  C  C10  1  0.66071152  0.69548425  0.08163109  1
  C  C11  1  0.03477373  0.33928848  0.08163109  1
  C  C12  1  0.97118175  0.67262248  0.91496509  1
  C  C13  1  0.70143973  0.02881825  0.91496509  1
  C  C14  1  0.32737752  0.29856027  0.91496509  1
  C  C15  1  0.97118175  0.29856027  0.41496509  1
  C  C16  1  0.32737752  0.02881825  0.41496509  1
  C  C17  1  0.70143973  0.67262248  0.41496509  1
  C  C18  1  -0.00000000  -0.00000000  0.49903015  1
  C  C19  1  -0.00000000  -0.00000000  0.99903015  1
  C  C20  1  0.66666700  0.33333300  0.83236315  1
  C  C21  1  0.66666700  0.33333300  0.33236315  1
  C  C22  1  0.33333300  0.66666700  0.16569715  1
  C  C23  1  0.33333300  0.66666700  0.66569715  1
  Ni  Ni24  1  -0.00000000  -0.00000000  0.34818816  1
  Ni  Ni25  1  -0.00000000  -0.00000000  0.84818816  1
  Ni  Ni26  1  0.66666700  0.33333300  0.68152116  1
  Ni  Ni27  1  0.66666700  0.33333300  0.18152116  1
  Ni  Ni28  1  0.33333300  0.66666700  0.01485516  1
  Ni  Ni29  1  0.33333300  0.66666700  0.51485516  1
  Cu  Cu30  1  -0.00000000  -0.00000000  0.65104886  1
  Cu  Cu31  1  -0.00000000  -0.00000000  0.15104886  1
  Cu  Cu32  1  0.66666700  0.33333300  0.98438186  1
  Cu  Cu33  1  0.66666700  0.33333300  0.48438186  1
  Cu  Cu34  1  0.33333300  0.66666700  0.31771586  1
  Cu  Cu35  1  0.33333300  0.66666700  0.81771586  1
  C  C36  1  0.29694449  0.99295922  0.25060094  1
  C  C37  1  0.69601474  0.70305551  0.25060094  1
  C  C38  1  0.00704078  0.30398526  0.25060094  1
  C  C39  1  0.29694449  0.30398526  0.75060094  1
  C  C40  1  0.00704078  0.70305551  0.75060094  1
  C  C41  1  0.69601474  0.99295922  0.75060094  1
  C  C42  1  0.96361149  0.32629222  0.58393394  1
  C  C43  1  0.36268174  0.03638851  0.58393394  1
  C  C44  1  0.67370778  0.63731826  0.58393394  1
  C  C45  1  0.96361149  0.63731826  0.08393394  1
  C  C46  1  0.67370778  0.03638851  0.08393394  1
  C  C47  1  0.36268174  0.32629222  0.08393394  1
  C  C48  1  0.63027749  0.65962622  0.91726794  1
  C  C49  1  0.02934774  0.36972251  0.91726794  1
  C  C50  1  0.34037378  0.97065226  0.91726794  1
  C  C51  1  0.63027749  0.97065226  0.41726794  1
  C  C52  1  0.34037378  0.36972251  0.41726794  1
  C  C53  1  0.02934774  0.65962622  0.41726794  1
  C  C54  1  0.22298507  0.01976060  0.30667036  1
  C  C55  1  0.79677553  0.77701493  0.30667036  1
  C  C56  1  0.98023940  0.20322447  0.30667036  1
  C  C57  1  0.22298507  0.20322447  0.80667036  1
  C  C58  1  0.98023940  0.77701493  0.80667036  1
  C  C59  1  0.79677553  0.01976060  0.80667036  1
  C  C60  1  0.78853927  0.97197537  0.69599734  1
  C  C61  1  0.18343611  0.21146073  0.69599734  1
  C  C62  1  0.02802463  0.81656389  0.69599734  1
  C  C63  1  0.78853927  0.81656389  0.19599734  1
  C  C64  1  0.02802463  0.21146073  0.19599734  1
  C  C65  1  0.18343611  0.97197537  0.19599734  1
  C  C66  1  0.88965207  0.35309360  0.64000336  1
  C  C67  1  0.46344253  0.11034793  0.64000336  1
  C  C68  1  0.64690640  0.53655747  0.64000336  1
  C  C69  1  0.88965207  0.53655747  0.14000336  1
  C  C70  1  0.64690640  0.11034793  0.14000336  1
  C  C71  1  0.46344253  0.35309360  0.14000336  1
  C  C72  1  0.45520627  0.30530837  0.02933034  1
  C  C73  1  0.85010311  0.54479373  0.02933034  1
  C  C74  1  0.69469163  0.14989689  0.02933034  1
  C  C75  1  0.45520627  0.14989689  0.52933034  1
  C  C76  1  0.69469163  0.54479373  0.52933034  1
  C  C77  1  0.85010311  0.30530837  0.52933034  1
  C  C78  1  0.55631807  0.68642760  0.97333736  1
  C  C79  1  0.13010853  0.44368193  0.97333736  1
  C  C80  1  0.31357240  0.86989147  0.97333736  1
  C  C81  1  0.55631807  0.86989147  0.47333736  1
  C  C82  1  0.31357240  0.44368193  0.47333736  1
  C  C83  1  0.13010853  0.68642760  0.47333736  1
  C  C84  1  0.12187227  0.63864237  0.36266434  1
  C  C85  1  0.51676911  0.87812773  0.36266434  1
  C  C86  1  0.36135763  0.48323089  0.36266434  1
  C  C87  1  0.12187227  0.48323089  0.86266434  1
  C  C88  1  0.36135763  0.87812773  0.86266434  1
  C  C89  1  0.51676911  0.63864237  0.86266434  1
  C  C90  1  0.00350069  0.81064042  0.41194466  1
  C  C91  1  0.80713973  0.99649931  0.41194466  1
  C  C92  1  0.18935958  0.19286027  0.41194466  1
  C  C93  1  0.00350069  0.19286027  0.91194466  1
  C  C94  1  0.18935958  0.99649931  0.91194466  1
  C  C95  1  0.80713973  0.81064042  0.91194466  1
  C  C96  1  0.97318198  0.16185818  0.58706622  1
  C  C97  1  0.18867620  0.02681802  0.58706622  1
  C  C98  1  0.83814182  0.81132380  0.58706622  1
  C  C99  1  0.97318198  0.81132380  0.08706622  1
  C  C100  1  0.83814182  0.02681802  0.08706622  1
  C  C101  1  0.18867620  0.16185818  0.08706622  1
  C  C102  1  0.67016769  0.14397342  0.74527766  1
  C  C103  1  0.47380673  0.32983231  0.74527766  1
  C  C104  1  0.85602658  0.52619327  0.74527766  1
  C  C105  1  0.67016769  0.52619327  0.24527766  1
  C  C106  1  0.85602658  0.32983231  0.24527766  1
  C  C107  1  0.47380673  0.14397342  0.24527766  1
  C  C108  1  0.63984898  0.49519118  0.92039922  1
  C  C109  1  0.85534320  0.36015102  0.92039922  1
  C  C110  1  0.50480882  0.14465680  0.92039922  1
  C  C111  1  0.63984898  0.14465680  0.42039922  1
  C  C112  1  0.50480882  0.36015102  0.42039922  1
  C  C113  1  0.85534320  0.49519118  0.42039922  1
  C  C114  1  0.33683369  0.47730742  0.07861166  1
  C  C115  1  0.14047273  0.66316631  0.07861166  1
  C  C116  1  0.52269258  0.85952727  0.07861166  1
  C  C117  1  0.33683369  0.85952727  0.57861166  1
  C  C118  1  0.52269258  0.66316631  0.57861166  1
  C  C119  1  0.14047273  0.47730742  0.57861166  1
  C  C120  1  0.30651498  0.82852518  0.25373322  1
  C  C121  1  0.52200920  0.69348502  0.25373322  1
  C  C122  1  0.17147482  0.47799080  0.25373322  1
  C  C123  1  0.30651498  0.47799080  0.75373322  1
  C  C124  1  0.17147482  0.69348502  0.75373322  1
  C  C125  1  0.52200920  0.82852518  0.75373322  1
