# generated using pymatgen
data_Cu2NiC16
_symmetry_space_group_name_H-M   'P 1'
_cell_length_a   5.10906839
_cell_length_b   5.10906731
_cell_length_c   8.65090878
_cell_angle_alpha   89.74759946
_cell_angle_beta   89.74758124
_cell_angle_gamma   74.82246425
_symmetry_Int_Tables_number   1
_chemical_formula_structural   Cu2NiC16
_chemical_formula_sum   'Cu2 Ni1 C16'
_cell_volume   217.93117351
_cell_formula_units_Z   1
loop_
 _symmetry_equiv_pos_site_id
 _symmetry_equiv_pos_as_xyz
  1  'x, y, z'
loop_
 _atom_site_type_symbol
 _atom_site_label
 _atom_site_symmetry_multiplicity
 _atom_site_fract_x
 _atom_site_fract_y
 _atom_site_fract_z
 _atom_site_occupancy
  Ni  Ni0  1  0.79726704  0.79726714  0.49864967  1
  C  C1  1  0.08822987  0.08823017  0.31879609  1
  C  C2  1  0.08768975  0.08768951  0.67960449  1
  C  C3  1  0.50054620  0.50054610  0.16547112  1
  C  C4  1  0.50188515  0.50188467  0.83511406  1
  Cu  Cu5  1  0.92459611  0.92459574  0.00001651  1
  Cu  Cu6  1  0.46983910  0.46983973  0.50067575  1
  C  C7  1  0.18460681  0.80723708  0.16009088  1
  C  C8  1  0.18566918  0.80794904  0.83984467  1
  C  C9  1  0.18515652  0.80443154  0.50001717  1
  C  C10  1  0.36034317  0.36034319  0.00046883  1
  C  C11  1  0.31689565  0.31689576  0.33890369  1
  C  C12  1  0.31846018  0.31846004  0.66200292  1
  C  C13  1  0.63101627  0.63101599  0.34262458  1
  C  C14  1  0.63256631  0.63256656  0.65769710  1
  C  C15  1  0.70117347  0.70117218  0.00006736  1
  C  C16  1  0.80443151  0.18515654  0.50001732  1
  C  C17  1  0.80723629  0.18460597  0.16009105  1
  C  C18  1  0.80794941  0.18566906  0.83984472  1
