# generated using pymatgen
data_CuNiC18
_symmetry_space_group_name_H-M   'P 1'
_cell_length_a   15.92433329
_cell_length_b   9.26786213
_cell_length_c   9.33859245
_cell_angle_alpha   90.00000000
_cell_angle_beta   125.42278256
_cell_angle_gamma   90.00000000
_symmetry_Int_Tables_number   1
_chemical_formula_structural   CuNiC18
_chemical_formula_sum   'Cu4 Ni4 C72'
_cell_volume   1123.11744593
_cell_formula_units_Z   4
loop_
 _symmetry_equiv_pos_site_id
 _symmetry_equiv_pos_as_xyz
  1  'x, y, z'
loop_
 _atom_site_type_symbol
 _atom_site_label
 _atom_site_symmetry_multiplicity
 _atom_site_fract_x
 _atom_site_fract_y
 _atom_site_fract_z
 _atom_site_occupancy
  C  C0  1  0.25285380  0.72786907  0.00346276  1
  C  C1  1  0.75285380  0.77213093  0.50346276  1
  C  C2  1  0.75285380  0.22786907  0.00346276  1
  C  C3  1  0.25285380  0.27213093  0.50346276  1
  C  C4  1  0.50738615  0.08575793  0.76257362  1
  C  C5  1  0.50738615  0.91424207  0.26257362  1
  C  C6  1  0.00738615  0.58575793  0.76257362  1
  C  C7  1  0.00738615  0.41424207  0.26257362  1
  C  C8  1  0.18028232  0.92105663  0.29853500  1
  C  C9  1  0.18028232  0.07894337  0.79853500  1
  C  C10  1  0.68028232  0.42105663  0.29853500  1
  C  C11  1  0.68028232  0.57894337  0.79853500  1
  C  C12  1  0.10550506  0.74649492  0.56536587  1
  C  C13  1  0.10550506  0.25350508  0.06536587  1
  C  C14  1  0.60550506  0.24649492  0.56536587  1
  C  C15  1  0.60550506  0.75350508  0.06536587  1
  Ni  Ni16  1  0.65066946  0.89031306  0.74747438  1
  Ni  Ni17  1  0.65066946  0.10968694  0.24747438  1
  Ni  Ni18  1  0.15066946  0.39031306  0.74747438  1
  Ni  Ni19  1  0.15066946  0.60968694  0.24747438  1
  Cu  Cu20  1  0.89909019  0.75757467  0.94308940  1
  Cu  Cu21  1  0.89909019  0.24242533  0.44308940  1
  Cu  Cu22  1  0.39909019  0.25757467  0.94308940  1
  Cu  Cu23  1  0.39909019  0.74242533  0.44308940  1
  C  C24  1  0.99403631  0.95502784  0.75233834  1
  C  C25  1  0.99403631  0.04497216  0.25233834  1
  C  C26  1  0.49403631  0.45502784  0.75233834  1
  C  C27  1  0.49403631  0.54497216  0.25233834  1
  C  C28  1  0.35269176  0.90952643  0.75198133  1
  C  C29  1  0.35269176  0.09047357  0.25198133  1
  C  C30  1  0.85269176  0.40952643  0.75198133  1
  C  C31  1  0.85269176  0.59047357  0.25198133  1
  C  C32  1  0.15405542  0.56493215  0.75128774  1
  C  C33  1  0.85253189  0.58003608  0.75369120  1
  C  C34  1  0.85253189  0.41996392  0.25369120  1
  C  C35  1  0.15405542  0.43506785  0.25128774  1
  C  C36  1  0.65405542  0.06493215  0.75128774  1
  C  C37  1  0.35253189  0.08003608  0.75369120  1
  C  C38  1  0.35253189  0.91996392  0.25369120  1
  C  C39  1  0.65405542  0.93506785  0.25128774  1
  C  C40  1  0.43147054  0.55209054  0.58393272  1
  C  C41  1  0.55635977  0.54524258  0.91864820  1
  C  C42  1  0.55635977  0.45475742  0.41864820  1
  C  C43  1  0.43147054  0.44790946  0.08393272  1
  C  C44  1  0.93147054  0.05209054  0.58393272  1
  C  C45  1  0.05635977  0.04524258  0.91864820  1
  C  C46  1  0.05635977  0.95475742  0.41864820  1
  C  C47  1  0.93147054  0.94790946  0.08393272  1
  C  C48  1  0.25923603  0.85767742  0.74629489  1
  C  C49  1  0.74679901  0.80665253  0.75812068  1
  C  C50  1  0.74679901  0.19334747  0.25812068  1
  C  C51  1  0.25923603  0.14232258  0.24629489  1
  C  C52  1  0.75923603  0.35767742  0.74629489  1
  C  C53  1  0.24679901  0.30665253  0.75812068  1
  C  C54  1  0.24679901  0.69334747  0.25812068  1
  C  C55  1  0.75923603  0.64232258  0.24629489  1
  C  C56  1  0.34872688  0.87193036  0.58230267  1
  C  C57  1  0.64670741  0.83633711  0.90618015  1
  C  C58  1  0.64670741  0.16366289  0.40618015  1
  C  C59  1  0.34872688  0.12806964  0.08230267  1
  C  C60  1  0.84872688  0.37193036  0.58230267  1
  C  C61  1  0.14670741  0.33633711  0.90618015  1
  C  C62  1  0.14670741  0.66366289  0.40618015  1
  C  C63  1  0.84872688  0.62806964  0.08230267  1
  C  C64  1  0.45069821  0.85289861  0.91743741  1
  C  C65  1  0.54420832  0.82473152  0.56058103  1
  C  C66  1  0.54420832  0.17526848  0.06058103  1
  C  C67  1  0.45069821  0.14710139  0.41743741  1
  C  C68  1  0.95069821  0.35289861  0.91743741  1
  C  C69  1  0.04420832  0.32473152  0.56058103  1
  C  C70  1  0.04420832  0.67526848  0.06058103  1
  C  C71  1  0.95069821  0.64710139  0.41743741  1
  C  C72  1  0.07160273  0.85967316  0.74567206  1
  C  C73  1  0.91508874  0.85342747  0.75103052  1
  C  C74  1  0.91508874  0.14657253  0.25103052  1
  C  C75  1  0.07160273  0.14032684  0.24567206  1
  C  C76  1  0.57160273  0.35967316  0.74567206  1
  C  C77  1  0.41508874  0.35342747  0.75103052  1
  C  C78  1  0.41508874  0.64657253  0.25103052  1
  C  C79  1  0.57160273  0.64032684  0.24567206  1
