# generated using pymatgen
data_Cu12NiC61
_symmetry_space_group_name_H-M   'P 1'
_cell_length_a   17.88221066
_cell_length_b   8.95903249
_cell_length_c   23.28292791
_cell_angle_alpha   90.02929632
_cell_angle_beta   89.99607752
_cell_angle_gamma   120.03178777
_symmetry_Int_Tables_number   1
_chemical_formula_structural   Cu12NiC61
_chemical_formula_sum   'Cu36 Ni3 C183'
_cell_volume   3229.32144234
_cell_formula_units_Z   3
loop_
 _symmetry_equiv_pos_site_id
 _symmetry_equiv_pos_as_xyz
  1  'x, y, z'
loop_
 _atom_site_type_symbol
 _atom_site_label
 _atom_site_symmetry_multiplicity
 _atom_site_fract_x
 _atom_site_fract_y
 _atom_site_fract_z
 _atom_site_occupancy
  C  C0  1  0.68964155  0.36566659  0.24448989  1
  C  C1  1  0.99224363  0.62047039  0.24430961  1
  C  C2  1  0.99206145  0.36140174  0.74191906  1
  C  C3  1  0.49230083  0.36158443  0.74198466  1
  C  C4  1  0.18792806  0.01198717  0.74199039  1
  C  C5  1  0.68799675  0.01220323  0.74221835  1
  C  C6  1  0.00002537  0.99929117  0.49996925  1
  C  C7  1  0.49998673  0.00024760  0.50027906  1
  C  C8  1  0.99834194  0.99717564  0.00166092  1
  C  C9  1  0.50177375  0.00347585  0.00097674  1
  C  C10  1  0.33307595  0.34639234  0.82837851  1
  C  C11  1  0.83273470  0.34576516  0.82999065  1
  C  C12  1  0.33312312  0.33354786  0.33579962  1
  C  C13  1  0.83317856  0.31886981  0.33012579  1
  C  C14  1  0.17033269  0.66457443  0.16585949  1
  C  C15  1  0.66925476  0.68232940  0.16515652  1
  C  C16  1  0.17279142  0.66511617  0.66040476  1
  C  C17  1  0.67282117  0.66532992  0.66069553  1
  C  C18  1  0.00018069  0.00329106  0.35352123  1
  C  C19  1  0.49944604  0.99844187  0.35403461  1
  C  C20  1  0.99948797  0.99784487  0.85378930  1
  C  C21  1  0.49973782  0.99773849  0.85391212  1
  C  C22  1  0.99854216  0.99741980  0.64458405  1
  C  C23  1  0.49872814  0.99717130  0.64456912  1
  C  C24  1  0.99757896  0.00106222  0.14617861  1
  C  C25  1  0.50116116  0.99936061  0.14576765  1
  C  C26  1  0.33325938  0.33407705  0.18638004  1
  C  C27  1  0.33347977  0.33204802  0.97998248  1
  C  C28  1  0.83337868  0.33287447  0.98258631  1
  C  C29  1  0.33326398  0.33259271  0.48273766  1
  C  C30  1  0.83350295  0.33456578  0.48176703  1
  C  C31  1  0.16514244  0.66625232  0.02055803  1
  C  C32  1  0.66740070  0.66606640  0.02056242  1
  C  C33  1  0.16607553  0.66699919  0.51997334  1
  C  C34  1  0.66645195  0.66623060  0.52017148  1
  C  C35  1  0.16945519  0.66528317  0.31463546  1
  C  C36  1  0.66632365  0.67361554  0.31492304  1
  C  C37  1  0.16911341  0.66547376  0.81558536  1
  C  C38  1  0.66918934  0.66613873  0.81575041  1
  Ni  Ni39  1  0.33304527  0.34209216  0.67707708  1
  Ni  Ni40  1  0.83296454  0.34178184  0.67708376  1
  Ni  Ni41  1  0.83332203  0.32222541  0.17950098  1
  Cu  Cu42  1  0.14474794  -0.00045978  0.25003117  1
  Cu  Cu43  1  0.64690529  0.00279895  0.24971356  1
  Cu  Cu44  1  0.35537372  0.71024633  0.24952787  1
  Cu  Cu45  1  0.85360953  0.70679007  0.25018677  1
  Cu  Cu46  1  0.99825857  0.29224598  0.24999485  1
  Cu  Cu47  1  0.49995288  0.28980394  0.25040474  1
  Cu  Cu48  1  0.14608037  0.28990493  0.74984880  1
  Cu  Cu49  1  0.64607406  0.29016968  0.74983303  1
  Cu  Cu50  1  0.99841983  0.70551246  0.75042259  1
  Cu  Cu51  1  0.49836707  0.70540836  0.75042421  1
  Cu  Cu52  1  0.35428003  0.00120375  0.75003806  1
  Cu  Cu53  1  0.85412446  0.00110726  0.74994009  1
  Cu  Cu54  1  0.47897809  0.33463255  0.58651570  1
  Cu  Cu55  1  0.97877818  0.33486973  0.58629841  1
  Cu  Cu56  1  0.18878500  0.04213927  0.58667668  1
  Cu  Cu57  1  0.68911125  0.04250038  0.58635801  1
  Cu  Cu58  1  0.33196995  0.62172132  0.58462222  1
  Cu  Cu59  1  0.83217126  0.62159186  0.58471257  1
  Cu  Cu60  1  0.47838930  0.62334540  0.08305314  1
  Cu  Cu61  1  0.97831581  0.62427582  0.08647785  1
  Cu  Cu62  1  0.33346966  0.04300271  0.08347090  1
  Cu  Cu63  1  0.83257013  0.04291936  0.08449355  1
  Cu  Cu64  1  0.18795325  0.33322621  0.08312081  1
  Cu  Cu65  1  0.68865422  0.33435192  0.08642889  1
  Cu  Cu66  1  0.31292547  0.66648804  0.91827225  1
  Cu  Cu67  1  0.81331145  0.66531690  0.91779533  1
  Cu  Cu68  1  0.02013420  0.37432084  0.91622354  1
  Cu  Cu69  1  0.52071331  0.37469419  0.91616091  1
  Cu  Cu70  1  0.16705353  0.95877544  0.91614092  1
  Cu  Cu71  1  0.66736296  0.95917606  0.91662930  1
  Cu  Cu72  1  0.31208720  0.95890536  0.41706996  1
  Cu  Cu73  1  0.81247836  0.95949401  0.41753318  1
  Cu  Cu74  1  0.16737867  0.37511284  0.41754520  1
  Cu  Cu75  1  0.66726042  0.37648832  0.41546186  1
  Cu  Cu76  1  0.02079163  0.66626705  0.41542784  1
  Cu  Cu77  1  0.52006840  0.66515625  0.41741235  1
  C  C78  1  0.10204285  0.02328207  0.30396298  1
  C  C79  1  0.59912034  0.02249193  0.30263225  1
  C  C80  1  0.40961574  0.79646930  0.30353907  1
  C  C81  1  0.91136931  0.80134700  0.30276785  1
  C  C82  1  0.48794119  0.17958652  0.30399515  1
  C  C83  1  0.99105770  0.18268703  0.30342859  1
  C  C84  1  0.09970429  0.17657572  0.80331052  1
  C  C85  1  0.59961206  0.17657755  0.80328790  1
  C  C86  1  0.49013821  0.79860732  0.80407114  1
  C  C87  1  0.99024788  0.79885950  0.80406184  1
  C  C88  1  0.41097347  0.02106614  0.80309782  1
  C  C89  1  0.91091149  0.02111401  0.80299348  1
  C  C90  1  0.39747382  0.97558510  0.69660850  1
  C  C91  1  0.89743908  0.97544609  0.69659521  1
  C  C92  1  0.08711357  0.20471773  0.69708843  1
  C  C93  1  0.58706534  0.20481426  0.69706433  1
  C  C94  1  0.01517155  0.82375547  0.69782747  1
  C  C95  1  0.51497250  0.82346486  0.69781171  1
  C  C96  1  0.39889377  0.82055076  0.19593303  1
  C  C97  1  0.89711293  0.81873614  0.19649265  1
  C  C98  1  0.01114410  0.20478868  0.19652925  1
  C  C99  1  0.51423926  0.20388013  0.19712877  1
  C  C100  1  0.08735577  0.97140268  0.19692428  1
  C  C101  1  0.59020925  0.97702609  0.19600736  1
  C  C102  1  0.44340913  0.36059874  0.64287360  1
  C  C103  1  0.94341402  0.36058196  0.64283624  1
  C  C104  1  0.23784663  0.11275213  0.64293862  1
  C  C105  1  0.73775708  0.11263298  0.64283761  1
  C  C106  1  0.31694459  0.51862924  0.63908475  1
  C  C107  1  0.81692631  0.51855592  0.63917383  1
  C  C108  1  0.43455078  0.51334508  0.13684243  1
  C  C109  1  0.94300366  0.52608891  0.14250623  1
  C  C110  1  0.32223745  0.13144116  0.13703691  1
  C  C111  1  0.81716176  0.11622280  0.13857867  1
  C  C112  1  0.24334415  0.35643249  0.13693647  1
  C  C113  1  0.73778249  0.36173275  0.14247099  1
  C  C114  1  0.23222249  0.31098860  0.02954459  1
  C  C115  1  0.73375607  0.31080580  0.03298413  1
  C  C116  1  0.42335188  0.53518995  0.02939421  1
  C  C117  1  0.92183505  0.53278809  0.03297367  1
  C  C118  1  0.34480188  0.15303808  0.02968885  1
  C  C119  1  0.84480232  0.15316898  0.03011008  1
  C  C120  1  0.23435275  0.15636483  0.53361896  1
  C  C121  1  0.73471248  0.15711745  0.53340876  1
  C  C122  1  0.34435423  0.53525704  0.53056549  1
  C  C123  1  0.84439879  0.53566600  0.53050816  1
  C  C124  1  0.42199224  0.31261913  0.53347276  1
  C  C125  1  0.92178207  0.31289939  0.53331715  1
  C  C126  1  0.26804519  0.68880669  0.97099339  1
  C  C127  1  0.76877360  0.68832468  0.97057698  1
  C  C128  1  0.07760521  0.46659688  0.96852449  1
  C  C129  1  0.57757368  0.46698647  0.96840478  1
  C  C130  1  0.15644462  0.84552453  0.96853184  1
  C  C131  1  0.65603010  0.84454918  0.96869100  1
  C  C132  1  0.26819554  0.84781854  0.47016558  1
  C  C133  1  0.76823780  0.84806932  0.47043026  1
  C  C134  1  0.15592777  0.46366344  0.47048427  1
  C  C135  1  0.65574064  0.46730014  0.46792780  1
  C  C136  1  0.07769889  0.68888231  0.46796785  1
  C  C137  1  0.57595905  0.68875366  0.47034888  1
  C  C138  1  0.06313623  0.64426054  0.36008018  1
  C  C139  1  0.56423837  0.64329926  0.36317190  1
  C  C140  1  0.25709203  0.87062176  0.36285511  1
  C  C141  1  0.75707931  0.87136774  0.36330964  1
  C  C142  1  0.17865373  0.48540313  0.36329595  1
  C  C143  1  0.67776205  0.48196602  0.36000396  1
  C  C144  1  0.06283653  0.48108934  0.86073064  1
  C  C145  1  0.56264627  0.48095244  0.86056746  1
  C  C146  1  0.17819574  0.87461502  0.86067914  1
  C  C147  1  0.67797288  0.87435314  0.86091518  1
  C  C148  1  0.25768742  0.64352881  0.86378489  1
  C  C149  1  0.75784558  0.64293942  0.86344429  1
  C  C150  1  0.01155221  0.82862208  0.40979073  1
  C  C151  1  0.51122099  0.82770415  0.41081992  1
  C  C152  1  0.40252237  0.97708792  0.41059131  1
  C  C153  1  0.90278600  0.97759972  0.41078683  1
  C  C154  1  0.08601102  0.19475841  0.41112541  1
  C  C155  1  0.58579750  0.19499622  0.40991005  1
  C  C156  1  0.01149176  0.19456788  0.91040793  1
  C  C157  1  0.51144563  0.19446709  0.91057694  1
  C  C158  1  0.08592691  0.97693817  0.91091106  1
  C  C159  1  0.58595688  0.97699350  0.91097317  1
  C  C160  1  0.40277282  0.82853370  0.91159896  1
  C  C161  1  0.90306873  0.82788888  0.91117798  1
  C  C162  1  0.48839197  0.17038059  0.58902240  1
  C  C163  1  0.98845942  0.17076617  0.58904883  1
  C  C164  1  0.09712380  0.02343827  0.58960817  1
  C  C165  1  0.59727360  0.02350262  0.58958180  1
  C  C166  1  0.41460211  0.80435059  0.58892303  1
  C  C167  1  0.91463389  0.80449010  0.58893761  1
  C  C168  1  0.48738251  0.80366331  0.08870401  1
  C  C169  1  0.98893132  0.80790297  0.08913829  1
  C  C170  1  0.41451623  0.02467169  0.08960710  1
  C  C171  1  0.91478381  0.02430842  0.08827285  1
  C  C172  1  0.09769199  0.17143888  0.08931620  1
  C  C173  1  0.59669966  0.17028670  0.08895949  1
  C  C174  1  0.34486755  0.16211832  0.74709033  1
  C  C175  1  0.84481902  0.16205047  0.74697172  1
  C  C176  1  0.23437704  0.30357415  0.74578350  1
  C  C177  1  0.73435705  0.30370097  0.74572505  1
  C  C178  1  0.42169265  0.52255746  0.74637757  1
  C  C179  1  0.92175833  0.52272653  0.74638134  1
  C  C180  1  0.34539874  0.52888847  0.24341531  1
  C  C181  1  0.84493888  0.52756439  0.24695103  1
  C  C182  1  0.42056625  0.31274112  0.24370299  1
  C  C183  1  0.92009048  0.31829955  0.24657218  1
  C  C184  1  0.23567263  0.15875255  0.24340209  1
  C  C185  1  0.73480199  0.16801870  0.24618822  1
  C  C186  1  0.32174241  0.50448295  0.92316339  1
  C  C187  1  0.82208376  0.50363706  0.92298561  1
  C  C188  1  0.43076153  0.35728253  0.92232187  1
  C  C189  1  0.93054934  0.35764055  0.92257689  1
  C  C190  1  0.24800136  0.13870838  0.92222733  1
  C  C191  1  0.74806621  0.13917298  0.92280667  1
  C  C192  1  0.32152684  0.13918005  0.42283277  1
  C  C193  1  0.82151696  0.13922377  0.42310706  1
  C  C194  1  0.24819269  0.35613095  0.42303415  1
  C  C195  1  0.74783768  0.35704793  0.42232416  1
  C  C196  1  0.43009823  0.50296947  0.42295195  1
  C  C197  1  0.93090900  0.50400820  0.42243588  1
  C  C198  1  0.17875446  0.49562588  0.07725125  1
  C  C199  1  0.67611950  0.49256276  0.07592812  1
  C  C200  1  0.06998321  0.64692715  0.07592622  1
  C  C201  1  0.56910894  0.64317789  0.07741914  1
  C  C202  1  0.25228851  0.86222254  0.07742297  1
  C  C203  1  0.75306002  0.85883317  0.07532891  1
  C  C204  1  0.17687462  0.85968232  0.57657122  1
  C  C205  1  0.67701563  0.85966454  0.57643955  1
  C  C206  1  0.25288365  0.64745744  0.57566588  1
  C  C207  1  0.75291528  0.64698283  0.57579951  1
  C  C208  1  0.07024187  0.49448736  0.57659091  1
  C  C209  1  0.57035134  0.49392035  0.57665842  1
  C  C210  1  0.15005028  0.83168993  0.25601431  1
  C  C211  1  0.65449212  0.83837091  0.25592281  1
  C  C212  1  0.26447803  0.69097344  0.25524696  1
  C  C213  1  0.76153725  0.68366010  0.25613752  1
  C  C214  1  0.08097709  0.47604932  0.25575279  1
  C  C215  1  0.58404936  0.46812111  0.25649270  1
  C  C216  1  0.15010601  0.46775408  0.75677193  1
  C  C217  1  0.65000813  0.46789041  0.75677547  1
  C  C218  1  0.08380226  0.69458327  0.75692115  1
  C  C219  1  0.58368929  0.69438488  0.75680698  1
  C  C220  1  0.26189507  0.83940675  0.75612867  1
  C  C221  1  0.76180465  0.83933390  0.75605175  1
