# generated using pymatgen
data_Cu9NiC11
_symmetry_space_group_name_H-M   'P 1'
_cell_length_a   12.10786018
_cell_length_b   12.10786018
_cell_length_c   12.10786018
_cell_angle_alpha   120.90366207
_cell_angle_beta   117.14998365
_cell_angle_gamma   91.72386429
_symmetry_Int_Tables_number   1
_chemical_formula_structural   Cu9NiC11
_chemical_formula_sum   'Cu18 Ni2 C22'
_cell_volume   1271.31813712
_cell_formula_units_Z   2
loop_
 _symmetry_equiv_pos_site_id
 _symmetry_equiv_pos_as_xyz
  1  'x, y, z'
loop_
 _atom_site_type_symbol
 _atom_site_label
 _atom_site_symmetry_multiplicity
 _atom_site_fract_x
 _atom_site_fract_y
 _atom_site_fract_z
 _atom_site_occupancy
  C  C0  1  0.43219900  0.22649100  0.35078700  1
  C  C1  1  0.87570400  0.08141200  0.64921300  1
  C  C2  1  0.93219900  0.58141200  0.20570800  1
  C  C3  1  0.37570400  0.72649100  0.79429200  1
  C  C4  1  0.57158400  0.94268200  0.26380500  1
  C  C5  1  0.67887700  0.30777900  0.73619500  1
  C  C6  1  0.07158400  0.80777900  0.62890200  1
  C  C7  1  0.17887700  0.44268200  0.37109800  1
  C  C8  1  0.11021400  0.92351000  0.36069900  1
  C  C9  1  0.56281100  0.74951500  0.63930100  1
  C  C10  1  0.61021400  0.24951500  0.18670400  1
  C  C11  1  0.06281100  0.42351000  0.81329600  1
  C  C12  1  0.30901400  0.68261200  0.25771100  1
  C  C13  1  0.42490100  0.05130300  0.74228900  1
  C  C14  1  0.80901400  0.55130300  0.62640200  1
  C  C15  1  0.92490100  0.18261200  0.37359800  1
  C  C16  1  0.81922200  0.15880700  0.98775200  1
  C  C17  1  0.17105400  0.83147000  0.01224800  1
  C  C18  1  0.31922200  0.33147000  0.66041500  1
  C  C19  1  0.67105400  0.65880700  0.33958500  1
  C  C20  1  0.66941400  0.66941400  0.00000000  1
  C  C21  1  0.16941400  0.16941400  0.00000000  1
  Ni  Ni22  1  0.38641300  0.38641300  0.00000000  1
  Ni  Ni23  1  0.88641300  0.88641300  0.00000000  1
  Cu  Cu24  1  0.38171400  0.63607500  0.01554300  1
  Cu  Cu25  1  0.62053100  0.36617100  0.98445700  1
  Cu  Cu26  1  0.88171400  0.86617100  0.74564000  1
  Cu  Cu27  1  0.12053100  0.13607500  0.25436000  1
  Cu  Cu28  1  0.74751200  0.24751200  0.50000000  1
  Cu  Cu29  1  0.24751200  0.74751200  0.50000000  1
  Cu  Cu30  1  0.50176800  0.50268000  0.64750900  1
  Cu  Cu31  1  0.85517100  0.85425900  0.35249100  1
  Cu  Cu32  1  0.00176800  0.35425900  0.99908800  1
  Cu  Cu33  1  0.35517100  0.00268000  0.00091200  1
  Cu  Cu34  1  0.38371500  0.02847400  0.42627900  1
  Cu  Cu35  1  0.60219500  0.95743500  0.57372100  1
  Cu  Cu36  1  0.88371500  0.45743500  0.35524000  1
  Cu  Cu37  1  0.10219500  0.52847400  0.64476000  1
  Cu  Cu38  1  0.15935000  0.15094300  0.70238700  1
  Cu  Cu39  1  0.44855600  0.45696300  0.29761300  1
  Cu  Cu40  1  0.65935000  0.95696300  0.00840700  1
  Cu  Cu41  1  0.94855600  0.65094300  0.99159300  1
