# generated using pymatgen
data_Cu2NiC17
_symmetry_space_group_name_H-M   'P 1'
_cell_length_a   15.73798425
_cell_length_b   9.11090561
_cell_length_c   9.05139616
_cell_angle_alpha   90.00000000
_cell_angle_beta   124.67173564
_cell_angle_gamma   90.00000000
_symmetry_Int_Tables_number   1
_chemical_formula_structural   Cu2NiC17
_chemical_formula_sum   'Cu8 Ni4 C68'
_cell_volume   1067.38822958
_cell_formula_units_Z   4
loop_
 _symmetry_equiv_pos_site_id
 _symmetry_equiv_pos_as_xyz
  1  'x, y, z'
loop_
 _atom_site_type_symbol
 _atom_site_label
 _atom_site_symmetry_multiplicity
 _atom_site_fract_x
 _atom_site_fract_y
 _atom_site_fract_z
 _atom_site_occupancy
  C  C0  1  0.25158791  0.71953838  0.99485964  1
  C  C1  1  0.75158791  0.78046162  0.49485964  1
  C  C2  1  0.75158791  0.21953838  0.99485964  1
  C  C3  1  0.25158791  0.28046162  0.49485964  1
  C  C4  1  0.50661270  0.10915995  0.76194760  1
  C  C5  1  0.50661270  0.89084005  0.26194760  1
  C  C6  1  0.00661270  0.60915995  0.76194760  1
  C  C7  1  0.00661270  0.39084005  0.26194760  1
  C  C8  1  0.18633725  0.93435458  0.28968241  1
  C  C9  1  0.18633725  0.06564542  0.78968241  1
  C  C10  1  0.68633725  0.43435458  0.28968241  1
  C  C11  1  0.68633725  0.56564542  0.78968241  1
  C  C12  1  0.89573792  0.75693977  0.94052859  1
  C  C13  1  0.89573792  0.24306023  0.44052859  1
  C  C14  1  0.39573792  0.25693977  0.94052859  1
  C  C15  1  0.39573792  0.74306023  0.44052859  1
  C  C16  1  0.10515333  0.74355717  0.56166215  1
  C  C17  1  0.10515333  0.25644283  0.06166215  1
  C  C18  1  0.60515333  0.24355717  0.56166215  1
  C  C19  1  0.60515333  0.75644283  0.06166215  1
  Ni  Ni20  1  0.64518421  0.89455997  0.74028570  1
  Ni  Ni21  1  0.64518421  0.10544003  0.24028570  1
  Ni  Ni22  1  0.14518421  0.39455997  0.74028570  1
  Ni  Ni23  1  0.14518421  0.60544003  0.24028570  1
  Cu  Cu24  1  0.00026802  0.95540062  0.75824708  1
  Cu  Cu25  1  0.00026802  0.04459938  0.25824708  1
  Cu  Cu26  1  0.50026802  0.45540062  0.75824708  1
  Cu  Cu27  1  0.50026802  0.54459938  0.25824708  1
  Cu  Cu28  1  0.35244569  0.89974140  0.75703133  1
  Cu  Cu29  1  0.35244569  0.10025860  0.25703133  1
  Cu  Cu30  1  0.85244569  0.39974140  0.75703133  1
  Cu  Cu31  1  0.85244569  0.60025860  0.25703133  1
  C  C32  1  0.15116921  0.57309834  0.74276082  1
  C  C33  1  0.84917436  0.57188647  0.75669695  1
  C  C34  1  0.84917436  0.42811353  0.25669695  1
  C  C35  1  0.15116921  0.42690166  0.24276082  1
  C  C36  1  0.65116921  0.07309834  0.74276082  1
  C  C37  1  0.34917436  0.07188647  0.75669695  1
  C  C38  1  0.34917436  0.92811353  0.25669695  1
  C  C39  1  0.65116921  0.92690166  0.24276082  1
  C  C40  1  0.43885590  0.56041275  0.59320796  1
  C  C41  1  0.56324989  0.54501243  0.93075121  1
  C  C42  1  0.56324989  0.45498757  0.43075121  1
  C  C43  1  0.43885590  0.43958725  0.09320796  1
  C  C44  1  0.93885590  0.06041275  0.59320796  1
  C  C45  1  0.06324989  0.04501243  0.93075121  1
  C  C46  1  0.06324989  0.95498757  0.43075121  1
  C  C47  1  0.93885590  0.93958725  0.09320796  1
  C  C48  1  0.25653803  0.84579345  0.74687712  1
  C  C49  1  0.74309753  0.81224604  0.75511344  1
  C  C50  1  0.74309753  0.18775396  0.25511344  1
  C  C51  1  0.25653803  0.15420655  0.24687712  1
  C  C52  1  0.75653803  0.34579345  0.74687712  1
  C  C53  1  0.24309753  0.31224604  0.75511344  1
  C  C54  1  0.24309753  0.68775396  0.25511344  1
  C  C55  1  0.75653803  0.65420655  0.24687712  1
  C  C56  1  0.35027537  0.85908816  0.58607197  1
  C  C57  1  0.63968211  0.83990903  0.90563030  1
  C  C58  1  0.63968211  0.16009097  0.40563030  1
  C  C59  1  0.35027537  0.14091184  0.08607197  1
  C  C60  1  0.85027537  0.35908816  0.58607197  1
  C  C61  1  0.13968211  0.33990903  0.90563030  1
  C  C62  1  0.13968211  0.66009097  0.40563030  1
  C  C63  1  0.85027537  0.64091184  0.08607197  1
  C  C64  1  0.45142211  0.84171942  0.92666013  1
  C  C65  1  0.53784891  0.83421089  0.55500681  1
  C  C66  1  0.53784891  0.16578911  0.05500681  1
  C  C67  1  0.45142211  0.15828058  0.42666013  1
  C  C68  1  0.95142211  0.34171942  0.92666013  1
  C  C69  1  0.03784891  0.33421089  0.55500681  1
  C  C70  1  0.03784891  0.66578911  0.05500681  1
  C  C71  1  0.95142211  0.65828058  0.42666013  1
  C  C72  1  0.07564644  0.85840167  0.74371268  1
  C  C73  1  0.91971311  0.85205212  0.75326610  1
  C  C74  1  0.91971311  0.14794788  0.25326610  1
  C  C75  1  0.07564644  0.14159833  0.24371268  1
  C  C76  1  0.57564644  0.35840167  0.74371268  1
  C  C77  1  0.41971311  0.35205212  0.75326610  1
  C  C78  1  0.41971311  0.64794788  0.25326610  1
  C  C79  1  0.57564644  0.64159833  0.24371268  1
