# generated using pymatgen
data_Cu2Ni11C8
_symmetry_space_group_name_H-M   'P 1'
_cell_length_a   3.41179100
_cell_length_b   12.22820000
_cell_length_c   19.71028300
_cell_angle_alpha   90.00000000
_cell_angle_beta   90.00000000
_cell_angle_gamma   90.00000000
_symmetry_Int_Tables_number   1
_chemical_formula_structural   Cu2Ni11C8
_chemical_formula_sum   'Cu4 Ni22 C16'
_cell_volume   822.31424272
_cell_formula_units_Z   2
loop_
 _symmetry_equiv_pos_site_id
 _symmetry_equiv_pos_as_xyz
  1  'x, y, z'
loop_
 _atom_site_type_symbol
 _atom_site_label
 _atom_site_symmetry_multiplicity
 _atom_site_fract_x
 _atom_site_fract_y
 _atom_site_fract_z
 _atom_site_occupancy
  Ni  Ni0  1  0.50000000  0.81977700  0.05358600  1
  Ni  Ni1  1  0.50000000  0.18022300  0.94641400  1
  Ni  Ni2  1  0.00000000  0.68022300  0.55358600  1
  Ni  Ni3  1  0.00000000  0.31977700  0.44641400  1
  Ni  Ni4  1  0.50000000  0.44757300  0.74386500  1
  Ni  Ni5  1  0.50000000  0.55242700  0.25613500  1
  Ni  Ni6  1  0.00000000  0.94757300  0.75613500  1
  Ni  Ni7  1  0.00000000  0.05242700  0.24386500  1
  Ni  Ni8  1  0.50000000  0.06198100  0.11619000  1
  Ni  Ni9  1  0.50000000  0.93801900  0.88381000  1
  Ni  Ni10  1  0.00000000  0.56198100  0.38381000  1
  Ni  Ni11  1  0.00000000  0.43801900  0.61619000  1
  Ni  Ni12  1  0.50000000  0.17150900  0.35273500  1
  Ni  Ni13  1  0.50000000  0.82849100  0.64726500  1
  Ni  Ni14  1  0.00000000  0.67150900  0.14726500  1
  Ni  Ni15  1  0.00000000  0.32849100  0.85273500  1
  Ni  Ni16  1  0.50000000  0.15282300  0.78776200  1
  Ni  Ni17  1  0.50000000  0.84717700  0.21223800  1
  Ni  Ni18  1  0.00000000  0.65282300  0.71223800  1
  Ni  Ni19  1  0.00000000  0.34717700  0.28776200  1
  Ni  Ni20  1  0.50000000  0.50000000  0.50000000  1
  Ni  Ni21  1  0.00000000  0.00000000  0.00000000  1
  Cu  Cu22  1  0.00000000  0.09392900  0.87331000  1
  Cu  Cu23  1  0.00000000  0.90607100  0.12669000  1
  Cu  Cu24  1  0.50000000  0.59392900  0.62669000  1
  Cu  Cu25  1  0.50000000  0.40607100  0.37331000  1
  C  C26  1  0.50000000  0.29569800  0.55622500  1
  C  C27  1  0.50000000  0.70430200  0.44377500  1
  C  C28  1  0.00000000  0.79569800  0.94377500  1
  C  C29  1  0.00000000  0.20430200  0.05622500  1
  C  C30  1  0.50000000  0.04220600  0.67318700  1
  C  C31  1  0.50000000  0.95779400  0.32681300  1
  C  C32  1  0.00000000  0.54220600  0.82681300  1
  C  C33  1  0.00000000  0.45779400  0.17318700  1
  C  C34  1  0.50000000  0.38989900  0.94647900  1
  C  C35  1  0.50000000  0.61010100  0.05352100  1
  C  C36  1  0.00000000  0.88989900  0.55352100  1
  C  C37  1  0.00000000  0.11010100  0.44647900  1
  C  C38  1  0.00000000  0.28458700  0.71588000  1
  C  C39  1  0.00000000  0.71541300  0.28412000  1
  C  C40  1  0.50000000  0.78458700  0.78412000  1
  C  C41  1  0.50000000  0.21541300  0.21588000  1
