# generated using pymatgen
data_Cu2(NiC3)3
_symmetry_space_group_name_H-M   'P 1'
_cell_length_a   9.59916600
_cell_length_b   9.59916600
_cell_length_c   9.59916600
_cell_angle_alpha   90.00000000
_cell_angle_beta   90.00000000
_cell_angle_gamma   90.00000000
_symmetry_Int_Tables_number   1
_chemical_formula_structural   Cu2(NiC3)3
_chemical_formula_sum   'Cu8 Ni12 C36'
_cell_volume   884.50543571
_cell_formula_units_Z   4
loop_
 _symmetry_equiv_pos_site_id
 _symmetry_equiv_pos_as_xyz
  1  'x, y, z'
loop_
 _atom_site_type_symbol
 _atom_site_label
 _atom_site_symmetry_multiplicity
 _atom_site_fract_x
 _atom_site_fract_y
 _atom_site_fract_z
 _atom_site_occupancy
  C  C0  1  0.25000000  0.25000000  0.75000000  1
  C  C1  1  0.25000000  0.75000000  0.25000000  1
  C  C2  1  0.75000000  0.75000000  0.75000000  1
  C  C3  1  0.75000000  0.25000000  0.25000000  1
  Ni  Ni4  1  0.50000000  0.00000000  0.25000000  1
  Ni  Ni5  1  0.50000000  0.25000000  0.00000000  1
  Ni  Ni6  1  0.50000000  0.75000000  0.00000000  1
  Ni  Ni7  1  0.75000000  0.00000000  0.50000000  1
  Ni  Ni8  1  0.00000000  0.75000000  0.50000000  1
  Ni  Ni9  1  0.25000000  0.50000000  0.00000000  1
  Ni  Ni10  1  0.25000000  0.00000000  0.50000000  1
  Ni  Ni11  1  0.00000000  0.50000000  0.75000000  1
  Ni  Ni12  1  0.50000000  0.00000000  0.75000000  1
  Ni  Ni13  1  0.00000000  0.25000000  0.50000000  1
  Ni  Ni14  1  0.75000000  0.50000000  0.00000000  1
  Ni  Ni15  1  0.00000000  0.50000000  0.25000000  1
  Cu  Cu16  1  0.36683200  0.36683200  0.36683200  1
  Cu  Cu17  1  0.13316800  0.13316800  0.13316800  1
  Cu  Cu18  1  0.86683200  0.13316800  0.86683200  1
  Cu  Cu19  1  0.13316800  0.86683200  0.86683200  1
  Cu  Cu20  1  0.63316800  0.63316800  0.36683200  1
  Cu  Cu21  1  0.36683200  0.63316800  0.63316800  1
  Cu  Cu22  1  0.63316800  0.36683200  0.63316800  1
  Cu  Cu23  1  0.86683200  0.86683200  0.13316800  1
  C  C24  1  0.65728800  0.65728800  0.98595600  1
  C  C25  1  0.38948100  0.61051900  0.38948100  1
  C  C26  1  0.88948100  0.11051900  0.11051900  1
  C  C27  1  0.34271200  0.65728800  0.01404400  1
  C  C28  1  0.15728800  0.15728800  0.51404400  1
  C  C29  1  0.48595600  0.15728800  0.84271200  1
  C  C30  1  0.65728800  0.34271200  0.01404400  1
  C  C31  1  0.84271200  0.15728800  0.48595600  1
  C  C32  1  0.51404400  0.15728800  0.15728800  1
  C  C33  1  0.84271200  0.48595600  0.15728800  1
  C  C34  1  0.38948100  0.38948100  0.61051900  1
  C  C35  1  0.34271200  0.34271200  0.98595600  1
  C  C36  1  0.01404400  0.34271200  0.65728800  1
  C  C37  1  0.11051900  0.88948100  0.11051900  1
  C  C38  1  0.34271200  0.01404400  0.65728800  1
  C  C39  1  0.11051900  0.11051900  0.88948100  1
  C  C40  1  0.61051900  0.61051900  0.61051900  1
  C  C41  1  0.84271200  0.51404400  0.84271200  1
  C  C42  1  0.98595600  0.65728800  0.65728800  1
  C  C43  1  0.48595600  0.84271200  0.15728800  1
  C  C44  1  0.15728800  0.51404400  0.15728800  1
  C  C45  1  0.98595600  0.34271200  0.34271200  1
  C  C46  1  0.34271200  0.98595600  0.34271200  1
  C  C47  1  0.15728800  0.84271200  0.48595600  1
  C  C48  1  0.65728800  0.01404400  0.34271200  1
  C  C49  1  0.51404400  0.84271200  0.84271200  1
  C  C50  1  0.65728800  0.98595600  0.65728800  1
  C  C51  1  0.84271200  0.84271200  0.51404400  1
  C  C52  1  0.88948100  0.88948100  0.88948100  1
  C  C53  1  0.61051900  0.38948100  0.38948100  1
  C  C54  1  0.01404400  0.65728800  0.34271200  1
  C  C55  1  0.15728800  0.48595600  0.84271200  1
