# generated using pymatgen
data_CuNiC16
_symmetry_space_group_name_H-M   'P 1'
_cell_length_a   8.53918022
_cell_length_b   8.53917995
_cell_length_c   22.30266937
_cell_angle_alpha   90.00000000
_cell_angle_beta   90.00000000
_cell_angle_gamma   120.00000103
_symmetry_Int_Tables_number   1
_chemical_formula_structural   CuNiC16
_chemical_formula_sum   'Cu6 Ni6 C96'
_cell_volume   1408.37990125
_cell_formula_units_Z   6
loop_
 _symmetry_equiv_pos_site_id
 _symmetry_equiv_pos_as_xyz
  1  'x, y, z'
loop_
 _atom_site_type_symbol
 _atom_site_label
 _atom_site_symmetry_multiplicity
 _atom_site_fract_x
 _atom_site_fract_y
 _atom_site_fract_z
 _atom_site_occupancy
  C  C0  1  0.00000000  -0.00000000  0.49897711  1
  C  C1  1  0.00000000  -0.00000000  0.99897711  1
  C  C2  1  0.66666700  0.33333300  0.83231011  1
  C  C3  1  0.66666700  0.33333300  0.33231011  1
  C  C4  1  0.33333300  0.66666700  0.16564411  1
  C  C5  1  0.33333300  0.66666700  0.66564411  1
  Ni  Ni6  1  0.00000000  -0.00000000  0.35232127  1
  Ni  Ni7  1  0.00000000  -0.00000000  0.85232127  1
  Ni  Ni8  1  0.66666700  0.33333300  0.68565427  1
  Ni  Ni9  1  0.66666700  0.33333300  0.18565427  1
  Ni  Ni10  1  0.33333300  0.66666700  0.01898827  1
  Ni  Ni11  1  0.33333300  0.66666700  0.51898827  1
  Cu  Cu12  1  0.00000000  -0.00000000  0.65018056  1
  Cu  Cu13  1  0.00000000  -0.00000000  0.15018056  1
  Cu  Cu14  1  0.66666700  0.33333300  0.98351356  1
  Cu  Cu15  1  0.66666700  0.33333300  0.48351356  1
  Cu  Cu16  1  0.33333300  0.66666700  0.31684756  1
  Cu  Cu17  1  0.33333300  0.66666700  0.81684756  1
  C  C18  1  0.29050294  0.99638797  0.25086521  1
  C  C19  1  0.70588503  0.70949706  0.25086521  1
  C  C20  1  0.00361203  0.29411497  0.25086521  1
  C  C21  1  0.29050294  0.29411497  0.75086521  1
  C  C22  1  0.00361203  0.70949706  0.75086521  1
  C  C23  1  0.70588503  0.99638797  0.75086521  1
  C  C24  1  0.95716994  0.32972097  0.58419821  1
  C  C25  1  0.37255203  0.04283006  0.58419821  1
  C  C26  1  0.67027903  0.62744797  0.58419821  1
  C  C27  1  0.95716994  0.62744797  0.08419821  1
  C  C28  1  0.67027903  0.04283006  0.08419821  1
  C  C29  1  0.37255203  0.32972097  0.08419821  1
  C  C30  1  0.62383594  0.66305497  0.91753221  1
  C  C31  1  0.03921803  0.37616406  0.91753221  1
  C  C32  1  0.33694503  0.96078197  0.91753221  1
  C  C33  1  0.62383594  0.96078197  0.41753221  1
  C  C34  1  0.33694503  0.37616406  0.41753221  1
  C  C35  1  0.03921803  0.66305497  0.41753221  1
  C  C36  1  0.20642817  0.02164838  0.30383925  1
  C  C37  1  0.81522022  0.79357183  0.30383925  1
  C  C38  1  0.97835162  0.18477978  0.30383925  1
  C  C39  1  0.20642817  0.18477978  0.80383925  1
  C  C40  1  0.97835162  0.79357183  0.80383925  1
  C  C41  1  0.81522022  0.02164838  0.80383925  1
  C  C42  1  0.78468319  0.96376925  0.69506098  1
  C  C43  1  0.17908606  0.21531681  0.69506098  1
  C  C44  1  0.03623075  0.82091394  0.69506098  1
  C  C45  1  0.78468319  0.82091394  0.19506098  1
  C  C46  1  0.03623075  0.21531681  0.19506098  1
  C  C47  1  0.17908606  0.96376925  0.19506098  1
  C  C48  1  0.87309517  0.35498138  0.63717225  1
  C  C49  1  0.48188722  0.12690483  0.63717225  1
  C  C50  1  0.64501862  0.51811278  0.63717225  1
  C  C51  1  0.87309517  0.51811278  0.13717225  1
  C  C52  1  0.64501862  0.12690483  0.13717225  1
  C  C53  1  0.48188722  0.35498138  0.13717225  1
  C  C54  1  0.45135019  0.29710225  0.02839398  1
  C  C55  1  0.84575306  0.54864981  0.02839398  1
  C  C56  1  0.70289775  0.15424694  0.02839398  1
  C  C57  1  0.45135019  0.15424694  0.52839398  1
  C  C58  1  0.70289775  0.54864981  0.52839398  1
  C  C59  1  0.84575306  0.29710225  0.52839398  1
  C  C60  1  0.53976117  0.68831538  0.97050625  1
  C  C61  1  0.14855322  0.46023883  0.97050625  1
  C  C62  1  0.31168462  0.85144678  0.97050625  1
  C  C63  1  0.53976117  0.85144678  0.47050625  1
  C  C64  1  0.31168462  0.46023883  0.47050625  1
  C  C65  1  0.14855322  0.68831538  0.47050625  1
  C  C66  1  0.11801619  0.63043625  0.36172798  1
  C  C67  1  0.51241906  0.88198381  0.36172798  1
  C  C68  1  0.36956375  0.48758094  0.36172798  1
  C  C69  1  0.11801619  0.48758094  0.86172798  1
  C  C70  1  0.36956375  0.88198381  0.86172798  1
  C  C71  1  0.51241906  0.63043625  0.86172798  1
  C  C72  1  0.01712533  0.82198506  0.41037696  1
  C  C73  1  0.80485973  0.98287467  0.41037696  1
  C  C74  1  0.17801494  0.19514027  0.41037696  1
  C  C75  1  0.01712533  0.19514027  0.91037696  1
  C  C76  1  0.17801494  0.98287467  0.91037696  1
  C  C77  1  0.80485973  0.82198506  0.91037696  1
  C  C78  1  0.97396627  0.16300681  0.58936462  1
  C  C79  1  0.18904054  0.02603373  0.58936462  1
  C  C80  1  0.83699319  0.81095946  0.58936462  1
  C  C81  1  0.97396627  0.81095946  0.08936462  1
  C  C82  1  0.83699319  0.02603373  0.08936462  1
  C  C83  1  0.18904054  0.16300681  0.08936462  1
  C  C84  1  0.68379233  0.15531806  0.74370996  1
  C  C85  1  0.47152673  0.31620767  0.74370996  1
  C  C86  1  0.84468194  0.52847327  0.74370996  1
  C  C87  1  0.68379233  0.52847327  0.24370996  1
  C  C88  1  0.84468194  0.31620767  0.24370996  1
  C  C89  1  0.47152673  0.15531806  0.24370996  1
  C  C90  1  0.64063327  0.49633981  0.92269762  1
  C  C91  1  0.85570754  0.35936673  0.92269762  1
  C  C92  1  0.50366019  0.14429246  0.92269762  1
  C  C93  1  0.64063327  0.14429246  0.42269762  1
  C  C94  1  0.50366019  0.35936673  0.42269762  1
  C  C95  1  0.85570754  0.49633981  0.42269762  1
  C  C96  1  0.35045833  0.48865206  0.07704396  1
  C  C97  1  0.13819273  0.64954167  0.07704396  1
  C  C98  1  0.51134794  0.86180727  0.07704396  1
  C  C99  1  0.35045833  0.86180727  0.57704396  1
  C  C100  1  0.51134794  0.64954167  0.57704396  1
  C  C101  1  0.13819273  0.48865206  0.57704396  1
  C  C102  1  0.30729927  0.82967381  0.25603162  1
  C  C103  1  0.52237354  0.69270073  0.25603162  1
  C  C104  1  0.17032619  0.47762646  0.25603162  1
  C  C105  1  0.30729927  0.47762646  0.75603162  1
  C  C106  1  0.17032619  0.69270073  0.75603162  1
  C  C107  1  0.52237354  0.82967381  0.75603162  1
