# generated using pymatgen
data_Cu2NiC14
_symmetry_space_group_name_H-M   'P 1'
_cell_length_a   4.05055291
_cell_length_b   5.90630818
_cell_length_c   10.58227300
_cell_angle_alpha   90.00000000
_cell_angle_beta   90.00000000
_cell_angle_gamma   69.87045937
_symmetry_Int_Tables_number   1
_chemical_formula_structural   Cu2NiC14
_chemical_formula_sum   'Cu2 Ni1 C14'
_cell_volume   237.70403336
_cell_formula_units_Z   1
loop_
 _symmetry_equiv_pos_site_id
 _symmetry_equiv_pos_as_xyz
  1  'x, y, z'
loop_
 _atom_site_type_symbol
 _atom_site_label
 _atom_site_symmetry_multiplicity
 _atom_site_fract_x
 _atom_site_fract_y
 _atom_site_fract_z
 _atom_site_occupancy
  C  C0  1  0.13607100  0.72721500  0.92679300  1
  C  C1  1  0.13607100  0.72721500  0.57320700  1
  C  C2  1  0.85715500  0.28767800  0.06262300  1
  C  C3  1  0.85715500  0.28767800  0.43737700  1
  Ni  Ni4  1  0.53576800  0.94564500  0.25000000  1
  Cu  Cu5  1  0.21001900  0.58203200  0.25000000  1
  Cu  Cu6  1  0.82015000  0.35770400  0.75000000  1
  C  C7  1  0.04206500  0.90499100  0.37465200  1
  C  C8  1  0.04206500  0.90499100  0.12534800  1
  C  C9  1  0.70351900  0.59321200  0.90578100  1
  C  C10  1  0.70351900  0.59321200  0.59421900  1
  C  C11  1  0.26904000  0.46363100  0.75000000  1
  C  C12  1  0.71247100  0.57564900  0.25000000  1
  C  C13  1  0.28510200  0.43174200  0.07433000  1
  C  C14  1  0.28510200  0.43174200  0.42567000  1
  C  C15  1  0.94403000  0.11366400  0.62371900  1
  C  C16  1  0.94403000  0.11366400  0.87628100  1
