# generated using pymatgen
data_Cu(NiC5)3
_symmetry_space_group_name_H-M   'P 1'
_cell_length_a   10.36021275
_cell_length_b   10.36021275
_cell_length_c   10.36021241
_cell_angle_alpha   42.76671258
_cell_angle_beta   42.76671258
_cell_angle_gamma   42.76671342
_symmetry_Int_Tables_number   1
_chemical_formula_structural   Cu(NiC5)3
_chemical_formula_sum   'Cu2 Ni6 C30'
_cell_volume   464.49265088
_cell_formula_units_Z   2
loop_
 _symmetry_equiv_pos_site_id
 _symmetry_equiv_pos_as_xyz
  1  'x, y, z'
loop_
 _atom_site_type_symbol
 _atom_site_label
 _atom_site_symmetry_multiplicity
 _atom_site_fract_x
 _atom_site_fract_y
 _atom_site_fract_z
 _atom_site_occupancy
  C  C0  1  0.50000000  0.50000000  0.50000000  1
  C  C1  1  0.00000000  0.00000000  0.00000000  1
  C  C2  1  0.73863900  0.06337400  0.34366000  1
  C  C3  1  0.93662600  0.65634000  0.26136100  1
  C  C4  1  0.65634000  0.26136100  0.93662600  1
  C  C5  1  0.26136100  0.93662600  0.65634000  1
  C  C6  1  0.06337400  0.34366000  0.73863900  1
  C  C7  1  0.34366000  0.73863900  0.06337400  1
  C  C8  1  0.07001600  0.67580500  0.02314600  1
  C  C9  1  0.85712900  0.80980100  0.41837500  1
  C  C10  1  0.41837500  0.85712900  0.80980100  1
  C  C11  1  0.80980100  0.41837500  0.85712900  1
  C  C12  1  0.14287100  0.19019900  0.58162500  1
  C  C13  1  0.67580500  0.02314600  0.07001600  1
  C  C14  1  0.19019900  0.58162500  0.14287100  1
  C  C15  1  0.97685400  0.92998400  0.32419500  1
  C  C16  1  0.32419500  0.97685400  0.92998400  1
  C  C17  1  0.92998400  0.32419500  0.97685400  1
  C  C18  1  0.02314600  0.07001600  0.67580500  1
  C  C19  1  0.58162500  0.14287100  0.19019900  1
  C  C20  1  0.36934800  0.36934800  0.36934800  1
  C  C21  1  0.63065200  0.63065200  0.63065200  1
  Ni  Ni22  1  0.05665700  0.69535700  0.11691700  1
  Ni  Ni23  1  0.88308300  0.94334300  0.30464300  1
  Ni  Ni24  1  0.69535700  0.11691700  0.05665700  1
  Ni  Ni25  1  0.11691700  0.05665700  0.69535700  1
  Ni  Ni26  1  0.94334300  0.30464300  0.88308300  1
  Ni  Ni27  1  0.30464300  0.88308300  0.94334300  1
  Cu  Cu28  1  0.81160600  0.81160600  0.81160600  1
  Cu  Cu29  1  0.18839400  0.18839400  0.18839400  1
  C  C30  1  0.33764600  0.99747100  0.28208300  1
  C  C31  1  0.28208300  0.33764600  0.99747100  1
  C  C32  1  0.66235400  0.00252900  0.71791700  1
  C  C33  1  0.86372200  0.86372200  0.86372200  1
  C  C34  1  0.13627800  0.13627800  0.13627800  1
  C  C35  1  0.71791700  0.66235400  0.00252900  1
  C  C36  1  0.00252900  0.71791700  0.66235400  1
  C  C37  1  0.99747100  0.28208300  0.33764600  1
