# generated using pymatgen
data_Cu2NiC2
_symmetry_space_group_name_H-M   'P 1'
_cell_length_a   6.15367891
_cell_length_b   6.15367891
_cell_length_c   6.15367891
_cell_angle_alpha   126.05821366
_cell_angle_beta   119.61614236
_cell_angle_gamma   85.25083164
_symmetry_Int_Tables_number   1
_chemical_formula_structural   Cu2NiC2
_chemical_formula_sum   'Cu4 Ni2 C4'
_cell_volume   156.42851463
_cell_formula_units_Z   2
loop_
 _symmetry_equiv_pos_site_id
 _symmetry_equiv_pos_as_xyz
  1  'x, y, z'
loop_
 _atom_site_type_symbol
 _atom_site_label
 _atom_site_symmetry_multiplicity
 _atom_site_fract_x
 _atom_site_fract_y
 _atom_site_fract_z
 _atom_site_occupancy
  Ni  Ni0  1  0.14394500  0.89394500  0.25000000  1
  Ni  Ni1  1  0.85605500  0.10605500  0.75000000  1
  Cu  Cu2  1  0.50000000  0.00000000  0.00000000  1
  Cu  Cu3  1  0.50000000  0.50000000  0.50000000  1
  Cu  Cu4  1  0.50000000  0.50000000  0.00000000  1
  Cu  Cu5  1  0.00000000  0.50000000  0.50000000  1
  C  C6  1  0.76370100  0.29889900  0.46480200  1
  C  C7  1  0.23629900  0.70110100  0.53519800  1
  C  C8  1  0.66590300  0.70110100  0.96480200  1
  C  C9  1  0.33409700  0.29889900  0.03519800  1
