# generated using pymatgen
data_CuNiC9
_symmetry_space_group_name_H-M   'P 1'
_cell_length_a   6.28867557
_cell_length_b   6.31449625
_cell_length_c   5.75082241
_cell_angle_alpha   62.62273823
_cell_angle_beta   63.08056121
_cell_angle_gamma   53.52080594
_symmetry_Int_Tables_number   1
_chemical_formula_structural   CuNiC9
_chemical_formula_sum   'Cu1 Ni1 C9'
_cell_volume   157.82805988
_cell_formula_units_Z   1
loop_
 _symmetry_equiv_pos_site_id
 _symmetry_equiv_pos_as_xyz
  1  'x, y, z'
loop_
 _atom_site_type_symbol
 _atom_site_label
 _atom_site_symmetry_multiplicity
 _atom_site_fract_x
 _atom_site_fract_y
 _atom_site_fract_z
 _atom_site_occupancy
  C  C0  1  0.17532100  0.17532100  0.32467900  1
  C  C1  1  0.82467900  0.82467900  0.67532100  1
  C  C2  1  0.50000000  0.50000000  0.00000000  1
  Ni  Ni3  1  0.00000000  0.00000000  0.00000000  1
  Cu  Cu4  1  0.50000000  0.50000000  0.50000000  1
  C  C5  1  0.74908400  0.25091600  0.24648400  1
  C  C6  1  0.74905200  0.25094800  0.75908900  1
  C  C7  1  0.70871300  0.70871300  0.29128700  1
  C  C8  1  0.25091600  0.74908400  0.75351600  1
  C  C9  1  0.25094800  0.74905200  0.24091100  1
  C  C10  1  0.29128700  0.29128700  0.70871300  1
