# generated using pymatgen
data_Cu2Ni9C7
_symmetry_space_group_name_H-M   'P 1'
_cell_length_a   3.75899027
_cell_length_b   8.61113036
_cell_length_c   7.98888701
_cell_angle_alpha   88.15670281
_cell_angle_beta   76.39283241
_cell_angle_gamma   77.39294174
_symmetry_Int_Tables_number   1
_chemical_formula_structural   Cu2Ni9C7
_chemical_formula_sum   'Cu2 Ni9 C7'
_cell_volume   245.22531923
_cell_formula_units_Z   1
loop_
 _symmetry_equiv_pos_site_id
 _symmetry_equiv_pos_as_xyz
  1  'x, y, z'
loop_
 _atom_site_type_symbol
 _atom_site_label
 _atom_site_symmetry_multiplicity
 _atom_site_fract_x
 _atom_site_fract_y
 _atom_site_fract_z
 _atom_site_occupancy
  C  C0  1  0.00000000  0.50000000  0.50000000  1
  C  C1  1  0.33750207  0.11744027  0.20755659  1
  C  C2  1  0.66249793  0.88255973  0.79244341  1
  C  C3  1  0.35529313  0.78094214  0.50847159  1
  C  C4  1  0.64470687  0.21905786  0.49152841  1
  C  C5  1  0.91237240  0.31395195  0.86130425  1
  C  C6  1  0.08762760  0.68604805  0.13869575  1
  Ni  Ni7  1  0.79858361  0.17078409  0.23204869  1
  Ni  Ni8  1  0.20141639  0.82921591  0.76795131  1
  Ni  Ni9  1  0.14592616  0.27041346  0.43773322  1
  Ni  Ni10  1  0.85407384  0.72958654  0.56226678  1
  Ni  Ni11  1  0.50000000  -0.00000000  0.00000000  1
  Ni  Ni12  1  0.52591599  0.59330210  0.35486592  1
  Ni  Ni13  1  0.47408401  0.40669790  0.64513408  1
  Ni  Ni14  1  0.35984868  0.93188329  0.34841835  1
  Ni  Ni15  1  0.64015132  0.06811671  0.65158165  1
  Cu  Cu16  1  0.28072682  0.37349724  0.06505011  1
  Cu  Cu17  1  0.71927318  0.62650276  0.93494989  1
