# generated using pymatgen
data_Cu3NiC22
_symmetry_space_group_name_H-M   'P 1'
_cell_length_a   17.62315385
_cell_length_b   8.86737559
_cell_length_c   22.13836390
_cell_angle_alpha   90.17224822
_cell_angle_beta   89.84057708
_cell_angle_gamma   120.27221613
_symmetry_Int_Tables_number   1
_chemical_formula_structural   Cu3NiC22
_chemical_formula_sum   'Cu27 Ni9 C198'
_cell_volume   2987.82137772
_cell_formula_units_Z   9
loop_
 _symmetry_equiv_pos_site_id
 _symmetry_equiv_pos_as_xyz
  1  'x, y, z'
loop_
 _atom_site_type_symbol
 _atom_site_label
 _atom_site_symmetry_multiplicity
 _atom_site_fract_x
 _atom_site_fract_y
 _atom_site_fract_z
 _atom_site_occupancy
  C  C0  1  0.31478093  0.00098351  0.24663475  1
  C  C1  1  0.18576645  0.35575989  0.25076677  1
  C  C2  1  0.49599006  0.63566677  0.25359609  1
  C  C3  1  0.31119850  0.61964403  0.74048200  1
  C  C4  1  0.81430472  0.62928736  0.74590733  1
  C  C5  1  0.99986536  0.35282001  0.75296609  1
  C  C6  1  0.18323645  0.01423001  0.75434389  1
  C  C7  1  0.68623621  0.01708267  0.75039448  1
  C  C8  1  0.16354400  0.35069154  0.58873790  1
  C  C9  1  0.83236402  0.69771690  0.08352253  1
  C  C10  1  0.48488420  0.65834971  0.91724563  1
  C  C11  1  0.35385522  0.04256631  0.91722717  1
  C  C12  1  0.85265713  0.03584202  0.92064546  1
  C  C13  1  0.66067040  0.30085960  0.91703732  1
  C  C14  1  0.98345078  0.30911279  0.41575800  1
  C  C15  1  0.16031897  0.02043816  0.41573001  1
  C  C16  1  0.35286699  0.66921307  0.42157857  1
  C  C17  1  0.85316300  0.66414184  0.41561467  1
  C  C18  1  0.99593422  0.97351599  0.50078000  1
  C  C19  1  0.50418051  0.00186994  0.50159532  1
  C  C20  1  0.01022895  0.01957001  0.00157851  1
  C  C21  1  0.50164876  0.01670515  0.00101754  1
  C  C22  1  0.32942703  0.33035442  0.83367985  1
  C  C23  1  0.83345095  0.33284999  0.83010622  1
  C  C24  1  0.33307797  0.33227493  0.33020458  1
  C  C25  1  0.83022415  0.33213712  0.33276500  1
  C  C26  1  0.16045876  0.66537688  0.16226003  1
  C  C27  1  0.67691320  0.69079159  0.16269343  1
  C  C28  1  0.17496655  0.66964868  0.66149133  1
  C  C29  1  0.66133279  0.65499025  0.66179956  1
  C  C30  1  0.00039283  0.99210122  0.34985488  1
  C  C31  1  0.50299240  0.00201164  0.35309363  1
  C  C32  1  0.00444476  0.00976415  0.85206388  1
  C  C33  1  0.50222378  0.00943046  0.85085460  1
  C  C34  1  0.33428071  0.34244379  0.68146461  1
  C  C35  1  0.82960838  0.32457523  0.68375161  1
  C  C36  1  0.32951599  0.33413930  0.18385451  1
  C  C37  1  0.83377502  0.32580901  0.18240484  1
  C  C38  1  0.33209086  0.33142621  0.98150681  1
  C  C39  1  0.84028382  0.32225848  0.99011493  1
  C  C40  1  0.34293831  0.35555378  0.48928666  1
  C  C41  1  0.83186779  0.33341213  0.48151157  1
  C  C42  1  0.16471900  0.66287463  0.01806788  1
  C  C43  1  0.66669761  0.66837175  0.02097255  1
  C  C44  1  0.17025126  0.67945812  0.52021049  1
  C  C45  1  0.66454812  0.66503979  0.51813338  1
  C  C46  1  0.67079059  0.66739368  0.31571975  1
  C  C47  1  0.16546590  0.65604693  0.81544027  1
  Ni  Ni48  1  0.14287606  0.99924970  0.25001799  1
  Ni  Ni49  1  0.35274011  0.70925346  0.25508637  1
  Ni  Ni50  1  0.14823255  0.29127563  0.74991343  1
  Ni  Ni51  1  0.64295380  0.28737276  0.74990558  1
  Ni  Ni52  1  0.85032261  0.99518456  0.75652177  1
  Ni  Ni53  1  0.33740196  0.64529185  0.58506373  1
  Ni  Ni54  1  0.83429696  0.03322549  0.08480953  1
  Ni  Ni55  1  0.52134840  0.37637165  0.91786585  1
  Ni  Ni56  1  0.02096931  0.66616578  0.41754065  1
  C  C57  1  0.99033583  0.00311895  0.65485205  1
  C  C58  1  0.50099163  0.01370074  0.64473326  1
  C  C59  1  0.00006490  0.99772647  0.14870193  1
  C  C60  1  0.49363950  0.99071900  0.15169459  1
  C  C61  1  0.15885522  0.67618372  0.30781789  1
  C  C62  1  0.65945013  0.64266035  0.80895672  1
  Cu  Cu63  1  0.64506837  0.00343099  0.24958651  1
  Cu  Cu64  1  0.85088111  0.70178752  0.24901361  1
  Cu  Cu65  1  -0.00140117  0.29091919  0.25217722  1
  Cu  Cu66  1  0.50457309  0.29172781  0.24823645  1
  Cu  Cu67  1  0.00081801  0.71457866  0.74913947  1
  Cu  Cu68  1  0.50141412  0.70943817  0.75163679  1
  Cu  Cu69  1  0.35482421  0.00267009  0.74959198  1
  Cu  Cu70  1  0.48235330  0.33303927  0.58475843  1
  Cu  Cu71  1  0.97774725  0.32401719  0.58459360  1
  Cu  Cu72  1  0.18248333  0.03622621  0.58513972  1
  Cu  Cu73  1  0.68422143  0.03634798  0.58392021  1
  Cu  Cu74  1  0.83651726  0.63742484  0.58522413  1
  Cu  Cu75  1  0.47998820  0.63622471  0.08639171  1
  Cu  Cu76  1  0.98284024  0.63162083  0.08509026  1
  Cu  Cu77  1  0.33695989  0.03616280  0.08483383  1
  Cu  Cu78  1  0.18484693  0.33317889  0.08418908  1
  Cu  Cu79  1  0.68026637  0.32067214  0.08586405  1
  Cu  Cu80  1  0.31221435  0.66414428  0.91652154  1
  Cu  Cu81  1  0.81452640  0.66338586  0.91595393  1
  Cu  Cu82  1  0.01887096  0.37413176  0.91649104  1
  Cu  Cu83  1  0.16401407  0.95488260  0.91702633  1
  Cu  Cu84  1  0.66723976  0.95757976  0.91551333  1
  Cu  Cu85  1  0.31437628  0.96455044  0.41520474  1
  Cu  Cu86  1  0.81089308  0.95837540  0.41710426  1
  Cu  Cu87  1  0.16710203  0.37579328  0.41617762  1
  Cu  Cu88  1  0.66434365  0.37209274  0.41751095  1
  Cu  Cu89  1  0.52092303  0.66592183  0.41514787  1
  C  C90  1  0.10862441  0.04601737  0.31008620  1
  C  C91  1  0.60344507  0.02542804  0.30312276  1
  C  C92  1  0.41177966  0.79382733  0.31330354  1
  C  C93  1  0.90267398  0.78678496  0.30366331  1
  C  C94  1  0.48985634  0.18237116  0.30104370  1
  C  C95  1  0.98756629  0.19234556  0.30793498  1
  C  C96  1  0.10255553  0.15647299  0.80348788  1
  C  C97  1  0.60855523  0.17107469  0.80962089  1
  C  C98  1  0.48611263  0.78271779  0.80742187  1
  C  C99  1  0.98134450  0.78556320  0.80255909  1
  C  C100  1  0.40353480  0.01956035  0.80547191  1
  C  C101  1  0.90738125  0.02648260  0.81545061  1
  C  C102  1  0.39506238  0.96380962  0.69600309  1
  C  C103  1  0.89018763  0.93701767  0.69603018  1
  C  C104  1  0.07965418  0.20066915  0.68656025  1
  C  C105  1  0.57798331  0.18778509  0.69032396  1
  C  C106  1  0.01824956  0.82973540  0.69406789  1
  C  C107  1  0.51662532  0.82362863  0.69865686  1
  C  C108  1  0.39588092  0.84908006  0.19530077  1
  C  C109  1  0.89298636  0.81203263  0.19285935  1
  C  C110  1  0.01520399  0.20785024  0.19854847  1
  C  C111  1  0.52024416  0.21228073  0.19178871  1
  C  C112  1  0.07839136  0.97209700  0.19062434  1
  C  C113  1  0.58388999  0.96382115  0.19382605  1
  C  C114  1  0.44013760  0.34803516  0.63950450  1
  C  C115  1  0.93667558  0.34316709  0.63953814  1
  C  C116  1  0.23370459  0.12116952  0.64010037  1
  C  C117  1  0.73377852  0.11130908  0.64029024  1
  C  C118  1  0.32073532  0.52358421  0.64360457  1
  C  C119  1  0.82845131  0.53565818  0.63957576  1
  C  C120  1  0.43712082  0.53172666  0.14069311  1
  C  C121  1  0.94124587  0.53159607  0.13991368  1
  C  C122  1  0.32864342  0.12141567  0.13946265  1
  C  C123  1  0.82136130  0.12643471  0.14183986  1
  C  C124  1  0.23488167  0.35820773  0.14039946  1
  C  C125  1  0.73740600  0.34928275  0.13791740  1
  C  C126  1  0.22796078  0.30788043  0.03140967  1
  C  C127  1  0.71764409  0.29491126  0.02899675  1
  C  C128  1  0.42752792  0.56094112  0.03109588  1
  C  C129  1  0.92621085  0.55365041  0.03135175  1
  C  C130  1  0.34929083  0.13877623  0.02954007  1
  C  C131  1  0.85612566  0.13642207  0.02065525  1
  C  C132  1  0.22429622  0.14573741  0.53028688  1
  C  C133  1  0.72809977  0.14757033  0.53123521  1
  C  C134  1  0.35596934  0.57107787  0.52259038  1
  C  C135  1  0.84991139  0.56092697  0.52942719  1
  C  C136  1  0.42942694  0.30390429  0.53008188  1
  C  C137  1  0.92612763  0.29955863  0.52940164  1
  C  C138  1  0.27057902  0.69675116  0.96871257  1
  C  C139  1  0.77383378  0.69428907  0.96908305  1
  C  C140  1  0.07221235  0.46631363  0.96928853  1
  C  C141  1  0.58768440  0.47009842  0.97219515  1
  C  C142  1  0.15740041  0.84873883  0.96985789  1
  C  C143  1  0.65803238  0.85088307  0.96808231  1
  C  C144  1  0.27344652  0.84776634  0.46646543  1
  C  C145  1  0.77146949  0.84559170  0.47026299  1
  C  C146  1  0.15801905  0.46121070  0.47030935  1
  C  C147  1  0.65405728  0.45593939  0.47177051  1
  C  C148  1  0.08726446  0.70608968  0.47187142  1
  C  C149  1  0.57340323  0.67994483  0.46801256  1
  C  C150  1  0.06761865  0.62128492  0.35548016  1
  C  C151  1  0.56121417  0.65074622  0.35772656  1
  C  C152  1  0.25973511  0.88700095  0.35746954  1
  C  C153  1  0.76013026  0.87847826  0.36162846  1
  C  C154  1  0.18452384  0.48478532  0.36041526  1
  C  C155  1  0.67997768  0.48215518  0.36300098  1
  C  C156  1  0.05849586  0.46887203  0.85918321  1
  C  C157  1  0.56757690  0.51360883  0.85589257  1
  C  C158  1  0.17863014  0.87858494  0.86041809  1
  C  C159  1  0.68445455  0.88546474  0.85880030  1
  C  C160  1  0.26406253  0.64497326  0.85970265  1
  C  C161  1  0.75876512  0.63314582  0.85908222  1
  C  C162  1  0.00633624  0.83363427  0.41083676  1
  C  C163  1  0.51082717  0.82366751  0.41437602  1
  C  C164  1  0.40284139  0.98661621  0.40842042  1
  C  C165  1  0.90190587  0.98326792  0.41164198  1
  C  C166  1  0.08417530  0.20384392  0.41141113  1
  C  C167  1  0.58583895  0.19666822  0.41119091  1
  C  C168  1  0.00898425  0.19681285  0.91591558  1
  C  C169  1  0.50653917  0.17939326  0.91102895  1
  C  C170  1  0.08449504  0.96926175  0.91380965  1
  C  C171  1  0.58440166  0.96420390  0.91135649  1
  C  C172  1  0.40332462  0.82085787  0.91224197  1
  C  C173  1  0.90241768  0.81903338  0.90947963  1
  C  C174  1  0.49225941  0.17108130  0.58750482  1
  C  C175  1  0.98460887  0.15683627  0.58830375  1
  C  C176  1  0.09348219  0.02662106  0.58841486  1
  C  C177  1  0.59513913  0.02372457  0.58797827  1
  C  C178  1  0.42972202  0.84438312  0.59519489  1
  C  C179  1  0.92129859  0.81811577  0.59024817  1
  C  C180  1  0.48685697  0.81758031  0.09233455  1
  C  C181  1  0.99107210  0.81167068  0.08871127  1
  C  C182  1  0.42180093  0.02528262  0.08918523  1
  C  C183  1  0.92793969  0.01104874  0.09578795  1
  C  C184  1  0.09538234  0.16903165  0.08887012  1
  C  C185  1  0.58970375  0.15355809  0.09257860  1
  C  C186  1  0.34677581  0.15840535  0.74175977  1
  C  C187  1  0.84161314  0.16512177  0.74387815  1
  C  C188  1  0.24612561  0.31565427  0.74440629  1
  C  C189  1  0.74253213  0.32705922  0.73986049  1
  C  C190  1  0.42711334  0.53140256  0.74461461  1
  C  C191  1  0.92488826  0.53663826  0.73914785  1
  C  C192  1  0.34206732  0.51940175  0.24369539  1
  C  C193  1  0.84296111  0.52886136  0.24228934  1
  C  C194  1  0.42455236  0.30718833  0.24071200  1
  C  C195  1  0.92528939  0.32230082  0.24543437  1
  C  C196  1  0.24268113  0.15840021  0.24013820  1
  C  C197  1  0.73143613  0.15978673  0.24215000  1
  C  C198  1  0.32123347  0.50800693  0.92357133  1
  C  C199  1  0.81872814  0.50091692  0.92162433  1
  C  C200  1  0.42429665  0.36021578  0.91966016  1
  C  C201  1  0.92948746  0.35557079  0.91927606  1
  C  C202  1  0.24482904  0.13191593  0.92244595  1
  C  C203  1  0.74317506  0.13990515  0.92041777  1
  C  C204  1  0.31871938  0.13537171  0.42202580  1
  C  C205  1  0.82071715  0.13375117  0.42384621  1
  C  C206  1  0.24320977  0.34542056  0.42060170  1
  C  C207  1  0.74513359  0.35680719  0.42275016  1
  C  C208  1  0.43073163  0.50627293  0.41760910  1
  C  C209  1  0.92398546  0.48831644  0.41912993  1
  C  C210  1  0.17285382  0.48611386  0.07749862  1
  C  C211  1  0.66907339  0.47419602  0.08142511  1
  C  C212  1  0.07105204  0.65333039  0.07836590  1
  C  C213  1  0.56868652  0.66240406  0.08133722  1
  C  C214  1  0.26034652  0.85814489  0.08000056  1
  C  C215  1  0.75422228  0.83013150  0.07980314  1
  C  C216  1  0.16949961  0.85996240  0.58117980  1
  C  C217  1  0.67139306  0.85898167  0.57713206  1
  C  C218  1  0.24846372  0.65827032  0.57932041  1
  C  C219  1  0.75992550  0.66202950  0.58031967  1
  C  C220  1  0.06824963  0.47329510  0.57998567  1
  C  C221  1  0.57125598  0.48863032  0.57972830  1
  C  C222  1  0.15114222  0.81833755  0.25235735  1
  C  C223  1  0.65087888  0.84141718  0.25233995  1
  C  C224  1  0.25042035  0.68416901  0.26047482  1
  C  C225  1  0.76308742  0.68573173  0.25254656  1
  C  C226  1  0.08570972  0.46536906  0.25404977  1
  C  C227  1  0.58105559  0.47079891  0.25281062  1
  C  C228  1  0.15479629  0.48270141  0.75154205  1
  C  C229  1  0.65077304  0.48400295  0.75291992  1
  C  C230  1  0.08173089  0.70217429  0.75427843  1
  C  C231  1  0.58685705  0.70743990  0.75522077  1
  C  C232  1  0.26442260  0.84533609  0.75325085  1
  C  C233  1  0.74874164  0.81490519  0.76087984  1
