# generated using pymatgen
data_Cu2NiC10
_symmetry_space_group_name_H-M   'P 1'
_cell_length_a   5.42742981
_cell_length_b   5.67394597
_cell_length_c   6.98454552
_cell_angle_alpha   113.32622322
_cell_angle_beta   112.21404087
_cell_angle_gamma   91.49530753
_symmetry_Int_Tables_number   1
_chemical_formula_structural   Cu2NiC10
_chemical_formula_sum   'Cu2 Ni1 C10'
_cell_volume   178.89664253
_cell_formula_units_Z   1
loop_
 _symmetry_equiv_pos_site_id
 _symmetry_equiv_pos_as_xyz
  1  'x, y, z'
loop_
 _atom_site_type_symbol
 _atom_site_label
 _atom_site_symmetry_multiplicity
 _atom_site_fract_x
 _atom_site_fract_y
 _atom_site_fract_z
 _atom_site_occupancy
  C  C0  1  0.13284900  0.38252600  0.76516400  1
  C  C1  1  0.88966900  0.63932200  0.27904700  1
  Ni  Ni2  1  0.83815600  0.08774500  0.17581000  1
  Cu  Cu3  1  0.60808000  0.85791400  0.71578500  1
  Cu  Cu4  1  0.35202300  0.10162400  0.20348000  1
  C  C5  1  0.81273500  0.97046200  0.58581500  1
  C  C6  1  0.27357200  0.61502400  0.58579400  1
  C  C7  1  0.18557200  0.05151100  0.40824700  1
  C  C8  1  0.72325700  0.35621300  0.40817500  1
  C  C9  1  0.09241600  0.30423300  0.09369800  1
  C  C10  1  0.50152700  0.78895100  0.09359800  1
  C  C11  1  0.91531400  0.76141400  0.93992700  1
  C  C12  1  0.52483100  0.17829900  0.93990500  1
