# generated using pymatgen
data_Cu2Ni2C3
_symmetry_space_group_name_H-M   'P 1'
_cell_length_a   8.28714160
_cell_length_b   8.28714160
_cell_length_c   10.10521302
_cell_angle_alpha   87.03676349
_cell_angle_beta   87.03676349
_cell_angle_gamma   63.34904010
_symmetry_Int_Tables_number   1
_chemical_formula_structural   Cu2Ni2C3
_chemical_formula_sum   'Cu16 Ni16 C24'
_cell_volume   619.11466167
_cell_formula_units_Z   8
loop_
 _symmetry_equiv_pos_site_id
 _symmetry_equiv_pos_as_xyz
  1  'x, y, z'
loop_
 _atom_site_type_symbol
 _atom_site_label
 _atom_site_symmetry_multiplicity
 _atom_site_fract_x
 _atom_site_fract_y
 _atom_site_fract_z
 _atom_site_occupancy
  C  C0  1  0.02982700  0.97017300  0.75000000  1
  C  C1  1  0.97017300  0.02982700  0.25000000  1
  C  C2  1  0.97199800  0.53419200  0.69309600  1
  C  C3  1  0.46580800  0.02800200  0.80690400  1
  C  C4  1  0.02800200  0.46580800  0.30690400  1
  C  C5  1  0.53419200  0.97199800  0.19309600  1
  C  C6  1  0.30268100  0.10072800  0.48702200  1
  C  C7  1  0.89927200  0.69731900  0.01297800  1
  C  C8  1  0.10072800  0.30268100  0.98702200  1
  C  C9  1  0.69731900  0.89927200  0.51297800  1
  C  C10  1  0.76849100  0.49234100  0.92596100  1
  C  C11  1  0.50765900  0.23150900  0.57403900  1
  C  C12  1  0.23150900  0.50765900  0.07403900  1
  C  C13  1  0.49234100  0.76849100  0.42596100  1
  C  C14  1  0.31455100  0.57828600  0.63146200  1
  C  C15  1  0.42171400  0.68544900  0.86853800  1
  C  C16  1  0.68544900  0.42171400  0.36853800  1
  C  C17  1  0.57828600  0.31455100  0.13146200  1
  C  C18  1  0.17703200  0.69652300  0.52311300  1
  C  C19  1  0.30347700  0.82296800  0.97688700  1
  C  C20  1  0.82296800  0.30347700  0.47688700  1
  C  C21  1  0.69652300  0.17703200  0.02311300  1
  C  C22  1  0.34493100  0.65506900  0.25000000  1
  C  C23  1  0.65506900  0.34493100  0.75000000  1
  Ni  Ni24  1  0.88201000  0.50212100  0.93618800  1
  Ni  Ni25  1  0.49787900  0.11799000  0.56381200  1
  Ni  Ni26  1  0.11799000  0.49787900  0.06381200  1
  Ni  Ni27  1  0.50212100  0.88201000  0.43618800  1
  Ni  Ni28  1  0.18604800  0.66796100  0.61875900  1
  Ni  Ni29  1  0.33203900  0.81395200  0.88124100  1
  Ni  Ni30  1  0.81395200  0.33203900  0.38124100  1
  Ni  Ni31  1  0.66796100  0.18604800  0.11875900  1
  Ni  Ni32  1  0.59476200  0.47926000  0.85570800  1
  Ni  Ni33  1  0.31930400  0.83463600  0.18968000  1
  Ni  Ni34  1  0.40523800  0.52074000  0.14429200  1
  Ni  Ni35  1  0.47926000  0.59476200  0.35570800  1
  Ni  Ni36  1  0.83463600  0.31930400  0.68968000  1
  Ni  Ni37  1  0.68069600  0.16536400  0.81032000  1
  Ni  Ni38  1  0.16536400  0.68069600  0.31032000  1
  Ni  Ni39  1  0.52074000  0.40523800  0.64429200  1
  Cu  Cu40  1  0.02185500  0.25824000  0.15203000  1
  Cu  Cu41  1  0.67711200  0.79500800  0.67856100  1
  Cu  Cu42  1  0.79500800  0.67711200  0.17856100  1
  Cu  Cu43  1  0.32288800  0.20499200  0.32143900  1
  Cu  Cu44  1  0.13599800  0.33372800  0.52362200  1
  Cu  Cu45  1  0.66627200  0.86400200  0.97637800  1
  Cu  Cu46  1  0.86400200  0.66627200  0.47637800  1
  Cu  Cu47  1  0.33372800  0.13599800  0.02362200  1
  Cu  Cu48  1  0.04446100  0.13704300  0.92243200  1
  Cu  Cu49  1  0.86295700  0.95553900  0.57756800  1
  Cu  Cu50  1  0.95553900  0.86295700  0.07756800  1
  Cu  Cu51  1  0.13704300  0.04446100  0.42243200  1
  Cu  Cu52  1  0.97814500  0.74176000  0.84797000  1
  Cu  Cu53  1  0.25824000  0.02185500  0.65203000  1
  Cu  Cu54  1  0.74176000  0.97814500  0.34797000  1
  Cu  Cu55  1  0.20499200  0.32288800  0.82143900  1
