# generated using pymatgen
data_Cu6NiC12
_symmetry_space_group_name_H-M   'P 1'
_cell_length_a   5.16399193
_cell_length_b   5.28813584
_cell_length_c   8.86396625
_cell_angle_alpha   92.78307670
_cell_angle_beta   86.61926497
_cell_angle_gamma   103.95066912
_symmetry_Int_Tables_number   1
_chemical_formula_structural   Cu6NiC12
_chemical_formula_sum   'Cu6 Ni1 C12'
_cell_volume   234.36028549
_cell_formula_units_Z   1
loop_
 _symmetry_equiv_pos_site_id
 _symmetry_equiv_pos_as_xyz
  1  'x, y, z'
loop_
 _atom_site_type_symbol
 _atom_site_label
 _atom_site_symmetry_multiplicity
 _atom_site_fract_x
 _atom_site_fract_y
 _atom_site_fract_z
 _atom_site_occupancy
  Ni  Ni0  1  0.51064345  0.00122040  0.34133737  1
  Cu  Cu1  1  0.98557024  0.00719769  0.99964910  1
  Cu  Cu2  1  0.00665729  0.99393483  0.33821722  1
  Cu  Cu3  1  0.01003597  0.99728620  0.67105558  1
  Cu  Cu4  1  0.51653704  0.48087001  0.83633529  1
  Cu  Cu5  1  0.49619992  0.50232112  0.16463205  1
  Cu  Cu6  1  0.50088007  0.49986715  0.51164214  1
  C  C7  1  0.17548123  0.87062702  0.49892830  1
  C  C8  1  0.14905753  0.87444628  0.82376074  1
  C  C9  1  0.30382723  0.30425502  0.00420471  1
  C  C10  1  0.32753056  0.29222885  0.33640441  1
  C  C11  1  0.27949882  0.32623372  0.67369054  1
  C  C12  1  0.71492958  0.67281695  0.00085889  1
  C  C13  1  0.68297755  0.69946125  0.34245949  1
  C  C14  1  0.69189647  0.70091843  0.67129718  1
  C  C15  1  0.83452733  0.12274356  0.18751537  1
  C  C16  1  0.25529492  0.80968256  0.18785754  1
  C  C17  1  0.76856114  0.17213173  0.50294621  1
  C  C18  1  0.80378467  0.17175621  0.82149488  1
