# generated using pymatgen
data_Cu2NiC18
_symmetry_space_group_name_H-M   'P 1'
_cell_length_a   9.01893523
_cell_length_b   9.01893493
_cell_length_c   22.13047967
_cell_angle_alpha   89.40028395
_cell_angle_beta   90.59971605
_cell_angle_gamma   119.42212735
_symmetry_Int_Tables_number   1
_chemical_formula_structural   Cu2NiC18
_chemical_formula_sum   'Cu12 Ni6 C108'
_cell_volume   1567.83242799
_cell_formula_units_Z   6
loop_
 _symmetry_equiv_pos_site_id
 _symmetry_equiv_pos_as_xyz
  1  'x, y, z'
loop_
 _atom_site_type_symbol
 _atom_site_label
 _atom_site_symmetry_multiplicity
 _atom_site_fract_x
 _atom_site_fract_y
 _atom_site_fract_z
 _atom_site_occupancy
  C  C0  1  0.63906490  0.00416092  0.24996136  1
  C  C1  1  0.36976603  0.36732164  0.24570703  1
  C  C2  1  0.99157686  0.62555897  0.24955757  1
  C  C3  1  0.63267836  0.63023397  0.74570703  1
  C  C4  1  0.99583908  0.36093510  0.74996136  1
  C  C5  1  0.37444103  0.00842314  0.74955757  1
  C  C6  1  0.30573190  0.33749392  0.58329436  1
  C  C7  1  0.03643303  0.70065464  0.57904003  1
  C  C8  1  0.65824386  0.95889197  0.58289057  1
  C  C9  1  0.29934536  0.96356697  0.07904003  1
  C  C10  1  0.66250608  0.69426810  0.08329436  1
  C  C11  1  0.04110803  0.34175614  0.08289057  1
  C  C12  1  0.97239790  0.67082792  0.91662836  1
  C  C13  1  0.70309903  0.03398864  0.91237403  1
  C  C14  1  0.32490986  0.29222597  0.91622457  1
  C  C15  1  0.96601136  0.29690097  0.41237403  1
  C  C16  1  0.32917208  0.02760210  0.41662836  1
  C  C17  1  0.70777403  0.67509014  0.41622457  1
  C  C18  1  0.99836145  0.99321712  0.49633823  1
  C  C19  1  0.00678288  0.00163855  0.99633823  1
  C  C20  1  0.66502845  0.32655012  0.82967123  1
  C  C21  1  0.67344988  0.33497155  0.32967123  1
  C  C22  1  0.33169445  0.65988412  0.16300523  1
  C  C23  1  0.34011588  0.66830555  0.66300523  1
  C  C24  1  0.99816008  0.99984410  0.64866177  1
  C  C25  1  0.00015590  0.00183992  0.14866177  1
  C  C26  1  0.66482708  0.33317710  0.98199477  1
  C  C27  1  0.66682290  0.33517292  0.48199477  1
  C  C28  1  0.33149308  0.66651110  0.31532877  1
  C  C29  1  0.33348890  0.66850692  0.81532877  1
  Ni  Ni30  1  0.98208230  0.98725381  0.35167831  1
  Ni  Ni31  1  0.01274619  0.01791770  0.85167831  1
  Ni  Ni32  1  0.64874930  0.32058681  0.68501131  1
  Ni  Ni33  1  0.67941319  0.35125070  0.18501131  1
  Ni  Ni34  1  0.31541530  0.65392081  0.01834531  1
  Ni  Ni35  1  0.34607919  0.68458470  0.51834531  1
  Cu  Cu36  1  0.70903400  0.70167402  0.25127084  1
  Cu  Cu37  1  0.99072002  0.28757724  0.25194776  1
  Cu  Cu38  1  0.29832598  0.29096600  0.75127084  1
  Cu  Cu39  1  0.71242276  0.00927998  0.75194776  1
  Cu  Cu40  1  0.37570100  0.03500702  0.58460384  1
  Cu  Cu41  1  0.65738702  0.62091024  0.58528076  1
  Cu  Cu42  1  0.96499298  0.62429900  0.08460384  1
  Cu  Cu43  1  0.37908976  0.34261298  0.08528076  1
  Cu  Cu44  1  0.04236700  0.36834102  0.91793784  1
  Cu  Cu45  1  0.32405302  0.95424424  0.91861476  1
  Cu  Cu46  1  0.63165898  0.95763300  0.41793784  1
  Cu  Cu47  1  0.04575576  0.67594698  0.41861476  1
  C  C48  1  0.29478694  0.00764753  0.25263401  1
  C  C49  1  0.99235247  0.70521306  0.75263401  1
  C  C50  1  0.96145394  0.34098053  0.58596701  1
  C  C51  1  0.65901947  0.03854606  0.08596701  1
  C  C52  1  0.62811994  0.67431453  0.91930101  1
  C  C53  1  0.32568547  0.37188006  0.41930101  1
  C  C54  1  0.20526262  0.03306295  0.30744777  1
  C  C55  1  0.83314771  0.79498908  0.30916025  1
  C  C56  1  0.96713618  0.16321958  0.30985416  1
  C  C57  1  0.20501092  0.16685229  0.80916025  1
  C  C58  1  0.96693705  0.79473738  0.80744777  1
  C  C59  1  0.83678042  0.03286382  0.80985416  1
  C  C60  1  0.78795177  0.96603143  0.69167877  1
  C  C61  1  0.17830629  0.21129277  0.69118473  1
  C  C62  1  0.02853867  0.81663889  0.69491421  1
  C  C63  1  0.78870723  0.82169371  0.19118473  1
  C  C64  1  0.03396857  0.21204823  0.19167877  1
  C  C65  1  0.18336111  0.97146133  0.19491421  1
  C  C66  1  0.87192962  0.36639595  0.64078077  1
  C  C67  1  0.49981471  0.12832208  0.64249325  1
  C  C68  1  0.63380318  0.49655258  0.64318716  1
  C  C69  1  0.87167792  0.50018529  0.14249325  1
  C  C70  1  0.63360405  0.12807038  0.14078077  1
  C  C71  1  0.50344742  0.36619682  0.14318716  1
  C  C72  1  0.45461877  0.29936443  0.02501177  1
  C  C73  1  0.84497329  0.54462577  0.02451773  1
  C  C74  1  0.69520567  0.14997189  0.02824721  1
  C  C75  1  0.45537423  0.15502671  0.52451773  1
  C  C76  1  0.70063557  0.54538123  0.52501177  1
  C  C77  1  0.85002811  0.30479433  0.52824721  1
  C  C78  1  0.53859562  0.69972995  0.97411477  1
  C  C79  1  0.16648071  0.46165608  0.97582725  1
  C  C80  1  0.30046918  0.82988658  0.97652116  1
  C  C81  1  0.53834392  0.83351929  0.47582725  1
  C  C82  1  0.30027005  0.46140438  0.47411477  1
  C  C83  1  0.17011342  0.69953082  0.47652116  1
  C  C84  1  0.12128477  0.63269843  0.35834577  1
  C  C85  1  0.51163929  0.87795977  0.35785173  1
  C  C86  1  0.36187167  0.48330589  0.36158121  1
  C  C87  1  0.12204023  0.48836071  0.85785173  1
  C  C88  1  0.36730157  0.87871523  0.85834577  1
  C  C89  1  0.51669411  0.63812833  0.86158121  1
  C  C90  1  0.03241153  0.85047100  0.40986206  1
  C  C91  1  0.82100925  0.97588240  0.41092837  1
  C  C92  1  0.16861838  0.19449488  0.41197980  1
  C  C93  1  0.02411760  0.17899075  0.91092837  1
  C  C94  1  0.14952900  0.96758847  0.90986206  1
  C  C95  1  0.80550512  0.83138162  0.91197980  1
  C  C96  1  0.97937659  0.17795371  0.58890152  1
  C  C97  1  0.18484644  0.01573263  0.58805986  1
  C  C98  1  0.82630065  0.81243402  0.58827161  1
  C  C99  1  0.98426737  0.81515356  0.08805986  1
  C  C100  1  0.82204629  0.02062341  0.08890152  1
  C  C101  1  0.18756598  0.17369935  0.08827161  1
  C  C102  1  0.69907853  0.18380400  0.74319506  1
  C  C103  1  0.48767625  0.30921540  0.74426137  1
  C  C104  1  0.83528538  0.52782788  0.74531280  1
  C  C105  1  0.69078460  0.51232375  0.24426137  1
  C  C106  1  0.81619600  0.30092147  0.24319506  1
  C  C107  1  0.47217212  0.16471462  0.24531280  1
  C  C108  1  0.64604359  0.51128671  0.92223452  1
  C  C109  1  0.85151344  0.34906563  0.92139286  1
  C  C110  1  0.49296765  0.14576702  0.92160461  1
  C  C111  1  0.65093437  0.14848656  0.42139286  1
  C  C112  1  0.48871329  0.35395641  0.42223452  1
  C  C113  1  0.85423298  0.50703235  0.42160461  1
  C  C114  1  0.36574453  0.51713800  0.07652906  1
  C  C115  1  0.15434225  0.64254940  0.07759537  1
  C  C116  1  0.50195138  0.86116188  0.07864680  1
  C  C117  1  0.35745060  0.84565775  0.57759537  1
  C  C118  1  0.48286200  0.63425547  0.57652906  1
  C  C119  1  0.13883812  0.49804862  0.57864680  1
  C  C120  1  0.31270959  0.84462071  0.25556852  1
  C  C121  1  0.51817944  0.68239963  0.25472686  1
  C  C122  1  0.15963365  0.47910102  0.25493861  1
  C  C123  1  0.31760037  0.48182056  0.75472686  1
  C  C124  1  0.15537929  0.68729041  0.75556852  1
  C  C125  1  0.52089898  0.84036635  0.75493861  1
