# generated using pymatgen
data_Cu4NiC
_symmetry_space_group_name_H-M   'P 1'
_cell_length_a   8.64300606
_cell_length_b   8.64300606
_cell_length_c   8.64300606
_cell_angle_alpha   140.27635094
_cell_angle_beta   140.27635094
_cell_angle_gamma   57.43393866
_symmetry_Int_Tables_number   1
_chemical_formula_structural   Cu4NiC
_chemical_formula_sum   'Cu8 Ni2 C2'
_cell_volume   261.44629833
_cell_formula_units_Z   2
loop_
 _symmetry_equiv_pos_site_id
 _symmetry_equiv_pos_as_xyz
  1  'x, y, z'
loop_
 _atom_site_type_symbol
 _atom_site_label
 _atom_site_symmetry_multiplicity
 _atom_site_fract_x
 _atom_site_fract_y
 _atom_site_fract_z
 _atom_site_occupancy
  C  C0  1  0.00000000  0.00000000  0.00000000  1
  C  C1  1  0.75000000  0.25000000  0.50000000  1
  Ni  Ni2  1  0.50000000  0.50000000  0.00000000  1
  Ni  Ni3  1  0.25000000  0.75000000  0.50000000  1
  Cu  Cu4  1  0.56169100  0.32984900  0.76815800  1
  Cu  Cu5  1  0.07984900  0.81169100  0.26815800  1
  Cu  Cu6  1  0.54353300  0.81169100  0.73184200  1
  Cu  Cu7  1  0.56169100  0.79353300  0.23184200  1
  Cu  Cu8  1  0.18830900  0.45646700  0.26815800  1
  Cu  Cu9  1  0.20646700  0.43830900  0.76815800  1
  Cu  Cu10  1  0.67015100  0.43830900  0.23184200  1
  Cu  Cu11  1  0.18830900  0.92015100  0.73184200  1
