# generated using pymatgen
data_Cu2NiC17
_symmetry_space_group_name_H-M   'P 1'
_cell_length_a   15.57683259
_cell_length_b   26.88180747
_cell_length_c   8.96318947
_cell_angle_alpha   90.00000000
_cell_angle_beta   125.26716389
_cell_angle_gamma   90.00000000
_symmetry_Int_Tables_number   1
_chemical_formula_structural   Cu2NiC17
_chemical_formula_sum   'Cu24 Ni12 C204'
_cell_volume   3064.35937456
_cell_formula_units_Z   12
loop_
 _symmetry_equiv_pos_site_id
 _symmetry_equiv_pos_as_xyz
  1  'x, y, z'
loop_
 _atom_site_type_symbol
 _atom_site_label
 _atom_site_symmetry_multiplicity
 _atom_site_fract_x
 _atom_site_fract_y
 _atom_site_fract_z
 _atom_site_occupancy
  C  C0  1  0.25763934  0.25387493  0.00958912  1
  C  C1  1  0.25030071  0.58672513  0.01886437  1
  C  C2  1  0.25160964  0.91738190  0.02033459  1
  C  C3  1  0.75763934  0.24612507  0.50958912  1
  C  C4  1  0.75160964  0.58261810  0.52033459  1
  C  C5  1  0.75030071  0.91327487  0.51886437  1
  C  C6  1  0.75030071  0.08672513  0.01886437  1
  C  C7  1  0.75160964  0.41738190  0.02033459  1
  C  C8  1  0.75763934  0.75387493  0.00958912  1
  C  C9  1  0.25160964  0.08261810  0.52033459  1
  C  C10  1  0.25030071  0.41327487  0.51886437  1
  C  C11  1  0.25763934  0.74612507  0.50958912  1
  C  C12  1  0.49554718  0.03912544  0.75274745  1
  C  C13  1  0.49819442  0.37361545  0.75864912  1
  C  C14  1  0.49574854  0.70594881  0.74889355  1
  C  C15  1  0.49574854  0.29405119  0.24889355  1
  C  C16  1  0.49819442  0.62638455  0.25864912  1
  C  C17  1  0.49554718  0.96087456  0.25274745  1
  C  C18  1  0.99574854  0.20594881  0.74889355  1
  C  C19  1  0.99554718  0.53912544  0.75274745  1
  C  C20  1  0.99819442  0.87361545  0.75864912  1
  C  C21  1  0.99819442  0.12638455  0.25864912  1
  C  C22  1  0.99554718  0.46087456  0.25274745  1
  C  C23  1  0.99574854  0.79405119  0.24889355  1
  C  C24  1  0.81371773  0.64629924  0.21318161  1
  C  C25  1  0.81446526  0.98041691  0.22277278  1
  C  C26  1  0.19722474  0.30997916  0.28085527  1
  C  C27  1  0.19722474  0.69002084  0.78085527  1
  C  C28  1  0.81446526  0.01958309  0.72277278  1
  C  C29  1  0.81371773  0.35370076  0.71318161  1
  C  C30  1  0.31371773  0.14629924  0.21318161  1
  C  C31  1  0.31446526  0.48041691  0.22277278  1
  C  C32  1  0.69722474  0.80997916  0.28085527  1
  C  C33  1  0.69722474  0.19002084  0.78085527  1
  C  C34  1  0.31446526  0.51958309  0.72277278  1
  C  C35  1  0.31371773  0.85370076  0.71318161  1
  C  C36  1  0.10987555  0.24742114  0.57147097  1
  C  C37  1  0.10515901  0.58261840  0.56884313  1
  C  C38  1  0.10722719  0.91756059  0.56791265  1
  C  C39  1  0.10722719  0.08243941  0.06791265  1
  C  C40  1  0.10515901  0.41738160  0.06884313  1
  C  C41  1  0.10987555  0.75257886  0.07147097  1
  C  C42  1  0.60515901  0.08261840  0.56884313  1
  C  C43  1  0.60722719  0.41756059  0.56791265  1
  C  C44  1  0.60987555  0.74742114  0.57147097  1
  C  C45  1  0.60987555  0.25257886  0.07147097  1
  C  C46  1  0.60722719  0.58243941  0.06791265  1
  C  C47  1  0.60515901  0.91738160  0.06884313  1
  Ni  Ni48  1  0.89794131  0.24928874  0.94349433  1
  Ni  Ni49  1  0.89271424  0.58153254  0.93537687  1
  Ni  Ni50  1  0.89304546  0.91239825  0.93825322  1
  Ni  Ni51  1  0.89304546  0.08760175  0.43825322  1
  Ni  Ni52  1  0.89271424  0.41846746  0.43537687  1
  Ni  Ni53  1  0.89794131  0.75071126  0.44349433  1
  Ni  Ni54  1  0.39271424  0.08153254  0.93537687  1
  Ni  Ni55  1  0.39304546  0.41239825  0.93825322  1
  Ni  Ni56  1  0.39794131  0.74928874  0.94349433  1
  Ni  Ni57  1  0.39794131  0.25071126  0.44349433  1
  Ni  Ni58  1  0.39304546  0.58760175  0.43825322  1
  Ni  Ni59  1  0.39271424  0.91846746  0.43537687  1
  Cu  Cu60  1  0.35418181  0.29896467  0.74912992  1
  Cu  Cu61  1  0.35545655  0.63273858  0.75436361  1
  Cu  Cu62  1  0.35412517  0.96671255  0.74944333  1
  Cu  Cu63  1  0.64532429  0.29764970  0.73824092  1
  Cu  Cu64  1  0.64589274  0.62829630  0.73837137  1
  Cu  Cu65  1  0.64591782  0.96198736  0.73931562  1
  Cu  Cu66  1  0.64591782  0.03801264  0.23931562  1
  Cu  Cu67  1  0.64589274  0.37170370  0.23837137  1
  Cu  Cu68  1  0.64532429  0.70235030  0.23824092  1
  Cu  Cu69  1  0.35412517  0.03328745  0.24944333  1
  Cu  Cu70  1  0.35545655  0.36726142  0.25436361  1
  Cu  Cu71  1  0.35418181  0.70103533  0.24912992  1
  Cu  Cu72  1  0.85545655  0.13273858  0.75436361  1
  Cu  Cu73  1  0.85412517  0.46671255  0.74944333  1
  Cu  Cu74  1  0.85418181  0.79896467  0.74912992  1
  Cu  Cu75  1  0.14589274  0.12829630  0.73837137  1
  Cu  Cu76  1  0.14591782  0.46198736  0.73931562  1
  Cu  Cu77  1  0.14532429  0.79764970  0.73824092  1
  Cu  Cu78  1  0.14532429  0.20235030  0.23824092  1
  Cu  Cu79  1  0.14591782  0.53801264  0.23931562  1
  Cu  Cu80  1  0.14589274  0.87170370  0.23837137  1
  Cu  Cu81  1  0.85418181  0.20103533  0.24912992  1
  Cu  Cu82  1  0.85412517  0.53328745  0.24944333  1
  Cu  Cu83  1  0.85545655  0.86726142  0.25436361  1
  C  C84  1  0.00084546  0.32057234  0.74660365  1
  C  C85  1  0.99352222  0.65482524  0.74213054  1
  C  C86  1  0.99724202  0.98758420  0.73824933  1
  C  C87  1  0.99724202  0.01241580  0.23824933  1
  C  C88  1  0.99352222  0.34517476  0.24213054  1
  C  C89  1  0.00084546  0.67942766  0.24660365  1
  C  C90  1  0.49352222  0.15482524  0.74213054  1
  C  C91  1  0.49724202  0.48758420  0.73824933  1
  C  C92  1  0.50084546  0.82057234  0.74660365  1
  C  C93  1  0.50084546  0.17942766  0.24660365  1
  C  C94  1  0.49724202  0.51241580  0.23824933  1
  C  C95  1  0.49352222  0.84517476  0.24213054  1
  C  C96  1  0.14818912  0.19116123  0.74448102  1
  C  C97  1  0.15046872  0.52534748  0.74672931  1
  C  C98  1  0.14945730  0.85947029  0.74337832  1
  C  C99  1  0.84748517  0.19318876  0.75901847  1
  C  C100  1  0.85103447  0.52645355  0.75888681  1
  C  C101  1  0.84835402  0.85946512  0.75610187  1
  C  C102  1  0.84835402  0.14053488  0.25610187  1
  C  C103  1  0.85103447  0.47354645  0.25888681  1
  C  C104  1  0.84748517  0.80681124  0.25901847  1
  C  C105  1  0.14945730  0.14052971  0.24337832  1
  C  C106  1  0.15046872  0.47465252  0.24672931  1
  C  C107  1  0.14818912  0.80883877  0.24448102  1
  C  C108  1  0.65046872  0.02534748  0.74672931  1
  C  C109  1  0.64945730  0.35947029  0.74337832  1
  C  C110  1  0.64818912  0.69116123  0.74448102  1
  C  C111  1  0.35103447  0.02645355  0.75888681  1
  C  C112  1  0.34835402  0.35946512  0.75610187  1
  C  C113  1  0.34748517  0.69318876  0.75901847  1
  C  C114  1  0.34748517  0.30681124  0.25901847  1
  C  C115  1  0.34835402  0.64053488  0.25610187  1
  C  C116  1  0.35103447  0.97354645  0.25888681  1
  C  C117  1  0.64818912  0.30883877  0.24448102  1
  C  C118  1  0.64945730  0.64052971  0.24337832  1
  C  C119  1  0.65046872  0.97465252  0.24672931  1
  C  C120  1  0.43116373  0.18408049  0.56115386  1
  C  C121  1  0.43312670  0.51893285  0.56469175  1
  C  C122  1  0.43797516  0.85444749  0.58188502  1
  C  C123  1  0.55888872  0.18997742  0.90943186  1
  C  C124  1  0.55796479  0.52199642  0.91206633  1
  C  C125  1  0.56673492  0.85228811  0.92854035  1
  C  C126  1  0.56673492  0.14771189  0.42854035  1
  C  C127  1  0.55796479  0.47800358  0.41206633  1
  C  C128  1  0.55888872  0.81002258  0.40943186  1
  C  C129  1  0.43797516  0.14555251  0.08188502  1
  C  C130  1  0.43312670  0.48106715  0.06469175  1
  C  C131  1  0.43116373  0.81591951  0.06115386  1
  C  C132  1  0.93312670  0.01893285  0.56469175  1
  C  C133  1  0.93797516  0.35444749  0.58188502  1
  C  C134  1  0.93116373  0.68408049  0.56115386  1
  C  C135  1  0.05796479  0.02199642  0.91206633  1
  C  C136  1  0.06673492  0.35228811  0.92854035  1
  C  C137  1  0.05888872  0.68997742  0.90943186  1
  C  C138  1  0.05888872  0.31002258  0.40943186  1
  C  C139  1  0.06673492  0.64771189  0.42854035  1
  C  C140  1  0.05796479  0.97800358  0.41206633  1
  C  C141  1  0.93116373  0.31591951  0.06115386  1
  C  C142  1  0.93797516  0.64555251  0.08188502  1
  C  C143  1  0.93312670  0.98106715  0.06469175  1
  C  C144  1  0.25352485  0.27402288  0.73799583  1
  C  C145  1  0.25552051  0.60813551  0.75010700  1
  C  C146  1  0.25665200  0.93895200  0.74270552  1
  C  C147  1  0.74921839  0.27680659  0.75666476  1
  C  C148  1  0.75063287  0.60821474  0.76541344  1
  C  C149  1  0.75325700  0.94564054  0.76287175  1
  C  C150  1  0.75325700  0.05435946  0.26287175  1
  C  C151  1  0.75063287  0.39178526  0.26541344  1
  C  C152  1  0.74921839  0.72319341  0.25666476  1
  C  C153  1  0.25665200  0.06104800  0.24270552  1
  C  C154  1  0.25552051  0.39186449  0.25010700  1
  C  C155  1  0.25352485  0.72597712  0.23799583  1
  C  C156  1  0.75552051  0.10813551  0.75010700  1
  C  C157  1  0.75665200  0.43895200  0.74270552  1
  C  C158  1  0.75352485  0.77402288  0.73799583  1
  C  C159  1  0.25063287  0.10821474  0.76541344  1
  C  C160  1  0.25325700  0.44564054  0.76287175  1
  C  C161  1  0.24921839  0.77680659  0.75666476  1
  C  C162  1  0.24921839  0.22319341  0.25666476  1
  C  C163  1  0.25325700  0.55435946  0.26287175  1
  C  C164  1  0.25063287  0.89178526  0.26541344  1
  C  C165  1  0.75352485  0.22597712  0.23799583  1
  C  C166  1  0.75665200  0.56104800  0.24270552  1
  C  C167  1  0.75552051  0.89186449  0.25010700  1
  C  C168  1  0.35148967  0.28590312  0.56944858  1
  C  C169  1  0.35419446  0.61608540  0.58220133  1
  C  C170  1  0.35993852  0.94965084  0.58516585  1
  C  C171  1  0.64022201  0.28373812  0.91435078  1
  C  C172  1  0.64043665  0.61675229  0.91873817  1
  C  C173  1  0.64392689  0.94934699  0.92248290  1
  C  C174  1  0.64392689  0.05065301  0.42248290  1
  C  C175  1  0.64043665  0.38324771  0.41873817  1
  C  C176  1  0.64022201  0.71626188  0.41435078  1
  C  C177  1  0.35993852  0.05034916  0.08516585  1
  C  C178  1  0.35419446  0.38391460  0.08220133  1
  C  C179  1  0.35148967  0.71409688  0.06944858  1
  C  C180  1  0.85419446  0.11608540  0.58220133  1
  C  C181  1  0.85993852  0.44965084  0.58516585  1
  C  C182  1  0.85148967  0.78590312  0.56944858  1
  C  C183  1  0.14043665  0.11675229  0.91873817  1
  C  C184  1  0.14392689  0.44934699  0.92248290  1
  C  C185  1  0.14022201  0.78373812  0.91435078  1
  C  C186  1  0.14022201  0.21626188  0.41435078  1
  C  C187  1  0.14392689  0.55065301  0.42248290  1
  C  C188  1  0.14043665  0.88324771  0.41873817  1
  C  C189  1  0.85148967  0.21409688  0.06944858  1
  C  C190  1  0.85993852  0.55034916  0.08516585  1
  C  C191  1  0.85419446  0.88391460  0.08220133  1
  C  C192  1  0.46248345  0.27699802  0.93630377  1
  C  C193  1  0.46186646  0.60908591  0.94314430  1
  C  C194  1  0.46242597  0.94213789  0.94064410  1
  C  C195  1  0.54090452  0.27480327  0.55591785  1
  C  C196  1  0.53770178  0.60949729  0.55434561  1
  C  C197  1  0.53996478  0.94278147  0.55516311  1
  C  C198  1  0.53996478  0.05721853  0.05516311  1
  C  C199  1  0.53770178  0.39050271  0.05434561  1
  C  C200  1  0.54090452  0.72519673  0.05591785  1
  C  C201  1  0.46242597  0.05786211  0.44064410  1
  C  C202  1  0.46186646  0.39091409  0.44314430  1
  C  C203  1  0.46248345  0.72300198  0.43630377  1
  C  C204  1  0.96186646  0.10908591  0.94314430  1
  C  C205  1  0.96242597  0.44213789  0.94064410  1
  C  C206  1  0.96248345  0.77699802  0.93630377  1
  C  C207  1  0.03770178  0.10949729  0.55434561  1
  C  C208  1  0.03996478  0.44278147  0.55516311  1
  C  C209  1  0.04090452  0.77480327  0.55591785  1
  C  C210  1  0.04090452  0.22519673  0.05591785  1
  C  C211  1  0.03996478  0.55721853  0.05516311  1
  C  C212  1  0.03770178  0.89050271  0.05434561  1
  C  C213  1  0.96248345  0.22300198  0.43630377  1
  C  C214  1  0.96242597  0.55786211  0.44064410  1
  C  C215  1  0.96186646  0.89091409  0.44314430  1
  C  C216  1  0.08193273  0.28631664  0.74747956  1
  C  C217  1  0.08181571  0.62279691  0.74693274  1
  C  C218  1  0.08331871  0.95486978  0.74773961  1
  C  C219  1  0.92199846  0.28651941  0.75246194  1
  C  C220  1  0.92191394  0.61829793  0.75212606  1
  C  C221  1  0.92089844  0.95311862  0.74614313  1
  C  C222  1  0.92089844  0.04688138  0.24614313  1
  C  C223  1  0.92191394  0.38170207  0.25212606  1
  C  C224  1  0.92199846  0.71348059  0.25246194  1
  C  C225  1  0.08331871  0.04513022  0.24773961  1
  C  C226  1  0.08181571  0.37720309  0.24693274  1
  C  C227  1  0.08193273  0.71368336  0.24747956  1
  C  C228  1  0.58181571  0.12279691  0.74693274  1
  C  C229  1  0.58331871  0.45486978  0.74773961  1
  C  C230  1  0.58193273  0.78631664  0.74747956  1
  C  C231  1  0.42191394  0.11829793  0.75212606  1
  C  C232  1  0.42089844  0.45311862  0.74614313  1
  C  C233  1  0.42199846  0.78651941  0.75246194  1
  C  C234  1  0.42199846  0.21348059  0.25246194  1
  C  C235  1  0.42089844  0.54688138  0.24614313  1
  C  C236  1  0.42191394  0.88170207  0.25212606  1
  C  C237  1  0.58193273  0.21368336  0.24747956  1
  C  C238  1  0.58331871  0.54513022  0.24773961  1
  C  C239  1  0.58181571  0.87720309  0.24693274  1
