# generated using pymatgen
data_Cu12Ni2C3
_symmetry_space_group_name_H-M   'P 1'
_cell_length_a   8.92513141
_cell_length_b   8.94753704
_cell_length_c   22.99660451
_cell_angle_alpha   90.00972061
_cell_angle_beta   89.92547741
_cell_angle_gamma   119.97906141
_symmetry_Int_Tables_number   1
_chemical_formula_structural   Cu12Ni2C3
_chemical_formula_sum   'Cu72 Ni12 C18'
_cell_volume   1590.75622797
_cell_formula_units_Z   6
loop_
 _symmetry_equiv_pos_site_id
 _symmetry_equiv_pos_as_xyz
  1  'x, y, z'
loop_
 _atom_site_type_symbol
 _atom_site_label
 _atom_site_symmetry_multiplicity
 _atom_site_fract_x
 _atom_site_fract_y
 _atom_site_fract_z
 _atom_site_occupancy
  C  C0  1  0.00074993  0.00018275  0.85884542  1
  C  C1  1  0.99894562  0.00511170  0.64370506  1
  C  C2  1  0.00581958  0.00619213  0.14452324  1
  C  C3  1  0.65868530  0.33126739  0.97676128  1
  C  C4  1  0.67289425  0.32605688  0.47606685  1
  C  C5  1  0.33326886  0.66091869  0.02213819  1
  C  C6  1  0.33528492  0.66637993  0.52080603  1
  C  C7  1  0.34045766  0.67449151  0.30861876  1
  C  C8  1  0.33210334  0.66657805  0.81397026  1
  C  C9  1  0.99100058  0.99943974  0.35284771  1
  C  C10  1  0.67570907  0.33590885  0.68590698  1
  C  C11  1  0.66028471  0.33524343  0.18588174  1
  C  C12  1  0.95376991  0.33670212  0.58529034  1
  C  C13  1  0.38308696  0.33477635  0.08567212  1
  C  C14  1  0.62076412  0.66599405  0.91667342  1
  C  C15  1  0.04316120  0.37886004  0.91700186  1
  C  C16  1  0.33410982  0.95344884  0.91729665  1
  C  C17  1  0.62870615  0.95287089  0.41548177  1
  Ni  Ni18  1  0.29165148  0.00718297  0.25135254  1
  Ni  Ni19  1  0.71594526  0.70753906  0.25050722  1
  Ni  Ni20  1  0.99346908  0.28793604  0.25096316  1
  Ni  Ni21  1  0.29587262  0.29015455  0.74934956  1
  Ni  Ni22  1  0.99520786  0.70643969  0.74927907  1
  Ni  Ni23  1  0.70970301  0.00455912  0.74973731  1
  Ni  Ni24  1  0.38034829  0.04612271  0.58472108  1
  Ni  Ni25  1  0.66614888  0.61865717  0.58452397  1
  Ni  Ni26  1  0.95329690  0.61981333  0.08495287  1
  Ni  Ni27  1  0.66581655  0.04614764  0.08491340  1
  Ni  Ni28  1  0.32919954  0.37241377  0.41578595  1
  Ni  Ni29  1  0.04541774  0.67312508  0.41566645  1
  Cu  Cu30  1  0.20877521  0.02840371  0.30311618  1
  Cu  Cu31  1  0.81872642  0.78869222  0.30259985  1
  Cu  Cu32  1  0.97065289  0.18235817  0.30241100  1
  Cu  Cu33  1  0.20901614  0.18073799  0.80118469  1
  Cu  Cu34  1  0.97283496  0.79282487  0.80144367  1
  Cu  Cu35  1  0.81976876  0.02775028  0.80133123  1
  Cu  Cu36  1  0.79298011  0.97206100  0.69773812  1
  Cu  Cu37  1  0.17960355  0.20648015  0.69751464  1
  Cu  Cu38  1  0.02740245  0.82096131  0.69752171  1
  Cu  Cu39  1  0.79150326  0.82103647  0.19803774  1
  Cu  Cu40  1  0.02931134  0.20850457  0.19807984  1
  Cu  Cu41  1  0.17825322  0.97020617  0.19837665  1
  Cu  Cu42  1  0.87343670  0.36570129  0.63849574  1
  Cu  Cu43  1  0.48453647  0.12124730  0.63636436  1
  Cu  Cu44  1  0.63461902  0.51429745  0.63639366  1
  Cu  Cu45  1  0.87912001  0.51439857  0.13650312  1
  Cu  Cu46  1  0.63750559  0.12199724  0.13656993  1
  Cu  Cu47  1  0.49234618  0.36509314  0.13881626  1
  Cu  Cu48  1  0.46182293  0.30313247  0.02982767  1
  Cu  Cu49  1  0.84798543  0.54367587  0.03158252  1
  Cu  Cu50  1  0.69769914  0.15260214  0.03158719  1
  Cu  Cu51  1  0.45578529  0.15353020  0.53148672  1
  Cu  Cu52  1  0.69513385  0.54261522  0.53127232  1
  Cu  Cu53  1  0.84062431  0.30396246  0.52971119  1
  Cu  Cu54  1  0.53918162  0.69848832  0.97046002  1
  Cu  Cu55  1  0.15893229  0.46162653  0.97040722  1
  Cu  Cu56  1  0.30273526  0.84050460  0.97088782  1
  Cu  Cu57  1  0.53402874  0.84131642  0.47009487  1
  Cu  Cu58  1  0.30518052  0.45821490  0.46872040  1
  Cu  Cu59  1  0.15211891  0.69343846  0.46865469  1
  Cu  Cu60  1  0.12380868  0.63556517  0.36457610  1
  Cu  Cu61  1  0.50417394  0.86700975  0.36304044  1
  Cu  Cu62  1  0.36221672  0.48749591  0.36471250  1
  Cu  Cu63  1  0.12861950  0.49139557  0.86235569  1
  Cu  Cu64  1  0.36275382  0.87071097  0.86222650  1
  Cu  Cu65  1  0.50803548  0.63686224  0.86218767  1
  Cu  Cu66  1  0.02630781  0.82310649  0.40842740  1
  Cu  Cu67  1  0.80631696  0.97619924  0.40748328  1
  Cu  Cu68  1  0.17903930  0.20283925  0.40852234  1
  Cu  Cu69  1  0.02532829  0.20027983  0.90646466  1
  Cu  Cu70  1  0.17538400  0.97527561  0.90661401  1
  Cu  Cu71  1  0.80040877  0.82555922  0.90660535  1
  Cu  Cu72  1  0.97587184  0.17475699  0.59317565  1
  Cu  Cu73  1  0.20335926  0.02367508  0.59198767  1
  Cu  Cu74  1  0.82078091  0.79518907  0.59211514  1
  Cu  Cu75  1  0.97399112  0.79583091  0.09233078  1
  Cu  Cu76  1  0.82061629  0.02353545  0.09215911  1
  Cu  Cu77  1  0.19794040  0.17377406  0.09329155  1
  Cu  Cu78  1  0.69049932  0.15475305  0.74147120  1
  Cu  Cu79  1  0.46516268  0.30812895  0.74032193  1
  Cu  Cu80  1  0.84349328  0.53704870  0.74180544  1
  Cu  Cu81  1  0.69074378  0.53564147  0.24154948  1
  Cu  Cu82  1  0.84516185  0.31045086  0.24026370  1
  Cu  Cu83  1  0.46430474  0.15249696  0.24157380  1
  Cu  Cu84  1  0.64349663  0.50860477  0.92530584  1
  Cu  Cu85  1  0.86418598  0.35772619  0.92648519  1
  Cu  Cu86  1  0.49336411  0.13339161  0.92502157  1
  Cu  Cu87  1  0.63792182  0.13049976  0.42594660  1
  Cu  Cu88  1  0.48864849  0.36128343  0.42622815  1
  Cu  Cu89  1  0.87202348  0.51464454  0.42532111  1
  Cu  Cu90  1  0.35580357  0.49025718  0.07411611  1
  Cu  Cu91  1  0.12938308  0.64456210  0.07514562  1
  Cu  Cu92  1  0.51373085  0.87165320  0.07513676  1
  Cu  Cu93  1  0.35664094  0.87091832  0.57461801  1
  Cu  Cu94  1  0.51399511  0.64325763  0.57488209  1
  Cu  Cu95  1  0.13591021  0.49151738  0.57239338  1
  Cu  Cu96  1  0.30469372  0.84461366  0.25832354  1
  Cu  Cu97  1  0.53852066  0.69174407  0.25848294  1
  Cu  Cu98  1  0.15469413  0.46221914  0.25911747  1
  Cu  Cu99  1  0.30730134  0.46079966  0.75717352  1
  Cu  Cu100  1  0.15416194  0.69310096  0.75734870  1
  Cu  Cu101  1  0.53870539  0.84525167  0.75726070  1
