# generated using pymatgen
data_Cu6Ni2C
_symmetry_space_group_name_H-M   'P 1'
_cell_length_a   5.70401700
_cell_length_b   5.92478200
_cell_length_c   17.68944300
_cell_angle_alpha   90.00000000
_cell_angle_beta   90.00000000
_cell_angle_gamma   90.00000000
_symmetry_Int_Tables_number   1
_chemical_formula_structural   Cu6Ni2C
_chemical_formula_sum   'Cu24 Ni8 C4'
_cell_volume   597.81573889
_cell_formula_units_Z   4
loop_
 _symmetry_equiv_pos_site_id
 _symmetry_equiv_pos_as_xyz
  1  'x, y, z'
loop_
 _atom_site_type_symbol
 _atom_site_label
 _atom_site_symmetry_multiplicity
 _atom_site_fract_x
 _atom_site_fract_y
 _atom_site_fract_z
 _atom_site_occupancy
  C  C0  1  0.70891600  0.17170500  0.09409200  1
  C  C1  1  0.20891600  0.32829500  0.90590800  1
  C  C2  1  0.29108400  0.67170500  0.40590800  1
  C  C3  1  0.79108400  0.82829500  0.59409200  1
  Ni  Ni4  1  0.24461400  0.78477000  0.70828900  1
  Ni  Ni5  1  0.74461400  0.71523000  0.29171100  1
  Ni  Ni6  1  0.75538600  0.28477000  0.79171100  1
  Ni  Ni7  1  0.25538600  0.21523000  0.20828900  1
  Ni  Ni8  1  0.03138600  0.63711700  0.07732300  1
  Ni  Ni9  1  0.53138600  0.86288300  0.92267700  1
  Ni  Ni10  1  0.96861400  0.13711700  0.42267700  1
  Ni  Ni11  1  0.46861400  0.36288300  0.57732300  1
  Cu  Cu12  1  0.54571100  0.60553800  0.51604800  1
  Cu  Cu13  1  0.04571100  0.89446200  0.48395200  1
  Cu  Cu14  1  0.45428900  0.10553800  0.98395200  1
  Cu  Cu15  1  0.95428900  0.39446200  0.01604800  1
  Cu  Cu16  1  0.60958600  0.49400900  0.66147700  1
  Cu  Cu17  1  0.10958600  0.00599100  0.33852300  1
  Cu  Cu18  1  0.39041400  0.99400900  0.83852300  1
  Cu  Cu19  1  0.89041400  0.50599100  0.16147700  1
  Cu  Cu20  1  0.71725800  0.18333900  0.54590900  1
  Cu  Cu21  1  0.21725800  0.31666100  0.45409100  1
  Cu  Cu22  1  0.28274200  0.68333900  0.95409100  1
  Cu  Cu23  1  0.78274200  0.81666100  0.04590900  1
  Cu  Cu24  1  0.04622000  0.01957900  0.16286200  1
  Cu  Cu25  1  0.54622000  0.48042100  0.83713800  1
  Cu  Cu26  1  0.95378000  0.51957900  0.33713800  1
  Cu  Cu27  1  0.45378000  0.98042100  0.66286200  1
  Cu  Cu28  1  0.36173700  0.37356800  0.12431800  1
  Cu  Cu29  1  0.86173700  0.12643200  0.87568200  1
  Cu  Cu30  1  0.63826300  0.87356800  0.37568200  1
  Cu  Cu31  1  0.13826300  0.62643200  0.62431800  1
  Cu  Cu32  1  0.51683600  0.03324100  0.20748100  1
  Cu  Cu33  1  0.01683600  0.46675900  0.79251900  1
  Cu  Cu34  1  0.48316400  0.53324100  0.29251900  1
  Cu  Cu35  1  0.98316400  0.96675900  0.70748100  1
