# generated using pymatgen
data_Cu3NiC10
_symmetry_space_group_name_H-M   'P 1'
_cell_length_a   7.64932855
_cell_length_b   7.64932855
_cell_length_c   9.34364500
_cell_angle_alpha   90.00000000
_cell_angle_beta   90.00000000
_cell_angle_gamma   120.00000472
_symmetry_Int_Tables_number   1
_chemical_formula_structural   Cu3NiC10
_chemical_formula_sum   'Cu9 Ni3 C30'
_cell_volume   473.47120309
_cell_formula_units_Z   3
loop_
 _symmetry_equiv_pos_site_id
 _symmetry_equiv_pos_as_xyz
  1  'x, y, z'
loop_
 _atom_site_type_symbol
 _atom_site_label
 _atom_site_symmetry_multiplicity
 _atom_site_fract_x
 _atom_site_fract_y
 _atom_site_fract_z
 _atom_site_occupancy
  Ni  Ni0  1  0.66666700  0.33333300  0.36017800  1
  Ni  Ni1  1  0.33333300  0.66666700  0.63982200  1
  Ni  Ni2  1  0.00000000  0.00000000  0.00000000  1
  C  C3  1  0.00000000  0.00000000  0.62123400  1
  C  C4  1  0.00000000  0.34054400  0.50000000  1
  C  C5  1  0.65945600  0.65945600  0.50000000  1
  C  C6  1  0.65945600  0.00000000  0.50000000  1
  C  C7  1  0.00000000  0.65945600  0.50000000  1
  C  C8  1  0.34054400  0.34054400  0.50000000  1
  C  C9  1  0.18266700  0.81733300  0.06639700  1
  C  C10  1  0.18266700  0.36533400  0.06639700  1
  C  C11  1  0.63466600  0.81733300  0.06639700  1
  C  C12  1  0.36533400  0.18266700  0.93360300  1
  C  C13  1  0.34054400  0.00000000  0.50000000  1
  C  C14  1  0.81733300  0.18266700  0.93360300  1
  C  C15  1  0.14001800  0.85998200  0.79484700  1
  C  C16  1  0.14001800  0.28003600  0.79484700  1
  C  C17  1  0.71996400  0.85998200  0.79484700  1
  C  C18  1  0.28003600  0.14001800  0.20515300  1
  C  C19  1  0.85998200  0.71996400  0.20515300  1
  C  C20  1  0.85998200  0.14001800  0.20515300  1
  C  C21  1  0.49135900  0.50864100  0.24050600  1
  C  C22  1  0.49135900  0.98271800  0.24050600  1
  C  C23  1  0.01728200  0.50864100  0.24050600  1
  C  C24  1  0.98271800  0.49135900  0.75949400  1
  C  C25  1  0.50864100  0.01728200  0.75949400  1
  C  C26  1  0.50864100  0.49135900  0.75949400  1
  C  C27  1  0.66666700  0.33333300  0.09748400  1
  C  C28  1  0.33333300  0.66666700  0.90251600  1
  C  C29  1  0.66666700  0.33333300  0.61409000  1
  C  C30  1  0.33333300  0.66666700  0.38591000  1
  C  C31  1  0.81733300  0.63466600  0.93360300  1
  C  C32  1  0.00000000  0.00000000  0.37876600  1
  Cu  Cu33  1  0.83483900  0.16516100  0.69105100  1
  Cu  Cu34  1  0.83483900  0.66967800  0.69105100  1
  Cu  Cu35  1  0.33032200  0.16516100  0.69105100  1
  Cu  Cu36  1  0.16516100  0.83483900  0.30894900  1
  Cu  Cu37  1  0.50000000  0.50000000  0.00000000  1
  Cu  Cu38  1  0.00000000  0.50000000  0.00000000  1
  Cu  Cu39  1  0.50000000  0.00000000  0.00000000  1
  Cu  Cu40  1  0.66967800  0.83483900  0.30894900  1
  Cu  Cu41  1  0.16516100  0.33032200  0.30894900  1
