# generated using pymatgen
data_Cu6NiC24
_symmetry_space_group_name_H-M   'P 1'
_cell_length_a   6.20920119
_cell_length_b   6.19943693
_cell_length_c   12.31781454
_cell_angle_alpha   90.21452379
_cell_angle_beta   89.56911954
_cell_angle_gamma   120.04956291
_symmetry_Int_Tables_number   1
_chemical_formula_structural   Cu6NiC24
_chemical_formula_sum   'Cu6 Ni1 C24'
_cell_volume   410.41466866
_cell_formula_units_Z   1
loop_
 _symmetry_equiv_pos_site_id
 _symmetry_equiv_pos_as_xyz
  1  'x, y, z'
loop_
 _atom_site_type_symbol
 _atom_site_label
 _atom_site_symmetry_multiplicity
 _atom_site_fract_x
 _atom_site_fract_y
 _atom_site_fract_z
 _atom_site_occupancy
  C  C0  1  0.66308500  0.33711300  0.22504500  1
  C  C1  1  0.33199500  0.66391500  0.73540600  1
  C  C2  1  0.66807400  0.33609600  0.73539900  1
  C  C3  1  0.32596100  0.66286400  0.22504600  1
  C  C4  1  0.00763300  0.00000000  0.81945000  1
  C  C5  1  0.99817600  0.99997700  0.27135400  1
  Ni  Ni6  1  0.01239100  0.00002700  0.61002800  1
  Cu  Cu7  1  0.63515700  0.00000400  0.49477200  1
  Cu  Cu8  1  0.65520700  0.66039000  0.00644700  1
  Cu  Cu9  1  0.99481600  0.33961100  0.00644600  1
  Cu  Cu10  1  0.00460200  0.63039400  0.48050500  1
  Cu  Cu11  1  0.37420500  0.36960500  0.48048500  1
  Cu  Cu12  1  0.34780000  0.99999800  0.00698300  1
  C  C13  1  0.66671500  0.33693500  0.02473200  1
  C  C14  1  0.34252500  0.67126800  0.52895000  1
  C  C15  1  0.67115000  0.32870000  0.52895200  1
  C  C16  1  0.32983000  0.66305800  0.02473000  1
  C  C17  1  0.00427800  0.99998700  0.99246500  1
  C  C18  1  0.99870400  0.00005300  0.46046200  1
  C  C19  1  0.37158800  0.00000200  0.84780700  1
  C  C20  1  0.35728200  0.36225400  0.31731200  1
  C  C21  1  0.99502400  0.63772600  0.31732400  1
  C  C22  1  0.99361000  0.35826100  0.84678000  1
  C  C23  1  0.63538400  0.64176100  0.84678200  1
  C  C24  1  0.62291400  0.99999300  0.33807500  1
  C  C25  1  0.31028100  0.00000200  0.16011900  1
  C  C26  1  0.28845800  0.28598400  0.68164200  1
  C  C27  1  0.00247500  0.71401900  0.68164000  1
  C  C28  1  0.99148400  0.30084200  0.15998200  1
  C  C29  1  0.69063800  0.69916200  0.15997900  1
  C  C30  1  0.70855500  0.00000000  0.66267700  1
