# generated using pymatgen
data_Cu5NiC33
_symmetry_space_group_name_H-M   'P 1'
_cell_length_a   8.96099501
_cell_length_b   8.95531047
_cell_length_c   22.43308197
_cell_angle_alpha   90.01883458
_cell_angle_beta   89.96850379
_cell_angle_gamma   119.93462338
_symmetry_Int_Tables_number   1
_chemical_formula_structural   Cu5NiC33
_chemical_formula_sum   'Cu15 Ni3 C99'
_cell_volume   1560.06293249
_cell_formula_units_Z   3
loop_
 _symmetry_equiv_pos_site_id
 _symmetry_equiv_pos_as_xyz
  1  'x, y, z'
loop_
 _atom_site_type_symbol
 _atom_site_label
 _atom_site_symmetry_multiplicity
 _atom_site_fract_x
 _atom_site_fract_y
 _atom_site_fract_z
 _atom_site_occupancy
  C  C0  1  0.64100125  0.01308712  0.24295131  1
  C  C1  1  0.37320815  0.35983377  0.24297991  1
  C  C2  1  0.98783527  0.62908604  0.24367585  1
  C  C3  1  0.63380028  0.62116900  0.74790282  1
  C  C4  1  0.98833081  0.36551461  0.74812943  1
  C  C5  1  0.38022838  0.01354658  0.74333478  1
  C  C6  1  0.66214527  0.97538985  0.58345526  1
  C  C7  1  0.33147067  0.30607991  0.92425167  1
  C  C8  1  0.32445392  0.03220633  0.41433118  1
  C  C9  1  0.00143122  0.00057232  0.49359013  1
  C  C10  1  0.98151231  0.98863784  0.00197317  1
  C  C11  1  0.68019524  0.33868063  0.83779572  1
  C  C12  1  0.67782738  0.34384850  0.33007143  1
  C  C13  1  0.33352190  0.66713363  0.16061596  1
  C  C14  1  0.32206987  0.66093877  0.66167137  1
  C  C15  1  0.99162503  0.99885393  0.35166964  1
  C  C16  1  0.66254258  0.33061503  0.67483637  1
  C  C17  1  0.67021798  0.33489035  0.17495120  1
  Ni  Ni18  1  0.37012128  0.03764579  0.58341965  1
  Ni  Ni19  1  0.62813197  0.66574932  0.91781374  1
  Ni  Ni20  1  0.03569221  0.37407078  0.91627569  1
  C  C21  1  0.99431697  0.99550282  0.85657401  1
  C  C22  1  0.00627995  0.99972653  0.64482813  1
  C  C23  1  0.99947250  0.00091201  0.14659336  1
  C  C24  1  0.67465267  0.33710555  0.98386677  1
  C  C25  1  0.66812799  0.33791041  0.48270700  1
  C  C26  1  0.33456433  0.66581915  0.01978722  1
  C  C27  1  0.32934185  0.66228586  0.51848720  1
  C  C28  1  0.33219353  0.66438452  0.31752940  1
  C  C29  1  0.33204965  0.66524899  0.82017447  1
  Cu  Cu30  1  0.29171347  0.99860345  0.25351982  1
  Cu  Cu31  1  0.70810025  0.70883549  0.25184368  1
  Cu  Cu32  1  0.00156381  0.29269767  0.25179028  1
  Cu  Cu33  1  0.28959636  0.29273918  0.75127823  1
  Cu  Cu34  1  0.00388434  0.70983295  0.75076706  1
  Cu  Cu35  1  0.70719167  0.99797551  0.74957703  1
  Cu  Cu36  1  0.96166747  0.33569299  0.58603273  1
  Cu  Cu37  1  0.66598962  0.62730713  0.58568681  1
  Cu  Cu38  1  0.96554960  0.63174422  0.08598927  1
  Cu  Cu39  1  0.66503039  0.03671374  0.08594694  1
  Cu  Cu40  1  0.37050813  0.33221393  0.08523677  1
  Cu  Cu41  1  0.33586309  0.96041691  0.91696376  1
  Cu  Cu42  1  0.63141098  0.96356732  0.41801973  1
  Cu  Cu43  1  0.33550771  0.37220793  0.41687735  1
  Cu  Cu44  1  0.03454846  0.66306131  0.41660410  1
  C  C45  1  0.21538860  0.02510335  0.31076720  1
  C  C46  1  0.81996829  0.78774816  0.30659693  1
  C  C47  1  0.97174886  0.18204682  0.30663594  1
  C  C48  1  0.20863855  0.18097326  0.80766047  1
  C  C49  1  0.97358663  0.79478811  0.80563503  1
  C  C50  1  0.82566373  0.02640137  0.80313604  1
  C  C51  1  0.78339942  0.96165915  0.69193772  1
  C  C52  1  0.16798104  0.20945399  0.69675800  1
  C  C53  1  0.04079166  0.82677625  0.69503626  1
  C  C54  1  0.78369081  0.82735837  0.19554915  1
  C  C55  1  0.04323183  0.21687264  0.19521997  1
  C  C56  1  0.16992724  0.95920276  0.19859712  1
  C  C57  1  0.89139779  0.36479514  0.64426423  1
  C  C58  1  0.48395236  0.11081101  0.64344333  1
  C  C59  1  0.64449338  0.53173094  0.64421566  1
  C  C60  1  0.89050442  0.53334758  0.14401492  1
  C  C61  1  0.64551649  0.11331784  0.14431781  1
  C  C62  1  0.47049482  0.35151078  0.14243706  1
  C  C63  1  0.45382604  0.30816522  0.02734075  1
  C  C64  1  0.85240347  0.54625013  0.03041089  1
  C  C65  1  0.68993080  0.14915739  0.03028925  1
  C  C66  1  0.45873914  0.15131223  0.52293476  1
  C  C67  1  0.69979730  0.54679973  0.53025124  1
  C  C68  1  0.84290931  0.30207506  0.53129926  1
  C  C69  1  0.53695294  0.70317187  0.97268675  1
  C  C70  1  0.17045821  0.46545996  0.97014866  1
  C  C71  1  0.30177777  0.84144745  0.96957052  1
  C  C72  1  0.54178296  0.85480604  0.47452977  1
  C  C73  1  0.31414731  0.46431161  0.47142518  1
  C  C74  1  0.15651723  0.69222516  0.46979044  1
  C  C75  1  0.11189434  0.63173645  0.35804094  1
  C  C76  1  0.51042270  0.88150475  0.36199380  1
  C  C77  1  0.36355402  0.47904632  0.35848915  1
  C  C78  1  0.10828809  0.48051327  0.85246462  1
  C  C79  1  0.36595737  0.88972874  0.85657701  1
  C  C80  1  0.51697664  0.62857945  0.85437101  1
  C  C81  1  0.02354906  0.82671413  0.41281478  1
  C  C82  1  0.80777497  0.98225293  0.41295529  1
  C  C83  1  0.18072865  0.19119238  0.41379447  1
  C  C84  1  0.03358726  0.18956888  0.91112587  1
  C  C85  1  0.17751838  0.98574398  0.91070713  1
  C  C86  1  0.82021363  0.83110161  0.91302841  1
  C  C87  1  0.96780183  0.16374833  0.58869235  1
  C  C88  1  0.17858569  0.01790024  0.58546652  1
  C  C89  1  0.82126126  0.81704101  0.58762582  1
  C  C90  1  0.98460805  0.81519800  0.08825395  1
  C  C91  1  0.82868027  0.01584957  0.08753883  1
  C  C92  1  0.18704014  0.16790275  0.08737008  1
  C  C93  1  0.68766594  0.15767319  0.74620419  1
  C  C94  1  0.46941389  0.31452920  0.74531069  1
  C  C95  1  0.84607039  0.53004218  0.74556376  1
  C  C96  1  0.67936834  0.52610795  0.24367832  1
  C  C97  1  0.84702449  0.32085765  0.24436708  1
  C  C98  1  0.47295538  0.15387526  0.24531696  1
  C  C99  1  0.63164832  0.48488573  0.92343874  1
  C  C100  1  0.84389091  0.34616319  0.92263889  1
  C  C101  1  0.49346705  0.14299405  0.92320511  1
  C  C102  1  0.63657816  0.14129352  0.42145534  1
  C  C103  1  0.50391369  0.35953775  0.42070240  1
  C  C104  1  0.85659524  0.49665338  0.42308850  1
  C  C105  1  0.34994730  0.49429861  0.07999547  1
  C  C106  1  0.14770256  0.65274781  0.07808381  1
  C  C107  1  0.50150610  0.85602603  0.07913821  1
  C  C108  1  0.35541533  0.84526557  0.57731184  1
  C  C109  1  0.50451858  0.64856435  0.57779022  1
  C  C110  1  0.14553358  0.48882766  0.57715928  1
  C  C111  1  0.30773440  0.82877843  0.25590125  1
  C  C112  1  0.52345027  0.69439206  0.25635176  1
  C  C113  1  0.17146274  0.47749074  0.25543189  1
  C  C114  1  0.30339081  0.47489803  0.75398464  1
  C  C115  1  0.17451720  0.70001098  0.75490285  1
  C  C116  1  0.52501387  0.83099581  0.75505807  1
