# generated using pymatgen
data_Cu2NiC11
_symmetry_space_group_name_H-M   'P 1'
_cell_length_a   5.31868261
_cell_length_b   5.89121877
_cell_length_c   6.39288714
_cell_angle_alpha   117.43639217
_cell_angle_beta   101.68499000
_cell_angle_gamma   89.99999201
_symmetry_Int_Tables_number   1
_chemical_formula_structural   Cu2NiC11
_chemical_formula_sum   'Cu2 Ni1 C11'
_cell_volume   173.09040973
_cell_formula_units_Z   1
loop_
 _symmetry_equiv_pos_site_id
 _symmetry_equiv_pos_as_xyz
  1  'x, y, z'
loop_
 _atom_site_type_symbol
 _atom_site_label
 _atom_site_symmetry_multiplicity
 _atom_site_fract_x
 _atom_site_fract_y
 _atom_site_fract_z
 _atom_site_occupancy
  Ni  Ni0  1  0.50000000  0.50000000  0.00000000  1
  C  C1  1  0.50000100  0.99999900  0.00000000  1
  C  C2  1  0.00000000  0.74886200  0.99999900  1
  C  C3  1  0.00000100  0.25114000  0.00000100  1
  Cu  Cu4  1  0.69962500  0.75205200  0.50410400  1
  Cu  Cu5  1  0.30037600  0.24794800  0.49589700  1
  C  C6  1  0.11361800  0.40884600  0.81769000  1
  C  C7  1  0.88638300  0.59115400  0.18231100  1
  C  C8  1  0.08767400  0.90291400  0.80582900  1
  C  C9  1  0.91232500  0.09708600  0.19417100  1
  C  C10  1  0.39120400  0.34059500  0.20169700  1
  C  C11  1  0.39120400  0.86110100  0.20169700  1
  C  C12  1  0.60879700  0.13889700  0.79830300  1
  C  C13  1  0.60879700  0.65940600  0.79830300  1
