# generated using pymatgen
data_Cu2Ni4C45
_symmetry_space_group_name_H-M   'P 1'
_cell_length_a   8.78798797
_cell_length_b   8.78798768
_cell_length_c   22.63056016
_cell_angle_alpha   90.00000000
_cell_angle_beta   90.00000000
_cell_angle_gamma   120.00000105
_symmetry_Int_Tables_number   1
_chemical_formula_structural   Cu2Ni4C45
_chemical_formula_sum   'Cu4 Ni8 C90'
_cell_volume   1513.57806149
_cell_formula_units_Z   2
loop_
 _symmetry_equiv_pos_site_id
 _symmetry_equiv_pos_as_xyz
  1  'x, y, z'
loop_
 _atom_site_type_symbol
 _atom_site_label
 _atom_site_symmetry_multiplicity
 _atom_site_fract_x
 _atom_site_fract_y
 _atom_site_fract_z
 _atom_site_occupancy
  Ni  Ni0  1  0.00000000  -0.00000000  0.64132538  1
  Ni  Ni1  1  0.00000000  -0.00000000  0.14132538  1
  Ni  Ni2  1  0.66666700  0.33333300  0.97553234  1
  Ni  Ni3  1  0.66666700  0.33333300  0.47553234  1
  Ni  Ni4  1  0.33333300  0.66666700  0.02270141  1
  Ni  Ni5  1  0.33333300  0.66666700  0.52270141  1
  Ni  Ni6  1  0.33333300  0.66666700  0.31157998  1
  Ni  Ni7  1  0.33333300  0.66666700  0.81157998  1
  Cu  Cu8  1  0.00000000  0.00000000  0.35839211  1
  Cu  Cu9  1  0.00000000  0.00000000  0.85839211  1
  Cu  Cu10  1  0.66666700  0.33333300  0.68379962  1
  Cu  Cu11  1  0.66666700  0.33333300  0.18379962  1
  C  C12  1  0.95114514  0.33568584  0.58458713  1
  C  C13  1  0.38454170  0.04885486  0.58458713  1
  C  C14  1  0.66431416  0.61545830  0.58458713  1
  C  C15  1  0.95114514  0.61545830  0.08458713  1
  C  C16  1  0.66431416  0.04885486  0.08458713  1
  C  C17  1  0.38454170  0.33568584  0.08458713  1
  C  C18  1  0.62356155  0.67092424  0.91638280  1
  C  C19  1  0.04736169  0.37643845  0.91638280  1
  C  C20  1  0.32907576  0.95263831  0.91638280  1
  C  C21  1  0.62356155  0.95263831  0.41638280  1
  C  C22  1  0.32907576  0.37643845  0.41638280  1
  C  C23  1  0.04736169  0.67092424  0.41638280  1
  C  C24  1  0.29067889  0.00501027  0.25100874  1
  C  C25  1  0.71433139  0.70932111  0.25100874  1
  C  C26  1  0.99498973  0.28566861  0.25100874  1
  C  C27  1  0.29067889  0.28566861  0.75100874  1
  C  C28  1  0.99498973  0.70932111  0.75100874  1
  C  C29  1  0.71433139  0.00501027  0.75100874  1
  C  C30  1  0.20753051  0.02717583  0.30299812  1
  C  C31  1  0.81964532  0.79246949  0.30299812  1
  C  C32  1  0.97282417  0.18035468  0.30299812  1
  C  C33  1  0.20753051  0.18035468  0.80299812  1
  C  C34  1  0.97282417  0.79246949  0.80299812  1
  C  C35  1  0.81964532  0.02717583  0.80299812  1
  C  C36  1  0.79533480  0.96933720  0.69680655  1
  C  C37  1  0.17400241  0.20466520  0.69680655  1
  C  C38  1  0.03066280  0.82599759  0.69680655  1
  C  C39  1  0.79533480  0.82599759  0.19680655  1
  C  C40  1  0.03066280  0.20466520  0.19680655  1
  C  C41  1  0.17400241  0.96933720  0.19680655  1
  C  C42  1  0.88045222  0.37038121  0.63951349  1
  C  C43  1  0.48992999  0.11954778  0.63951349  1
  C  C44  1  0.62961879  0.51007001  0.63951349  1
  C  C45  1  0.88045222  0.51007001  0.13951349  1
  C  C46  1  0.62961879  0.11954778  0.13951349  1
  C  C47  1  0.48992999  0.37038121  0.13951349  1
  C  C48  1  0.46470871  0.30081095  0.02859426  1
  C  C49  1  0.83610324  0.53529129  0.02859426  1
  C  C50  1  0.69918905  0.16389676  0.02859426  1
  C  C51  1  0.46470871  0.16389676  0.52859426  1
  C  C52  1  0.69918905  0.53529129  0.52859426  1
  C  C53  1  0.83610324  0.30081095  0.52859426  1
  C  C54  1  0.52752027  0.68989305  0.97103070  1
  C  C55  1  0.16237179  0.47247973  0.97103070  1
  C  C56  1  0.31010695  0.83762821  0.97103070  1
  C  C57  1  0.52752027  0.83762821  0.47103070  1
  C  C58  1  0.31010695  0.47247973  0.47103070  1
  C  C59  1  0.16237179  0.68989305  0.47103070  1
  C  C60  1  0.13503962  0.63348413  0.36165717  1
  C  C61  1  0.49844351  0.86496038  0.36165717  1
  C  C62  1  0.36651587  0.50155649  0.36165717  1
  C  C63  1  0.13503962  0.50155649  0.86165717  1
  C  C64  1  0.36651587  0.86496038  0.86165717  1
  C  C65  1  0.49844351  0.63348413  0.86165717  1
  C  C66  1  0.02653448  0.82658344  0.40833506  1
  C  C67  1  0.80004895  0.97346552  0.40833506  1
  C  C68  1  0.17341656  0.19995105  0.40833506  1
  C  C69  1  0.02653448  0.19995105  0.90833506  1
  C  C70  1  0.17341656  0.97346552  0.90833506  1
  C  C71  1  0.80004895  0.82658344  0.90833506  1
  C  C72  1  0.97539380  0.17014906  0.59378257  1
  C  C73  1  0.19475526  0.02460620  0.59378257  1
  C  C74  1  0.82985094  0.80524474  0.59378257  1
  C  C75  1  0.97539380  0.80524474  0.09378257  1
  C  C76  1  0.82985094  0.02460620  0.09378257  1
  C  C77  1  0.19475526  0.17014906  0.09378257  1
  C  C78  1  0.68685641  0.15192812  0.74128828  1
  C  C79  1  0.46507271  0.31314359  0.74128828  1
  C  C80  1  0.84807188  0.53492729  0.74128828  1
  C  C81  1  0.68685641  0.53492729  0.24128828  1
  C  C82  1  0.84807188  0.31314359  0.24128828  1
  C  C83  1  0.46507271  0.15192812  0.24128828  1
  C  C84  1  0.63249017  0.49904966  0.92686315  1
  C  C85  1  0.86656049  0.36750983  0.92686315  1
  C  C86  1  0.50095034  0.13343951  0.92686315  1
  C  C87  1  0.63249017  0.13343951  0.42686315  1
  C  C88  1  0.50095034  0.36750983  0.42686315  1
  C  C89  1  0.86656049  0.49904966  0.42686315  1
  C  C90  1  0.35228607  0.49087784  0.07131607  1
  C  C91  1  0.13859076  0.64771393  0.07131607  1
  C  C92  1  0.50912216  0.86140924  0.07131607  1
  C  C93  1  0.35228607  0.86140924  0.57131607  1
  C  C94  1  0.50912216  0.64771393  0.57131607  1
  C  C95  1  0.13859076  0.49087784  0.57131607  1
  C  C96  1  0.30278564  0.83725471  0.25805895  1
  C  C97  1  0.53446807  0.69721436  0.25805895  1
  C  C98  1  0.16274529  0.46553193  0.25805895  1
  C  C99  1  0.30278564  0.46553193  0.75805895  1
  C  C100  1  0.16274529  0.69721436  0.75805895  1
  C  C101  1  0.53446807  0.83725471  0.75805895  1
