# generated using pymatgen
data_CuNiC18
_symmetry_space_group_name_H-M   'P 1'
_cell_length_a   15.18658696
_cell_length_b   8.76060365
_cell_length_c   8.79412754
_cell_angle_alpha   90.00000000
_cell_angle_beta   124.83968176
_cell_angle_gamma   90.00000000
_symmetry_Int_Tables_number   1
_chemical_formula_structural   CuNiC18
_chemical_formula_sum   'Cu4 Ni4 C72'
_cell_volume   960.28434395
_cell_formula_units_Z   4
loop_
 _symmetry_equiv_pos_site_id
 _symmetry_equiv_pos_as_xyz
  1  'x, y, z'
loop_
 _atom_site_type_symbol
 _atom_site_label
 _atom_site_symmetry_multiplicity
 _atom_site_fract_x
 _atom_site_fract_y
 _atom_site_fract_z
 _atom_site_occupancy
  C  C0  1  0.25182815  0.72387404  0.99712911  1
  C  C1  1  0.75182815  0.77612596  0.49712911  1
  C  C2  1  0.75182815  0.22387404  0.99712911  1
  C  C3  1  0.25182815  0.27612596  0.49712911  1
  C  C4  1  0.50120581  0.11264353  0.75534219  1
  C  C5  1  0.50120581  0.88735647  0.25534219  1
  C  C6  1  0.00120581  0.61264353  0.75534219  1
  C  C7  1  0.00120581  0.38735647  0.25534219  1
  C  C8  1  0.19132891  0.93413419  0.28089557  1
  C  C9  1  0.19132891  0.06586581  0.78089557  1
  C  C10  1  0.69132891  0.43413419  0.28089557  1
  C  C11  1  0.69132891  0.56586581  0.78089557  1
  C  C12  1  0.89587699  0.75753247  0.93885325  1
  C  C13  1  0.89587699  0.24246753  0.43885325  1
  C  C14  1  0.39587699  0.25753247  0.93885325  1
  C  C15  1  0.39587699  0.74246753  0.43885325  1
  Ni  Ni16  1  0.10557544  0.74135308  0.56344408  1
  Ni  Ni17  1  0.10557544  0.25864692  0.06344408  1
  Ni  Ni18  1  0.60557544  0.24135308  0.56344408  1
  Ni  Ni19  1  0.60557544  0.75864692  0.06344408  1
  Cu  Cu20  1  0.64359951  0.89909698  0.74822390  1
  Cu  Cu21  1  0.64359951  0.10090302  0.24822390  1
  Cu  Cu22  1  0.14359951  0.39909698  0.74822390  1
  Cu  Cu23  1  0.14359951  0.60090302  0.24822390  1
  C  C24  1  0.00288784  0.96182653  0.75826472  1
  C  C25  1  0.00288784  0.03817347  0.25826472  1
  C  C26  1  0.50288784  0.46182653  0.75826472  1
  C  C27  1  0.50288784  0.53817347  0.25826472  1
  C  C28  1  0.35359185  0.88554168  0.75788010  1
  C  C29  1  0.35359185  0.11445832  0.25788010  1
  C  C30  1  0.85359185  0.38554168  0.75788010  1
  C  C31  1  0.85359185  0.61445832  0.25788010  1
  C  C32  1  0.14416127  0.58339030  0.73278475  1
  C  C33  1  0.84720620  0.56434961  0.76106017  1
  C  C34  1  0.84720620  0.43565039  0.26106017  1
  C  C35  1  0.14416127  0.41660970  0.23278475  1
  C  C36  1  0.64416127  0.08339030  0.73278475  1
  C  C37  1  0.34720620  0.06434961  0.76106017  1
  C  C38  1  0.34720620  0.93565039  0.26106017  1
  C  C39  1  0.64416127  0.91660970  0.23278475  1
  C  C40  1  0.43672942  0.56584241  0.58406737  1
  C  C41  1  0.56957461  0.56032808  0.93414499  1
  C  C42  1  0.56957461  0.43967192  0.43414499  1
  C  C43  1  0.43672942  0.43415759  0.08406737  1
  C  C44  1  0.93672942  0.06584241  0.58406737  1
  C  C45  1  0.06957461  0.06032808  0.93414499  1
  C  C46  1  0.06957461  0.93967192  0.43414499  1
  C  C47  1  0.93672942  0.93415759  0.08406737  1
  C  C48  1  0.25238895  0.82419236  0.73868708  1
  C  C49  1  0.74513862  0.81420018  0.76269960  1
  C  C50  1  0.74513862  0.18579982  0.26269960  1
  C  C51  1  0.25238895  0.17580764  0.23868708  1
  C  C52  1  0.75238895  0.32419236  0.73868708  1
  C  C53  1  0.24513862  0.31420018  0.76269960  1
  C  C54  1  0.24513862  0.68579982  0.26269960  1
  C  C55  1  0.75238895  0.67580764  0.23868708  1
  C  C56  1  0.35376339  0.85404167  0.58306275  1
  C  C57  1  0.63513024  0.85293275  0.91685352  1
  C  C58  1  0.63513024  0.14706725  0.41685352  1
  C  C59  1  0.35376339  0.14595833  0.08306275  1
  C  C60  1  0.85376339  0.35404167  0.58306275  1
  C  C61  1  0.13513024  0.35293275  0.91685352  1
  C  C62  1  0.13513024  0.64706725  0.41685352  1
  C  C63  1  0.85376339  0.64595833  0.08306275  1
  C  C64  1  0.45490456  0.82216232  0.93364916  1
  C  C65  1  0.53381227  0.82700350  0.55656452  1
  C  C66  1  0.53381227  0.17299650  0.05656452  1
  C  C67  1  0.45490456  0.17783768  0.43364916  1
  C  C68  1  0.95490456  0.32216232  0.93364916  1
  C  C69  1  0.03381227  0.32700350  0.55656452  1
  C  C70  1  0.03381227  0.67299650  0.05656452  1
  C  C71  1  0.95490456  0.67783768  0.43364916  1
  C  C72  1  0.08095343  0.86165831  0.74090615  1
  C  C73  1  0.92034253  0.85523366  0.75548700  1
  C  C74  1  0.92034253  0.14476634  0.25548700  1
  C  C75  1  0.08095343  0.13834169  0.24090615  1
  C  C76  1  0.58095343  0.36165831  0.74090615  1
  C  C77  1  0.42034253  0.35523366  0.75548700  1
  C  C78  1  0.42034253  0.64476634  0.25548700  1
  C  C79  1  0.58095343  0.63834169  0.24090615  1
