# generated using pymatgen
data_Cu10Ni14C13
_symmetry_space_group_name_H-M   'P 1'
_cell_length_a   4.75590933
_cell_length_b   5.68235177
_cell_length_c   15.68281332
_cell_angle_alpha   86.80967015
_cell_angle_beta   88.28020812
_cell_angle_gamma   88.05229524
_symmetry_Int_Tables_number   1
_chemical_formula_structural   Cu10Ni14C13
_chemical_formula_sum   'Cu10 Ni14 C13'
_cell_volume   422.75481597
_cell_formula_units_Z   1
loop_
 _symmetry_equiv_pos_site_id
 _symmetry_equiv_pos_as_xyz
  1  'x, y, z'
loop_
 _atom_site_type_symbol
 _atom_site_label
 _atom_site_symmetry_multiplicity
 _atom_site_fract_x
 _atom_site_fract_y
 _atom_site_fract_z
 _atom_site_occupancy
  C  C0  1  0.59362700  0.98727900  0.45453400  1
  C  C1  1  0.05909400  0.17835200  0.38495600  1
  C  C2  1  0.00114000  0.79633500  0.23269900  1
  C  C3  1  0.02987100  0.14483100  0.07552700  1
  C  C4  1  0.06068100  0.21495200  0.75352900  1
  C  C5  1  0.07702100  0.90086000  0.59288800  1
  C  C6  1  0.04606900  0.86405100  0.91308700  1
  C  C7  1  0.51790700  0.41183300  0.60133000  1
  C  C8  1  0.51071900  0.34263400  0.92351300  1
  C  C9  1  0.48639900  0.29178700  0.24318000  1
  C  C10  1  0.51159700  0.61300900  0.09024000  1
  C  C11  1  0.43789900  0.58158300  0.41645300  1
  C  C12  1  0.52332900  0.67857900  0.75788000  1
  Ni  Ni13  1  0.21761500  0.04902900  0.28060200  1
  Ni  Ni14  1  0.26509900  0.17922400  0.65147600  1
  Ni  Ni15  1  0.23226600  0.11347000  0.96955700  1
  Ni  Ni16  1  0.22862900  0.85176300  0.12746400  1
  Ni  Ni17  1  0.20573200  0.87980400  0.46030800  1
  Ni  Ni18  1  0.27023400  0.92064800  0.80854200  1
  Ni  Ni19  1  0.28039600  0.37145000  0.13933600  1
  Ni  Ni20  1  0.32713400  0.66705900  0.65303900  1
  Ni  Ni21  1  0.31484800  0.42619900  0.81703100  1
  Ni  Ni22  1  0.73698300  0.37161200  0.02731700  1
  Ni  Ni23  1  0.69908600  0.57577600  0.19575900  1
  Ni  Ni24  1  0.63258400  0.28583500  0.36947200  1
  Ni  Ni25  1  0.66522700  0.62970900  0.51043700  1
  Ni  Ni26  1  0.77183200  0.44019300  0.70210400  1
  Cu  Cu27  1  0.17945700  0.53062500  0.32117400  1
  Cu  Cu28  1  0.20961600  0.34346300  0.49169800  1
  Cu  Cu29  1  0.29219600  0.61551200  0.98272300  1
  Cu  Cu30  1  0.76121900  0.64947000  0.86470700  1
  Cu  Cu31  1  0.76700600  0.08056900  0.17448900  1
  Cu  Cu32  1  0.74118600  0.13568900  0.54839500  1
  Cu  Cu33  1  0.73107100  0.82423300  0.34772900  1
  Cu  Cu34  1  0.77145200  0.85587600  0.01954200  1
  Cu  Cu35  1  0.80727800  0.15831000  0.85562200  1
  Cu  Cu36  1  0.80038900  0.91934600  0.70415900  1
