# generated using pymatgen
data_Cu3Ni3C29
_symmetry_space_group_name_H-M   'P 1'
_cell_length_a   8.76645316
_cell_length_b   8.76289816
_cell_length_c   22.71624887
_cell_angle_alpha   90.30788270
_cell_angle_beta   89.95317655
_cell_angle_gamma   120.15488135
_symmetry_Int_Tables_number   1
_chemical_formula_structural   Cu3Ni3C29
_chemical_formula_sum   'Cu9 Ni9 C87'
_cell_volume   1508.86962544
_cell_formula_units_Z   3
loop_
 _symmetry_equiv_pos_site_id
 _symmetry_equiv_pos_as_xyz
  1  'x, y, z'
loop_
 _atom_site_type_symbol
 _atom_site_label
 _atom_site_symmetry_multiplicity
 _atom_site_fract_x
 _atom_site_fract_y
 _atom_site_fract_z
 _atom_site_occupancy
  C  C0  1  0.66291744  0.33284767  0.83242812  1
  C  C1  1  0.66958320  0.33262139  0.33197774  1
  C  C2  1  0.33255271  0.66960769  0.16696083  1
  C  C3  1  0.65709235  0.33904999  0.68521881  1
  C  C4  1  0.67319861  0.33219327  0.18095372  1
  C  C5  1  0.33151508  0.67331625  0.31780019  1
  C  C6  1  0.99506795  0.99368011  0.35560973  1
  C  C7  1  0.00539516  0.00447193  0.85654185  1
  C  C8  1  0.99935088  0.99981812  0.64645125  1
  C  C9  1  0.99448660  0.99549006  0.14341776  1
  C  C10  1  0.67253028  0.33433787  0.98122993  1
  C  C11  1  0.67383567  0.33879045  0.48199608  1
  C  C12  1  0.33328845  0.67237998  0.01802855  1
  C  C13  1  0.33947733  0.67222211  0.51870905  1
  C  C14  1  0.33316940  0.66066536  0.81456060  1
  Ni  Ni15  1  0.29248195  0.29002112  0.75009025  1
  Ni  Ni16  1  0.66485022  0.62279297  0.58488127  1
  Ni  Ni17  1  0.95671253  0.62068063  0.08496573  1
  Ni  Ni18  1  0.66456613  0.04397457  0.08486980  1
  Ni  Ni19  1  0.62488464  0.66631489  0.91690620  1
  Ni  Ni20  1  0.04327115  0.37755412  0.91682285  1
  Ni  Ni21  1  0.33483375  0.95772515  0.91588835  1
  Ni  Ni22  1  0.62192882  0.95755517  0.41528886  1
  Ni  Ni23  1  0.04601009  0.66589029  0.41552291  1
  Cu  Cu24  1  0.29259048  0.00143578  0.24975680  1
  Cu  Cu25  1  0.70437091  0.70433749  0.24979249  1
  Cu  Cu26  1  0.00119072  0.29246420  0.25027446  1
  Cu  Cu27  1  0.99951927  0.70712212  0.75047342  1
  Cu  Cu28  1  0.70799299  0.00190740  0.75041127  1
  Cu  Cu29  1  0.95856000  0.33516447  0.58515307  1
  Cu  Cu30  1  0.37776443  0.04375765  0.58446941  1
  Cu  Cu31  1  0.37763170  0.33473249  0.08463958  1
  Cu  Cu32  1  0.33379178  0.37696475  0.41522499  1
  C  C33  1  0.21058756  0.03393185  0.30373776  1
  C  C34  1  0.81992686  0.78637862  0.30322397  1
  C  C35  1  0.96932902  0.17798646  0.30377940  1
  C  C36  1  0.20551277  0.17235148  0.80475759  1
  C  C37  1  0.96649548  0.78792191  0.80337533  1
  C  C38  1  0.81971887  0.03130606  0.80345355  1
  C  C39  1  0.78417443  0.96442526  0.69687425  1
  C  C40  1  0.17212627  0.20810660  0.69433749  1
  C  C41  1  0.03456106  0.81942929  0.69706469  1
  C  C42  1  0.78709940  0.82033796  0.19724902  1
  C  C43  1  0.03353157  0.20992136  0.19669567  1
  C  C44  1  0.17734737  0.96905072  0.19653497  1
  C  C45  1  0.88020863  0.36484019  0.63661245  1
  C  C46  1  0.48641326  0.11898351  0.63605391  1
  C  C47  1  0.63343106  0.51056139  0.63790853  1
  C  C48  1  0.87965325  0.51208249  0.13942397  1
  C  C49  1  0.62832506  0.11878002  0.13936049  1
  C  C50  1  0.48380073  0.36693384  0.13703470  1
  C  C51  1  0.44952737  0.30032533  0.02988805  1
  C  C52  1  0.84468079  0.54730813  0.02807151  1
  C  C53  1  0.69913964  0.15349396  0.02796382  1
  C  C54  1  0.45093827  0.15101444  0.52956195  1
  C  C55  1  0.70159045  0.54666171  0.52751591  1
  C  C56  1  0.84966395  0.29706666  0.53017156  1
  C  C57  1  0.54484058  0.70024752  0.97204051  1
  C  C58  1  0.15774188  0.45584905  0.97206003  1
  C  C59  1  0.29881863  0.84540745  0.97103765  1
  C  C60  1  0.54836309  0.84709456  0.47207191  1
  C  C61  1  0.29955813  0.44870406  0.47019428  1
  C  C62  1  0.15528936  0.69865691  0.47311037  1
  C  C63  1  0.12003015  0.62844154  0.36122477  1
  C  C64  1  0.51179493  0.88056078  0.36089187  1
  C  C65  1  0.36706330  0.48379583  0.36335285  1
  C  C66  1  0.11919605  0.49162797  0.86115970  1
  C  C67  1  0.37088923  0.87839064  0.86002965  1
  C  C68  1  0.51083082  0.62976311  0.86105486  1
  C  C69  1  0.02506605  0.83092557  0.40964780  1
  C  C70  1  0.80919085  0.98148060  0.40938666  1
  C  C71  1  0.17507059  0.19803767  0.40956462  1
  C  C72  1  0.02317964  0.19503520  0.90912527  1
  C  C73  1  0.17030222  0.97397418  0.90868274  1
  C  C74  1  0.80675267  0.83033842  0.90758173  1
  C  C75  1  0.97728167  0.17506293  0.58988968  1
  C  C76  1  0.19867618  0.02385948  0.58979288  1
  C  C77  1  0.83211345  0.81085756  0.59129912  1
  C  C78  1  0.98017814  0.80828453  0.09067428  1
  C  C79  1  0.83075137  0.02463587  0.09074422  1
  C  C80  1  0.19860854  0.17532774  0.09041654  1
  C  C81  1  0.69275455  0.15879502  0.74312232  1
  C  C82  1  0.47275456  0.30695885  0.74422282  1
  C  C83  1  0.84427650  0.53254454  0.74376141  1
  C  C84  1  0.69145841  0.53182021  0.24368681  1
  C  C85  1  0.84148740  0.30513883  0.24495170  1
  C  C86  1  0.46539052  0.16156949  0.24424717  1
  C  C87  1  0.64160690  0.49922328  0.92348196  1
  C  C88  1  0.85856323  0.35818566  0.92213967  1
  C  C89  1  0.49990349  0.14343872  0.92304125  1
  C  C90  1  0.64236012  0.14513648  0.42474312  1
  C  C91  1  0.49194085  0.35512406  0.42340758  1
  C  C92  1  0.85665951  0.50096901  0.42325251  1
  C  C93  1  0.35648429  0.49284775  0.07703182  1
  C  C94  1  0.14368328  0.64212132  0.07697888  1
  C  C95  1  0.50103308  0.85444394  0.07710950  1
  C  C96  1  0.35539343  0.86492909  0.57603989  1
  C  C97  1  0.50052999  0.64293492  0.57438283  1
  C  C98  1  0.13604433  0.49270610  0.57518502  1
  C  C99  1  0.30484667  0.84123668  0.25531075  1
  C  C100  1  0.53201664  0.69180177  0.25647435  1
  C  C101  1  0.16183147  0.46554730  0.25632852  1
  C  C102  1  0.30526730  0.47219357  0.75719973  1
  C  C103  1  0.16217884  0.69607024  0.75721363  1
  C  C104  1  0.53241830  0.84015025  0.75701930  1
