# generated using pymatgen
data_Cu8Ni3C35
_symmetry_space_group_name_H-M   'P 1'
_cell_length_a   10.36758820
_cell_length_b   10.36758820
_cell_length_c   14.28310262
_cell_angle_alpha   89.45216572
_cell_angle_beta   89.45216572
_cell_angle_gamma   59.89563960
_symmetry_Int_Tables_number   1
_chemical_formula_structural   Cu8Ni3C35
_chemical_formula_sum   'Cu16 Ni6 C70'
_cell_volume   1328.08097640
_cell_formula_units_Z   2
loop_
 _symmetry_equiv_pos_site_id
 _symmetry_equiv_pos_as_xyz
  1  'x, y, z'
loop_
 _atom_site_type_symbol
 _atom_site_label
 _atom_site_symmetry_multiplicity
 _atom_site_fract_x
 _atom_site_fract_y
 _atom_site_fract_z
 _atom_site_occupancy
  C  C0  1  0.69057600  0.08942200  0.44365700  1
  C  C1  1  0.31544700  0.78124400  0.06125400  1
  C  C2  1  0.31095900  0.91033000  0.55174900  1
  C  C3  1  0.78124400  0.31544700  0.56125400  1
  C  C4  1  0.91033000  0.31095900  0.05174900  1
  C  C5  1  0.08937000  0.21800800  0.44222300  1
  C  C6  1  0.79018100  0.92000900  0.05377500  1
  C  C7  1  0.33795000  0.33719900  0.12293100  1
  C  C8  1  0.33719900  0.33795000  0.62293100  1
  C  C9  1  0.08942200  0.69057600  0.94365700  1
  C  C10  1  0.92000900  0.79018100  0.55377500  1
  C  C11  1  0.21800800  0.08937000  0.94222300  1
  Ni  Ni12  1  0.43123200  0.57004200  0.25938400  1
  Ni  Ni13  1  0.57004200  0.43123200  0.75938400  1
  Ni  Ni14  1  0.43426500  0.99347100  0.75266200  1
  Ni  Ni15  1  0.57219000  0.99440300  0.25037400  1
  Ni  Ni16  1  0.99347100  0.43426500  0.25266200  1
  Ni  Ni17  1  0.99440300  0.57219000  0.75037400  1
  Cu  Cu18  1  0.09398200  0.23006300  0.65389100  1
  Cu  Cu19  1  0.91934500  0.30889400  0.83998600  1
  Cu  Cu20  1  0.66826300  0.66532100  0.60843000  1
  Cu  Cu21  1  0.66532100  0.66826300  0.10843000  1
  Cu  Cu22  1  0.76992800  0.30698500  0.34882200  1
  Cu  Cu23  1  0.30889400  0.91934500  0.33998600  1
  Cu  Cu24  1  0.68515400  0.22916500  0.16160700  1
  Cu  Cu25  1  0.68243000  0.09045000  0.65698800  1
  Cu  Cu26  1  0.22916500  0.68515400  0.66160700  1
  Cu  Cu27  1  0.33222600  0.32572300  0.38829800  1
  Cu  Cu28  1  0.32572300  0.33222600  0.88829800  1
  Cu  Cu29  1  0.09045000  0.68243000  0.15698800  1
  Cu  Cu30  1  0.91773300  0.77138700  0.34381000  1
  Cu  Cu31  1  0.23006300  0.09398200  0.15389100  1
  Cu  Cu32  1  0.77138700  0.91773300  0.84381000  1
  Cu  Cu33  1  0.30698500  0.76992800  0.84882200  1
  C  C34  1  0.87342100  0.65219500  0.32675900  1
  C  C35  1  0.47169900  0.65497500  0.82910700  1
  C  C36  1  0.29115200  0.92684700  0.84776400  1
  C  C37  1  0.26172700  0.99279400  0.07087600  1
  C  C38  1  0.29393700  0.77909900  0.34408200  1
  C  C39  1  0.25863300  0.76994700  0.58847400  1
  C  C40  1  0.76315400  0.20873900  0.26410200  1
  C  C41  1  0.74622300  0.24380900  0.43900900  1
  C  C42  1  0.68693600  0.23731200  0.65097300  1
  C  C43  1  0.77601900  0.00526800  0.74932500  1
  C  C44  1  0.75330700  0.00607200  0.92978800  1
  C  C45  1  0.69174600  0.07745400  0.14820700  1
  C  C46  1  0.51772300  0.34953800  0.17355600  1
  C  C47  1  0.46926900  0.31689000  0.84245200  1
  C  C48  1  0.24380900  0.74622300  0.93900900  1
  C  C49  1  0.34953800  0.51772300  0.67355600  1
  C  C50  1  0.20873900  0.76315400  0.76410200  1
  C  C51  1  0.51709900  0.13208800  0.67103000  1
  C  C52  1  0.48387500  0.18354600  0.35839800  1
  C  C53  1  0.23731200  0.68693600  0.15097300  1
  C  C54  1  0.31689000  0.46926900  0.34245200  1
  C  C55  1  0.33452300  0.33106800  0.49403800  1
  C  C56  1  0.33106800  0.33452300  0.99403800  1
  C  C57  1  0.18354600  0.48387500  0.85839800  1
  C  C58  1  0.07745400  0.69174600  0.64820700  1
  C  C59  1  0.35015000  0.13926300  0.17099800  1
  C  C60  1  0.31147200  0.19391800  0.85793100  1
  C  C61  1  0.00526800  0.77601900  0.24932500  1
  C  C62  1  0.13208800  0.51709900  0.17103000  1
  C  C63  1  0.00607200  0.75330700  0.42978800  1
  C  C64  1  0.99502200  0.75526600  0.07180400  1
  C  C65  1  0.19391800  0.31147200  0.35793100  1
  C  C66  1  0.92655700  0.77147100  0.84644700  1
  C  C67  1  0.13926300  0.35015000  0.67099800  1
  C  C68  1  0.23867500  0.07820900  0.64362500  1
  C  C69  1  0.75526600  0.99502200  0.57180400  1
  C  C70  1  0.24080600  0.01199100  0.42676900  1
  C  C71  1  0.77147100  0.92655700  0.34644700  1
  C  C72  1  0.21598300  0.01424300  0.24823000  1
  C  C73  1  0.65497500  0.47169900  0.32910700  1
  C  C74  1  0.07820900  0.23867500  0.14362500  1
  C  C75  1  0.80696000  0.67720800  0.63909000  1
  C  C76  1  0.01199100  0.24080600  0.92676900  1
  C  C77  1  0.99279400  0.26172700  0.57087600  1
  C  C78  1  0.01424300  0.21598300  0.74823000  1
  C  C79  1  0.87205100  0.47377400  0.82306200  1
  C  C80  1  0.65219500  0.87342100  0.82675900  1
  C  C81  1  0.67720800  0.80696000  0.13909000  1
  C  C82  1  0.92684700  0.29115200  0.34776400  1
  C  C83  1  0.80647300  0.51972100  0.14057300  1
  C  C84  1  0.66580000  0.66543000  0.50136900  1
  C  C85  1  0.51706800  0.67884100  0.14391800  1
  C  C86  1  0.67884100  0.51706800  0.64391800  1
  C  C87  1  0.77909900  0.29393700  0.84408200  1
  C  C88  1  0.51972100  0.80647300  0.64057300  1
  C  C89  1  0.47377400  0.87205100  0.32306200  1
  C  C90  1  0.76994700  0.25863300  0.08847400  1
  C  C91  1  0.66543000  0.66580000  0.00136900  1
