# generated using pymatgen
data_Cu4NiC8
_symmetry_space_group_name_H-M   'P 1'
_cell_length_a   6.03627674
_cell_length_b   6.03803911
_cell_length_c   5.90485925
_cell_angle_alpha   60.75635507
_cell_angle_beta   60.74677443
_cell_angle_gamma   64.76184492
_symmetry_Int_Tables_number   1
_chemical_formula_structural   Cu4NiC8
_chemical_formula_sum   'Cu4 Ni1 C8'
_cell_volume   158.78243744
_cell_formula_units_Z   1
loop_
 _symmetry_equiv_pos_site_id
 _symmetry_equiv_pos_as_xyz
  1  'x, y, z'
loop_
 _atom_site_type_symbol
 _atom_site_label
 _atom_site_symmetry_multiplicity
 _atom_site_fract_x
 _atom_site_fract_y
 _atom_site_fract_z
 _atom_site_occupancy
  Ni  Ni0  1  0.41927380  0.41987666  0.58109634  1
  Cu  Cu1  1  0.08974352  0.08945908  0.91060767  1
  Cu  Cu2  1  0.11155429  0.11167505  0.38863955  1
  Cu  Cu3  1  0.70763692  0.70764854  0.04288367  1
  Cu  Cu4  1  0.70802981  0.70803546  0.54121135  1
  C  C5  1  0.24998720  0.24976188  0.52298964  1
  C  C6  1  0.43055622  0.80110807  0.38413367  1
  C  C7  1  0.24996229  0.24973465  0.97802988  1
  C  C8  1  0.80092970  0.43061265  0.38419387  1
  C  C9  1  0.46040158  0.82317457  0.85803538  1
  C  C10  1  0.82381732  0.46067474  0.85757973  1
  C  C11  1  0.93844740  0.93851388  0.30266016  1
  C  C12  1  0.93823095  0.93829577  0.82085608  1
