# generated using pymatgen
data_CuNiC18
_symmetry_space_group_name_H-M   'P 1'
_cell_length_a   16.24613389
_cell_length_b   9.42026247
_cell_length_c   9.44540782
_cell_angle_alpha   90.00000000
_cell_angle_beta   125.97916357
_cell_angle_gamma   90.00000000
_symmetry_Int_Tables_number   1
_chemical_formula_structural   CuNiC18
_chemical_formula_sum   'Cu4 Ni4 C72'
_cell_volume   1169.78512427
_cell_formula_units_Z   4
loop_
 _symmetry_equiv_pos_site_id
 _symmetry_equiv_pos_as_xyz
  1  'x, y, z'
loop_
 _atom_site_type_symbol
 _atom_site_label
 _atom_site_symmetry_multiplicity
 _atom_site_fract_x
 _atom_site_fract_y
 _atom_site_fract_z
 _atom_site_occupancy
  C  C0  1  0.25442188  0.71975169  0.01125080  1
  C  C1  1  0.75442188  0.78024831  0.51125080  1
  C  C2  1  0.75442188  0.21975169  0.01125080  1
  C  C3  1  0.25442188  0.28024831  0.51125080  1
  C  C4  1  0.50869260  0.10152814  0.76000409  1
  C  C5  1  0.50869260  0.89847186  0.26000409  1
  C  C6  1  0.00869260  0.60152814  0.76000409  1
  C  C7  1  0.00869260  0.39847186  0.26000409  1
  C  C8  1  0.18407546  0.92677243  0.30284195  1
  C  C9  1  0.18407546  0.07322757  0.80284195  1
  C  C10  1  0.68407546  0.42677243  0.30284195  1
  C  C11  1  0.68407546  0.57322757  0.80284195  1
  C  C12  1  0.10849469  0.74447966  0.57209532  1
  C  C13  1  0.10849469  0.25552034  0.07209532  1
  C  C14  1  0.60849469  0.24447966  0.57209532  1
  C  C15  1  0.60849469  0.75552034  0.07209532  1
  Ni  Ni16  1  0.65020496  0.87761299  0.74382993  1
  Ni  Ni17  1  0.65020496  0.12238701  0.24382993  1
  Ni  Ni18  1  0.15020496  0.37761299  0.74382993  1
  Ni  Ni19  1  0.15020496  0.62238701  0.24382993  1
  Cu  Cu20  1  0.89934714  0.75960977  0.93907777  1
  Cu  Cu21  1  0.89934714  0.24039023  0.43907777  1
  Cu  Cu22  1  0.39934714  0.25960977  0.93907777  1
  Cu  Cu23  1  0.39934714  0.74039023  0.43907777  1
  C  C24  1  0.98912724  0.95851126  0.75334485  1
  C  C25  1  0.98912724  0.04148874  0.25334485  1
  C  C26  1  0.48912724  0.45851126  0.75334485  1
  C  C27  1  0.48912724  0.54148874  0.25334485  1
  C  C28  1  0.35498666  0.92605346  0.74935594  1
  C  C29  1  0.35498666  0.07394654  0.24935594  1
  C  C30  1  0.85498666  0.42605346  0.74935594  1
  C  C31  1  0.85498666  0.57394654  0.24935594  1
  C  C32  1  0.15618882  0.54962004  0.76410026  1
  C  C33  1  0.85684697  0.59458846  0.74396985  1
  C  C34  1  0.85684697  0.40541154  0.24396985  1
  C  C35  1  0.15618882  0.45037996  0.26410026  1
  C  C36  1  0.65618882  0.04962004  0.76410026  1
  C  C37  1  0.35684697  0.09458846  0.74396985  1
  C  C38  1  0.35684697  0.90541154  0.24396985  1
  C  C39  1  0.65618882  0.95037996  0.26410026  1
  C  C40  1  0.43264228  0.55793213  0.58855542  1
  C  C41  1  0.54959063  0.53953463  0.92441738  1
  C  C42  1  0.54959063  0.46046537  0.42441738  1
  C  C43  1  0.43264228  0.44206787  0.08855542  1
  C  C44  1  0.93264228  0.05793213  0.58855542  1
  C  C45  1  0.04959063  0.03953463  0.92441738  1
  C  C46  1  0.04959063  0.96046537  0.42441738  1
  C  C47  1  0.93264228  0.94206787  0.08855542  1
  C  C48  1  0.26189527  0.88405375  0.74562734  1
  C  C49  1  0.74669272  0.80268383  0.75360872  1
  C  C50  1  0.74669272  0.19731617  0.25360872  1
  C  C51  1  0.26189527  0.11594625  0.24562734  1
  C  C52  1  0.76189527  0.38405375  0.74562734  1
  C  C53  1  0.24669272  0.30268383  0.75360872  1
  C  C54  1  0.24669272  0.69731617  0.25360872  1
  C  C55  1  0.76189527  0.61594625  0.24562734  1
  C  C56  1  0.35097744  0.87696028  0.58544103  1
  C  C57  1  0.65008295  0.80447340  0.89687659  1
  C  C58  1  0.65008295  0.19552660  0.39687659  1
  C  C59  1  0.35097744  0.12303972  0.08544103  1
  C  C60  1  0.85097744  0.37696028  0.58544103  1
  C  C61  1  0.15008295  0.30447340  0.89687659  1
  C  C62  1  0.15008295  0.69552660  0.39687659  1
  C  C63  1  0.85097744  0.62303972  0.08544103  1
  C  C64  1  0.45200393  0.87541535  0.92038347  1
  C  C65  1  0.54412877  0.82072913  0.55217706  1
  C  C66  1  0.54412877  0.17927087  0.05217706  1
  C  C67  1  0.45200393  0.12458465  0.42038347  1
  C  C68  1  0.95200393  0.37541535  0.92038347  1
  C  C69  1  0.04412877  0.32072913  0.55217706  1
  C  C70  1  0.04412877  0.67927087  0.05217706  1
  C  C71  1  0.95200393  0.62458465  0.42038347  1
  C  C72  1  0.06369054  0.85856405  0.74895675  1
  C  C73  1  0.90590907  0.86549498  0.74408550  1
  C  C74  1  0.90590907  0.13450502  0.24408550  1
  C  C75  1  0.06369054  0.14143595  0.24895675  1
  C  C76  1  0.56369054  0.35856405  0.74895675  1
  C  C77  1  0.40590907  0.36549498  0.74408550  1
  C  C78  1  0.40590907  0.63450502  0.24408550  1
  C  C79  1  0.56369054  0.64143595  0.24895675  1
