# generated using pymatgen
data_Cu(NiC4)2
_symmetry_space_group_name_H-M   'P 1'
_cell_length_a   7.08861242
_cell_length_b   6.74048965
_cell_length_c   6.47056363
_cell_angle_alpha   58.96011841
_cell_angle_beta   57.02963776
_cell_angle_gamma   53.83074060
_symmetry_Int_Tables_number   1
_chemical_formula_structural   Cu(NiC4)2
_chemical_formula_sum   'Cu1 Ni2 C8'
_cell_volume   200.57268947
_cell_formula_units_Z   1
loop_
 _symmetry_equiv_pos_site_id
 _symmetry_equiv_pos_as_xyz
  1  'x, y, z'
loop_
 _atom_site_type_symbol
 _atom_site_label
 _atom_site_symmetry_multiplicity
 _atom_site_fract_x
 _atom_site_fract_y
 _atom_site_fract_z
 _atom_site_occupancy
  Ni  Ni0  1  0.69539158  0.69788181  0.73151049  1
  Ni  Ni1  1  0.30460842  0.30211819  0.26848951  1
  Cu  Cu2  1  0.00000000  -0.00000000  -0.00000000  1
  C  C3  1  0.00000000  -0.00000000  0.50000000  1
  C  C4  1  0.50000000  0.50000000  0.50000000  1
  C  C5  1  0.72710778  0.22276302  0.77144895  1
  C  C6  1  0.26482006  0.85189763  0.63502984  1
  C  C7  1  0.85136514  0.66059050  0.27269967  1
  C  C8  1  0.27289222  0.77723698  0.22855105  1
  C  C9  1  0.14863486  0.33940950  0.72730033  1
  C  C10  1  0.73517994  0.14810237  0.36497016  1
