# generated using pymatgen
data_Cu2Ni4C3
_symmetry_space_group_name_H-M   'P 1'
_cell_length_a   13.02890000
_cell_length_b   13.02890000
_cell_length_c   13.02890000
_cell_angle_alpha   90.00000000
_cell_angle_beta   90.00000000
_cell_angle_gamma   90.00000000
_symmetry_Int_Tables_number   1
_chemical_formula_structural   Cu2Ni4C3
_chemical_formula_sum   'Cu16 Ni32 C24'
_cell_volume   2211.68489733
_cell_formula_units_Z   8
loop_
 _symmetry_equiv_pos_site_id
 _symmetry_equiv_pos_as_xyz
  1  'x, y, z'
loop_
 _atom_site_type_symbol
 _atom_site_label
 _atom_site_symmetry_multiplicity
 _atom_site_fract_x
 _atom_site_fract_y
 _atom_site_fract_z
 _atom_site_occupancy
  Ni  Ni0  1  0.03264000  0.99876700  0.25473300  1
  Ni  Ni1  1  0.25473300  0.03264000  0.99876700  1
  Ni  Ni2  1  0.99876700  0.25473300  0.03264000  1
  Ni  Ni3  1  0.50123300  0.74526700  0.53264000  1
  Ni  Ni4  1  0.75473300  0.46736000  0.00123300  1
  Ni  Ni5  1  0.00123300  0.75473300  0.46736000  1
  Ni  Ni6  1  0.24526700  0.96736000  0.49876700  1
  Ni  Ni7  1  0.74526700  0.53264000  0.50123300  1
  Ni  Ni8  1  0.49876700  0.24526700  0.96736000  1
  Ni  Ni9  1  0.53264000  0.50123300  0.74526700  1
  Ni  Ni10  1  0.96736000  0.49876700  0.24526700  1
  Ni  Ni11  1  0.46736000  0.00123300  0.75473300  1
  Ni  Ni12  1  0.96736000  0.00123300  0.74526700  1
  Ni  Ni13  1  0.74526700  0.96736000  0.00123300  1
  Ni  Ni14  1  0.00123300  0.74526700  0.96736000  1
  Ni  Ni15  1  0.49876700  0.25473300  0.46736000  1
  Ni  Ni16  1  0.24526700  0.53264000  0.99876700  1
  Ni  Ni17  1  0.99876700  0.24526700  0.53264000  1
  Ni  Ni18  1  0.75473300  0.03264000  0.50123300  1
  Ni  Ni19  1  0.25473300  0.46736000  0.49876700  1
  Ni  Ni20  1  0.50123300  0.75473300  0.03264000  1
  Ni  Ni21  1  0.46736000  0.49876700  0.25473300  1
  Ni  Ni22  1  0.03264000  0.50123300  0.75473300  1
  Ni  Ni23  1  0.53264000  0.99876700  0.24526700  1
  Ni  Ni24  1  0.22285800  0.22285800  0.22285800  1
  Ni  Ni25  1  0.27714200  0.77714200  0.72285800  1
  Ni  Ni26  1  0.72285800  0.27714200  0.77714200  1
  Ni  Ni27  1  0.77714200  0.72285800  0.27714200  1
  Ni  Ni28  1  0.77714200  0.77714200  0.77714200  1
  Ni  Ni29  1  0.72285800  0.22285800  0.27714200  1
  Ni  Ni30  1  0.27714200  0.72285800  0.22285800  1
  Ni  Ni31  1  0.22285800  0.27714200  0.72285800  1
  Cu  Cu32  1  0.44584300  0.44584300  0.44584300  1
  Cu  Cu33  1  0.05415700  0.55415700  0.94584300  1
  Cu  Cu34  1  0.94584300  0.05415700  0.55415700  1
  Cu  Cu35  1  0.55415700  0.94584300  0.05415700  1
  Cu  Cu36  1  0.55415700  0.55415700  0.55415700  1
  Cu  Cu37  1  0.94584300  0.44584300  0.05415700  1
  Cu  Cu38  1  0.05415700  0.94584300  0.44584300  1
  Cu  Cu39  1  0.44584300  0.05415700  0.94584300  1
  Cu  Cu40  1  0.10883400  0.10883400  0.10883400  1
  Cu  Cu41  1  0.39116600  0.89116600  0.60883400  1
  Cu  Cu42  1  0.60883400  0.39116600  0.89116600  1
  Cu  Cu43  1  0.89116600  0.60883400  0.39116600  1
  Cu  Cu44  1  0.89116600  0.89116600  0.89116600  1
  Cu  Cu45  1  0.60883400  0.10883400  0.39116600  1
  Cu  Cu46  1  0.39116600  0.60883400  0.10883400  1
  Cu  Cu47  1  0.10883400  0.39116600  0.60883400  1
  C  C48  1  0.18593100  0.43328800  0.26621200  1
  C  C49  1  0.26621200  0.18593100  0.43328800  1
  C  C50  1  0.43328800  0.26621200  0.18593100  1
  C  C51  1  0.06671200  0.73378800  0.68593100  1
  C  C52  1  0.76621200  0.31406900  0.56671200  1
  C  C53  1  0.56671200  0.76621200  0.31406900  1
  C  C54  1  0.23378800  0.81406900  0.93328800  1
  C  C55  1  0.73378800  0.68593100  0.06671200  1
  C  C56  1  0.93328800  0.23378800  0.81406900  1
  C  C57  1  0.68593100  0.06671200  0.73378800  1
  C  C58  1  0.81406900  0.93328800  0.23378800  1
  C  C59  1  0.31406900  0.56671200  0.76621200  1
  C  C60  1  0.81406900  0.56671200  0.73378800  1
  C  C61  1  0.73378800  0.81406900  0.56671200  1
  C  C62  1  0.56671200  0.73378800  0.81406900  1
  C  C63  1  0.93328800  0.26621200  0.31406900  1
  C  C64  1  0.23378800  0.68593100  0.43328800  1
  C  C65  1  0.43328800  0.23378800  0.68593100  1
  C  C66  1  0.76621200  0.18593100  0.06671200  1
  C  C67  1  0.26621200  0.31406900  0.93328800  1
  C  C68  1  0.06671200  0.76621200  0.18593100  1
  C  C69  1  0.31406900  0.93328800  0.26621200  1
  C  C70  1  0.18593100  0.06671200  0.76621200  1
  C  C71  1  0.68593100  0.43328800  0.23378800  1
