# generated using pymatgen
data_Cu6NiC12
_symmetry_space_group_name_H-M   'P 1'
_cell_length_a   4.96875530
_cell_length_b   5.01743642
_cell_length_c   8.75824284
_cell_angle_alpha   90.00269705
_cell_angle_beta   90.06804246
_cell_angle_gamma   99.75030067
_symmetry_Int_Tables_number   1
_chemical_formula_structural   Cu6NiC12
_chemical_formula_sum   'Cu6 Ni1 C12'
_cell_volume   215.19247970
_cell_formula_units_Z   1
loop_
 _symmetry_equiv_pos_site_id
 _symmetry_equiv_pos_as_xyz
  1  'x, y, z'
loop_
 _atom_site_type_symbol
 _atom_site_label
 _atom_site_symmetry_multiplicity
 _atom_site_fract_x
 _atom_site_fract_y
 _atom_site_fract_z
 _atom_site_occupancy
  Ni  Ni0  1  0.49044874  0.96671988  0.49828223  1
  Cu  Cu1  1  0.99526033  0.00006784  0.00896651  1
  Cu  Cu2  1  0.99328015  0.01296184  0.32390208  1
  Cu  Cu3  1  0.99658827  0.01204892  0.68100312  1
  Cu  Cu4  1  0.46067456  0.52802795  0.83847940  1
  Cu  Cu5  1  0.53033909  0.47495724  0.16810037  1
  Cu  Cu6  1  0.57023952  0.47003446  0.50632617  1
  C  C7  1  0.12757537  0.82232222  0.16828425  1
  C  C8  1  0.13130919  0.81927138  0.84091451  1
  C  C9  1  0.32905984  0.28567892  0.00243283  1
  C  C10  1  0.36401504  0.24489512  0.34484029  1
  C  C11  1  0.36346559  0.25551502  0.66334285  1
  C  C12  1  0.64974348  0.73311180  0.00759591  1
  C  C13  1  0.65805391  0.73106593  0.34160549  1
  C  C14  1  0.64179112  0.74199739  0.66456410  1
  C  C15  1  0.85461186  0.20317484  0.17367785  1
  C  C16  1  0.85616794  0.19115520  0.50284795  1
  C  C17  1  0.13043679  0.76924681  0.48856253  1
  C  C18  1  0.84305020  0.22385822  0.85484356  1
