# generated using pymatgen
data_Cu12NiC24
_symmetry_space_group_name_H-M   'P 1'
_cell_length_a   4.62869325
_cell_length_b   5.75216010
_cell_length_c   15.44284374
_cell_angle_alpha   85.84387885
_cell_angle_beta   89.29751097
_cell_angle_gamma   89.81109603
_symmetry_Int_Tables_number   1
_chemical_formula_structural   Cu12NiC24
_chemical_formula_sum   'Cu12 Ni1 C24'
_cell_volume   410.05220602
_cell_formula_units_Z   1
loop_
 _symmetry_equiv_pos_site_id
 _symmetry_equiv_pos_as_xyz
  1  'x, y, z'
loop_
 _atom_site_type_symbol
 _atom_site_label
 _atom_site_symmetry_multiplicity
 _atom_site_fract_x
 _atom_site_fract_y
 _atom_site_fract_z
 _atom_site_occupancy
  Ni  Ni0  1  0.62345400  0.97377300  0.78090300  1
  Cu  Cu1  1  0.03716300  0.14225200  0.40792600  1
  Cu  Cu2  1  0.03711800  0.84064200  0.24830800  1
  Cu  Cu3  1  0.01365000  0.21320100  0.08904600  1
  Cu  Cu4  1  0.12962900  0.21203000  0.71852700  1
  Cu  Cu5  1  0.04062900  0.77861900  0.56985300  1
  Cu  Cu6  1  0.03548000  0.91452100  0.92110500  1
  Cu  Cu7  1  0.47751200  0.41052300  0.92942800  1
  Cu  Cu8  1  0.51116200  0.29863100  0.57610000  1
  Cu  Cu9  1  0.50322400  0.37112500  0.25828900  1
  Cu  Cu10  1  0.51188000  0.67262900  0.10000700  1
  Cu  Cu11  1  0.51148000  0.60947600  0.41862200  1
  Cu  Cu12  1  0.51850800  0.55062300  0.74569600  1
  C  C13  1  0.24357500  0.11631400  0.30191200  1
  C  C14  1  0.25553900  0.04182500  0.61946900  1
  C  C15  1  0.21377000  0.18688800  0.98299700  1
  C  C16  1  0.23806200  0.91116100  0.14357700  1
  C  C17  1  0.24472900  0.85051500  0.46106800  1
  C  C18  1  0.18101100  0.94191000  0.79237400  1
  C  C19  1  0.29202100  0.36495000  0.47456300  1
  C  C20  1  0.28696900  0.42881100  0.15370500  1
  C  C21  1  0.29012200  0.59610000  0.31478400  1
  C  C22  1  0.26350900  0.49629800  0.64301700  1
  C  C23  1  0.24345000  0.39489000  0.81471500  1
  C  C24  1  0.72328500  0.44579100  0.03415500  1
  C  C25  1  0.73908200  0.62733000  0.19932900  1
  C  C26  1  0.74061900  0.37218400  0.36044300  1
  C  C27  1  0.72948500  0.57060700  0.52598800  1
  C  C28  1  0.67186500  0.65717600  0.85122500  1
  C  C29  1  0.70078900  0.25365600  0.69395400  1
  C  C30  1  0.26541900  0.67661600  0.99448400  1
  C  C31  1  0.76463300  0.14790100  0.19716000  1
  C  C32  1  0.77730200  0.08776700  0.51688900  1
  C  C33  1  0.77481000  0.85384100  0.35651000  1
  C  C34  1  0.74931000  0.91845200  0.03831500  1
  C  C35  1  0.71788900  0.14738400  0.87670100  1
  C  C36  1  0.76131500  0.78072900  0.68052500  1
