# generated using pymatgen
data_Cu2NiC4
_symmetry_space_group_name_H-M   'P 1'
_cell_length_a   3.81232266
_cell_length_b   3.81232266
_cell_length_c   12.74047200
_cell_angle_alpha   90.00000000
_cell_angle_beta   90.00000000
_cell_angle_gamma   119.99733884
_symmetry_Int_Tables_number   1
_chemical_formula_structural   Cu2NiC4
_chemical_formula_sum   'Cu2 Ni1 C4'
_cell_volume   160.36407917
_cell_formula_units_Z   1
loop_
 _symmetry_equiv_pos_site_id
 _symmetry_equiv_pos_as_xyz
  1  'x, y, z'
loop_
 _atom_site_type_symbol
 _atom_site_label
 _atom_site_symmetry_multiplicity
 _atom_site_fract_x
 _atom_site_fract_y
 _atom_site_fract_z
 _atom_site_occupancy
  Ni  Ni0  1  0.00002700  0.99997300  0.25000000  1
  Cu  Cu1  1  0.66665100  0.33334900  0.75000000  1
  Cu  Cu2  1  0.33332600  0.66667400  0.25000000  1
  C  C3  1  0.66667900  0.33332100  0.13163500  1
  C  C4  1  0.33331900  0.66668100  0.86062800  1
  C  C5  1  0.33331900  0.66668100  0.63937200  1
  C  C6  1  0.66667900  0.33332100  0.36836500  1
