# generated using pymatgen
data_Cu3NiC31
_symmetry_space_group_name_H-M   'P 1'
_cell_length_a   8.80935274
_cell_length_b   8.80935245
_cell_length_c   22.88447636
_cell_angle_alpha   90.00000000
_cell_angle_beta   90.00000000
_cell_angle_gamma   120.00000109
_symmetry_Int_Tables_number   1
_chemical_formula_structural   Cu3NiC31
_chemical_formula_sum   'Cu9 Ni3 C93'
_cell_volume   1538.01153408
_cell_formula_units_Z   3
loop_
 _symmetry_equiv_pos_site_id
 _symmetry_equiv_pos_as_xyz
  1  'x, y, z'
loop_
 _atom_site_type_symbol
 _atom_site_label
 _atom_site_symmetry_multiplicity
 _atom_site_fract_x
 _atom_site_fract_y
 _atom_site_fract_z
 _atom_site_occupancy
  Ni  Ni0  1  0.00000000  -0.00000000  0.99819465  1
  Ni  Ni1  1  0.66666700  0.33333300  0.83511160  1
  Ni  Ni2  1  0.66666700  0.33333300  0.33337968  1
  Cu  Cu3  1  0.00000000  -0.00000000  0.64597244  1
  Cu  Cu4  1  0.00000000  -0.00000000  0.14826128  1
  Cu  Cu5  1  0.66666700  0.33333300  0.68583594  1
  Cu  Cu6  1  0.66666700  0.33333300  0.18485817  1
  Cu  Cu7  1  0.66666700  0.33333300  0.48081264  1
  Cu  Cu8  1  0.33333300  0.66666700  0.02058366  1
  Cu  Cu9  1  0.33333300  0.66666700  0.52039851  1
  Cu  Cu10  1  0.33333300  0.66666700  0.31202877  1
  Cu  Cu11  1  0.33333300  0.66666700  0.81257484  1
  C  C12  1  0.00000000  -0.00000000  0.35348825  1
  C  C13  1  0.00000000  -0.00000000  0.85090006  1
  C  C14  1  0.66666700  0.33333300  0.98224920  1
  C  C15  1  0.28915678  0.00016534  0.25109588  1
  C  C16  1  0.71100856  0.71084322  0.25109588  1
  C  C17  1  -0.00016534  0.28899144  0.25109588  1
  C  C18  1  0.28863055  0.28875413  0.75083565  1
  C  C19  1  0.00012358  0.71136945  0.75083565  1
  C  C20  1  0.71124587  -0.00012358  0.75083565  1
  C  C21  1  0.95748389  0.33335066  0.58331909  1
  C  C22  1  0.37586777  0.04251611  0.58331909  1
  C  C23  1  0.66664934  0.62413223  0.58331909  1
  C  C24  1  0.95595863  0.62269037  0.08229030  1
  C  C25  1  0.66673274  0.04404137  0.08229030  1
  C  C26  1  0.37730963  0.33326726  0.08229030  1
  C  C27  1  0.62628131  0.66669409  0.91665744  1
  C  C28  1  0.04041178  0.37371869  0.91665744  1
  C  C29  1  0.33330591  0.95958822  0.91665744  1
  C  C30  1  0.62649190  0.95646768  0.41623421  1
  C  C31  1  0.32997479  0.37350810  0.41623421  1
  C  C32  1  0.04353232  0.67002521  0.41623421  1
  C  C33  1  0.21285557  0.03295150  0.30308484  1
  C  C34  1  0.82009593  0.78714443  0.30308484  1
  C  C35  1  0.96704850  0.17990407  0.30308484  1
  C  C36  1  0.21330012  0.18017699  0.80302850  1
  C  C37  1  0.96687687  0.78669988  0.80302850  1
  C  C38  1  0.81982301  0.03312313  0.80302850  1
  C  C39  1  0.79041481  0.97195352  0.69757933  1
  C  C40  1  0.18153871  0.20958519  0.69757933  1
  C  C41  1  0.02804648  0.81846129  0.69757933  1
  C  C42  1  0.78980589  0.81794847  0.19770177  1
  C  C43  1  0.02814258  0.21019411  0.19770177  1
  C  C44  1  0.18205153  0.97185742  0.19770177  1
  C  C45  1  0.87624896  0.36323373  0.63554610  1
  C  C46  1  0.48698578  0.12375104  0.63554610  1
  C  C47  1  0.63676627  0.51301422  0.63554610  1
  C  C48  1  0.87669334  0.51524248  0.13563723  1
  C  C49  1  0.63855014  0.12330666  0.13563723  1
  C  C50  1  0.48475752  0.36144986  0.13563723  1
  C  C51  1  0.45354467  0.30027043  0.03030413  1
  C  C52  1  0.84672676  0.54645533  0.03030413  1
  C  C53  1  0.69972957  0.15327324  0.03030413  1
  C  C54  1  0.45715076  0.15379996  0.53114118  1
  C  C55  1  0.69665020  0.54284924  0.53114118  1
  C  C56  1  0.84620004  0.30334980  0.53114118  1
  C  C57  1  0.54310737  0.69483479  0.96922496  1
  C  C58  1  0.15172642  0.45689263  0.96922496  1
  C  C59  1  0.30516521  0.84827358  0.96922496  1
  C  C60  1  0.54223152  0.84856175  0.46895540  1
  C  C61  1  0.30632923  0.45776848  0.46895540  1
  C  C62  1  0.15143825  0.69367077  0.46895540  1
  C  C63  1  0.12291856  0.63540867  0.36417745  1
  C  C64  1  0.51248911  0.87708144  0.36417745  1
  C  C65  1  0.36459133  0.48751089  0.36417745  1
  C  C66  1  0.12352914  0.48503245  0.86414024  1
  C  C67  1  0.36150231  0.87647086  0.86414024  1
  C  C68  1  0.51496755  0.63849769  0.86414024  1
  C  C69  1  0.02431382  0.82377418  0.40846299  1
  C  C70  1  0.79946036  0.97568618  0.40846299  1
  C  C71  1  0.17622582  0.20053964  0.40846299  1
  C  C72  1  0.02513297  0.19935015  0.91020665  1
  C  C73  1  0.17421718  0.97486703  0.91020665  1
  C  C74  1  0.80064985  0.82578282  0.91020665  1
  C  C75  1  0.97507797  0.17723001  0.59199694  1
  C  C76  1  0.20215204  0.02492203  0.59199694  1
  C  C77  1  0.82276999  0.79784796  0.59199694  1
  C  C78  1  0.97633875  0.80056234  0.09093202  1
  C  C79  1  0.82422359  0.02366125  0.09093202  1
  C  C80  1  0.19943766  0.17577641  0.09093202  1
  C  C81  1  0.69035458  0.15746056  0.74236291  1
  C  C82  1  0.46710698  0.30964542  0.74236291  1
  C  C83  1  0.84253944  0.53289302  0.74236291  1
  C  C84  1  0.69015501  0.53264998  0.24247927  1
  C  C85  1  0.84249598  0.30984499  0.24247927  1
  C  C86  1  0.46735002  0.15750402  0.24247927  1
  C  C87  1  0.64156130  0.50758819  0.92317095  1
  C  C88  1  0.86602788  0.35843870  0.92317095  1
  C  C89  1  0.49241181  0.13397212  0.92317095  1
  C  C90  1  0.64128502  0.13295983  0.42384706  1
  C  C91  1  0.49167581  0.35871498  0.42384706  1
  C  C92  1  0.86704017  0.50832419  0.42384706  1
  C  C93  1  0.35747892  0.48889672  0.07514273  1
  C  C94  1  0.13141680  0.64252108  0.07514273  1
  C  C95  1  0.51110328  0.86858320  0.07514273  1
  C  C96  1  0.35817001  0.86884978  0.57469764  1
  C  C97  1  0.51067878  0.64182999  0.57469764  1
  C  C98  1  0.13115022  0.48932122  0.57469764  1
  C  C99  1  0.30918031  0.84447561  0.25823499  1
  C  C100  1  0.53529430  0.69081969  0.25823499  1
  C  C101  1  0.15552439  0.46470570  0.25823499  1
  C  C102  1  0.30917413  0.46461363  0.75818424  1
  C  C103  1  0.15543849  0.69082587  0.75818424  1
  C  C104  1  0.53538637  0.84456151  0.75818424  1
