# generated using pymatgen
data_Cu4NiC8
_symmetry_space_group_name_H-M   'P 1'
_cell_length_a   5.13688012
_cell_length_b   5.14226528
_cell_length_c   5.84283004
_cell_angle_alpha   93.39253064
_cell_angle_beta   86.65057912
_cell_angle_gamma   107.07233634
_symmetry_Int_Tables_number   1
_chemical_formula_structural   Cu4NiC8
_chemical_formula_sum   'Cu4 Ni1 C8'
_cell_volume   147.14363126
_cell_formula_units_Z   1
loop_
 _symmetry_equiv_pos_site_id
 _symmetry_equiv_pos_as_xyz
  1  'x, y, z'
loop_
 _atom_site_type_symbol
 _atom_site_label
 _atom_site_symmetry_multiplicity
 _atom_site_fract_x
 _atom_site_fract_y
 _atom_site_fract_z
 _atom_site_occupancy
  Ni  Ni0  1  0.70789891  0.29777279  0.51276981  1
  Cu  Cu1  1  0.00911671  0.99153638  0.00319043  1
  Cu  Cu2  1  0.03392862  0.96751716  0.49604403  1
  Cu  Cu3  1  0.46381585  0.53664933  0.23454510  1
  Cu  Cu4  1  0.39762693  0.60305272  0.75640556  1
  C  C5  1  0.17546362  0.82388888  0.74358435  1
  C  C6  1  0.29358393  0.32125567  0.98910383  1
  C  C7  1  0.31937355  0.30132633  0.49606637  1
  C  C8  1  0.67912702  0.70712202  0.98937938  1
  C  C9  1  0.69913242  0.68336471  0.49581292  1
  C  C10  1  0.88222157  0.11978181  0.27675272  1
  C  C11  1  0.21599431  0.78310654  0.24383517  1
  C  C12  1  0.83105057  0.16918166  0.76251034  1
