# generated using pymatgen
data_Cu6NiC12
_symmetry_space_group_name_H-M   'P 1'
_cell_length_a   10.45587092
_cell_length_b   7.78080444
_cell_length_c   2.94614900
_cell_angle_alpha   90.00000000
_cell_angle_beta   90.00000000
_cell_angle_gamma   113.64106134
_symmetry_Int_Tables_number   1
_chemical_formula_structural   Cu6NiC12
_chemical_formula_sum   'Cu6 Ni1 C12'
_cell_volume   219.56885024
_cell_formula_units_Z   1
loop_
 _symmetry_equiv_pos_site_id
 _symmetry_equiv_pos_as_xyz
  1  'x, y, z'
loop_
 _atom_site_type_symbol
 _atom_site_label
 _atom_site_symmetry_multiplicity
 _atom_site_fract_x
 _atom_site_fract_y
 _atom_site_fract_z
 _atom_site_occupancy
  Ni  Ni0  1  0.84115500  0.17344800  0.50000000  1
  Cu  Cu1  1  0.00413400  0.95173500  0.00000000  1
  Cu  Cu2  1  0.33110700  0.14375800  0.50000000  1
  Cu  Cu3  1  0.00149700  0.53240500  0.50000000  1
  Cu  Cu4  1  0.65342300  0.36558400  0.00000000  1
  Cu  Cu5  1  0.32884300  0.72169100  0.00000000  1
  Cu  Cu6  1  0.65120200  0.77680600  0.50000000  1
  C  C7  1  0.12852900  0.05236100  0.50000000  1
  C  C8  1  0.97577800  0.34267600  0.00000000  1
  C  C9  1  0.33608600  0.29795400  0.00000000  1
  C  C10  1  0.00194300  0.68829800  0.00000000  1
  C  C11  1  0.53318800  0.24409100  0.50000000  1
  C  C12  1  0.20045500  0.61190000  0.50000000  1
  C  C13  1  0.45996700  0.75652000  0.50000000  1
  C  C14  1  0.78768400  0.40358300  0.50000000  1
  C  C15  1  0.64691000  0.62370300  0.00000000  1
  C  C16  1  0.32378300  0.97274900  0.00000000  1
  C  C17  1  0.86845600  0.92781200  0.50000000  1
  C  C18  1  0.70086100  0.03792200  0.00000000  1
