# generated using pymatgen
data_Cu8NiC6
_symmetry_space_group_name_H-M   'P 1'
_cell_length_a   6.89929053
_cell_length_b   6.89929053
_cell_length_c   6.89929066
_cell_angle_alpha   89.15505924
_cell_angle_beta   89.15505924
_cell_angle_gamma   89.15506038
_symmetry_Int_Tables_number   1
_chemical_formula_structural   Cu8NiC6
_chemical_formula_sum   'Cu8 Ni1 C6'
_cell_volume   328.30159671
_cell_formula_units_Z   1
loop_
 _symmetry_equiv_pos_site_id
 _symmetry_equiv_pos_as_xyz
  1  'x, y, z'
loop_
 _atom_site_type_symbol
 _atom_site_label
 _atom_site_symmetry_multiplicity
 _atom_site_fract_x
 _atom_site_fract_y
 _atom_site_fract_z
 _atom_site_occupancy
  C  C0  1  0.75964300  0.57792900  0.43950100  1
  C  C1  1  0.43950100  0.75964300  0.57792900  1
  C  C2  1  0.57792900  0.43950100  0.75964300  1
  C  C3  1  0.24035700  0.42207100  0.56049900  1
  C  C4  1  0.56049900  0.24035700  0.42207100  1
  C  C5  1  0.42207100  0.56049900  0.24035700  1
  Ni  Ni6  1  0.00000000  0.00000000  0.00000000  1
  Cu  Cu7  1  0.75677800  0.75677800  0.75677800  1
  Cu  Cu8  1  0.24322200  0.24322200  0.24322200  1
  Cu  Cu9  1  0.25415900  0.61861200  0.87787000  1
  Cu  Cu10  1  0.87787000  0.25415900  0.61861200  1
  Cu  Cu11  1  0.61861200  0.87787000  0.25415900  1
  Cu  Cu12  1  0.74584100  0.38138800  0.12213000  1
  Cu  Cu13  1  0.12213000  0.74584100  0.38138800  1
  Cu  Cu14  1  0.38138800  0.12213000  0.74584100  1
