# generated using pymatgen
data_Cu4NiC14
_symmetry_space_group_name_H-M   'P 1'
_cell_length_a   6.63563542
_cell_length_b   6.63563498
_cell_length_c   5.35602160
_cell_angle_alpha   74.90893322
_cell_angle_beta   105.09106296
_cell_angle_gamma   97.10995471
_symmetry_Int_Tables_number   1
_chemical_formula_structural   Cu4NiC14
_chemical_formula_sum   'Cu4 Ni1 C14'
_cell_volume   219.45175683
_cell_formula_units_Z   1
loop_
 _symmetry_equiv_pos_site_id
 _symmetry_equiv_pos_as_xyz
  1  'x, y, z'
loop_
 _atom_site_type_symbol
 _atom_site_label
 _atom_site_symmetry_multiplicity
 _atom_site_fract_x
 _atom_site_fract_y
 _atom_site_fract_z
 _atom_site_occupancy
  Ni  Ni0  1  0.72280200  0.72280200  0.75000000  1
  C  C1  1  0.10055200  0.10055200  0.75000000  1
  C  C2  1  0.91899100  0.91899100  0.25000000  1
  Cu  Cu3  1  0.20593700  0.61089600  0.77786100  1
  Cu  Cu4  1  0.38722600  0.79163300  0.27125700  1
  Cu  Cu5  1  0.61089600  0.20593700  0.72213900  1
  Cu  Cu6  1  0.79163300  0.38722600  0.22874300  1
  C  C7  1  0.02408000  0.78582800  0.66632600  1
  C  C8  1  0.20282200  0.95799500  0.15446300  1
  C  C9  1  0.10175600  0.37918000  0.78854800  1
  C  C10  1  0.37306300  0.66590600  0.58136900  1
  C  C11  1  0.63312500  0.87021100  0.34274000  1
  C  C12  1  0.34994400  0.63805300  0.06681500  1
  C  C13  1  0.66590600  0.37306300  0.91863100  1
  C  C14  1  0.37918000  0.10175600  0.71145200  1
  C  C15  1  0.63805300  0.34994400  0.43318500  1
  C  C16  1  0.87021100  0.63312500  0.15726000  1
  C  C17  1  0.78582800  0.02408000  0.83367400  1
  C  C18  1  0.95799500  0.20282200  0.34553700  1
