# generated using pymatgen
data_CuNi11C7
_symmetry_space_group_name_H-M   'P 1'
_cell_length_a   7.18569822
_cell_length_b   5.81212123
_cell_length_c   5.91856565
_cell_angle_alpha   81.72865258
_cell_angle_beta   68.37579093
_cell_angle_gamma   73.18843272
_symmetry_Int_Tables_number   1
_chemical_formula_structural   CuNi11C7
_chemical_formula_sum   'Cu1 Ni11 C7'
_cell_volume   219.77334827
_cell_formula_units_Z   1
loop_
 _symmetry_equiv_pos_site_id
 _symmetry_equiv_pos_as_xyz
  1  'x, y, z'
loop_
 _atom_site_type_symbol
 _atom_site_label
 _atom_site_symmetry_multiplicity
 _atom_site_fract_x
 _atom_site_fract_y
 _atom_site_fract_z
 _atom_site_occupancy
  C  C0  1  0.84482091  0.66033783  0.15985357  1
  C  C1  1  0.82554136  0.67774574  0.66642109  1
  C  C2  1  0.66187152  0.26085216  0.42184352  1
  C  C3  1  0.32339621  0.71362013  0.58900725  1
  C  C4  1  0.17029231  0.32237973  0.35194801  1
  C  C5  1  0.50193074  0.00638736  0.01718385  1
  C  C6  1  0.98158594  0.09094889  0.93698154  1
  Ni  Ni7  1  0.67383900  0.03070484  0.68522290  1
  Ni  Ni8  1  0.35147051  0.32186588  0.03201117  1
  Ni  Ni9  1  0.94489484  0.28800740  0.19960862  1
  Ni  Ni10  1  0.62942104  0.59863194  0.52135951  1
  Ni  Ni11  1  0.02809111  0.76412138  0.80338314  1
  Ni  Ni12  1  0.37085420  0.40508467  0.47134766  1
  Ni  Ni13  1  0.71600116  0.03909134  0.16074023  1
  Ni  Ni14  1  0.30809439  0.97734392  0.34339497  1
  Ni  Ni15  1  0.63897701  0.67628524  0.99440863  1
  Ni  Ni16  1  0.97518207  0.31878506  0.67344852  1
  Ni  Ni17  1  0.02474209  0.66152071  0.34961637  1
  Cu  Cu18  1  0.28825161  0.93628377  0.86031247  1
