# generated using pymatgen
data_Cu2NiC17
_symmetry_space_group_name_H-M   'P 1'
_cell_length_a   16.01955257
_cell_length_b   9.17396959
_cell_length_c   9.26156881
_cell_angle_alpha   90.21650092
_cell_angle_beta   125.25577594
_cell_angle_gamma   89.82875649
_symmetry_Int_Tables_number   1
_chemical_formula_structural   Cu2NiC17
_chemical_formula_sum   'Cu8 Ni4 C68'
_cell_volume   1111.44878080
_cell_formula_units_Z   4
loop_
 _symmetry_equiv_pos_site_id
 _symmetry_equiv_pos_as_xyz
  1  'x, y, z'
loop_
 _atom_site_type_symbol
 _atom_site_label
 _atom_site_symmetry_multiplicity
 _atom_site_fract_x
 _atom_site_fract_y
 _atom_site_fract_z
 _atom_site_occupancy
  C  C0  1  0.25143909  0.74601592  0.00160450  1
  C  C1  1  0.74810053  0.74501166  0.48714073  1
  C  C2  1  0.75143909  0.24601592  0.00160450  1
  C  C3  1  0.24810053  0.24501166  0.48714073  1
  C  C4  1  0.51190343  0.09389530  0.77022127  1
  C  C5  1  0.49787079  0.88982226  0.23553700  1
  C  C6  1  0.01190343  0.59389530  0.77022127  1
  C  C7  1  0.99787079  0.38982226  0.23553700  1
  C  C8  1  0.79867150  0.92603038  0.21540594  1
  C  C9  1  0.18278131  0.07845351  0.80402492  1
  C  C10  1  0.29867150  0.42603038  0.21540594  1
  C  C11  1  0.68278131  0.57845351  0.80402492  1
  C  C12  1  0.10052280  0.24015730  0.06006532  1
  C  C13  1  0.60052280  0.74015730  0.06006532  1
  C  C14  1  0.10556894  0.74578043  0.55441607  1
  C  C15  1  0.89531536  0.75760408  0.93788077  1
  C  C16  1  0.89635182  0.25427116  0.44645174  1
  C  C17  1  0.60556894  0.24578043  0.55441607  1
  C  C18  1  0.39531536  0.25760408  0.93788077  1
  C  C19  1  0.39635182  0.75427116  0.44645174  1
  Ni  Ni20  1  0.65276690  0.89985948  0.75156615  1
  Ni  Ni21  1  0.35548842  0.09566428  0.25101423  1
  Ni  Ni22  1  0.15276690  0.39985948  0.75156615  1
  Ni  Ni23  1  0.85548842  0.59566428  0.25101423  1
  Cu  Cu24  1  0.99579376  0.94677863  0.73816011  1
  Cu  Cu25  1  0.99653277  0.04557473  0.26036376  1
  Cu  Cu26  1  0.49579376  0.44677863  0.73816011  1
  Cu  Cu27  1  0.49653277  0.54557473  0.26036376  1
  Cu  Cu28  1  0.35312471  0.90484542  0.76236640  1
  Cu  Cu29  1  0.64703351  0.11364123  0.24077552  1
  Cu  Cu30  1  0.85312471  0.40484542  0.76236640  1
  Cu  Cu31  1  0.14703351  0.61364123  0.24077552  1
  C  C32  1  0.16263833  0.57685970  0.73495379  1
  C  C33  1  0.85341943  0.57503562  0.74982080  1
  C  C34  1  0.85042872  0.41517230  0.25366505  1
  C  C35  1  0.15392222  0.44697365  0.26005014  1
  C  C36  1  0.66263833  0.07685970  0.73495379  1
  C  C37  1  0.35341943  0.07503562  0.74982080  1
  C  C38  1  0.35042872  0.91517230  0.25366505  1
  C  C39  1  0.65392222  0.94697365  0.26005014  1
  C  C40  1  0.42950502  0.54272300  0.56874235  1
  C  C41  1  0.56584404  0.54127311  0.90002768  1
  C  C42  1  0.55366717  0.45027396  0.42666995  1
  C  C43  1  0.44365852  0.44128117  0.09537081  1
  C  C44  1  0.92950502  0.04272300  0.56874235  1
  C  C45  1  0.06584404  0.04127311  0.90002768  1
  C  C46  1  0.05366717  0.95027396  0.42666995  1
  C  C47  1  0.94365852  0.94128117  0.09537081  1
  C  C48  1  0.25150405  0.85916241  0.73318082  1
  C  C49  1  0.74409314  0.81380779  0.75301412  1
  C  C50  1  0.73926156  0.17251435  0.24509869  1
  C  C51  1  0.27187096  0.18193939  0.26252100  1
  C  C52  1  0.75150405  0.35916241  0.73318082  1
  C  C53  1  0.24409314  0.31380779  0.75301412  1
  C  C54  1  0.23926156  0.67251435  0.24509869  1
  C  C55  1  0.77187096  0.68193939  0.26252100  1
  C  C56  1  0.36185590  0.84818525  0.61026869  1
  C  C57  1  0.65650438  0.87385555  0.92701466  1
  C  C58  1  0.64877496  0.18101887  0.39578291  1
  C  C59  1  0.35278497  0.13833912  0.07247201  1
  C  C60  1  0.86185590  0.34818525  0.61026869  1
  C  C61  1  0.15650438  0.37385555  0.92701466  1
  C  C62  1  0.14877496  0.68101887  0.39578291  1
  C  C63  1  0.85278497  0.63833912  0.07247201  1
  C  C64  1  0.44314617  0.85123259  0.94074778  1
  C  C65  1  0.54214316  0.82926193  0.58097194  1
  C  C66  1  0.54631679  0.16272731  0.06464588  1
  C  C67  1  0.47177580  0.14145534  0.41793368  1
  C  C68  1  0.94314617  0.35123259  0.94074778  1
  C  C69  1  0.04214316  0.32926193  0.58097194  1
  C  C70  1  0.04631679  0.66272731  0.06464588  1
  C  C71  1  0.97177580  0.64145534  0.41793368  1
  C  C72  1  0.06943940  0.84384347  0.72427843  1
  C  C73  1  0.92358380  0.84578291  0.75246037  1
  C  C74  1  0.90701555  0.12707846  0.25088462  1
  C  C75  1  0.06758032  0.15679702  0.26242939  1
  C  C76  1  0.56943940  0.34384347  0.72427843  1
  C  C77  1  0.42358380  0.34578291  0.75246037  1
  C  C78  1  0.40701555  0.62707846  0.25088462  1
  C  C79  1  0.56758032  0.65679702  0.26242939  1
