# generated using pymatgen
data_Cu2NiC8
_symmetry_space_group_name_H-M   'P 1'
_cell_length_a   5.87283695
_cell_length_b   8.45518098
_cell_length_c   7.22564818
_cell_angle_alpha   42.37396230
_cell_angle_beta   53.59560759
_cell_angle_gamma   45.87303054
_symmetry_Int_Tables_number   1
_chemical_formula_structural   Cu2NiC8
_chemical_formula_sum   'Cu2 Ni1 C8'
_cell_volume   171.23866962
_cell_formula_units_Z   1
loop_
 _symmetry_equiv_pos_site_id
 _symmetry_equiv_pos_as_xyz
  1  'x, y, z'
loop_
 _atom_site_type_symbol
 _atom_site_label
 _atom_site_symmetry_multiplicity
 _atom_site_fract_x
 _atom_site_fract_y
 _atom_site_fract_z
 _atom_site_occupancy
  Ni  Ni0  1  0.75659254  0.89501850  0.91138527  1
  C  C1  1  0.41880425  0.50599771  0.59001811  1
  C  C2  1  0.01191112  0.10672373  1.00077294  1
  Cu  Cu3  1  0.54310064  0.81377703  0.64822876  1
  Cu  Cu4  1  0.24694281  0.39294263  0.29965441  1
  C  C5  1  0.21647023  0.75124218  0.27070096  1
  C  C6  1  0.74161411  0.28419714  0.16003292  1
  C  C7  1  0.33394548  0.21991494  0.76609417  1
  C  C8  1  0.77732333  0.16909381  0.84010607  1
  C  C9  1  0.74379498  0.62252543  0.32120111  1
  C  C10  1  0.13807150  0.66713790  0.76323429  1
