# generated using pymatgen
data_CuNiC15
_symmetry_space_group_name_H-M   'P 1'
_cell_length_a   9.06412108
_cell_length_b   9.06412077
_cell_length_c   23.45293780
_cell_angle_alpha   90.00000000
_cell_angle_beta   90.00000000
_cell_angle_gamma   120.00000113
_symmetry_Int_Tables_number   1
_chemical_formula_structural   CuNiC15
_chemical_formula_sum   'Cu6 Ni6 C90'
_cell_volume   1668.70382016
_cell_formula_units_Z   6
loop_
 _symmetry_equiv_pos_site_id
 _symmetry_equiv_pos_as_xyz
  1  'x, y, z'
loop_
 _atom_site_type_symbol
 _atom_site_label
 _atom_site_symmetry_multiplicity
 _atom_site_fract_x
 _atom_site_fract_y
 _atom_site_fract_z
 _atom_site_occupancy
  Ni  Ni0  1  -0.00000000  0.00000000  0.85271767  1
  Ni  Ni1  1  0.66666700  0.33333300  0.98061533  1
  Ni  Ni2  1  0.33333300  0.66666700  0.02511330  1
  Ni  Ni3  1  0.33333300  0.66666700  0.52261340  1
  Ni  Ni4  1  0.33333300  0.66666700  0.31072060  1
  Ni  Ni5  1  0.33333300  0.66666700  0.80822070  1
  Cu  Cu6  1  -0.00000000  0.00000000  0.35322051  1
  Cu  Cu7  1  -0.00000000  0.00000000  0.64398069  1
  Cu  Cu8  1  -0.00000000  0.00000000  0.14650317  1
  Cu  Cu9  1  0.66666700  0.33333300  0.68682983  1
  Cu  Cu10  1  0.66666700  0.33333300  0.18935231  1
  Cu  Cu11  1  0.66666700  0.33333300  0.48011249  1
  C  C12  1  0.28682122  0.00733986  0.24861644  1
  C  C13  1  0.72051864  0.71317878  0.24861644  1
  C  C14  1  0.99266014  0.27948136  0.24861644  1
  C  C15  1  0.29308145  0.28525523  0.74581547  1
  C  C16  1  0.99217378  0.70691855  0.74581547  1
  C  C17  1  0.71474477  0.00782622  0.74581547  1
  C  C18  1  0.94614836  0.32599314  0.58471656  1
  C  C19  1  0.37984578  0.05385164  0.58471656  1
  C  C20  1  0.67400686  0.62015422  0.58471656  1
  C  C21  1  0.95192223  0.62641445  0.08751753  1
  C  C22  1  0.67449322  0.04807777  0.08751753  1
  C  C23  1  0.37358555  0.32550678  0.08751753  1
  C  C24  1  0.62400231  0.66666700  0.91666700  1
  C  C25  1  0.04266369  0.37599769  0.91666700  1
  C  C26  1  0.33333300  0.95733631  0.91666700  1
  C  C27  1  0.63292651  0.96626051  0.41666700  1
  C  C28  1  0.33333300  0.36707349  0.41666700  1
  C  C29  1  0.03373949  0.66666700  0.41666700  1
  C  C30  1  0.20630192  0.03165204  0.30037914  1
  C  C31  1  0.82535012  0.79369808  0.30037914  1
  C  C32  1  0.96834796  0.17464988  0.30037914  1
  C  C33  1  0.22032080  0.18434015  0.79854605  1
  C  C34  1  0.96401935  0.77967920  0.79854605  1
  C  C35  1  0.81565985  0.03598065  0.79854605  1
  C  C36  1  0.80255496  0.98209512  0.69667300  1
  C  C37  1  0.17954016  0.19744504  0.69667300  1
  C  C38  1  0.01790488  0.82045984  0.69667300  1
  C  C39  1  0.80261824  0.82164621  0.19810766  1
  C  C40  1  0.01902797  0.19738176  0.19810766  1
  C  C41  1  0.17835379  0.98097203  0.19810766  1
  C  C42  1  0.86404876  0.35236097  0.63522534  1
  C  C43  1  0.48831321  0.13595124  0.63522534  1
  C  C44  1  0.64763903  0.51168679  0.63522534  1
  C  C45  1  0.86411204  0.51287316  0.13666000  1
  C  C46  1  0.64876212  0.13588796  0.13666000  1
  C  C47  1  0.48712684  0.35123788  0.13666000  1
  C  C48  1  0.44634620  0.29735235  0.03478695  1
  C  C49  1  0.85100715  0.55365380  0.03478695  1
  C  C50  1  0.70264765  0.14899285  0.03478695  1
  C  C51  1  0.46036508  0.15868312  0.53295386  1
  C  C52  1  0.69831904  0.53963492  0.53295386  1
  C  C53  1  0.84131688  0.30168096  0.53295386  1
  C  C54  1  0.54253527  0.69024391  0.96798914  1
  C  C55  1  0.14770765  0.45746473  0.96798914  1
  C  C56  1  0.30975609  0.85229235  0.96798914  1
  C  C57  1  0.55448188  0.85528870  0.46723134  1
  C  C58  1  0.30080582  0.44551812  0.46723134  1
  C  C59  1  0.14471130  0.69919418  0.46723134  1
  C  C60  1  0.11218412  0.63413982  0.36610266  1
  C  C61  1  0.52195470  0.88781588  0.36610266  1
  C  C62  1  0.36586018  0.47804530  0.36610266  1
  C  C63  1  0.12413073  0.48104165  0.86534486  1
  C  C64  1  0.35690991  0.87586927  0.86534486  1
  C  C65  1  0.51895835  0.64309009  0.86534486  1
  C  C66  1  0.01446591  0.81724623  0.40538325  1
  C  C67  1  0.80278032  0.98553409  0.40538325  1
  C  C68  1  0.18275377  0.19721968  0.40538325  1
  C  C69  1  0.02467179  0.20634808  0.90959309  1
  C  C70  1  0.18167629  0.97532821  0.90959309  1
  C  C71  1  0.79365192  0.81832371  0.90959309  1
  C  C72  1  0.96495410  0.17434856  0.59389264  1
  C  C73  1  0.20939446  0.03504590  0.59389264  1
  C  C74  1  0.82565144  0.79060554  0.59389264  1
  C  C75  1  0.97220361  0.79662683  0.09717762  1
  C  C76  1  0.82442322  0.02779639  0.09717762  1
  C  C77  1  0.20337317  0.17557678  0.09717762  1
  C  C78  1  0.69446339  0.15775622  0.73615538  1
  C  C79  1  0.46329383  0.30553661  0.73615538  1
  C  C80  1  0.84224378  0.53670617  0.73615538  1
  C  C81  1  0.70171290  0.54272746  0.23944036  1
  C  C82  1  0.84101556  0.29828710  0.23944036  1
  C  C83  1  0.45727254  0.15898444  0.23944036  1
  C  C84  1  0.64199521  0.51500929  0.92373991  1
  C  C85  1  0.87301508  0.35800479  0.92373991  1
  C  C86  1  0.48499071  0.12698492  0.92373991  1
  C  C87  1  0.65220109  0.13611332  0.42794975  1
  C  C88  1  0.48391323  0.34779891  0.42794975  1
  C  C89  1  0.86388668  0.51608677  0.42794975  1
  C  C90  1  0.35648129  0.47804525  0.08046781  1
  C  C91  1  0.12156296  0.64351871  0.08046781  1
  C  C92  1  0.52195475  0.87843704  0.08046781  1
  C  C93  1  0.36070492  0.88317948  0.57704946  1
  C  C94  1  0.52247356  0.63929508  0.57704946  1
  C  C95  1  0.11682052  0.47752644  0.57704946  1
  C  C96  1  0.30596108  0.85580756  0.25628454  1
  C  C97  1  0.54984548  0.69403892  0.25628454  1
  C  C98  1  0.14419244  0.45015452  0.25628454  1
  C  C99  1  0.31018471  0.45489696  0.75286619  1
  C  C100  1  0.14471125  0.68981529  0.75286619  1
  C  C101  1  0.54510304  0.85528875  0.75286619  1
