# generated using pymatgen
data_Cu2Ni2C9
_symmetry_space_group_name_H-M   'P 1'
_cell_length_a   3.39566400
_cell_length_b   3.39952897
_cell_length_c   45.59578011
_cell_angle_alpha   89.99697188
_cell_angle_beta   89.99440631
_cell_angle_gamma   119.96154839
_symmetry_Int_Tables_number   1
_chemical_formula_structural   Cu2Ni2C9
_chemical_formula_sum   'Cu2 Ni2 C9'
_cell_volume   456.00213621
_cell_formula_units_Z   1
loop_
 _symmetry_equiv_pos_site_id
 _symmetry_equiv_pos_as_xyz
  1  'x, y, z'
loop_
 _atom_site_type_symbol
 _atom_site_label
 _atom_site_symmetry_multiplicity
 _atom_site_fract_x
 _atom_site_fract_y
 _atom_site_fract_z
 _atom_site_occupancy
  C  C0  1  0.00016300  0.99988300  0.55073300  1
  C  C1  1  0.33334900  0.66679300  0.32301300  1
  C  C2  1  0.33335400  0.66669700  0.70566500  1
  C  C3  1  0.33364100  0.66721400  0.24081200  1
  C  C4  1  0.33373600  0.66718300  0.62282900  1
  C  C5  1  0.33335500  0.66686700  0.46285700  1
  C  C6  1  0.66662100  0.33322700  0.28190600  1
  C  C7  1  0.33310400  0.66630200  0.09401700  1
  C  C8  1  0.66674700  0.33329400  0.66438800  1
  Ni  Ni9  1  0.66647100  0.33289600  0.05770400  1
  Ni  Ni10  1  0.66623900  0.33262200  0.13031900  1
  Cu  Cu11  1  0.66675100  0.33369600  0.43029700  1
  Cu  Cu12  1  0.66647000  0.33332700  0.49629000  1
