# generated using pymatgen
data_CuNiC16
_symmetry_space_group_name_H-M   'P 1'
_cell_length_a   8.98648428
_cell_length_b   8.96493844
_cell_length_c   23.51137926
_cell_angle_alpha   90.35048976
_cell_angle_beta   90.26844669
_cell_angle_gamma   119.92316118
_symmetry_Int_Tables_number   1
_chemical_formula_structural   CuNiC16
_chemical_formula_sum   'Cu6 Ni6 C96'
_cell_volume   1641.55781624
_cell_formula_units_Z   6
loop_
 _symmetry_equiv_pos_site_id
 _symmetry_equiv_pos_as_xyz
  1  'x, y, z'
loop_
 _atom_site_type_symbol
 _atom_site_label
 _atom_site_symmetry_multiplicity
 _atom_site_fract_x
 _atom_site_fract_y
 _atom_site_fract_z
 _atom_site_occupancy
  C  C0  1  0.97768649  0.97323914  0.49396453  1
  C  C1  1  0.00773808  0.98170486  0.00149717  1
  C  C2  1  0.64623189  0.30711233  0.82777233  1
  C  C3  1  0.67368441  0.31641531  0.33553865  1
  C  C4  1  0.30842277  0.65851316  0.17662163  1
  C  C5  1  0.35280565  0.65975569  0.66361800  1
  Ni  Ni6  1  0.00368158  0.00368438  0.35328755  1
  Ni  Ni7  1  0.01247916  0.01105563  0.85100175  1
  Ni  Ni8  1  0.68300383  0.33591986  0.19131005  1
  Ni  Ni9  1  0.66447987  0.33519899  0.97985225  1
  Ni  Ni10  1  0.31977352  0.67442953  0.02117644  1
  Ni  Ni11  1  0.34776986  0.68196548  0.81040151  1
  Cu  Cu12  1  0.98735592  0.00083195  0.64745948  1
  Cu  Cu13  1  0.00950031  0.99674203  0.14975524  1
  Cu  Cu14  1  0.65278767  0.33233844  0.68836324  1
  Cu  Cu15  1  0.67920563  0.34588535  0.47660421  1
  Cu  Cu16  1  0.34883004  0.67949692  0.51621523  1
  Cu  Cu17  1  0.32011841  0.67597949  0.31345150  1
  C  C18  1  0.29785895  0.00737910  0.25075107  1
  C  C19  1  0.00852166  0.29049043  0.24991493  1
  C  C20  1  0.28847888  0.29345168  0.75024707  1
  C  C21  1  0.71381304  0.00689690  0.75212361  1
  C  C22  1  0.66384885  0.62559770  0.58383143  1
  C  C23  1  0.95170304  0.62474382  0.08286434  1
  C  C24  1  0.32962243  0.95931216  0.91670290  1
  C  C25  1  0.63113240  0.96075901  0.41496066  1
  C  C26  1  0.04438778  0.67402615  0.41780929  1
  C  C27  1  0.70982284  0.70980805  0.24953786  1
  C  C28  1  0.00191248  0.71128909  0.75113092  1
  C  C29  1  0.95850478  0.33661864  0.58409208  1
  C  C30  1  0.37348845  0.04151668  0.58325546  1
  C  C31  1  0.66574084  0.04462709  0.08179995  1
  C  C32  1  0.37941355  0.33690910  0.08188216  1
  C  C33  1  0.62103735  0.66673828  0.91788503  1
  C  C34  1  0.04326582  0.37767024  0.91718614  1
  C  C35  1  0.33227767  0.37582728  0.41592747  1
  C  C36  1  0.20154010  0.02649559  0.30572012  1
  C  C37  1  0.81681831  0.78851976  0.30064742  1
  C  C38  1  0.97489138  0.17060468  0.30487810  1
  C  C39  1  0.20168149  0.17276580  0.80676282  1
  C  C40  1  0.97746057  0.79389902  0.80264903  1
  C  C41  1  0.82620000  0.02044966  0.80878916  1
  C  C42  1  0.79681213  0.97011905  0.69562113  1
  C  C43  1  0.17634830  0.19887805  0.69367278  1
  C  C44  1  0.02925835  0.81487925  0.69991300  1
  C  C45  1  0.79104117  0.81380714  0.19763209  1
  C  C46  1  0.01625283  0.19288641  0.19114278  1
  C  C47  1  0.17751888  0.97157293  0.19271081  1
  C  C48  1  0.87309726  0.35253394  0.63541709  1
  C  C49  1  0.47975014  0.12242226  0.63580509  1
  C  C50  1  0.64816010  0.51024991  0.64038684  1
  C  C51  1  0.85723653  0.50641634  0.13754544  1
  C  C52  1  0.63599322  0.12062761  0.13318836  1
  C  C53  1  0.48116941  0.35929703  0.13300214  1
  C  C54  1  0.46207803  0.31029668  0.03005942  1
  C  C55  1  0.83822072  0.52479982  0.02565091  1
  C  C56  1  0.68080350  0.14936485  0.03064145  1
  C  C57  1  0.45646226  0.14314329  0.53281207  1
  C  C58  1  0.68180927  0.52608177  0.52843129  1
  C  C59  1  0.85261613  0.30967227  0.53238023  1
  C  C60  1  0.53628025  0.68590510  0.96889649  1
  C  C61  1  0.15111946  0.45946296  0.96902862  1
  C  C62  1  0.30946399  0.84061966  0.97303283  1
  C  C63  1  0.54292216  0.84230691  0.47229492  1
  C  C64  1  0.31038136  0.45729594  0.46812791  1
  C  C65  1  0.15759511  0.68902240  0.47457944  1
  C  C66  1  0.12617730  0.63703522  0.36113038  1
  C  C67  1  0.51179316  0.86245832  0.35989850  1
  C  C68  1  0.35796293  0.47940741  0.36525079  1
  C  C69  1  0.12147527  0.48066175  0.86657966  1
  C  C70  1  0.35424119  0.86227544  0.86190298  1
  C  C71  1  0.51466063  0.63789649  0.86607853  1
  C  C72  1  0.02806905  0.84477508  0.41117439  1
  C  C73  1  0.82235818  0.98600769  0.40972076  1
  C  C74  1  0.17654542  0.20387207  0.41143520  1
  C  C75  1  0.02286407  0.20270851  0.91276349  1
  C  C76  1  0.15636199  0.97566429  0.91208662  1
  C  C77  1  0.79328208  0.81920402  0.91236451  1
  C  C78  1  0.97668519  0.17925107  0.58792739  1
  C  C79  1  0.20205952  0.02459781  0.58976733  1
  C  C80  1  0.83942454  0.81536608  0.58910506  1
  C  C81  1  0.97231605  0.81609815  0.08521672  1
  C  C82  1  0.82002478  0.02900289  0.08541716  1
  C  C83  1  0.20502043  0.18332642  0.08458240  1
  C  C84  1  0.69983923  0.17928107  0.74486940  1
  C  C85  1  0.48207304  0.31792236  0.74615358  1
  C  C86  1  0.84923911  0.53874559  0.74579693  1
  C  C87  1  0.69439814  0.53657719  0.24216922  1
  C  C88  1  0.83806064  0.31596945  0.24334698  1
  C  C89  1  0.48269315  0.18094029  0.23959771  1
  C  C90  1  0.63842836  0.50878902  0.92348673  1
  C  C91  1  0.86911420  0.35818313  0.92494485  1
  C  C92  1  0.50195402  0.15016377  0.92497913  1
  C  C93  1  0.63794734  0.14488434  0.42464764  1
  C  C94  1  0.48377010  0.35212186  0.42274702  1
  C  C95  1  0.85103556  0.50268950  0.42224889  1
  C  C96  1  0.36531708  0.49393036  0.07275353  1
  C  C97  1  0.14461937  0.64179626  0.07572232  1
  C  C98  1  0.51208339  0.86840100  0.07417813  1
  C  C99  1  0.35489019  0.86708155  0.57996578  1
  C  C100  1  0.49081925  0.64277147  0.58037928  1
  C  C101  1  0.12942599  0.49032997  0.57946943  1
  C  C102  1  0.32220416  0.83868173  0.25318732  1
  C  C103  1  0.53891404  0.68893608  0.25432724  1
  C  C104  1  0.18239209  0.47650336  0.25379274  1
  C  C105  1  0.30214320  0.47981229  0.76077769  1
  C  C106  1  0.15539516  0.69124916  0.75896210  1
  C  C107  1  0.52055316  0.83630449  0.75788155  1
