# generated using pymatgen
data_Cu2Ni10C111
_symmetry_space_group_name_H-M   'P 1'
_cell_length_a   18.21306732
_cell_length_b   9.05796594
_cell_length_c   22.12288623
_cell_angle_alpha   90.05619389
_cell_angle_beta   90.15916045
_cell_angle_gamma   119.90022481
_symmetry_Int_Tables_number   1
_chemical_formula_structural   Cu2Ni10C111
_chemical_formula_sum   'Cu4 Ni20 C222'
_cell_volume   3163.87024423
_cell_formula_units_Z   2
loop_
 _symmetry_equiv_pos_site_id
 _symmetry_equiv_pos_as_xyz
  1  'x, y, z'
loop_
 _atom_site_type_symbol
 _atom_site_label
 _atom_site_symmetry_multiplicity
 _atom_site_fract_x
 _atom_site_fract_y
 _atom_site_fract_z
 _atom_site_occupancy
  C  C0  1  0.30783023  0.99152496  0.23486283  1
  C  C1  1  0.80423479  0.99017723  0.23683276  1
  C  C2  1  0.19290537  0.37022992  0.24884654  1
  C  C3  1  0.69152119  0.36598578  0.23905846  1
  C  C4  1  0.99945207  0.64223084  0.24963352  1
  C  C5  1  0.49855528  0.64814957  0.24740888  1
  C  C6  1  0.30275441  0.61826025  0.74163125  1
  C  C7  1  0.81005757  0.62679310  0.73903946  1
  C  C8  1  0.00075139  0.35100562  0.75430527  1
  C  C9  1  0.49770405  0.35349290  0.75435869  1
  C  C10  1  0.18875893  0.01342557  0.75377639  1
  C  C11  1  0.69434358  0.01676782  0.75256469  1
  C  C12  1  0.16623828  0.34277409  0.58924782  1
  C  C13  1  0.66538296  0.35230781  0.59152371  1
  C  C14  1  0.31517320  0.95519953  0.58921807  1
  C  C15  1  0.16292994  0.97139337  0.07330419  1
  C  C16  1  0.66637688  0.98916944  0.08562430  1
  C  C17  1  0.81716489  0.67851610  0.08510353  1
  C  C18  1  0.48100133  0.66383856  0.92038642  1
  C  C19  1  0.99824797  0.68464748  0.92001605  1
  C  C20  1  0.33701457  0.02823522  0.91729746  1
  C  C21  1  0.85575795  0.04269356  0.91768375  1
  C  C22  1  0.16404106  0.28155658  0.90719809  1
  C  C23  1  0.66807399  0.29674954  0.92037015  1
  C  C24  1  0.48246186  0.30003881  0.41644952  1
  C  C25  1  0.98381684  0.30038619  0.41965198  1
  C  C26  1  0.16776474  0.04052921  0.42009743  1
  C  C27  1  0.66535722  0.03443479  0.40644449  1
  C  C28  1  0.35326506  0.66524294  0.41761358  1
  C  C29  1  0.85294216  0.66684247  0.41972394  1
  C  C30  1  0.99743279  0.96985971  0.50746477  1
  C  C31  1  0.49580266  0.96792106  0.50126877  1
  C  C32  1  0.00717719  0.01976012  0.99370271  1
  C  C33  1  0.49251493  0.02241160  0.00414578  1
  C  C34  1  0.31465778  0.29793295  0.83039523  1
  C  C35  1  0.83167187  0.32480478  0.82556881  1
  C  C36  1  0.32796582  0.33687997  0.32326633  1
  C  C37  1  0.82688819  0.33412392  0.32343511  1
  C  C38  1  0.18326069  0.68413873  0.16233377  1
  C  C39  1  0.67085067  0.66284153  0.16146669  1
  C  C40  1  0.17039805  0.67949317  0.66581736  1
  C  C41  1  0.68434392  0.68153239  0.66640055  1
  Ni  Ni42  1  0.00214344  0.99396987  0.34580701  1
  Ni  Ni43  1  0.49871781  0.98880000  0.34261016  1
  Ni  Ni44  1  0.00341003  0.00804261  0.84854201  1
  Ni  Ni45  1  0.50041240  0.01088240  0.84774494  1
  Ni  Ni46  1  0.32170417  0.32342578  0.68325582  1
  Ni  Ni47  1  0.83022898  0.33388258  0.68398046  1
  Ni  Ni48  1  0.32823250  0.32589001  0.18249545  1
  Ni  Ni49  1  0.82370136  0.32255326  0.18186950  1
  Ni  Ni50  1  0.32736089  0.30728780  0.98539656  1
  Ni  Ni51  1  0.82867846  0.31903157  0.99270943  1
  Ni  Ni52  1  0.32699652  0.33773421  0.49540932  1
  Ni  Ni53  1  0.83584136  0.34793949  0.49183914  1
  Ni  Ni54  1  0.17383100  0.68504533  0.01554561  1
  Ni  Ni55  1  0.66710785  0.66361076  0.02184015  1
  Ni  Ni56  1  0.16703847  0.66849927  0.52274520  1
  Ni  Ni57  1  0.67315413  0.67538567  0.52041759  1
  Ni  Ni58  1  0.17188681  0.67872322  0.30962492  1
  Ni  Ni59  1  0.67068110  0.67461633  0.30967213  1
  Ni  Ni60  1  0.17297319  0.67935235  0.81309936  1
  Ni  Ni61  1  0.67190573  0.66361434  0.81075104  1
  Cu  Cu62  1  0.99664695  0.99936738  0.64764267  1
  Cu  Cu63  1  0.49514971  0.99838100  0.65089503  1
  Cu  Cu64  1  0.99550057  0.98879961  0.14960120  1
  Cu  Cu65  1  0.49654044  0.98963949  0.14628533  1
  C  C66  1  0.15046471  0.00323523  0.25468285  1
  C  C67  1  0.64882904  0.00016983  0.25466045  1
  C  C68  1  0.35069058  0.69655352  0.25449597  1
  C  C69  1  0.85037655  0.69434721  0.25656720  1
  C  C70  1  0.14862358  0.30173078  0.75331545  1
  C  C71  1  0.65026993  0.29704074  0.75403361  1
  C  C72  1  0.34925613  0.00715058  0.75581224  1
  C  C73  1  0.85222629  0.00393475  0.75526298  1
  C  C74  1  0.18182029  0.03017373  0.58134361  1
  C  C75  1  0.33602273  0.63191802  0.58111288  1
  C  C76  1  0.83043032  0.63037262  0.58196725  1
  C  C77  1  0.33076379  0.03282397  0.08377723  1
  C  C78  1  0.83507248  0.03972821  0.08184604  1
  C  C79  1  0.68268715  0.33382071  0.08225672  1
  C  C80  1  0.16353991  0.96438521  0.91613974  1
  C  C81  1  0.00053400  0.29038238  0.25275433  1
  C  C82  1  0.50073884  0.29162926  0.25285824  1
  C  C83  1  0.99865958  0.70688423  0.75092380  1
  C  C84  1  0.50057303  0.70962670  0.75267159  1
  C  C85  1  0.48251340  0.33663174  0.58253087  1
  C  C86  1  0.97979149  0.33107802  0.58209560  1
  C  C87  1  0.68453205  0.03553021  0.58162227  1
  C  C88  1  0.47877773  0.62347583  0.08182376  1
  C  C89  1  0.98067924  0.62343171  0.08540646  1
  C  C90  1  0.18336769  0.33573443  0.08375363  1
  C  C91  1  0.31781184  0.66775593  0.91656213  1
  C  C92  1  0.81387663  0.66143917  0.91690156  1
  C  C93  1  0.01990721  0.38068369  0.91749110  1
  C  C94  1  0.52265856  0.38073752  0.91543405  1
  C  C95  1  0.66402150  0.95435390  0.91559640  1
  C  C96  1  0.31693414  0.96743808  0.41653563  1
  C  C97  1  0.81480410  0.96714684  0.41703450  1
  C  C98  1  0.16391056  0.37373364  0.41550855  1
  C  C99  1  0.66378963  0.37011508  0.41709005  1
  C  C100  1  0.02048214  0.66083624  0.41569045  1
  C  C101  1  0.52241638  0.66269378  0.41745072  1
  C  C102  1  0.10946101  0.03944265  0.31350486  1
  C  C103  1  0.60866709  0.03591270  0.31452284  1
  C  C104  1  0.40324840  0.77445069  0.31677707  1
  C  C105  1  0.90571914  0.78793122  0.31585705  1
  C  C106  1  0.48624005  0.18915238  0.30859773  1
  C  C107  1  0.98675802  0.18847244  0.30833080  1
  C  C108  1  0.10625384  0.18188456  0.81097767  1
  C  C109  1  0.60721405  0.17521928  0.81148230  1
  C  C110  1  0.48736763  0.78588388  0.80768992  1
  C  C111  1  0.98389849  0.78006283  0.80592673  1
  C  C112  1  0.40768758  0.02736979  0.81295397  1
  C  C113  1  0.90607803  0.02669802  0.81596541  1
  C  C114  1  0.40646487  0.98444443  0.69498253  1
  C  C115  1  0.90655485  0.97621114  0.69850675  1
  C  C116  1  0.08494301  0.19141481  0.69343439  1
  C  C117  1  0.58802446  0.18632414  0.69227069  1
  C  C118  1  0.01023789  0.81843338  0.69758939  1
  C  C119  1  0.51160872  0.82435343  0.69901277  1
  C  C120  1  0.40751534  0.83577932  0.19966991  1
  C  C121  1  0.90586702  0.82934026  0.19663017  1
  C  C122  1  0.01122299  0.19911725  0.19968582  1
  C  C123  1  0.51266452  0.20432552  0.20009573  1
  C  C124  1  0.08561722  0.98832447  0.19548855  1
  C  C125  1  0.58445172  0.98209829  0.19672839  1
  C  C126  1  0.44361386  0.35164509  0.63748358  1
  C  C127  1  0.93830930  0.34845219  0.63573559  1
  C  C128  1  0.24417221  0.11913439  0.63831333  1
  C  C129  1  0.73432301  0.11408795  0.63668150  1
  C  C130  1  0.32754301  0.52213090  0.64019291  1
  C  C131  1  0.81727034  0.50651046  0.63862533  1
  C  C132  1  0.43921100  0.52872199  0.13718034  1
  C  C133  1  0.93872985  0.53222789  0.14053687  1
  C  C134  1  0.32018282  0.12654435  0.14243773  1
  C  C135  1  0.82523427  0.12878948  0.14183637  1
  C  C136  1  0.23266805  0.35837807  0.13960052  1
  C  C137  1  0.74229450  0.36862680  0.14094568  1
  C  C138  1  0.22381632  0.30764982  0.03047774  1
  C  C139  1  0.71935645  0.28710286  0.02230707  1
  C  C140  1  0.42835631  0.54350233  0.02696129  1
  C  C141  1  0.92825136  0.55061137  0.03082948  1
  C  C142  1  0.34963531  0.13768695  0.02130930  1
  C  C143  1  0.85267202  0.14327426  0.01944404  1
  C  C144  1  0.21724011  0.14827964  0.52028503  1
  C  C145  1  0.72591908  0.14089388  0.52706321  1
  C  C146  1  0.35502453  0.56743776  0.51776870  1
  C  C147  1  0.84636040  0.56063924  0.51791346  1
  C  C148  1  0.42943644  0.30569678  0.52792679  1
  C  C149  1  0.93042568  0.31021418  0.52577282  1
  C  C150  1  0.27415943  0.69045434  0.96856308  1
  C  C151  1  0.77167315  0.68180988  0.97082473  1
  C  C152  1  0.07423005  0.46813159  0.97009145  1
  C  C153  1  0.57705819  0.47270224  0.96729287  1
  C  C154  1  0.14830084  0.84844349  0.97642439  1
  C  C155  1  0.65705539  0.85576597  0.97069518  1
  C  C156  1  0.27560805  0.86284257  0.47039334  1
  C  C157  1  0.77171053  0.85688124  0.46917676  1
  C  C158  1  0.15688076  0.45839572  0.47060209  1
  C  C159  1  0.65654652  0.45703222  0.47149971  1
  C  C160  1  0.07323395  0.67375622  0.46790175  1
  C  C161  1  0.57579519  0.67905831  0.47017966  1
  C  C162  1  0.05923303  0.64454763  0.35893168  1
  C  C163  1  0.56273631  0.64824386  0.36117960  1
  C  C164  1  0.26582899  0.88597118  0.36150007  1
  C  C165  1  0.76523130  0.89002818  0.36089632  1
  C  C166  1  0.17005277  0.47445591  0.36107669  1
  C  C167  1  0.67418005  0.47301885  0.36240357  1
  C  C168  1  0.05941544  0.47313257  0.86070062  1
  C  C169  1  0.56180151  0.47458102  0.85854035  1
  C  C170  1  0.17996699  0.87682048  0.85679683  1
  C  C171  1  0.67012263  0.86609286  0.86102461  1
  C  C172  1  0.26869523  0.64139490  0.86001292  1
  C  C173  1  0.76124539  0.63570670  0.86200313  1
  C  C174  1  0.01119452  0.81665238  0.41555474  1
  C  C175  1  0.51293080  0.81835065  0.41672773  1
  C  C176  1  0.40402281  0.98763783  0.41300702  1
  C  C177  1  0.90219680  0.99016154  0.41422350  1
  C  C178  1  0.08554327  0.20080544  0.41359336  1
  C  C179  1  0.58449997  0.19928084  0.41468829  1
  C  C180  1  0.00670891  0.20408757  0.91625455  1
  C  C181  1  0.51308917  0.20616017  0.91490199  1
  C  C182  1  0.07672102  0.98186050  0.91313186  1
  C  C183  1  0.58585769  0.97060176  0.91373227  1
  C  C184  1  0.40470055  0.82403659  0.91353978  1
  C  C185  1  0.89879740  0.81661169  0.91282255  1
  C  C186  1  0.49157837  0.17463171  0.58640001  1
  C  C187  1  0.98732592  0.17147286  0.58556992  1
  C  C188  1  0.08816589  0.02305366  0.59234781  1
  C  C189  1  0.59992725  0.03054719  0.58554564  1
  C  C190  1  0.42230258  0.83479808  0.58980468  1
  C  C191  1  0.91657922  0.82234756  0.59294057  1
  C  C192  1  0.48716527  0.80115936  0.08561126  1
  C  C193  1  0.99046321  0.80519859  0.08902991  1
  C  C194  1  0.41747437  0.01203470  0.09542277  1
  C  C195  1  0.92092721  0.00958022  0.09174585  1
  C  C196  1  0.09801974  0.16971398  0.08922520  1
  C  C197  1  0.58868729  0.15229205  0.09336255  1
  C  C198  1  0.34902861  0.18263856  0.74498125  1
  C  C199  1  0.84793892  0.17703300  0.74286727  1
  C  C200  1  0.24295643  0.32760991  0.74667645  1
  C  C201  1  0.74413843  0.32190602  0.74608271  1
  C  C202  1  0.42733676  0.53989249  0.74346795  1
  C  C203  1  0.92388665  0.53572295  0.74216950  1
  C  C204  1  0.34688467  0.51604161  0.24171447  1
  C  C205  1  0.85017848  0.51783048  0.24587268  1
  C  C206  1  0.42715281  0.31661904  0.24528211  1
  C  C207  1  0.92698938  0.31418336  0.24462696  1
  C  C208  1  0.24411319  0.16631519  0.24625557  1
  C  C209  1  0.74353313  0.16163828  0.24746794  1
  C  C210  1  0.32954682  0.51697562  0.92403729  1
  C  C211  1  0.82473053  0.50846829  0.92191535  1
  C  C212  1  0.43769429  0.36641496  0.91957660  1
  C  C213  1  0.93491251  0.37074307  0.92134419  1
  C  C214  1  0.24832745  0.15889339  0.92048812  1
  C  C215  1  0.74127360  0.12760597  0.91653427  1
  C  C216  1  0.32709022  0.14195642  0.42112774  1
  C  C217  1  0.82290835  0.14003431  0.42333264  1
  C  C218  1  0.24118102  0.35534997  0.41649470  1
  C  C219  1  0.73887504  0.34386884  0.42059020  1
  C  C220  1  0.43685676  0.50648619  0.42050771  1
  C  C221  1  0.93390440  0.50463826  0.41923861  1
  C  C222  1  0.16753463  0.47790647  0.07637127  1
  C  C223  1  0.66877361  0.49545214  0.07645020  1
  C  C224  1  0.06633766  0.64958472  0.08117328  1
  C  C225  1  0.56675009  0.65786004  0.07690175  1
  C  C226  1  0.24742487  0.84376242  0.08062360  1
  C  C227  1  0.75173739  0.84833102  0.07845592  1
  C  C228  1  0.16815915  0.84087528  0.57541656  1
  C  C229  1  0.66865862  0.86042689  0.57536412  1
  C  C230  1  0.25254229  0.65537198  0.57779853  1
  C  C231  1  0.74509887  0.64746184  0.57970438  1
  C  C232  1  0.06747522  0.47478270  0.57705082  1
  C  C233  1  0.56928088  0.48001253  0.57528484  1
  C  C234  1  0.14901308  0.82226874  0.25182334  1
  C  C235  1  0.64888694  0.81962639  0.25255128  1
  C  C236  1  0.25697347  0.67832641  0.25225646  1
  C  C237  1  0.75770704  0.67837756  0.25210152  1
  C  C238  1  0.07942574  0.45694219  0.25577694  1
  C  C239  1  0.57911372  0.45945575  0.25745737  1
  C  C240  1  0.14927198  0.48245582  0.75213629  1
  C  C241  1  0.64865076  0.47503809  0.75081888  1
  C  C242  1  0.07587406  0.69323755  0.75369920  1
  C  C243  1  0.57989336  0.70282924  0.75486686  1
  C  C244  1  0.25958381  0.83457757  0.74867626  1
  C  C245  1  0.75780180  0.83484519  0.75305575  1
