# generated using pymatgen
data_CuNi4C31
_symmetry_space_group_name_H-M   'P 1'
_cell_length_a   8.93121011
_cell_length_b   8.93622222
_cell_length_c   23.39475263
_cell_angle_alpha   89.43267529
_cell_angle_beta   90.33236157
_cell_angle_gamma   119.78687901
_symmetry_Int_Tables_number   1
_chemical_formula_structural   CuNi4C31
_chemical_formula_sum   'Cu3 Ni12 C93'
_cell_volume   1620.39356199
_cell_formula_units_Z   3
loop_
 _symmetry_equiv_pos_site_id
 _symmetry_equiv_pos_as_xyz
  1  'x, y, z'
loop_
 _atom_site_type_symbol
 _atom_site_label
 _atom_site_symmetry_multiplicity
 _atom_site_fract_x
 _atom_site_fract_y
 _atom_site_fract_z
 _atom_site_occupancy
  C  C0  1  0.98464434  0.97923594  0.50790820  1
  C  C1  1  0.00056595  0.00003658  0.99699648  1
  C  C2  1  0.67084748  0.31842972  0.82083009  1
  C  C3  1  0.64337256  0.31467853  0.33376607  1
  C  C4  1  0.32794046  0.68379134  0.17589330  1
  C  C5  1  0.37393318  0.68143933  0.66475582  1
  Ni  Ni6  1  0.00987432  0.99935633  0.35104684  1
  Ni  Ni7  1  0.98652154  0.00242545  0.84286330  1
  Ni  Ni8  1  0.97859007  0.98607326  0.64838959  1
  Ni  Ni9  1  0.00758511  0.99777904  0.15376591  1
  Ni  Ni10  1  0.66537832  0.33131695  0.68175181  1
  Ni  Ni11  1  0.65751339  0.32557348  0.18701757  1
  Ni  Ni12  1  0.66734489  0.32925886  0.98179497  1
  Ni  Ni13  1  0.66501703  0.33860322  0.48690726  1
  Ni  Ni14  1  0.33228436  0.66999921  0.01608350  1
  Ni  Ni15  1  0.34632917  0.66790064  0.52055748  1
  Ni  Ni16  1  0.33420801  0.67702574  0.31726271  1
  Ni  Ni17  1  0.34334604  0.67288347  0.81140713  1
  Cu  Cu18  1  0.29871037  0.99811353  0.24980924  1
  Cu  Cu19  1  0.69958033  0.00849591  0.75081350  1
  Cu  Cu20  1  0.66895128  0.62820078  0.58273646  1
  C  C21  1  0.70298722  0.70433222  0.24964957  1
  C  C22  1  0.00150130  0.29708730  0.24946975  1
  C  C23  1  0.29288700  0.29175787  0.75102026  1
  C  C24  1  0.00063388  0.70336882  0.75260812  1
  C  C25  1  0.96657829  0.33399585  0.58134117  1
  C  C26  1  0.36412132  0.03341089  0.58250501  1
  C  C27  1  0.95847137  0.62610806  0.08287105  1
  C  C28  1  0.67038364  0.03435796  0.08294905  1
  C  C29  1  0.36876946  0.33484324  0.08121731  1
  C  C30  1  0.63222565  0.66656774  0.91927174  1
  C  C31  1  0.04107040  0.37227072  0.91775927  1
  C  C32  1  0.32820242  0.96500838  0.91773629  1
  C  C33  1  0.63803664  0.97166802  0.41601396  1
  C  C34  1  0.33153417  0.37188744  0.41488486  1
  C  C35  1  0.03577959  0.66137128  0.41803837  1
  C  C36  1  0.21027912  0.02549145  0.30580687  1
  C  C37  1  0.80463636  0.78892025  0.30106137  1
  C  C38  1  0.96700556  0.18576903  0.30027763  1
  C  C39  1  0.22241516  0.19089167  0.80587597  1
  C  C40  1  0.98605728  0.78332978  0.80702738  1
  C  C41  1  0.79676731  0.03762059  0.81348911  1
  C  C42  1  0.79570145  0.98298235  0.69705862  1
  C  C43  1  0.19065005  0.20114610  0.70091817  1
  C  C44  1  0.03229820  0.81385168  0.70248616  1
  C  C45  1  0.77300874  0.81137606  0.19665187  1
  C  C46  1  0.01777997  0.21729602  0.19592574  1
  C  C47  1  0.19486112  0.96929065  0.18920096  1
  C  C48  1  0.88297421  0.34835186  0.63279784  1
  C  C49  1  0.47509766  0.10795493  0.63252024  1
  C  C50  1  0.64495150  0.51518136  0.63984322  1
  C  C51  1  0.87564144  0.52026344  0.13423263  1
  C  C52  1  0.64558756  0.11681912  0.13310420  1
  C  C53  1  0.47337173  0.35864112  0.13279730  1
  C  C54  1  0.44938774  0.31092047  0.02920520  1
  C  C55  1  0.85873097  0.54524524  0.02990691  1
  C  C56  1  0.69613164  0.13637360  0.02945084  1
  C  C57  1  0.44243658  0.13043071  0.52816727  1
  C  C58  1  0.68972824  0.55025424  0.52233777  1
  C  C59  1  0.85785584  0.29883047  0.52880786  1
  C  C60  1  0.55422007  0.69046967  0.97223178  1
  C  C61  1  0.13843874  0.45076842  0.97167805  1
  C  C62  1  0.30378297  0.86569297  0.97229693  1
  C  C63  1  0.55695966  0.86457687  0.46726507  1
  C  C64  1  0.31471699  0.45706579  0.46581367  1
  C  C65  1  0.14424518  0.68221381  0.46852441  1
  C  C66  1  0.11490490  0.64457856  0.36444986  1
  C  C67  1  0.53548885  0.89558025  0.36345772  1
  C  C68  1  0.35290117  0.47515410  0.36168667  1
  C  C69  1  0.12632985  0.48010252  0.86731433  1
  C  C70  1  0.35325365  0.87950912  0.86855231  1
  C  C71  1  0.52537351  0.64297195  0.86852734  1
  C  C72  1  0.01329908  0.81648643  0.41514391  1
  C  C73  1  0.81264351  0.98833297  0.41055545  1
  C  C74  1  0.17074614  0.20101977  0.41199105  1
  C  C75  1  0.02454062  0.19912875  0.91496989  1
  C  C76  1  0.17442520  0.98637474  0.91199315  1
  C  C77  1  0.80776982  0.81864378  0.91480478  1
  C  C78  1  0.00390672  0.18975051  0.58560725  1
  C  C79  1  0.19721446  0.02926995  0.58886381  1
  C  C80  1  0.84275789  0.81920627  0.58447005  1
  C  C81  1  0.97348383  0.79906466  0.08575985  1
  C  C82  1  0.82604793  0.01426461  0.08870700  1
  C  C83  1  0.19298567  0.18195677  0.08532174  1
  C  C84  1  0.67754191  0.17827589  0.74411650  1
  C  C85  1  0.47157525  0.32465277  0.74799538  1
  C  C86  1  0.84000182  0.53506590  0.74825683  1
  C  C87  1  0.70114968  0.53800275  0.24394985  1
  C  C88  1  0.85429423  0.33013505  0.24417383  1
  C  C89  1  0.49130914  0.17189291  0.24719209  1
  C  C90  1  0.64656928  0.50663579  0.92412942  1
  C  C91  1  0.86479663  0.35456612  0.92149442  1
  C  C92  1  0.48758356  0.13902153  0.92265293  1
  C  C93  1  0.65571662  0.14601926  0.42163219  1
  C  C94  1  0.48446200  0.34749261  0.41750627  1
  C  C95  1  0.86396747  0.50301208  0.42109621  1
  C  C96  1  0.35344272  0.49405625  0.07616918  1
  C  C97  1  0.13514365  0.64556794  0.07912120  1
  C  C98  1  0.51270177  0.86018393  0.07788074  1
  C  C99  1  0.33273769  0.85426110  0.57710577  1
  C  C100  1  0.49549353  0.64948742  0.58187093  1
  C  C101  1  0.13144236  0.49858809  0.57517686  1
  C  C102  1  0.32018308  0.82628467  0.25403195  1
  C  C103  1  0.52349949  0.67039723  0.25504081  1
  C  C104  1  0.16360293  0.46421421  0.25518331  1
  C  C105  1  0.29483819  0.45948216  0.75526108  1
  C  C106  1  0.14920681  0.67284515  0.75733565  1
  C  C107  1  0.50922780  0.83179069  0.75299643  1
