# generated using pymatgen
data_Cu2NiC6
_symmetry_space_group_name_H-M   'P 1'
_cell_length_a   3.41885807
_cell_length_b   4.67349727
_cell_length_c   9.07730900
_cell_angle_alpha   87.24160384
_cell_angle_beta   79.14531317
_cell_angle_gamma   90.00000420
_symmetry_Int_Tables_number   1
_chemical_formula_structural   Cu2NiC6
_chemical_formula_sum   'Cu2 Ni1 C6'
_cell_volume   142.27132921
_cell_formula_units_Z   1
loop_
 _symmetry_equiv_pos_site_id
 _symmetry_equiv_pos_as_xyz
  1  'x, y, z'
loop_
 _atom_site_type_symbol
 _atom_site_label
 _atom_site_symmetry_multiplicity
 _atom_site_fract_x
 _atom_site_fract_y
 _atom_site_fract_z
 _atom_site_occupancy
  C  C0  1  0.32743300  0.27089000  0.34513500  1
  C  C1  1  0.67256700  0.72911000  0.65486500  1
  Ni  Ni2  1  0.50000000  0.50000000  0.00000000  1
  Cu  Cu3  1  0.07573800  0.16844000  0.84852500  1
  Cu  Cu4  1  0.92426200  0.83156000  0.15147500  1
  C  C5  1  0.81864000  0.74890300  0.36271800  1
  C  C6  1  0.96074800  0.25639100  0.07850200  1
  C  C7  1  0.18136000  0.25109700  0.63728200  1
  C  C8  1  0.03925200  0.74360900  0.92149800  1
