# generated using pymatgen
data_Cu(NiC4)2
_symmetry_space_group_name_H-M   'P 1'
_cell_length_a   6.51516181
_cell_length_b   5.97127457
_cell_length_c   5.97873988
_cell_angle_alpha   60.04128091
_cell_angle_beta   63.27415562
_cell_angle_gamma   62.72511985
_symmetry_Int_Tables_number   1
_chemical_formula_structural   Cu(NiC4)2
_chemical_formula_sum   'Cu1 Ni2 C8'
_cell_volume   171.58636888
_cell_formula_units_Z   1
loop_
 _symmetry_equiv_pos_site_id
 _symmetry_equiv_pos_as_xyz
  1  'x, y, z'
loop_
 _atom_site_type_symbol
 _atom_site_label
 _atom_site_symmetry_multiplicity
 _atom_site_fract_x
 _atom_site_fract_y
 _atom_site_fract_z
 _atom_site_occupancy
  Ni  Ni0  1  0.78123500  0.73765900  0.74344500  1
  Ni  Ni1  1  0.42188700  0.19250200  0.19310900  1
  Cu  Cu2  1  0.40540100  0.53096200  0.53267500  1
  C  C3  1  0.90612900  0.36106500  0.37174100  1
  C  C4  1  0.99056400  0.00334300  0.00275100  1
  C  C5  1  0.20288700  0.77484500  0.76856900  1
  C  C6  1  0.20796300  0.77210900  0.24781900  1
  C  C7  1  0.74332400  0.25409500  0.74848500  1
  C  C8  1  0.20288700  0.25369900  0.76856900  1
  C  C9  1  0.75115300  0.25090500  0.25412700  1
  C  C10  1  0.75115300  0.74381500  0.25412700  1
