# generated using pymatgen
data_CuNi3C16
_symmetry_space_group_name_H-M   'P 1'
_cell_length_a   9.15847749
_cell_length_b   9.20392696
_cell_length_c   21.97336631
_cell_angle_alpha   89.99999999
_cell_angle_beta   90.00067667
_cell_angle_gamma   120.16429861
_symmetry_Int_Tables_number   1
_chemical_formula_structural   CuNi3C16
_chemical_formula_sum   'Cu6 Ni18 C96'
_cell_volume   1601.40905579
_cell_formula_units_Z   6
loop_
 _symmetry_equiv_pos_site_id
 _symmetry_equiv_pos_as_xyz
  1  'x, y, z'
loop_
 _atom_site_type_symbol
 _atom_site_label
 _atom_site_symmetry_multiplicity
 _atom_site_fract_x
 _atom_site_fract_y
 _atom_site_fract_z
 _atom_site_occupancy
  Ni  Ni0  1  0.98350790  0.96522963  0.49951683  1
  Ni  Ni1  1  0.98350790  0.01827827  0.99951683  1
  Ni  Ni2  1  0.66697989  0.33911054  0.83280927  1
  Ni  Ni3  1  0.66697989  0.32786836  0.33280927  1
  Ni  Ni4  1  0.32606072  0.66293404  0.16611871  1
  Ni  Ni5  1  0.32606072  0.66312768  0.66611871  1
  Ni  Ni6  1  0.36722040  0.35096464  0.24517721  1
  Ni  Ni7  1  0.98753589  0.64351060  0.24617568  1
  Ni  Ni8  1  0.98753589  0.34402530  0.74617568  1
  Ni  Ni9  1  0.36722040  0.01625575  0.74517721  1
  Ni  Ni10  1  0.31824526  0.34325314  0.57904551  1
  Ni  Ni11  1  0.65419598  0.96946661  0.57897944  1
  Ni  Ni12  1  0.31824526  0.97499112  0.07904551  1
  Ni  Ni13  1  0.65419598  0.68472837  0.07897944  1
  Ni  Ni14  1  0.98872252  0.68043108  0.91283670  1
  Ni  Ni15  1  0.31748526  0.29671949  0.91276543  1
  Ni  Ni16  1  0.98872252  0.30829244  0.41283670  1
  Ni  Ni17  1  0.31748526  0.02076677  0.41276543  1
  Cu  Cu18  1  0.98991074  0.99687508  0.35067559  1
  Cu  Cu19  1  0.98991074  0.99303566  0.85067559  1
  Cu  Cu20  1  0.67270695  0.34515893  0.68411675  1
  Cu  Cu21  1  0.67270695  0.32754702  0.18411675  1
  Cu  Cu22  1  0.32918232  0.66123719  0.01794268  1
  Cu  Cu23  1  0.32918232  0.66794613  0.51794268  1
  C  C24  1  0.99458095  0.98984641  0.65080594  1
  C  C25  1  0.99458095  0.00473455  0.15080594  1
  C  C26  1  0.67205585  0.32360268  0.98370046  1
  C  C27  1  0.67205585  0.34845217  0.48370046  1
  C  C28  1  0.34595893  0.67334668  0.31735470  1
  C  C29  1  0.34595893  0.67261325  0.81735470  1
  C  C30  1  0.28774066  0.98388858  0.25205355  1
  C  C31  1  0.69291809  0.71034037  0.24802540  1
  C  C32  1  0.01904054  0.31005686  0.25347134  1
  C  C33  1  0.28774066  0.30385209  0.75205355  1
  C  C34  1  0.01904054  0.70898368  0.75347134  1
  C  C35  1  0.69291809  0.98257772  0.74802540  1
  C  C36  1  0.95791062  0.31464362  0.58484953  1
  C  C37  1  0.36253458  0.04764312  0.58547106  1
  C  C38  1  0.68349470  0.64115727  0.58394017  1
  C  C39  1  0.95791062  0.64326600  0.08484953  1
  C  C40  1  0.68349470  0.04233643  0.08394017  1
  C  C41  1  0.36253458  0.31489047  0.08547106  1
  C  C42  1  0.62449300  0.64771674  0.92065002  1
  C  C43  1  0.02885206  0.37786348  0.91455423  1
  C  C44  1  0.35350059  0.97416816  0.91804238  1
  C  C45  1  0.62449300  0.97677726  0.42065002  1
  C  C46  1  0.35350059  0.37933344  0.41804238  1
  C  C47  1  0.02885206  0.65098957  0.41455423  1
  C  C48  1  0.21432833  0.00130161  0.31138973  1
  C  C49  1  0.80430456  0.78236054  0.30283335  1
  C  C50  1  0.00494320  0.22680875  0.31407425  1
  C  C51  1  0.21432833  0.21302672  0.81138973  1
  C  C52  1  0.00494320  0.77813445  0.81407425  1
  C  C53  1  0.80430456  0.02194401  0.80283335  1
  C  C54  1  0.78897278  0.96417838  0.68980984  1
  C  C55  1  0.15945570  0.19414589  0.69722307  1
  C  C56  1  0.02170578  0.83433103  0.70064294  1
  C  C57  1  0.78897278  0.82479440  0.18980984  1
  C  C58  1  0.02170578  0.18737475  0.20064294  1
  C  C59  1  0.15945570  0.96530980  0.19722307  1
  C  C60  1  0.88454706  0.32727736  0.64485837  1
  C  C61  1  0.45390675  0.12127886  0.64463129  1
  C  C62  1  0.64343194  0.53424005  0.63970064  1
  C  C63  1  0.88454706  0.55726870  0.14485837  1
  C  C64  1  0.64343194  0.10919089  0.13970064  1
  C  C65  1  0.45390675  0.33262689  0.14463129  1
  C  C66  1  0.46962277  0.29429042  0.03063789  1
  C  C67  1  0.83720611  0.52770923  0.02994970  1
  C  C68  1  0.69949614  0.16309168  0.02748865  1
  C  C69  1  0.46962277  0.17533134  0.53063789  1
  C  C70  1  0.69949614  0.53640346  0.52748865  1
  C  C71  1  0.83720611  0.30949589  0.52994970  1
  C  C72  1  0.55342547  0.66259370  0.98050679  1
  C  C73  1  0.13072135  0.45691293  0.97095245  1
  C  C74  1  0.32584834  0.87836133  0.97690195  1
  C  C75  1  0.55342547  0.89083277  0.48050679  1
  C  C76  1  0.32584834  0.44748801  0.47690195  1
  C  C77  1  0.13072135  0.67380941  0.47095245  1
  C  C78  1  0.12934754  0.63063211  0.35759148  1
  C  C79  1  0.49758807  0.85562704  0.36707808  1
  C  C80  1  0.36517779  0.49786000  0.36212275  1
  C  C81  1  0.12934754  0.49871643  0.85759148  1
  C  C82  1  0.36517779  0.86731878  0.86212275  1
  C  C83  1  0.49758807  0.64196203  0.86707808  1
  C  C84  1  0.00171359  0.80008500  0.40903398  1
  C  C85  1  0.80515529  0.01456352  0.41325836  1
  C  C86  1  0.20473432  0.20032735  0.41011554  1
  C  C87  1  0.00171359  0.20162859  0.90903398  1
  C  C88  1  0.20473432  0.00440697  0.91011554  1
  C  C89  1  0.80515529  0.79059177  0.91325836  1
  C  C90  1  0.95366429  0.14073788  0.58186581  1
  C  C91  1  0.18757163  0.04254144  0.58626997  1
  C  C92  1  0.85466090  0.81095945  0.58790733  1
  C  C93  1  0.95366429  0.81292641  0.08186581  1
  C  C94  1  0.85466090  0.04370145  0.08790733  1
  C  C95  1  0.18757163  0.14503020  0.08626997  1
  C  C96  1  0.65499369  0.12565694  0.74052746  1
  C  C97  1  0.46158025  0.32246454  0.74479846  1
  C  C98  1  0.87745663  0.52797659  0.74650384  1
  C  C99  1  0.65499369  0.52933575  0.24052746  1
  C  C100  1  0.87745663  0.34947904  0.24650384  1
  C  C101  1  0.46158025  0.13911471  0.24479846  1
  C  C102  1  0.61722835  0.47375627  0.91670374  1
  C  C103  1  0.85630884  0.37908094  0.91822456  1
  C  C104  1  0.52130578  0.14928176  0.91997689  1
  C  C105  1  0.61722835  0.14347108  0.41670374  1
  C  C106  1  0.52130578  0.37202302  0.41997689  1
  C  C107  1  0.85630884  0.47722689  0.41822456  1
  C  C108  1  0.34294721  0.46840971  0.07784855  1
  C  C109  1  0.14077070  0.68337050  0.07942669  1
  C  C110  1  0.53994851  0.86223593  0.07473680  1
  C  C111  1  0.34294721  0.87453849  0.57784855  1
  C  C112  1  0.53994851  0.67771358  0.57473680  1
  C  C113  1  0.14077070  0.45740120  0.57942669  1
  C  C114  1  0.29106824  0.81441693  0.25147711  1
  C  C115  1  0.51969746  0.70689896  0.25494850  1
  C  C116  1  0.19503022  0.47656681  0.24890462  1
  C  C117  1  0.29106824  0.47665231  0.75147711  1
  C  C118  1  0.19503022  0.71846441  0.74890462  1
  C  C119  1  0.51969746  0.81279950  0.75494850  1
