# generated using pymatgen
data_CuNiC18
_symmetry_space_group_name_H-M   'P 1'
_cell_length_a   9.04712145
_cell_length_b   9.13258009
_cell_length_c   22.40125815
_cell_angle_alpha   89.13978429
_cell_angle_beta   90.00000000
_cell_angle_gamma   119.69093422
_symmetry_Int_Tables_number   1
_chemical_formula_structural   CuNiC18
_chemical_formula_sum   'Cu6 Ni6 C108'
_cell_volume   1607.63046229
_cell_formula_units_Z   6
loop_
 _symmetry_equiv_pos_site_id
 _symmetry_equiv_pos_as_xyz
  1  'x, y, z'
loop_
 _atom_site_type_symbol
 _atom_site_label
 _atom_site_symmetry_multiplicity
 _atom_site_fract_x
 _atom_site_fract_y
 _atom_site_fract_z
 _atom_site_occupancy
  C  C0  1  0.63377377  0.01109870  0.25158935  1
  C  C1  1  0.00327589  0.63864162  0.23736977  1
  C  C2  1  0.63536572  0.63864162  0.73736977  1
  C  C3  1  0.37732493  0.01109870  0.75158935  1
  C  C4  1  0.31835141  0.34857079  0.58592760  1
  C  C5  1  0.65190046  0.94386801  0.57797423  1
  C  C6  1  0.29196855  0.94386801  0.07797423  1
  C  C7  1  0.03022038  0.34857079  0.08592760  1
  C  C8  1  0.98420824  0.68430396  0.92414275  1
  C  C9  1  0.69178678  0.02687131  0.90458738  1
  C  C10  1  0.33508353  0.02687131  0.40458738  1
  C  C11  1  0.70009473  0.68430396  0.42414275  1
  C  C12  1  0.97529001  0.98725615  0.49418941  1
  C  C13  1  0.01196614  0.98725615  0.99418941  1
  C  C14  1  0.65959123  0.30934152  0.82827961  1
  C  C15  1  0.64975129  0.30934152  0.32827961  1
  C  C16  1  0.33237880  0.66116647  0.16235587  1
  C  C17  1  0.32878667  0.66116647  0.66235587  1
  C  C18  1  0.97963897  0.98273985  0.64766101  1
  C  C19  1  0.00310088  0.98273985  0.14766101  1
  C  C20  1  0.66040943  0.33575496  0.98241759  1
  C  C21  1  0.67534654  0.33575496  0.48241759  1
  C  C22  1  0.34101562  0.68403548  0.31694889  1
  C  C23  1  0.34301885  0.68403548  0.81694889  1
  Ni  Ni24  1  0.01026132  0.01540866  0.34734055  1
  Ni  Ni25  1  0.00514735  0.01540866  0.84734055  1
  Ni  Ni26  1  0.67833800  0.33219884  0.68128880  1
  Ni  Ni27  1  0.65386184  0.33219884  0.18128880  1
  Ni  Ni28  1  0.30452099  0.67304429  0.01247246  1
  Ni  Ni29  1  0.36852229  0.67304429  0.51247246  1
  Cu  Cu30  1  0.30189843  0.00736323  0.25258798  1
  Cu  Cu31  1  0.70546481  0.00736323  0.75258798  1
  Cu  Cu32  1  0.66489045  0.62299444  0.58505895  1
  Cu  Cu33  1  0.95810499  0.62299444  0.08505895  1
  Cu  Cu34  1  0.32859122  0.97622886  0.91588969  1
  Cu  Cu35  1  0.64763664  0.97622886  0.41588969  1
  C  C36  1  0.70205613  0.70248652  0.25308324  1
  C  C37  1  0.00325967  0.29859817  0.24852484  1
  C  C38  1  0.29533849  0.29859817  0.74852484  1
  C  C39  1  0.00043040  0.70248652  0.75308324  1
  C  C40  1  0.96905305  0.33557354  0.58421406  1
  C  C41  1  0.36670783  0.03608570  0.58413968  1
  C  C42  1  0.66937886  0.03608570  0.08413968  1
  C  C43  1  0.36652150  0.33557354  0.08421406  1
  C  C44  1  0.62015556  0.66128318  0.91873632  1
  C  C45  1  0.03797727  0.37074709  0.91986314  1
  C  C46  1  0.33276882  0.37074709  0.41986314  1
  C  C47  1  0.04112662  0.66128318  0.41873632  1
  C  C48  1  0.21353179  0.02146896  0.31399158  1
  C  C49  1  0.79819625  0.77870426  0.30803692  1
  C  C50  1  0.97856659  0.18937095  0.30093803  1
  C  C51  1  0.21080437  0.18937095  0.80093803  1
  C  C52  1  0.98050800  0.77870426  0.80803692  1
  C  C53  1  0.80793718  0.02146896  0.81399158  1
  C  C54  1  0.79760729  0.97601300  0.69423265  1
  C  C55  1  0.20264610  0.21885616  0.69255934  1
  C  C56  1  0.02973520  0.81743433  0.70039754  1
  C  C57  1  0.78769913  0.81743433  0.20039754  1
  C  C58  1  0.01621007  0.21885616  0.19255934  1
  C  C59  1  0.17840571  0.97601300  0.19423265  1
  C  C60  1  0.89099608  0.35147352  0.63923476  1
  C  C61  1  0.47040508  0.10955602  0.63831872  1
  C  C62  1  0.64190322  0.50926752  0.64487781  1
  C  C63  1  0.86736530  0.50926752  0.14487781  1
  C  C64  1  0.63915194  0.10955602  0.13831872  1
  C  C65  1  0.46047844  0.35147352  0.13923476  1
  C  C66  1  0.44902776  0.30405036  0.03180149  1
  C  C67  1  0.85095628  0.52818271  0.02471715  1
  C  C68  1  0.68700632  0.14341725  0.03024732  1
  C  C69  1  0.45641193  0.14341725  0.53024732  1
  C  C70  1  0.67722742  0.52818271  0.52471715  1
  C  C71  1  0.85502360  0.30405036  0.53180149  1
  C  C72  1  0.52244602  0.66848390  0.96971083  1
  C  C73  1  0.12941363  0.44268095  0.97624241  1
  C  C74  1  0.29230800  0.86238347  0.97745232  1
  C  C75  1  0.57007447  0.86238347  0.47745232  1
  C  C76  1  0.31326632  0.44268095  0.47624241  1
  C  C77  1  0.14603689  0.66848390  0.46971083  1
  C  C78  1  0.11720034  0.64638201  0.36135676  1
  C  C79  1  0.51783719  0.87888420  0.35880111  1
  C  C80  1  0.34557652  0.47920488  0.36798978  1
  C  C81  1  0.13362735  0.47920488  0.86798978  1
  C  C82  1  0.36104601  0.87888420  0.85880111  1
  C  C83  1  0.52918066  0.64638201  0.86135676  1
  C  C84  1  0.02437453  0.81570921  0.41728365  1
  C  C85  1  0.83115977  0.98400014  0.40683560  1
  C  C86  1  0.19116273  0.19609745  0.41624762  1
  C  C87  1  0.00493472  0.19609745  0.91624762  1
  C  C88  1  0.15284037  0.98400014  0.90683560  1
  C  C89  1  0.79133468  0.81570921  0.91728365  1
  C  C90  1  0.99066206  0.18096934  0.58757780  1
  C  C91  1  0.20235956  0.03740942  0.58814500  1
  C  C92  1  0.82978116  0.81877126  0.58647802  1
  C  C93  1  0.98899009  0.81877126  0.08647802  1
  C  C94  1  0.83504986  0.03740942  0.08814500  1
  C  C95  1  0.19030728  0.18096934  0.08757780  1
  C  C96  1  0.66836876  0.16514091  0.74452949  1
  C  C97  1  0.47074870  0.32132782  0.74747853  1
  C  C98  1  0.84686823  0.53678133  0.74601731  1
  C  C99  1  0.68991410  0.53678133  0.24601731  1
  C  C100  1  0.85058011  0.32132782  0.24747853  1
  C  C101  1  0.49677315  0.16514091  0.24452949  1
  C  C102  1  0.64820810  0.51260802  0.92119118  1
  C  C103  1  0.86774246  0.36536874  0.91982079  1
  C  C104  1  0.51053114  0.15586845  0.92072168  1
  C  C105  1  0.64533831  0.15586845  0.42072168  1
  C  C106  1  0.49762728  0.36536874  0.41982079  1
  C  C107  1  0.86440092  0.51260802  0.42119118  1
  C  C108  1  0.34545637  0.48418022  0.07573930  1
  C  C109  1  0.15216335  0.64354305  0.08359492  1
  C  C110  1  0.52543685  0.86345808  0.07787312  1
  C  C111  1  0.33802024  0.86345808  0.57787312  1
  C  C112  1  0.49137870  0.64354305  0.58359492  1
  C  C113  1  0.13872285  0.48418022  0.57573930  1
  C  C114  1  0.31386503  0.82810166  0.25447752  1
  C  C115  1  0.52827701  0.68490247  0.25543794  1
  C  C116  1  0.15828205  0.46898664  0.25300084  1
  C  C117  1  0.31070359  0.46898664  0.75300084  1
  C  C118  1  0.15662447  0.68490247  0.75543794  1
  C  C119  1  0.51423563  0.82810166  0.75447752  1
