# generated using pymatgen
data_Cu2NiC10
_symmetry_space_group_name_H-M   'P 1'
_cell_length_a   5.94566009
_cell_length_b   5.81552734
_cell_length_c   5.78944491
_cell_angle_alpha   87.75104729
_cell_angle_beta   117.66767594
_cell_angle_gamma   60.46217259
_symmetry_Int_Tables_number   1
_chemical_formula_structural   Cu2NiC10
_chemical_formula_sum   'Cu2 Ni1 C10'
_cell_volume   144.60781414
_cell_formula_units_Z   1
loop_
 _symmetry_equiv_pos_site_id
 _symmetry_equiv_pos_as_xyz
  1  'x, y, z'
loop_
 _atom_site_type_symbol
 _atom_site_label
 _atom_site_symmetry_multiplicity
 _atom_site_fract_x
 _atom_site_fract_y
 _atom_site_fract_z
 _atom_site_occupancy
  Ni  Ni0  1  0.50000000  0.00000000  0.50000000  1
  Cu  Cu1  1  0.50000000  0.50000000  0.00000000  1
  Cu  Cu2  1  0.00000000  0.50000000  0.50000000  1
  C  C3  1  0.50000000  0.00000000  0.00000000  1
  C  C4  1  0.00000000  0.50000000  0.00000000  1
  C  C5  1  0.55935000  0.70878500  0.78709600  1
  C  C6  1  0.94914800  0.74187500  0.21060300  1
  C  C7  1  0.02515200  0.27120300  0.26990200  1
  C  C8  1  0.54705900  0.73012100  0.25203100  1
  C  C9  1  0.45294100  0.26987900  0.74796900  1
  C  C10  1  0.97484800  0.72879700  0.73009800  1
  C  C11  1  0.05085200  0.25812500  0.78939700  1
  C  C12  1  0.44065000  0.29121500  0.21290400  1
