# generated using pymatgen
data_Cu3Ni2C31
_symmetry_space_group_name_H-M   'P 1'
_cell_length_a   8.82260414
_cell_length_b   8.82612834
_cell_length_c   23.06002984
_cell_angle_alpha   90.19108923
_cell_angle_beta   89.84865867
_cell_angle_gamma   120.05442987
_symmetry_Int_Tables_number   1
_chemical_formula_structural   Cu3Ni2C31
_chemical_formula_sum   'Cu9 Ni6 C93'
_cell_volume   1554.23390944
_cell_formula_units_Z   3
loop_
 _symmetry_equiv_pos_site_id
 _symmetry_equiv_pos_as_xyz
  1  'x, y, z'
loop_
 _atom_site_type_symbol
 _atom_site_label
 _atom_site_symmetry_multiplicity
 _atom_site_fract_x
 _atom_site_fract_y
 _atom_site_fract_z
 _atom_site_occupancy
  Ni  Ni0  1  0.99706039  0.99625869  0.49946352  1
  Ni  Ni1  1  0.00269041  0.00000888  0.99861537  1
  Ni  Ni2  1  0.66678965  0.33258724  0.83105798  1
  Ni  Ni3  1  0.67326233  0.33629363  0.33224654  1
  Ni  Ni4  1  0.33106885  0.66087424  0.16279067  1
  Ni  Ni5  1  0.33352991  0.66651087  0.66760106  1
  Cu  Cu6  1  0.98639748  0.99308351  0.35209857  1
  Cu  Cu7  1  0.00066458  0.00067563  0.85209992  1
  Cu  Cu8  1  0.99972125  0.99941455  0.65294054  1
  Cu  Cu9  1  0.99816926  0.00198974  0.14547322  1
  Cu  Cu10  1  0.66651329  0.33347148  0.69024081  1
  Cu  Cu11  1  0.67463496  0.34617830  0.18494610  1
  Cu  Cu12  1  0.67345935  0.33322129  0.47904544  1
  Cu  Cu13  1  0.32796988  0.66132861  0.01863879  1
  Cu  Cu14  1  0.33506318  0.67473209  0.51790936  1
  C  C15  1  0.66384155  0.34134414  0.97804662  1
  C  C16  1  0.33105246  0.66779034  0.31218724  1
  C  C17  1  0.33236906  0.66709546  0.81262818  1
  C  C18  1  0.71125820  0.70948820  0.24984040  1
  C  C19  1  0.99586489  0.28602867  0.25031436  1
  C  C20  1  0.28970086  0.28874854  0.75069839  1
  C  C21  1  0.99876891  0.71039170  0.75067238  1
  C  C22  1  0.71147611  0.00135250  0.75077710  1
  C  C23  1  0.95932026  0.62557088  0.08362707  1
  C  C24  1  0.37555604  0.33404580  0.08447943  1
  C  C25  1  0.62304756  0.67282260  0.91735468  1
  C  C26  1  0.04423686  0.37513232  0.91737214  1
  C  C27  1  0.33078443  0.95412206  0.91798234  1
  C  C28  1  0.62310510  0.95671988  0.41721175  1
  C  C29  1  0.04337822  0.66905679  0.41727475  1
  C  C30  1  0.29068565  0.00267741  0.25039644  1
  C  C31  1  0.95851338  0.33264565  0.58339520  1
  C  C32  1  0.37545148  0.04397212  0.58314647  1
  C  C33  1  0.66673885  0.62422042  0.58307813  1
  C  C34  1  0.66527823  0.04435264  0.08321799  1
  C  C35  1  0.33252128  0.37639923  0.41680165  1
  C  C36  1  0.21240044  0.02661538  0.30333903  1
  C  C37  1  0.81962635  0.79084719  0.30465292  1
  C  C38  1  0.97612437  0.18135491  0.30526941  1
  C  C39  1  0.20991972  0.18069376  0.80464637  1
  C  C40  1  0.97059961  0.79017315  0.80476431  1
  C  C41  1  0.81954159  0.02941432  0.80470454  1
  C  C42  1  0.78474100  0.96396990  0.69519298  1
  C  C43  1  0.17919948  0.21516660  0.69523709  1
  C  C44  1  0.03629913  0.82079402  0.69527163  1
  C  C45  1  0.78629053  0.82256435  0.19595732  1
  C  C46  1  0.03703943  0.21373890  0.19596618  1
  C  C47  1  0.18362683  0.96553939  0.19823621  1
  C  C48  1  0.87800212  0.36147183  0.63519662  1
  C  C49  1  0.48370076  0.12291348  0.63519362  1
  C  C50  1  0.63899779  0.51651315  0.63513591  1
  C  C51  1  0.87429360  0.51050803  0.13687276  1
  C  C52  1  0.63855309  0.12303892  0.13593424  1
  C  C53  1  0.48946823  0.35899190  0.13743320  1
  C  C54  1  0.47095991  0.30808170  0.02882095  1
  C  C55  1  0.83706574  0.52780538  0.02893196  1
  C  C56  1  0.69319759  0.15510171  0.03042366  1
  C  C57  1  0.45733797  0.15048995  0.53051970  1
  C  C58  1  0.69222177  0.54186296  0.53038101  1
  C  C59  1  0.85022878  0.30628790  0.53078057  1
  C  C60  1  0.53933150  0.69381096  0.97160541  1
  C  C61  1  0.15380045  0.45968736  0.97088323  1
  C  C62  1  0.30747640  0.84562464  0.97138812  1
  C  C63  1  0.53860579  0.84208931  0.47058477  1
  C  C64  1  0.30488343  0.45644893  0.46897517  1
  C  C65  1  0.15655060  0.69340547  0.47055855  1
  C  C66  1  0.13697952  0.64097061  0.36232771  1
  C  C67  1  0.50365783  0.86141504  0.36254161  1
  C  C68  1  0.36083495  0.48818207  0.36382322  1
  C  C69  1  0.13053867  0.49511330  0.86250205  1
  C  C70  1  0.36423787  0.86865403  0.86251110  1
  C  C71  1  0.50453362  0.63515872  0.86233611  1
  C  C72  1  0.02906229  0.83273979  0.40894772  1
  C  C73  1  0.80461776  0.97653945  0.41009767  1
  C  C74  1  0.17739306  0.20234293  0.40922754  1
  C  C75  1  0.01979359  0.19380677  0.90941848  1
  C  C76  1  0.17502751  0.98015711  0.90956538  1
  C  C77  1  0.80664516  0.82560671  0.90962363  1
  C  C78  1  0.97601475  0.17450907  0.58851658  1
  C  C79  1  0.19850450  0.02368410  0.58855232  1
  C  C80  1  0.82470268  0.80086224  0.58852337  1
  C  C81  1  0.97054602  0.80414958  0.08834834  1
  C  C82  1  0.82475103  0.02890940  0.08793242  1
  C  C83  1  0.19553721  0.16686714  0.08808262  1
  C  C84  1  0.68407264  0.15899089  0.74254067  1
  C  C85  1  0.47489609  0.31601262  0.74253081  1
  C  C86  1  0.84109665  0.52504065  0.74252048  1
  C  C87  1  0.68170950  0.52333630  0.24476072  1
  C  C88  1  0.83837436  0.31328539  0.24427361  1
  C  C89  1  0.46876667  0.15289707  0.24408090  1
  C  C90  1  0.63849280  0.50015357  0.92414301  1
  C  C91  1  0.85873013  0.35972194  0.92526504  1
  C  C92  1  0.50239971  0.13994580  0.92525358  1
  C  C93  1  0.63629779  0.13686688  0.42198063  1
  C  C94  1  0.49199536  0.36202630  0.42206125  1
  C  C95  1  0.86211607  0.50245248  0.42201703  1
  C  C96  1  0.36078225  0.49771130  0.07638817  1
  C  C97  1  0.13946173  0.64332259  0.07636168  1
  C  C98  1  0.50988927  0.86917332  0.07665944  1
  C  C99  1  0.35734295  0.86664634  0.57706215  1
  C  C100  1  0.50764796  0.64143238  0.57652159  1
  C  C101  1  0.13494353  0.49074535  0.57629755  1
  C  C102  1  0.30881516  0.83895672  0.25795604  1
  C  C103  1  0.52248059  0.68958281  0.26103522  1
  C  C104  1  0.16624464  0.47643357  0.26105111  1
  C  C105  1  0.31040435  0.47709635  0.75934877  1
  C  C106  1  0.16663218  0.68972281  0.75915154  1
  C  C107  1  0.52300142  0.83316700  0.75933309  1
