# generated using pymatgen
data_Cu2Ni3C14
_symmetry_space_group_name_H-M   'P 1'
_cell_length_a   10.12632716
_cell_length_b   10.12632716
_cell_length_c   10.12632735
_cell_angle_alpha   41.42625378
_cell_angle_beta   41.42625378
_cell_angle_gamma   41.42625303
_symmetry_Int_Tables_number   1
_chemical_formula_structural   Cu2Ni3C14
_chemical_formula_sum   'Cu4 Ni6 C28'
_cell_volume   410.73903997
_cell_formula_units_Z   2
loop_
 _symmetry_equiv_pos_site_id
 _symmetry_equiv_pos_as_xyz
  1  'x, y, z'
loop_
 _atom_site_type_symbol
 _atom_site_label
 _atom_site_symmetry_multiplicity
 _atom_site_fract_x
 _atom_site_fract_y
 _atom_site_fract_z
 _atom_site_occupancy
  C  C0  1  0.50000000  0.50000000  0.50000000  1
  C  C1  1  0.36291600  0.80153900  0.03004200  1
  C  C2  1  0.96995800  0.19846100  0.63708400  1
  C  C3  1  0.63708400  0.96995800  0.19846100  1
  C  C4  1  0.19846100  0.63708400  0.96995800  1
  C  C5  1  0.03004200  0.36291600  0.80153900  1
  C  C6  1  0.80153900  0.03004200  0.36291600  1
  C  C7  1  0.36291600  0.03004200  0.80153900  1
  C  C8  1  0.56179400  0.18840700  0.18840700  1
  C  C9  1  0.18840700  0.18840700  0.56179400  1
  C  C10  1  0.18840700  0.56179400  0.18840700  1
  C  C11  1  0.81159300  0.43820600  0.81159300  1
  C  C12  1  0.03004200  0.80153900  0.36291600  1
  C  C13  1  0.81159300  0.81159300  0.43820600  1
  C  C14  1  0.63708400  0.19846100  0.96995800  1
  C  C15  1  0.19846100  0.96995800  0.63708400  1
  C  C16  1  0.96995800  0.63708400  0.19846100  1
  C  C17  1  0.80153900  0.36291600  0.03004200  1
  C  C18  1  0.43820600  0.81159300  0.81159300  1
  C  C19  1  0.00000000  0.00000000  0.00000000  1
  Ni  Ni20  1  0.90074600  0.90074600  0.32655500  1
  Ni  Ni21  1  0.67344500  0.09925400  0.09925400  1
  Ni  Ni22  1  0.32655500  0.90074600  0.90074600  1
  Ni  Ni23  1  0.90074600  0.32655500  0.90074600  1
  Ni  Ni24  1  0.09925400  0.67344500  0.09925400  1
  Ni  Ni25  1  0.09925400  0.09925400  0.67344500  1
  Cu  Cu26  1  0.81476600  0.81476600  0.81476600  1
  Cu  Cu27  1  0.18523400  0.18523400  0.18523400  1
  Cu  Cu28  1  0.62318200  0.62318200  0.62318200  1
  Cu  Cu29  1  0.37681800  0.37681800  0.37681800  1
  C  C30  1  0.68556600  0.68556600  0.01898800  1
  C  C31  1  0.01898800  0.68556600  0.68556600  1
  C  C32  1  0.68556600  0.01898800  0.68556600  1
  C  C33  1  0.31443400  0.98101200  0.31443400  1
  C  C34  1  0.86723700  0.86723700  0.86723700  1
  C  C35  1  0.98101200  0.31443400  0.31443400  1
  C  C36  1  0.31443400  0.31443400  0.98101200  1
  C  C37  1  0.13276300  0.13276300  0.13276300  1
