# generated using pymatgen
data_Cu4NiC
_symmetry_space_group_name_H-M   'P 1'
_cell_length_a   5.37295247
_cell_length_b   6.24716375
_cell_length_c   6.67176041
_cell_angle_alpha   101.63895155
_cell_angle_beta   95.82551640
_cell_angle_gamma   104.97781967
_symmetry_Int_Tables_number   1
_chemical_formula_structural   Cu4NiC
_chemical_formula_sum   'Cu8 Ni2 C2'
_cell_volume   209.07384808
_cell_formula_units_Z   2
loop_
 _symmetry_equiv_pos_site_id
 _symmetry_equiv_pos_as_xyz
  1  'x, y, z'
loop_
 _atom_site_type_symbol
 _atom_site_label
 _atom_site_symmetry_multiplicity
 _atom_site_fract_x
 _atom_site_fract_y
 _atom_site_fract_z
 _atom_site_occupancy
  C  C0  1  0.85100644  0.25627674  0.78442916  1
  C  C1  1  0.14899356  0.74372326  0.21557084  1
  Ni  Ni2  1  0.61409045  0.00067092  0.73245290  1
  Ni  Ni3  1  0.38590955  0.99932908  0.26754710  1
  Cu  Cu4  1  0.14573516  0.17356512  0.88606426  1
  Cu  Cu5  1  0.16503639  0.62328012  0.92018779  1
  Cu  Cu6  1  0.65269456  0.45103138  0.72473995  1
  Cu  Cu7  1  0.97534377  0.25497010  0.53124350  1
  Cu  Cu8  1  0.02465623  0.74502990  0.46875650  1
  Cu  Cu9  1  0.34730544  0.54896862  0.27526005  1
  Cu  Cu10  1  0.83496461  0.37671988  0.07981221  1
  Cu  Cu11  1  0.85426484  0.82643488  0.11393574  1
