# generated using pymatgen
data_CuNiC3
_symmetry_space_group_name_H-M   'P 1'
_cell_length_a   4.04572000
_cell_length_b   9.18009100
_cell_length_c   15.16895100
_cell_angle_alpha   90.00000000
_cell_angle_beta   90.00000000
_cell_angle_gamma   90.00000000
_symmetry_Int_Tables_number   1
_chemical_formula_structural   CuNiC3
_chemical_formula_sum   'Cu4 Ni4 C12'
_cell_volume   563.37601969
_cell_formula_units_Z   4
loop_
 _symmetry_equiv_pos_site_id
 _symmetry_equiv_pos_as_xyz
  1  'x, y, z'
loop_
 _atom_site_type_symbol
 _atom_site_label
 _atom_site_symmetry_multiplicity
 _atom_site_fract_x
 _atom_site_fract_y
 _atom_site_fract_z
 _atom_site_occupancy
  Ni  Ni0  1  0.25000000  0.43407700  0.17978500  1
  Ni  Ni1  1  0.75000000  0.56592300  0.82021500  1
  Ni  Ni2  1  0.25000000  0.93407700  0.32021500  1
  Ni  Ni3  1  0.75000000  0.06592300  0.67978500  1
  Cu  Cu4  1  0.25000000  0.17004900  0.94804700  1
  Cu  Cu5  1  0.75000000  0.82995100  0.05195300  1
  Cu  Cu6  1  0.25000000  0.67004900  0.55195300  1
  Cu  Cu7  1  0.75000000  0.32995100  0.44804700  1
  C  C8  1  0.25000000  0.01704700  0.09974700  1
  C  C9  1  0.75000000  0.98295300  0.90025300  1
  C  C10  1  0.25000000  0.51704700  0.40025300  1
  C  C11  1  0.75000000  0.48295300  0.59974700  1
  C  C12  1  0.25000000  0.16980200  0.50956800  1
  C  C13  1  0.75000000  0.83019800  0.49043200  1
  C  C14  1  0.25000000  0.66980200  0.99043200  1
  C  C15  1  0.75000000  0.33019800  0.00956800  1
  C  C16  1  0.75000000  0.21164000  0.29452200  1
  C  C17  1  0.25000000  0.78836000  0.70547800  1
  C  C18  1  0.75000000  0.71164000  0.20547800  1
  C  C19  1  0.25000000  0.28836000  0.79452200  1
