# generated using pymatgen
data_Cu4NiC65
_symmetry_space_group_name_H-M   'P 1'
_cell_length_a   17.57052434
_cell_length_b   8.76474172
_cell_length_c   22.82903912
_cell_angle_alpha   90.09264758
_cell_angle_beta   90.14507449
_cell_angle_gamma   120.07754571
_symmetry_Int_Tables_number   1
_chemical_formula_structural   Cu4NiC65
_chemical_formula_sum   'Cu12 Ni3 C195'
_cell_volume   3042.27460284
_cell_formula_units_Z   3
loop_
 _symmetry_equiv_pos_site_id
 _symmetry_equiv_pos_as_xyz
  1  'x, y, z'
loop_
 _atom_site_type_symbol
 _atom_site_label
 _atom_site_symmetry_multiplicity
 _atom_site_fract_x
 _atom_site_fract_y
 _atom_site_fract_z
 _atom_site_occupancy
  C  C0  1  0.99860465  0.98099369  0.49877600  1
  C  C1  1  0.49771237  0.00361593  0.99975865  1
  C  C2  1  0.33841942  0.33046066  0.83938757  1
  C  C3  1  0.83760083  0.33961547  0.83244463  1
  C  C4  1  0.34012000  0.32962093  0.32893757  1
  C  C5  1  0.84284189  0.34689240  0.33736765  1
  C  C6  1  0.00460684  0.99438076  0.35888395  1
  C  C7  1  0.00197344  0.00237440  0.86381144  1
  C  C8  1  0.33311543  0.34182749  0.68218705  1
  C  C9  1  0.83647339  0.32996233  0.68193995  1
  C  C10  1  0.34032696  0.33773608  0.18337032  1
  C  C11  1  0.83268254  0.32667356  0.18106016  1
  C  C12  1  0.34194173  0.33788903  0.98513088  1
  C  C13  1  0.83183766  0.33245068  0.98752482  1
  C  C14  1  0.33675419  0.33479192  0.48204778  1
  C  C15  1  0.83481430  0.33647012  0.48122096  1
  C  C16  1  0.65956507  0.65780945  0.52043021  1
  C  C17  1  0.16507690  0.66447468  0.80410758  1
  Ni  Ni18  1  0.50354233  0.29188529  0.25528743  1
  Ni  Ni19  1  0.52631286  0.38007328  0.91092757  1
  Ni  Ni20  1  0.02672770  0.66439285  0.41809192  1
  Cu  Cu21  1  0.49624091  0.00351006  0.35160767  1
  Cu  Cu22  1  0.50139345  0.01191876  0.85530949  1
  Cu  Cu23  1  0.00060829  0.99344700  0.64967961  1
  Cu  Cu24  1  0.50025682  0.00450936  0.64705874  1
  Cu  Cu25  1  0.00021975  0.99972547  0.15111686  1
  Cu  Cu26  1  0.50160787  0.01347544  0.15619455  1
  Cu  Cu27  1  0.16580119  0.66808565  0.01926528  1
  Cu  Cu28  1  0.65892354  0.64352496  0.01708196  1
  Cu  Cu29  1  0.16503380  0.66706155  0.51963032  1
  Cu  Cu30  1  0.15981919  0.66314234  0.31407972  1
  Cu  Cu31  1  0.66393552  0.65559287  0.31087305  1
  Cu  Cu32  1  0.66415095  0.66306453  0.81324072  1
  C  C33  1  0.14514818  0.98412138  0.24882256  1
  C  C34  1  0.63857497  0.98764907  0.25344540  1
  C  C35  1  0.35255958  0.72102050  0.25441544  1
  C  C36  1  0.84883939  0.71411276  0.24950337  1
  C  C37  1  0.01049769  0.30427160  0.25063067  1
  C  C38  1  0.13971574  0.27864954  0.74617200  1
  C  C39  1  0.64050940  0.29140230  0.75368416  1
  C  C40  1  0.99875046  0.71561482  0.74788452  1
  C  C41  1  0.50714469  0.73179433  0.75549467  1
  C  C42  1  0.36666677  0.00393055  0.75022508  1
  C  C43  1  0.84501035  0.97768743  0.75361485  1
  C  C44  1  0.48375589  0.31710836  0.58840781  1
  C  C45  1  0.99509992  0.33072208  0.58375452  1
  C  C46  1  0.17664118  0.01598828  0.58334873  1
  C  C47  1  0.67179798  0.02905689  0.58825746  1
  C  C48  1  0.33152737  0.65114429  0.58262490  1
  C  C49  1  0.84062930  0.65497752  0.58786631  1
  C  C50  1  0.49686841  0.66300541  0.08414348  1
  C  C51  1  0.99390590  0.65605344  0.08420625  1
  C  C52  1  0.33387091  0.00814677  0.08392237  1
  C  C53  1  0.83079698  0.00480055  0.08255220  1
  C  C54  1  0.17395517  0.33455112  0.08382963  1
  C  C55  1  0.67154393  0.33037930  0.08357096  1
  C  C56  1  0.31763378  0.68123352  0.91492060  1
  C  C57  1  0.80008335  0.66179259  0.91695235  1
  C  C58  1  0.02471759  0.38774522  0.92109447  1
  C  C59  1  0.16776999  0.94826282  0.92141341  1
  C  C60  1  0.66320570  0.94512971  0.91219977  1
  C  C61  1  0.31279939  0.94442535  0.41186518  1
  C  C62  1  0.80262593  0.94682696  0.40978678  1
  C  C63  1  0.17147218  0.39995881  0.41657271  1
  C  C64  1  0.65983740  0.36193794  0.40922672  1
  C  C65  1  0.52093345  0.68161404  0.40625576  1
  C  C66  1  0.10655321  0.00990989  0.30118516  1
  C  C67  1  0.59534385  0.01530405  0.30497142  1
  C  C68  1  0.41096566  0.79778876  0.30719970  1
  C  C69  1  0.90299791  0.79070767  0.30099149  1
  C  C70  1  0.48458805  0.15607168  0.30964386  1
  C  C71  1  0.99755533  0.19898817  0.30204894  1
  C  C72  1  0.09640769  0.17934926  0.79851748  1
  C  C73  1  0.59855886  0.17683465  0.80676738  1
  C  C74  1  0.49170058  0.81522184  0.80912327  1
  C  C75  1  0.99157199  0.80328186  0.79989234  1
  C  C76  1  0.41961161  0.02801432  0.80598138  1
  C  C77  1  0.89700467  0.00164325  0.80570375  1
  C  C78  1  0.41216919  0.98244863  0.69737189  1
  C  C79  1  0.88459827  0.95414646  0.69869569  1
  C  C80  1  0.08558419  0.18493007  0.69012193  1
  C  C81  1  0.58664747  0.21125715  0.69978216  1
  C  C82  1  0.00190245  0.81581334  0.69175478  1
  C  C83  1  0.51903608  0.83656756  0.70108654  1
  C  C84  1  0.39441119  0.83161671  0.20032799  1
  C  C85  1  0.89250187  0.82694998  0.19431783  1
  C  C86  1  0.02031953  0.21688683  0.19469874  1
  C  C87  1  0.52057650  0.20278483  0.19464474  1
  C  C88  1  0.08601860  0.95222939  0.19464009  1
  C  C89  1  0.58300467  0.95532781  0.19806722  1
  C  C90  1  0.44283203  0.34184472  0.64048161  1
  C  C91  1  0.95915598  0.36678759  0.63588546  1
  C  C92  1  0.22949541  0.09384188  0.63596439  1
  C  C93  1  0.72234532  0.10916839  0.64139798  1
  C  C94  1  0.30939619  0.53976660  0.63448012  1
  C  C95  1  0.83194990  0.55423919  0.64039088  1
  C  C96  1  0.46118349  0.55052840  0.13472190  1
  C  C97  1  0.95629343  0.54233902  0.13507337  1
  C  C98  1  0.31602437  0.08340693  0.13462790  1
  C  C99  1  0.81049577  0.07589328  0.13447805  1
  C  C100  1  0.22917271  0.37465664  0.13565735  1
  C  C101  1  0.72546888  0.35919145  0.13514356  1
  C  C102  1  0.20967427  0.29541089  0.03185743  1
  C  C103  1  0.70618314  0.29551367  0.03007982  1
  C  C104  1  0.44211839  0.59701317  0.03118844  1
  C  C105  1  0.93909251  0.58548995  0.03174544  1
  C  C106  1  0.35578557  0.11696663  0.03101307  1
  C  C107  1  0.85086748  0.11921459  0.03137172  1
  C  C108  1  0.21207168  0.12393341  0.53074548  1
  C  C109  1  0.70893286  0.13917789  0.53637550  1
  C  C110  1  0.34958881  0.57667241  0.53096463  1
  C  C111  1  0.86054210  0.58471125  0.53524713  1
  C  C112  1  0.43085833  0.28749643  0.53521739  1
  C  C113  1  0.94018840  0.29250159  0.53145870  1
  C  C114  1  0.27897805  0.71095657  0.96960289  1
  C  C115  1  0.75804343  0.68615847  0.97151813  1
  C  C116  1  0.07895566  0.47996447  0.97687055  1
  C  C117  1  0.58293330  0.46328242  0.97305919  1
  C  C118  1  0.16407802  0.84637099  0.97787759  1
  C  C119  1  0.65044709  0.83831101  0.96573139  1
  C  C120  1  0.27512334  0.84359311  0.46631384  1
  C  C121  1  0.76033343  0.84700435  0.46215312  1
  C  C122  1  0.17009085  0.49063858  0.47206379  1
  C  C123  1  0.64595436  0.43474123  0.46253740  1
  C  C124  1  0.08933299  0.68293384  0.47621157  1
  C  C125  1  0.56856143  0.70933555  0.46074868  1
  C  C126  1  0.07236915  0.64182352  0.35525855  1
  C  C127  1  0.56648760  0.65484859  0.35471962  1
  C  C128  1  0.25718686  0.86214446  0.35824071  1
  C  C129  1  0.74941983  0.85124385  0.35316336  1
  C  C130  1  0.18409146  0.50476078  0.36082358  1
  C  C131  1  0.67460224  0.48038316  0.35718049  1
  C  C132  1  0.06721210  0.48638439  0.86865741  1
  C  C133  1  0.57336237  0.50794520  0.85379949  1
  C  C134  1  0.17719477  0.86493895  0.86924177  1
  C  C135  1  0.68048869  0.86969821  0.85804327  1
  C  C136  1  0.26900946  0.66351949  0.86218880  1
  C  C137  1  0.74839980  0.64308177  0.86168021  1
  C  C138  1  0.02480373  0.84390416  0.42364525  1
  C  C139  1  0.51483061  0.84760383  0.39847740  1
  C  C140  1  0.40000317  0.95080043  0.40593585  1
  C  C141  1  0.88982174  0.96678809  0.40656113  1
  C  C142  1  0.08817015  0.23439760  0.41586852  1
  C  C143  1  0.57753546  0.18309820  0.40256300  1
  C  C144  1  0.01780860  0.21550192  0.92348125  1
  C  C145  1  0.52410445  0.18492221  0.90640837  1
  C  C146  1  0.08572356  0.95068179  0.92371575  1
  C  C147  1  0.57858516  0.94992779  0.90658119  1
  C  C148  1  0.40999292  0.85064823  0.91155424  1
  C  C149  1  0.88487968  0.81878914  0.91528940  1
  C  C150  1  0.48646812  0.14727875  0.59513929  1
  C  C151  1  0.00379104  0.16725325  0.59339887  1
  C  C152  1  0.08482264  0.98760610  0.59182688  1
  C  C153  1  0.58071540  0.01613986  0.59571396  1
  C  C154  1  0.41179341  0.82657137  0.59538586  1
  C  C155  1  0.92394767  0.84329704  0.59345567  1
  C  C156  1  0.50914648  0.84495874  0.09583085  1
  C  C157  1  0.00477565  0.83739535  0.09523148  1
  C  C158  1  0.41241186  0.98010826  0.09459104  1
  C  C159  1  0.91049359  0.98387568  0.09419829  1
  C  C160  1  0.08179331  0.17782433  0.09472280  1
  C  C161  1  0.58009436  0.17131650  0.09134563  1
  C  C162  1  0.36139130  0.16521126  0.74689690  1
  C  C163  1  0.82906154  0.12664349  0.74820928  1
  C  C164  1  0.22607977  0.29057751  0.74265211  1
  C  C165  1  0.72785841  0.31253385  0.75083353  1
  C  C166  1  0.43033980  0.55539017  0.75200282  1
  C  C167  1  0.92045108  0.53802817  0.74616562  1
  C  C168  1  0.33976831  0.54509602  0.24777571  1
  C  C169  1  0.83347581  0.53522017  0.24049332  1
  C  C170  1  0.42009718  0.31586336  0.25153490  1
  C  C171  1  0.93691451  0.33674731  0.24286450  1
  C  C172  1  0.23138533  0.13722812  0.23986414  1
  C  C173  1  0.72514732  0.14453634  0.24766038  1
  C  C174  1  0.32994327  0.52857708  0.92179986  1
  C  C175  1  0.80389614  0.49882289  0.91999010  1
  C  C176  1  0.43023119  0.35217170  0.91396016  1
  C  C177  1  0.93784932  0.37406022  0.92528188  1
  C  C178  1  0.24472647  0.12594242  0.92603180  1
  C  C179  1  0.73817022  0.12314069  0.91728362  1
  C  C180  1  0.32549347  0.12283891  0.41511341  1
  C  C181  1  0.80602865  0.11695246  0.40822201  1
  C  C182  1  0.24815015  0.37618657  0.41765566  1
  C  C183  1  0.73648867  0.33879069  0.41059166  1
  C  C184  1  0.43217084  0.52651441  0.40750564  1
  C  C185  1  0.93298161  0.48842019  0.41621768  1
  C  C186  1  0.16201060  0.49352171  0.07248817  1
  C  C187  1  0.66226517  0.49185081  0.07629862  1
  C  C188  1  0.08508221  0.68367501  0.07451973  1
  C  C189  1  0.58784931  0.68838364  0.07182405  1
  C  C190  1  0.25571522  0.82597754  0.07349675  1
  C  C191  1  0.75302261  0.82449818  0.06992955  1
  C  C192  1  0.16863145  0.83741834  0.57580524  1
  C  C193  1  0.65399271  0.84984880  0.58151603  1
  C  C194  1  0.25618029  0.68541593  0.57127642  1
  C  C195  1  0.76752881  0.68561676  0.58073435  1
  C  C196  1  0.08725621  0.48214590  0.57451955  1
  C  C197  1  0.57308610  0.46049204  0.58356811  1
  C  C198  1  0.15256848  0.81995591  0.25265410  1
  C  C199  1  0.64561803  0.82671096  0.25873750  1
  C  C200  1  0.26710802  0.71667494  0.26136927  1
  C  C201  1  0.76274124  0.71085011  0.25362876  1
  C  C202  1  0.09717716  0.47873752  0.25376472  1
  C  C203  1  0.59514127  0.48411085  0.26269386  1
  C  C204  1  0.14626781  0.44931198  0.74306941  1
  C  C205  1  0.64541355  0.46656708  0.75925142  1
  C  C206  1  0.07931705  0.70888817  0.74448428  1
  C  C207  1  0.59072584  0.72684724  0.76115833  1
  C  C208  1  0.28368279  0.84520790  0.75157313  1
  C  C209  1  0.75440355  0.80397473  0.75815635  1
