# generated using pymatgen
data_Cu2NiC10
_symmetry_space_group_name_H-M   'P 1'
_cell_length_a   5.38621763
_cell_length_b   6.15249300
_cell_length_c   5.17162037
_cell_angle_alpha   90.00000000
_cell_angle_beta   87.19861103
_cell_angle_gamma   90.00000000
_symmetry_Int_Tables_number   1
_chemical_formula_structural   Cu2NiC10
_chemical_formula_sum   'Cu2 Ni1 C10'
_cell_volume   171.17579365
_cell_formula_units_Z   1
loop_
 _symmetry_equiv_pos_site_id
 _symmetry_equiv_pos_as_xyz
  1  'x, y, z'
loop_
 _atom_site_type_symbol
 _atom_site_label
 _atom_site_symmetry_multiplicity
 _atom_site_fract_x
 _atom_site_fract_y
 _atom_site_fract_z
 _atom_site_occupancy
  C  C0  1  0.25000000  0.85064000  0.00000000  1
  C  C1  1  0.75000000  0.14004600  0.00000000  1
  Ni  Ni2  1  0.25000000  0.38001500  0.00000000  1
  Cu  Cu3  1  0.25000000  0.36137500  0.50000000  1
  Cu  Cu4  1  0.75000000  0.63797300  0.50000000  1
  C  C5  1  0.10982200  0.14040300  0.77628100  1
  C  C6  1  0.08385900  0.59641600  0.74426400  1
  C  C7  1  0.41614100  0.59641600  0.25573600  1
  C  C8  1  0.39017800  0.14040300  0.22371900  1
  C  C9  1  0.60679500  0.84933400  0.75423800  1
  C  C10  1  0.56164700  0.37167900  0.73443900  1
  C  C11  1  0.93835300  0.37167900  0.26556100  1
  C  C12  1  0.89320500  0.84933400  0.24576200  1
