# generated using pymatgen
data_Cu(NiC4)2
_symmetry_space_group_name_H-M   'P 1'
_cell_length_a   6.27453464
_cell_length_b   6.34258080
_cell_length_c   6.34258147
_cell_angle_alpha   56.21269001
_cell_angle_beta   60.35426141
_cell_angle_gamma   60.35426289
_symmetry_Int_Tables_number   1
_chemical_formula_structural   Cu(NiC4)2
_chemical_formula_sum   'Cu1 Ni2 C8'
_cell_volume   173.69544269
_cell_formula_units_Z   1
loop_
 _symmetry_equiv_pos_site_id
 _symmetry_equiv_pos_as_xyz
  1  'x, y, z'
loop_
 _atom_site_type_symbol
 _atom_site_label
 _atom_site_symmetry_multiplicity
 _atom_site_fract_x
 _atom_site_fract_y
 _atom_site_fract_z
 _atom_site_occupancy
  Ni  Ni0  1  0.81118700  0.68881300  0.68881300  1
  Ni  Ni1  1  0.18881300  0.31118700  0.31118700  1
  Cu  Cu2  1  0.50000000  0.50000000  0.50000000  1
  C  C3  1  0.50000000  0.00000000  0.00000000  1
  C  C4  1  0.00000000  0.00000000  0.00000000  1
  C  C5  1  0.23428500  0.76571500  0.76571500  1
  C  C6  1  0.26163700  0.76990800  0.23009200  1
  C  C7  1  0.73836300  0.23009200  0.76990800  1
  C  C8  1  0.26163700  0.23009200  0.76990800  1
  C  C9  1  0.76571500  0.23428500  0.23428500  1
  C  C10  1  0.73836300  0.76990800  0.23009200  1
