# generated using pymatgen
data_Cu4NiC10
_symmetry_space_group_name_H-M   'P 1'
_cell_length_a   10.00492677
_cell_length_b   2.96876447
_cell_length_c   5.36478145
_cell_angle_alpha   90.00000000
_cell_angle_beta   90.32882637
_cell_angle_gamma   90.00000000
_symmetry_Int_Tables_number   1
_chemical_formula_structural   Cu4NiC10
_chemical_formula_sum   'Cu4 Ni1 C10'
_cell_volume   159.34356903
_cell_formula_units_Z   1
loop_
 _symmetry_equiv_pos_site_id
 _symmetry_equiv_pos_as_xyz
  1  'x, y, z'
loop_
 _atom_site_type_symbol
 _atom_site_label
 _atom_site_symmetry_multiplicity
 _atom_site_fract_x
 _atom_site_fract_y
 _atom_site_fract_z
 _atom_site_occupancy
  Ni  Ni0  1  0.88636960  0.75000000  0.40897041  1
  Cu  Cu1  1  0.61983766  0.25000000  0.45150884  1
  Cu  Cu2  1  0.15104250  0.25000000  0.06082256  1
  Cu  Cu3  1  0.34643835  0.75000000  0.57362275  1
  Cu  Cu4  1  0.84358633  0.75000000  0.92485746  1
  C  C5  1  0.44991396  0.25000000  0.92128862  1
  C  C6  1  0.05326639  0.25000000  0.63643645  1
  C  C7  1  0.45174154  0.25000000  0.73835630  1
  C  C8  1  0.95536074  0.25000000  0.65026027  1
  C  C9  1  0.50468694  0.75000000  0.33515020  1
  C  C10  1  0.02982544  0.75000000  0.14807549  1
  C  C11  1  0.78798132  0.25000000  0.18784193  1
  C  C12  1  0.25770545  0.25000000  0.40995253  1
  C  C13  1  0.23270756  0.75000000  0.87565529  1
  C  C14  1  0.71667524  0.75000000  0.62164488  1
