# generated using pymatgen
data_Cu2NiC10
_symmetry_space_group_name_H-M   'P 1'
_cell_length_a   5.17014456
_cell_length_b   5.23341131
_cell_length_c   8.34729628
_cell_angle_alpha   111.38220450
_cell_angle_beta   111.21369309
_cell_angle_gamma   80.48972620
_symmetry_Int_Tables_number   1
_chemical_formula_structural   Cu2NiC10
_chemical_formula_sum   'Cu2 Ni1 C10'
_cell_volume   195.91544207
_cell_formula_units_Z   1
loop_
 _symmetry_equiv_pos_site_id
 _symmetry_equiv_pos_as_xyz
  1  'x, y, z'
loop_
 _atom_site_type_symbol
 _atom_site_label
 _atom_site_symmetry_multiplicity
 _atom_site_fract_x
 _atom_site_fract_y
 _atom_site_fract_z
 _atom_site_occupancy
  Ni  Ni0  1  0.97953821  0.22953691  0.95913963  1
  Cu  Cu1  1  0.63893997  0.88886220  0.27840192  1
  Cu  Cu2  1  0.33242133  0.08224899  0.66514066  1
  C  C3  1  0.17714029  0.42721815  0.35501782  1
  C  C4  1  0.81759649  0.56756406  0.63552917  1
  C  C5  1  0.06735896  0.39793705  0.80832916  1
  C  C6  1  0.45593005  0.68927978  0.42393515  1
  C  C7  1  0.96736008  0.23420776  0.42399391  1
  C  C8  1  0.74111314  0.90999006  0.80829010  1
  C  C9  1  0.28339241  0.13723796  0.16334127  1
  C  C10  1  0.02908864  0.74598944  0.56049058  1
  C  C11  1  0.53090755  0.31444890  0.56077706  1
  C  C12  1  0.87921286  0.52547875  0.16316958  1
