# generated using pymatgen
data_Cu2NiC8
_symmetry_space_group_name_H-M   'P 1'
_cell_length_a   6.19601964
_cell_length_b   6.19601946
_cell_length_c   7.51072299
_cell_angle_alpha   64.56155273
_cell_angle_beta   64.56155424
_cell_angle_gamma   61.34173851
_symmetry_Int_Tables_number   1
_chemical_formula_structural   Cu2NiC8
_chemical_formula_sum   'Cu2 Ni1 C8'
_cell_volume   219.20781846
_cell_formula_units_Z   1
loop_
 _symmetry_equiv_pos_site_id
 _symmetry_equiv_pos_as_xyz
  1  'x, y, z'
loop_
 _atom_site_type_symbol
 _atom_site_label
 _atom_site_symmetry_multiplicity
 _atom_site_fract_x
 _atom_site_fract_y
 _atom_site_fract_z
 _atom_site_occupancy
  C  C0  1  0.27686623  0.27686623  0.19934396  1
  C  C1  1  0.70279415  0.70279415  0.95702171  1
  Ni  Ni2  1  0.90918958  0.90918958  0.32727189  1
  Cu  Cu3  1  0.06214477  0.06214477  0.84825009  1
  Cu  Cu4  1  0.50336357  0.50336357  0.49741042  1
  C  C5  1  0.18208440  0.68752996  0.83199381  1
  C  C6  1  0.27681557  0.78048523  0.27067782  1
  C  C7  1  0.68752996  0.18208440  0.83199381  1
  C  C8  1  0.24872481  0.24872481  0.55781857  1
  C  C9  1  0.78048523  0.27681557  0.27067782  1
  C  C10  1  0.74500173  0.74500173  0.29295709  1
