# generated using pymatgen
data_Cu2NiC16
_symmetry_space_group_name_H-M   'P 1'
_cell_length_a   8.16474648
_cell_length_b   8.16474648
_cell_length_c   7.36734600
_cell_angle_alpha   90.00000000
_cell_angle_beta   90.00000000
_cell_angle_gamma   120.00000385
_symmetry_Int_Tables_number   1
_chemical_formula_structural   Cu2NiC16
_chemical_formula_sum   'Cu4 Ni2 C32'
_cell_volume   425.33105101
_cell_formula_units_Z   2
loop_
 _symmetry_equiv_pos_site_id
 _symmetry_equiv_pos_as_xyz
  1  'x, y, z'
loop_
 _atom_site_type_symbol
 _atom_site_label
 _atom_site_symmetry_multiplicity
 _atom_site_fract_x
 _atom_site_fract_y
 _atom_site_fract_z
 _atom_site_occupancy
  C  C0  1  0.95252800  0.36815200  0.25000000  1
  C  C1  1  0.36815200  0.95252800  0.75000000  1
  C  C2  1  0.41562400  0.04747200  0.25000000  1
  C  C3  1  0.63184800  0.58437600  0.25000000  1
  C  C4  1  0.74144200  0.00000000  0.50000000  1
  C  C5  1  0.25855800  0.25855800  0.00000000  1
  C  C6  1  0.00000000  0.74144200  0.00000000  1
  C  C7  1  0.00000000  0.74144200  0.50000000  1
  C  C8  1  0.25855800  0.25855800  0.50000000  1
  C  C9  1  0.74144200  0.00000000  0.00000000  1
  C  C10  1  0.04747200  0.41562400  0.75000000  1
  C  C11  1  0.58437600  0.63184800  0.75000000  1
  Ni  Ni12  1  0.00000000  0.00000000  0.75000000  1
  Ni  Ni13  1  0.00000000  0.00000000  0.25000000  1
  Cu  Cu14  1  0.33333300  0.66666700  0.04043600  1
  Cu  Cu15  1  0.33333300  0.66666700  0.45956400  1
  Cu  Cu16  1  0.66666700  0.33333300  0.95956400  1
  Cu  Cu17  1  0.66666700  0.33333300  0.54043600  1
  C  C18  1  0.00000000  0.00000000  0.50000000  1
  C  C19  1  0.00000000  0.00000000  0.00000000  1
  C  C20  1  0.27327900  0.00000000  0.50000000  1
  C  C21  1  0.72672100  0.72672100  0.00000000  1
  C  C22  1  0.00000000  0.27327900  0.00000000  1
  C  C23  1  0.00000000  0.27327900  0.50000000  1
  C  C24  1  0.72672100  0.72672100  0.50000000  1
  C  C25  1  0.27327900  0.00000000  0.00000000  1
  C  C26  1  0.29711500  0.40148000  0.75000000  1
  C  C27  1  0.59852000  0.89563600  0.75000000  1
  C  C28  1  0.10436400  0.70288500  0.75000000  1
  C  C29  1  0.70288500  0.10436400  0.25000000  1
  C  C30  1  0.89563600  0.59852000  0.25000000  1
  C  C31  1  0.40148000  0.29711500  0.25000000  1
  C  C32  1  0.23925800  0.12155800  0.75000000  1
  C  C33  1  0.87844200  0.11770000  0.75000000  1
  C  C34  1  0.88230000  0.76074200  0.75000000  1
  C  C35  1  0.76074200  0.88230000  0.25000000  1
  C  C36  1  0.12155800  0.23925800  0.25000000  1
  C  C37  1  0.11770000  0.87844200  0.25000000  1
