# generated using pymatgen
data_Cu2NiC32
_symmetry_space_group_name_H-M   'P 1'
_cell_length_a   18.79077471
_cell_length_b   9.40264469
_cell_length_c   24.70323704
_cell_angle_alpha   90.01485048
_cell_angle_beta   90.02858233
_cell_angle_gamma   120.11808290
_symmetry_Int_Tables_number   1
_chemical_formula_structural   Cu2NiC32
_chemical_formula_sum   'Cu12 Ni6 C192'
_cell_volume   3775.38363790
_cell_formula_units_Z   6
loop_
 _symmetry_equiv_pos_site_id
 _symmetry_equiv_pos_as_xyz
  1  'x, y, z'
loop_
 _atom_site_type_symbol
 _atom_site_label
 _atom_site_symmetry_multiplicity
 _atom_site_fract_x
 _atom_site_fract_y
 _atom_site_fract_z
 _atom_site_occupancy
  Ni  Ni0  1  0.00166067  0.98613794  0.49893046  1
  Ni  Ni1  1  0.50132725  0.01831036  0.99300302  1
  Ni  Ni2  1  0.34151790  0.33515036  0.83699454  1
  Ni  Ni3  1  0.84161944  0.35193835  0.82734791  1
  Ni  Ni4  1  0.33090487  0.33002045  0.33482520  1
  Ni  Ni5  1  0.84477378  0.35176210  0.33813693  1
  C  C6  1  0.99951328  0.99062903  0.85384719  1
  C  C7  1  0.49968447  0.00927574  0.85440706  1
  C  C8  1  0.00011896  0.98939223  0.65268636  1
  C  C9  1  0.50038106  0.00016985  0.64373056  1
  C  C10  1  0.33425827  0.33501093  0.68416719  1
  C  C11  1  0.83911201  0.34612146  0.68497474  1
  C  C12  1  0.33935511  0.33487720  0.98100267  1
  C  C13  1  0.83947012  0.34340083  0.47840116  1
  C  C14  1  0.66205904  0.65449442  0.02032054  1
  C  C15  1  0.16077967  0.66890310  0.51617944  1
  C  C16  1  0.15961272  0.66542201  0.80995473  1
  C  C17  1  0.66259115  0.65806676  0.81599202  1
  Cu  Cu18  1  0.00061357  0.99235690  0.35221835  1
  Cu  Cu19  1  0.49999445  0.99888920  0.35422926  1
  Cu  Cu20  1  0.99917497  0.00001142  0.14612531  1
  Cu  Cu21  1  0.50060544  0.00138467  0.15105509  1
  Cu  Cu22  1  0.33078902  0.33223268  0.18350373  1
  Cu  Cu23  1  0.83596504  0.33480993  0.18495418  1
  Cu  Cu24  1  0.83455829  0.33445220  0.98370188  1
  Cu  Cu25  1  0.33378460  0.33423061  0.48111743  1
  Cu  Cu26  1  0.16521417  0.66429926  0.02083842  1
  Cu  Cu27  1  0.66611345  0.66808215  0.51865108  1
  Cu  Cu28  1  0.16073415  0.66467253  0.31393448  1
  Cu  Cu29  1  0.66641845  0.66594085  0.31128387  1
  C  C30  1  0.99542099  0.69736887  0.75171544  1
  C  C31  1  0.51625251  0.36634210  0.91742051  1
  C  C32  1  0.01828142  0.67020749  0.41302587  1
  C  C33  1  0.14649243  0.00414338  0.24938088  1
  C  C34  1  0.64623244  0.00373330  0.25147351  1
  C  C35  1  0.35601106  0.70777190  0.25120400  1
  C  C36  1  0.85465463  0.70728940  0.24978087  1
  C  C37  1  0.99835990  0.28726747  0.24999100  1
  C  C38  1  0.49794346  0.28867175  0.25114607  1
  C  C39  1  0.15135917  0.29588485  0.75111020  1
  C  C40  1  0.64824058  0.29310773  0.74945780  1
  C  C41  1  0.49856706  0.70484155  0.75047194  1
  C  C42  1  0.35330396  0.00374527  0.74938569  1
  C  C43  1  0.85087854  0.00257830  0.75153049  1
  C  C44  1  0.48091708  0.33955273  0.57928966  1
  C  C45  1  0.98224671  0.32611640  0.58197262  1
  C  C46  1  0.18749411  0.04643066  0.57995116  1
  C  C47  1  0.68700005  0.03340037  0.58102067  1
  C  C48  1  0.33282667  0.62221616  0.58035182  1
  C  C49  1  0.83053972  0.63421444  0.57994222  1
  C  C50  1  0.47825161  0.63395758  0.08760753  1
  C  C51  1  0.97827986  0.62465020  0.08405328  1
  C  C52  1  0.33442628  0.03528176  0.08580234  1
  C  C53  1  0.83650692  0.05018081  0.08532792  1
  C  C54  1  0.18549658  0.33327480  0.08501819  1
  C  C55  1  0.68755822  0.32223854  0.08563409  1
  C  C56  1  0.31074363  0.66628747  0.91928900  1
  C  C57  1  0.81397772  0.65609633  0.91897467  1
  C  C58  1  0.01771550  0.37622560  0.92071663  1
  C  C59  1  0.16773669  0.95632223  0.91957240  1
  C  C60  1  0.67114175  0.97216324  0.91926848  1
  C  C61  1  0.31517402  0.96644829  0.41311534  1
  C  C62  1  0.81064418  0.94985214  0.41419065  1
  C  C63  1  0.16840046  0.37004888  0.41394149  1
  C  C64  1  0.66366001  0.37823850  0.41357691  1
  C  C65  1  0.52129880  0.66449229  0.41477723  1
  C  C66  1  0.10875236  0.03310598  0.29783095  1
  C  C67  1  0.60654365  0.03045997  0.29949883  1
  C  C68  1  0.40979105  0.78704733  0.29931334  1
  C  C69  1  0.90694141  0.78380324  0.29803959  1
  C  C70  1  0.48487748  0.18262367  0.29895167  1
  C  C71  1  0.98390135  0.18384388  0.29853999  1
  C  C72  1  0.11064159  0.19649728  0.79957213  1
  C  C73  1  0.60799665  0.19388665  0.79841351  1
  C  C74  1  0.48829688  0.78292892  0.79949211  1
  C  C75  1  0.98620167  0.79179391  0.80440911  1
  C  C76  1  0.40320279  0.02607324  0.79834225  1
  C  C77  1  0.90271210  0.02655378  0.79980379  1
  C  C78  1  0.39549093  0.99180899  0.70033807  1
  C  C79  1  0.89092323  0.98817172  0.70180939  1
  C  C80  1  0.10377706  0.21874439  0.70139690  1
  C  C81  1  0.59845063  0.20969451  0.70056077  1
  C  C82  1  0.00407475  0.79957407  0.69609779  1
  C  C83  1  0.50354748  0.80008197  0.70125966  1
  C  C84  1  0.39617240  0.81006699  0.20236376  1
  C  C85  1  0.89331013  0.80885626  0.20104033  1
  C  C86  1  0.00803206  0.20574707  0.20127682  1
  C  C87  1  0.51081946  0.21276107  0.20205157  1
  C  C88  1  0.09530578  0.98158640  0.20079502  1
  C  C89  1  0.59514498  0.97837997  0.20259924  1
  C  C90  1  0.44605929  0.36716704  0.62913019  1
  C  C91  1  0.94234410  0.34363589  0.63095965  1
  C  C92  1  0.23314438  0.12535338  0.63019394  1
  C  C93  1  0.73648787  0.10503216  0.63018467  1
  C  C94  1  0.32226654  0.52519226  0.63009640  1
  C  C95  1  0.81906561  0.53909479  0.62967939  1
  C  C96  1  0.43352834  0.52486161  0.13448447  1
  C  C97  1  0.93925428  0.51818398  0.13244957  1
  C  C98  1  0.32260197  0.11965842  0.13332332  1
  C  C99  1  0.82527488  0.13338372  0.13356565  1
  C  C100  1  0.24054857  0.36119571  0.13285570  1
  C  C101  1  0.73863245  0.33940943  0.13397508  1
  C  C102  1  0.22016979  0.29971358  0.03671980  1
  C  C103  1  0.72566517  0.29928395  0.03626427  1
  C  C104  1  0.43014478  0.56643687  0.03757690  1
  C  C105  1  0.92491685  0.54813779  0.03610704  1
  C  C106  1  0.35156145  0.13696433  0.03686170  1
  C  C107  1  0.84956930  0.15337040  0.03660255  1
  C  C108  1  0.23339740  0.15021659  0.53213215  1
  C  C109  1  0.72611839  0.13918572  0.53321707  1
  C  C110  1  0.34319392  0.53526394  0.53273513  1
  C  C111  1  0.84241090  0.55093844  0.53264757  1
  C  C112  1  0.42608096  0.31571162  0.53228807  1
  C  C113  1  0.93128550  0.30861873  0.53338672  1
  C  C114  1  0.26667372  0.67876653  0.96781290  1
  C  C115  1  0.77274634  0.67536352  0.96709071  1
  C  C116  1  0.07071525  0.46557804  0.96829012  1
  C  C117  1  0.56875466  0.45835753  0.97226450  1
  C  C118  1  0.16242744  0.85593927  0.96803108  1
  C  C119  1  0.66171826  0.87143568  0.96747068  1
  C  C120  1  0.28180147  0.87058034  0.46304371  1
  C  C121  1  0.77149729  0.85272024  0.46376347  1
  C  C122  1  0.15690474  0.44077239  0.46406138  1
  C  C123  1  0.65372181  0.45499827  0.46312678  1
  C  C124  1  0.06890427  0.69010957  0.46907190  1
  C  C125  1  0.57127532  0.68859664  0.46371552  1
  C  C126  1  0.06813235  0.65170017  0.36136733  1
  C  C127  1  0.56083904  0.63845594  0.36646223  1
  C  C128  1  0.26156710  0.88484945  0.36583496  1
  C  C129  1  0.75956688  0.86365351  0.36579723  1
  C  C130  1  0.18141082  0.47602862  0.36626425  1
  C  C131  1  0.67444234  0.48379793  0.36558604  1
  C  C132  1  0.05209672  0.47302810  0.87090055  1
  C  C133  1  0.56165364  0.47257839  0.86337185  1
  C  C134  1  0.17907650  0.88272604  0.87001846  1
  C  C135  1  0.68268593  0.90013739  0.86942173  1
  C  C136  1  0.26618748  0.65388936  0.86910859  1
  C  C137  1  0.76513349  0.63093019  0.86941049  1
  C  C138  1  0.00840173  0.83465902  0.40794386  1
  C  C139  1  0.51248417  0.81149036  0.40609464  1
  C  C140  1  0.39828238  0.98747121  0.40319322  1
  C  C141  1  0.89407987  0.96981777  0.40878814  1
  C  C142  1  0.09422391  0.20418601  0.40630599  1
  C  C143  1  0.58898822  0.21401258  0.40542262  1
  C  C144  1  0.00975621  0.21390689  0.91643797  1
  C  C145  1  0.50691320  0.18241924  0.91734900  1
  C  C146  1  0.09313232  0.96899487  0.91698851  1
  C  C147  1  0.59649891  0.98846377  0.91552915  1
  C  C148  1  0.39452187  0.81458796  0.91905137  1
  C  C149  1  0.89583104  0.80304339  0.91464116  1
  C  C150  1  0.48841681  0.19173564  0.58503057  1
  C  C151  1  0.99012752  0.17744285  0.58460046  1
  C  C152  1  0.10521793  0.03170252  0.58040784  1
  C  C153  1  0.60395199  0.01321332  0.58787135  1
  C  C154  1  0.40807736  0.78467533  0.58522420  1
  C  C155  1  0.90404170  0.80113917  0.58314705  1
  C  C156  1  0.48715274  0.79997731  0.09626925  1
  C  C157  1  0.98708253  0.78858488  0.09403597  1
  C  C158  1  0.40801093  0.01582732  0.09555035  1
  C  C159  1  0.91084726  0.03502408  0.09414611  1
  C  C160  1  0.10315384  0.18877966  0.09687154  1
  C  C161  1  0.60367729  0.17285726  0.09215355  1
  C  C162  1  0.34433750  0.15277474  0.74585694  1
  C  C163  1  0.84030543  0.14923449  0.74773381  1
  C  C164  1  0.23447805  0.31065910  0.74751557  1
  C  C165  1  0.73024937  0.30715721  0.74582174  1
  C  C166  1  0.42416034  0.53634448  0.74694681  1
  C  C167  1  0.91306235  0.51273746  0.74991748  1
  C  C168  1  0.34753797  0.54068746  0.24397879  1
  C  C169  1  0.84476372  0.53964518  0.24244786  1
  C  C170  1  0.42378405  0.30697091  0.24371146  1
  C  C171  1  0.92434287  0.30842772  0.24269216  1
  C  C172  1  0.23057048  0.15460294  0.24222360  1
  C  C173  1  0.72969266  0.15127609  0.24412603  1
  C  C174  1  0.31868109  0.51689018  0.92338656  1
  C  C175  1  0.82278953  0.50640877  0.92597092  1
  C  C176  1  0.42417149  0.34827967  0.91815645  1
  C  C177  1  0.93408955  0.35824499  0.92876034  1
  C  C178  1  0.24113131  0.12403145  0.92419865  1
  C  C179  1  0.74530640  0.14033342  0.92583749  1
  C  C180  1  0.32450830  0.13466859  0.41948908  1
  C  C181  1  0.81745652  0.11373011  0.41724412  1
  C  C182  1  0.24319490  0.35041423  0.41951541  1
  C  C183  1  0.73677819  0.35814641  0.41732053  1
  C  C184  1  0.43739499  0.51597581  0.42125893  1
  C  C185  1  0.92599183  0.50291830  0.41424028  1
  C  C186  1  0.17765680  0.48105977  0.07694748  1
  C  C187  1  0.67995580  0.46958666  0.08138361  1
  C  C188  1  0.06006755  0.64223568  0.07486002  1
  C  C189  1  0.55973913  0.65015157  0.08372675  1
  C  C190  1  0.26057694  0.87220899  0.07789312  1
  C  C191  1  0.76353919  0.88757063  0.07907176  1
  C  C192  1  0.18122004  0.88474802  0.57589906  1
  C  C193  1  0.67724550  0.86776991  0.57118369  1
  C  C194  1  0.26025024  0.63956524  0.57319225  1
  C  C195  1  0.75589167  0.64776023  0.57109750  1
  C  C196  1  0.06406183  0.47462233  0.57717718  1
  C  C197  1  0.56287947  0.48553967  0.56955986  1
  C  C198  1  0.15652902  0.85948750  0.25689826  1
  C  C199  1  0.65422261  0.85607858  0.26021614  1
  C  C200  1  0.27466075  0.69087059  0.25922917  1
  C  C201  1  0.77214922  0.68902174  0.25853392  1
  C  C202  1  0.07256695  0.45080483  0.25686455  1
  C  C203  1  0.57151264  0.45334783  0.25957536  1
  C  C204  1  0.16204281  0.46105015  0.75564100  1
  C  C205  1  0.65686989  0.45697591  0.75329853  1
  C  C206  1  0.07730489  0.68193570  0.75615386  1
  C  C207  1  0.57302887  0.69165529  0.75352587  1
  C  C208  1  0.27242407  0.85558471  0.75345468  1
  C  C209  1  0.76998196  0.85294536  0.75702006  1
