# generated using pymatgen
data_Cu4Ni7
_symmetry_space_group_name_H-M   'P 1'
_cell_length_a   13.41100473
_cell_length_b   13.41100473
_cell_length_c   9.19866400
_cell_angle_alpha   90.00000000
_cell_angle_beta   90.00000000
_cell_angle_gamma   120.00000361
_symmetry_Int_Tables_number   1
_chemical_formula_structural   Cu4Ni7
_chemical_formula_sum   'Cu20 Ni35'
_cell_volume   1432.77502644
_cell_formula_units_Z   5
loop_
 _symmetry_equiv_pos_site_id
 _symmetry_equiv_pos_as_xyz
  1  'x, y, z'
loop_
 _atom_site_type_symbol
 _atom_site_label
 _atom_site_symmetry_multiplicity
 _atom_site_fract_x
 _atom_site_fract_y
 _atom_site_fract_z
 _atom_site_occupancy
  Ni  Ni0  1  0.46160900  0.12542400  0.50000000  1
  Ni  Ni1  1  0.33618500  0.46160900  0.50000000  1
  Ni  Ni2  1  0.12542400  0.66381500  0.50000000  1
  Ni  Ni3  1  0.87457600  0.33618500  0.50000000  1
  Ni  Ni4  1  0.66381500  0.53839100  0.50000000  1
  Ni  Ni5  1  0.33618500  0.87457600  0.50000000  1
  Ni  Ni6  1  0.53839100  0.66381500  0.50000000  1
  Ni  Ni7  1  0.53839100  0.87457600  0.50000000  1
  Ni  Ni8  1  0.12542400  0.46160900  0.50000000  1
  Ni  Ni9  1  0.87457600  0.53839100  0.50000000  1
  Ni  Ni10  1  0.66381500  0.12542400  0.50000000  1
  Ni  Ni11  1  0.46160900  0.33618500  0.50000000  1
  Ni  Ni12  1  0.25401100  0.50802100  0.23511100  1
  Ni  Ni13  1  0.74598900  0.25401100  0.23511100  1
  Ni  Ni14  1  0.50802100  0.25401100  0.23511100  1
  Ni  Ni15  1  0.49197900  0.74598900  0.23511100  1
  Ni  Ni16  1  0.25401100  0.74598900  0.23511100  1
  Ni  Ni17  1  0.74598900  0.49197900  0.76488900  1
  Ni  Ni18  1  0.74598900  0.25401100  0.76488900  1
  Ni  Ni19  1  0.74598900  0.49197900  0.23511100  1
  Ni  Ni20  1  0.50802100  0.25401100  0.76488900  1
  Ni  Ni21  1  0.49197900  0.74598900  0.76488900  1
  Ni  Ni22  1  0.25401100  0.50802100  0.76488900  1
  Ni  Ni23  1  0.25401100  0.74598900  0.76488900  1
  Ni  Ni24  1  0.12237400  0.24474800  0.00000000  1
  Ni  Ni25  1  0.87762600  0.12237400  0.00000000  1
  Ni  Ni26  1  0.24474800  0.12237400  0.00000000  1
  Ni  Ni27  1  0.75525200  0.87762600  0.00000000  1
  Ni  Ni28  1  0.12237400  0.87762600  0.00000000  1
  Ni  Ni29  1  0.87762600  0.75525200  0.00000000  1
  Ni  Ni30  1  0.50000000  0.00000000  0.00000000  1
  Ni  Ni31  1  0.50000000  0.50000000  0.00000000  1
  Ni  Ni32  1  0.00000000  0.50000000  0.00000000  1
  Ni  Ni33  1  0.00000000  0.00000000  0.14537200  1
  Ni  Ni34  1  0.00000000  0.00000000  0.85462800  1
  Cu  Cu35  1  0.33905000  0.00000000  0.18808800  1
  Cu  Cu36  1  0.33905000  0.33905000  0.18808800  1
  Cu  Cu37  1  0.00000000  0.66095000  0.18808800  1
  Cu  Cu38  1  0.00000000  0.33905000  0.18808800  1
  Cu  Cu39  1  0.66095000  0.66095000  0.18808800  1
  Cu  Cu40  1  0.33905000  0.00000000  0.81191200  1
  Cu  Cu41  1  0.66095000  0.66095000  0.81191200  1
  Cu  Cu42  1  0.66095000  0.00000000  0.18808800  1
  Cu  Cu43  1  0.00000000  0.33905000  0.81191200  1
  Cu  Cu44  1  0.00000000  0.66095000  0.81191200  1
  Cu  Cu45  1  0.66095000  0.00000000  0.81191200  1
  Cu  Cu46  1  0.33905000  0.33905000  0.81191200  1
  Cu  Cu47  1  0.21237300  0.00000000  0.50000000  1
  Cu  Cu48  1  0.21237300  0.21237300  0.50000000  1
  Cu  Cu49  1  0.00000000  0.78762700  0.50000000  1
  Cu  Cu50  1  0.00000000  0.21237300  0.50000000  1
  Cu  Cu51  1  0.78762700  0.78762700  0.50000000  1
  Cu  Cu52  1  0.78762700  0.00000000  0.50000000  1
  Cu  Cu53  1  0.33333300  0.66666700  0.00000000  1
  Cu  Cu54  1  0.66666700  0.33333300  0.00000000  1
