# generated using pymatgen
data_Cu5(Ni3C10)2
_symmetry_space_group_name_H-M   'P 1'
_cell_length_a   16.04982289
_cell_length_b   16.04982286
_cell_length_c   16.04982318
_cell_angle_alpha   60.00000149
_cell_angle_beta   60.00000154
_cell_angle_gamma   60.00000220
_symmetry_Int_Tables_number   1
_chemical_formula_structural   Cu5(Ni3C10)2
_chemical_formula_sum   'Cu40 Ni48 C160'
_cell_volume   2923.45059884
_cell_formula_units_Z   8
loop_
 _symmetry_equiv_pos_site_id
 _symmetry_equiv_pos_as_xyz
  1  'x, y, z'
loop_
 _atom_site_type_symbol
 _atom_site_label
 _atom_site_symmetry_multiplicity
 _atom_site_fract_x
 _atom_site_fract_y
 _atom_site_fract_z
 _atom_site_occupancy
  C  C0  1  0.95373254  0.05192819  0.15038552  1
  C  C1  1  0.44807181  0.34961448  0.15604625  1
  C  C2  1  0.15604625  0.54626746  0.44807181  1
  C  C3  1  0.44807181  0.15604625  0.54626746  1
  C  C4  1  0.34961448  0.54626746  0.15604625  1
  C  C5  1  0.34961448  0.15604625  0.44807181  1
  C  C6  1  0.15604625  0.34961448  0.54626746  1
  C  C7  1  0.15038552  0.95373254  0.05192819  1
  C  C8  1  0.05192819  0.15038552  0.95373254  1
  C  C9  1  0.34395375  0.95373254  0.15038552  1
  C  C10  1  0.05192819  0.34395375  0.15038552  1
  C  C11  1  0.34395375  0.05192819  0.95373254  1
  C  C12  1  0.15038552  0.05192819  0.34395375  1
  C  C13  1  0.95373254  0.15038552  0.34395375  1
  C  C14  1  0.95373254  0.34395375  0.05192819  1
  C  C15  1  0.15604625  0.44807181  0.34961448  1
  C  C16  1  0.54626746  0.15604625  0.34961448  1
  C  C17  1  0.54626746  0.44807181  0.15604625  1
  C  C18  1  0.44807181  0.54626746  0.34961448  1
  C  C19  1  0.34961448  0.44807181  0.54626746  1
  C  C20  1  0.54626746  0.34961448  0.44807181  1
  C  C21  1  0.15038552  0.34395375  0.95373254  1
  C  C22  1  0.34395375  0.15038552  0.05192819  1
  C  C23  1  0.05192819  0.95373254  0.34395375  1
  C  C24  1  0.04626746  0.94807181  0.84961448  1
  C  C25  1  0.55192819  0.65038552  0.84395375  1
  C  C26  1  0.84395375  0.45373254  0.55192819  1
  C  C27  1  0.55192819  0.84395375  0.45373254  1
  C  C28  1  0.65038552  0.45373254  0.84395375  1
  C  C29  1  0.65038552  0.84395375  0.55192819  1
  C  C30  1  0.84395375  0.65038552  0.45373254  1
  C  C31  1  0.84961448  0.04626746  0.94807181  1
  C  C32  1  0.94807181  0.84961448  0.04626746  1
  C  C33  1  0.65604625  0.04626746  0.84961448  1
  C  C34  1  0.94807181  0.65604625  0.84961448  1
  C  C35  1  0.65604625  0.94807181  0.04626746  1
  C  C36  1  0.84961448  0.94807181  0.65604625  1
  C  C37  1  0.04626746  0.84961448  0.65604625  1
  C  C38  1  0.04626746  0.65604625  0.94807181  1
  C  C39  1  0.84395375  0.55192819  0.65038552  1
  C  C40  1  0.45373254  0.84395375  0.65038552  1
  C  C41  1  0.45373254  0.55192819  0.84395375  1
  C  C42  1  0.55192819  0.45373254  0.65038552  1
  C  C43  1  0.65038552  0.55192819  0.45373254  1
  C  C44  1  0.45373254  0.65038552  0.55192819  1
  C  C45  1  0.84961448  0.65604625  0.04626746  1
  C  C46  1  0.65604625  0.84961448  0.94807181  1
  C  C47  1  0.94807181  0.04626746  0.65604625  1
  C  C48  1  0.87975589  0.98878489  0.18197448  1
  C  C49  1  0.51121511  0.31802552  0.05051526  1
  C  C50  1  0.05051526  0.62024411  0.51121511  1
  C  C51  1  0.51121511  0.05051526  0.62024411  1
  C  C52  1  0.31802552  0.62024411  0.05051526  1
  C  C53  1  0.31802552  0.05051526  0.51121511  1
  C  C54  1  0.05051526  0.31802552  0.62024411  1
  C  C55  1  0.18197448  0.87975589  0.98878489  1
  C  C56  1  0.98878489  0.18197448  0.87975589  1
  C  C57  1  0.44948474  0.87975589  0.18197448  1
  C  C58  1  0.98878489  0.44948474  0.18197448  1
  C  C59  1  0.44948474  0.98878489  0.87975589  1
  C  C60  1  0.18197448  0.98878489  0.44948474  1
  C  C61  1  0.87975589  0.18197448  0.44948474  1
  C  C62  1  0.87975589  0.44948474  0.98878489  1
  C  C63  1  0.05051526  0.51121511  0.31802552  1
  C  C64  1  0.62024411  0.05051526  0.31802552  1
  C  C65  1  0.62024411  0.51121511  0.05051526  1
  C  C66  1  0.51121511  0.62024411  0.31802552  1
  C  C67  1  0.31802552  0.51121511  0.62024411  1
  C  C68  1  0.62024411  0.31802552  0.51121511  1
  C  C69  1  0.18197448  0.44948474  0.87975589  1
  C  C70  1  0.44948474  0.18197448  0.98878489  1
  C  C71  1  0.98878489  0.87975589  0.44948474  1
  C  C72  1  0.12024411  0.01121511  0.81802552  1
  C  C73  1  0.48878489  0.68197448  0.94948474  1
  C  C74  1  0.94948474  0.37975589  0.48878489  1
  C  C75  1  0.48878489  0.94948474  0.37975589  1
  C  C76  1  0.68197448  0.37975589  0.94948474  1
  C  C77  1  0.68197448  0.94948474  0.48878489  1
  C  C78  1  0.94948474  0.68197448  0.37975589  1
  C  C79  1  0.81802552  0.12024411  0.01121511  1
  C  C80  1  0.01121511  0.81802552  0.12024411  1
  C  C81  1  0.55051526  0.12024411  0.81802552  1
  C  C82  1  0.01121511  0.55051526  0.81802552  1
  C  C83  1  0.55051526  0.01121511  0.12024411  1
  C  C84  1  0.81802552  0.01121511  0.55051526  1
  C  C85  1  0.12024411  0.81802552  0.55051526  1
  C  C86  1  0.12024411  0.55051526  0.01121511  1
  C  C87  1  0.94948474  0.48878489  0.68197448  1
  C  C88  1  0.37975589  0.94948474  0.68197448  1
  C  C89  1  0.37975589  0.48878489  0.94948474  1
  C  C90  1  0.48878489  0.37975589  0.68197448  1
  C  C91  1  0.68197448  0.48878489  0.37975589  1
  C  C92  1  0.37975589  0.68197448  0.48878489  1
  C  C93  1  0.81802552  0.55051526  0.12024411  1
  C  C94  1  0.55051526  0.81802552  0.01121511  1
  C  C95  1  0.01121511  0.12024411  0.55051526  1
  C  C96  1  0.99784920  0.92561918  0.18225312  1
  C  C97  1  0.57438082  0.31774688  0.10572150  1
  C  C98  1  0.10572150  0.50215080  0.57438082  1
  C  C99  1  0.57438082  0.10572150  0.50215080  1
  C  C100  1  0.31774688  0.50215080  0.10572150  1
  C  C101  1  0.31774688  0.10572150  0.57438082  1
  C  C102  1  0.10572150  0.31774688  0.50215080  1
  C  C103  1  0.18225312  0.99784920  0.92561918  1
  C  C104  1  0.92561918  0.18225312  0.99784920  1
  C  C105  1  0.39427850  0.99784920  0.18225312  1
  C  C106  1  0.92561918  0.39427850  0.18225312  1
  C  C107  1  0.39427850  0.92561918  0.99784920  1
  C  C108  1  0.18225312  0.92561918  0.39427850  1
  C  C109  1  0.99784920  0.18225312  0.39427850  1
  C  C110  1  0.99784920  0.39427850  0.92561918  1
  C  C111  1  0.10572150  0.57438082  0.31774688  1
  C  C112  1  0.50215080  0.10572150  0.31774688  1
  C  C113  1  0.50215080  0.57438082  0.10572150  1
  C  C114  1  0.57438082  0.50215080  0.31774688  1
  C  C115  1  0.31774688  0.57438082  0.50215080  1
  C  C116  1  0.50215080  0.31774688  0.57438082  1
  C  C117  1  0.18225312  0.39427850  0.99784920  1
  C  C118  1  0.39427850  0.18225312  0.92561918  1
  C  C119  1  0.92561918  0.99784920  0.39427850  1
  C  C120  1  0.00215080  0.07438082  0.81774688  1
  C  C121  1  0.42561918  0.68225312  0.89427850  1
  C  C122  1  0.89427850  0.49784920  0.42561918  1
  C  C123  1  0.42561918  0.89427850  0.49784920  1
  C  C124  1  0.68225312  0.49784920  0.89427850  1
  C  C125  1  0.68225312  0.89427850  0.42561918  1
  C  C126  1  0.89427850  0.68225312  0.49784920  1
  C  C127  1  0.81774688  0.00215080  0.07438082  1
  C  C128  1  0.07438082  0.81774688  0.00215080  1
  C  C129  1  0.60572150  0.00215080  0.81774688  1
  C  C130  1  0.07438082  0.60572150  0.81774688  1
  C  C131  1  0.60572150  0.07438082  0.00215080  1
  C  C132  1  0.81774688  0.07438082  0.60572150  1
  C  C133  1  0.00215080  0.81774688  0.60572150  1
  C  C134  1  0.00215080  0.60572150  0.07438082  1
  C  C135  1  0.89427850  0.42561918  0.68225312  1
  C  C136  1  0.49784920  0.89427850  0.68225312  1
  C  C137  1  0.49784920  0.42561918  0.89427850  1
  C  C138  1  0.42561918  0.49784920  0.68225312  1
  C  C139  1  0.68225312  0.42561918  0.49784920  1
  C  C140  1  0.49784920  0.68225312  0.42561918  1
  C  C141  1  0.81774688  0.60572150  0.00215080  1
  C  C142  1  0.60572150  0.81774688  0.07438082  1
  C  C143  1  0.07438082  0.00215080  0.60572150  1
  Ni  Ni144  1  0.95274760  0.99195496  0.14317280  1
  Ni  Ni145  1  0.50804504  0.35682720  0.08787535  1
  Ni  Ni146  1  0.08787535  0.54725240  0.50804504  1
  Ni  Ni147  1  0.50804504  0.08787535  0.54725240  1
  Ni  Ni148  1  0.35682720  0.54725240  0.08787535  1
  Ni  Ni149  1  0.35682720  0.08787535  0.50804504  1
  Ni  Ni150  1  0.08787535  0.35682720  0.54725240  1
  Ni  Ni151  1  0.14317280  0.95274760  0.99195496  1
  Ni  Ni152  1  0.99195496  0.14317280  0.95274760  1
  Ni  Ni153  1  0.41212465  0.95274760  0.14317280  1
  Ni  Ni154  1  0.99195496  0.41212465  0.14317280  1
  Ni  Ni155  1  0.41212465  0.99195496  0.95274760  1
  Ni  Ni156  1  0.14317280  0.99195496  0.41212465  1
  Ni  Ni157  1  0.95274760  0.14317280  0.41212465  1
  Ni  Ni158  1  0.95274760  0.41212465  0.99195496  1
  Ni  Ni159  1  0.08787535  0.50804504  0.35682720  1
  Ni  Ni160  1  0.54725240  0.08787535  0.35682720  1
  Ni  Ni161  1  0.54725240  0.50804504  0.08787535  1
  Ni  Ni162  1  0.50804504  0.54725240  0.35682720  1
  Ni  Ni163  1  0.35682720  0.50804504  0.54725240  1
  Ni  Ni164  1  0.54725240  0.35682720  0.50804504  1
  Ni  Ni165  1  0.14317280  0.41212465  0.95274760  1
  Ni  Ni166  1  0.41212465  0.14317280  0.99195496  1
  Ni  Ni167  1  0.99195496  0.95274760  0.41212465  1
  Ni  Ni168  1  0.04725240  0.00804504  0.85682720  1
  Ni  Ni169  1  0.49195496  0.64317280  0.91212465  1
  Ni  Ni170  1  0.91212465  0.45274760  0.49195496  1
  Ni  Ni171  1  0.49195496  0.91212465  0.45274760  1
  Ni  Ni172  1  0.64317280  0.45274760  0.91212465  1
  Ni  Ni173  1  0.64317280  0.91212465  0.49195496  1
  Ni  Ni174  1  0.91212465  0.64317280  0.45274760  1
  Ni  Ni175  1  0.85682720  0.04725240  0.00804504  1
  Ni  Ni176  1  0.00804504  0.85682720  0.04725240  1
  Ni  Ni177  1  0.58787535  0.04725240  0.85682720  1
  Ni  Ni178  1  0.00804504  0.58787535  0.85682720  1
  Ni  Ni179  1  0.58787535  0.00804504  0.04725240  1
  Ni  Ni180  1  0.85682720  0.00804504  0.58787535  1
  Ni  Ni181  1  0.04725240  0.85682720  0.58787535  1
  Ni  Ni182  1  0.04725240  0.58787535  0.00804504  1
  Ni  Ni183  1  0.91212465  0.49195496  0.64317280  1
  Ni  Ni184  1  0.45274760  0.91212465  0.64317280  1
  Ni  Ni185  1  0.45274760  0.49195496  0.91212465  1
  Ni  Ni186  1  0.49195496  0.45274760  0.64317280  1
  Ni  Ni187  1  0.64317280  0.49195496  0.45274760  1
  Ni  Ni188  1  0.45274760  0.64317280  0.49195496  1
  Ni  Ni189  1  0.85682720  0.58787535  0.04725240  1
  Ni  Ni190  1  0.58787535  0.85682720  0.00804504  1
  Ni  Ni191  1  0.00804504  0.04725240  0.58787535  1
  Cu  Cu192  1  0.18528407  0.18528407  0.18528407  1
  Cu  Cu193  1  0.31471593  0.31471593  0.55585221  1
  Cu  Cu194  1  0.55585221  0.31471593  0.31471593  1
  Cu  Cu195  1  0.31471593  0.55585221  0.31471593  1
  Cu  Cu196  1  0.94414779  0.18528407  0.18528407  1
  Cu  Cu197  1  0.18528407  0.94414779  0.18528407  1
  Cu  Cu198  1  0.18528407  0.18528407  0.94414779  1
  Cu  Cu199  1  0.31471593  0.31471593  0.31471593  1
  Cu  Cu200  1  0.81471593  0.81471593  0.81471593  1
  Cu  Cu201  1  0.68528407  0.68528407  0.44414779  1
  Cu  Cu202  1  0.44414779  0.68528407  0.68528407  1
  Cu  Cu203  1  0.68528407  0.44414779  0.68528407  1
  Cu  Cu204  1  0.05585221  0.81471593  0.81471593  1
  Cu  Cu205  1  0.81471593  0.05585221  0.81471593  1
  Cu  Cu206  1  0.81471593  0.81471593  0.05585221  1
  Cu  Cu207  1  0.68528407  0.68528407  0.68528407  1
  Cu  Cu208  1  0.75000000  0.08514587  0.41485413  1
  Cu  Cu209  1  0.41485413  0.08514587  0.25000000  1
  Cu  Cu210  1  0.25000000  0.75000000  0.41485413  1
  Cu  Cu211  1  0.41485413  0.25000000  0.75000000  1
  Cu  Cu212  1  0.08514587  0.75000000  0.25000000  1
  Cu  Cu213  1  0.08514587  0.25000000  0.41485413  1
  Cu  Cu214  1  0.25000000  0.08514587  0.75000000  1
  Cu  Cu215  1  0.41485413  0.75000000  0.08514587  1
  Cu  Cu216  1  0.08514587  0.41485413  0.75000000  1
  Cu  Cu217  1  0.75000000  0.41485413  0.25000000  1
  Cu  Cu218  1  0.75000000  0.25000000  0.08514587  1
  Cu  Cu219  1  0.25000000  0.41485413  0.08514587  1
  Cu  Cu220  1  0.25000000  0.91485413  0.58514587  1
  Cu  Cu221  1  0.58514587  0.91485413  0.75000000  1
  Cu  Cu222  1  0.75000000  0.25000000  0.58514587  1
  Cu  Cu223  1  0.58514587  0.75000000  0.25000000  1
  Cu  Cu224  1  0.91485413  0.25000000  0.75000000  1
  Cu  Cu225  1  0.91485413  0.75000000  0.58514587  1
  Cu  Cu226  1  0.75000000  0.91485413  0.25000000  1
  Cu  Cu227  1  0.58514587  0.25000000  0.91485413  1
  Cu  Cu228  1  0.91485413  0.58514587  0.25000000  1
  Cu  Cu229  1  0.25000000  0.58514587  0.75000000  1
  Cu  Cu230  1  0.25000000  0.75000000  0.91485413  1
  Cu  Cu231  1  0.75000000  0.58514587  0.91485413  1
  C  C232  1  0.00000000  0.00000000  0.00000000  1
  C  C233  1  0.50000000  0.50000000  0.00000000  1
  C  C234  1  0.00000000  0.50000000  0.50000000  1
  C  C235  1  0.50000000  0.00000000  0.50000000  1
  C  C236  1  0.50000000  0.00000000  0.00000000  1
  C  C237  1  0.00000000  0.50000000  0.00000000  1
  C  C238  1  0.00000000  0.00000000  0.50000000  1
  C  C239  1  0.50000000  0.50000000  0.50000000  1
  C  C240  1  0.25000000  0.25000000  0.25000000  1
  C  C241  1  0.25000000  0.25000000  0.75000000  1
  C  C242  1  0.75000000  0.25000000  0.25000000  1
  C  C243  1  0.25000000  0.75000000  0.25000000  1
  C  C244  1  0.75000000  0.75000000  0.75000000  1
  C  C245  1  0.75000000  0.75000000  0.25000000  1
  C  C246  1  0.25000000  0.75000000  0.75000000  1
  C  C247  1  0.75000000  0.25000000  0.75000000  1
