# generated using pymatgen
data_CuNiC9
_symmetry_space_group_name_H-M   'P 1'
_cell_length_a   5.68059007
_cell_length_b   5.54253133
_cell_length_c   5.04647264
_cell_angle_alpha   95.80586285
_cell_angle_beta   109.40689443
_cell_angle_gamma   73.90950663
_symmetry_Int_Tables_number   1
_chemical_formula_structural   CuNiC9
_chemical_formula_sum   'Cu1 Ni1 C9'
_cell_volume   143.98192517
_cell_formula_units_Z   1
loop_
 _symmetry_equiv_pos_site_id
 _symmetry_equiv_pos_as_xyz
  1  'x, y, z'
loop_
 _atom_site_type_symbol
 _atom_site_label
 _atom_site_symmetry_multiplicity
 _atom_site_fract_x
 _atom_site_fract_y
 _atom_site_fract_z
 _atom_site_occupancy
  Ni  Ni0  1  0.49667356  0.17464747  0.87601616  1
  Cu  Cu1  1  0.09668531  0.05267799  0.06229788  1
  C  C2  1  0.28641078  0.68362793  0.56763159  1
  C  C3  1  0.65430386  0.27759570  0.42423158  1
  C  C4  1  0.77881981  0.12203517  0.69573182  1
  C  C5  1  0.23474077  0.47335066  0.69119652  1
  C  C6  1  0.80965746  0.26664661  0.22638671  1
  C  C7  1  0.32630738  0.89899439  0.78660975  1
  C  C8  1  0.57361610  0.56606152  0.52224727  1
  C  C9  1  0.10418996  0.77374678  0.27875510  1
  C  C10  1  0.40802802  0.19671578  0.24389464  1
