# generated using pymatgen
data_Cu2Ni2C9
_symmetry_space_group_name_H-M   'P 1'
_cell_length_a   3.40148400
_cell_length_b   3.40123274
_cell_length_c   45.05765400
_cell_angle_alpha   90.00088084
_cell_angle_beta   90.00000890
_cell_angle_gamma   120.00242427
_symmetry_Int_Tables_number   1
_chemical_formula_structural   Cu2Ni2C9
_chemical_formula_sum   'Cu2 Ni2 C9'
_cell_volume   451.43308125
_cell_formula_units_Z   1
loop_
 _symmetry_equiv_pos_site_id
 _symmetry_equiv_pos_as_xyz
  1  'x, y, z'
loop_
 _atom_site_type_symbol
 _atom_site_label
 _atom_site_symmetry_multiplicity
 _atom_site_fract_x
 _atom_site_fract_y
 _atom_site_fract_z
 _atom_site_occupancy
  C  C0  1  0.00003700  0.00007400  0.38703800  1
  C  C1  1  0.33334100  0.66668300  0.69929400  1
  C  C2  1  0.66669100  0.33338100  0.05195400  1
  C  C3  1  0.66665700  0.33331400  0.13509100  1
  C  C4  1  0.33335900  0.66671800  0.61572300  1
  Ni  Ni5  1  0.33336400  0.66673100  0.09355400  1
  Ni  Ni6  1  0.33329300  0.66658600  0.47484300  1
  Cu  Cu7  1  0.66666300  0.33332600  0.27504600  1
  Cu  Cu8  1  0.66665600  0.33331400  0.65751600  1
  C  C9  1  0.33327800  0.66655600  0.31190100  1
  C  C10  1  0.33332700  0.66665600  0.23840500  1
  C  C11  1  0.66667100  0.33333900  0.44086200  1
  C  C12  1  0.66666300  0.33332500  0.50772900  1
