# generated using pymatgen
data_CuNiC11
_symmetry_space_group_name_H-M   'P 1'
_cell_length_a   8.91053179
_cell_length_b   8.89695096
_cell_length_c   22.22351115
_cell_angle_alpha   89.99516446
_cell_angle_beta   90.20091689
_cell_angle_gamma   119.93899427
_symmetry_Int_Tables_number   1
_chemical_formula_structural   CuNiC11
_chemical_formula_sum   'Cu9 Ni9 C99'
_cell_volume   1526.69155449
_cell_formula_units_Z   9
loop_
 _symmetry_equiv_pos_site_id
 _symmetry_equiv_pos_as_xyz
  1  'x, y, z'
loop_
 _atom_site_type_symbol
 _atom_site_label
 _atom_site_symmetry_multiplicity
 _atom_site_fract_x
 _atom_site_fract_y
 _atom_site_fract_z
 _atom_site_occupancy
  C  C0  1  0.99017412  0.34729639  0.74864831  1
  C  C1  1  0.30134650  0.33399042  0.58521324  1
  C  C2  1  0.66899346  0.96960555  0.58676431  1
  C  C3  1  0.30131746  0.96834583  0.08625344  1
  C  C4  1  0.66931524  0.69885278  0.08977054  1
  C  C5  1  0.97159423  0.67133814  0.91208917  1
  C  C6  1  0.32650048  0.29244056  0.91263620  1
  C  C7  1  0.33501894  0.04143424  0.41012651  1
  C  C8  1  0.69827471  0.66728974  0.41269553  1
  C  C9  1  0.99944570  0.00867743  0.49644349  1
  C  C10  1  0.99533243  0.02205129  0.99678713  1
  C  C11  1  0.65527322  0.31361194  0.82775279  1
  C  C12  1  0.66456783  0.32755989  0.32681825  1
  C  C13  1  0.32070694  0.65629721  0.16592427  1
  C  C14  1  0.33285981  0.67895675  0.66539055  1
  C  C15  1  0.00043491  0.00629040  0.34798934  1
  C  C16  1  0.00071458  0.00297955  0.84718334  1
  C  C17  1  0.99928783  0.99438464  0.65667451  1
  C  C18  1  0.00062475  0.00044283  0.15622179  1
  C  C19  1  0.66286335  0.33535905  0.68838317  1
  C  C20  1  0.66189042  0.33090559  0.18824257  1
  C  C21  1  0.67293687  0.32156242  0.97886192  1
  C  C22  1  0.66795646  0.33087937  0.47954138  1
  C  C23  1  0.32547430  0.66239862  0.01617870  1
  C  C24  1  0.33235436  0.66397604  0.51564703  1
  C  C25  1  0.34323173  0.67025139  0.31179003  1
  C  C26  1  0.33248315  0.67451216  0.81197035  1
  Ni  Ni27  1  0.29622715  0.00363478  0.25085511  1
  Ni  Ni28  1  0.71249582  0.70310338  0.25067557  1
  Ni  Ni29  1  0.29814829  0.29454638  0.75089108  1
  Ni  Ni30  1  0.99269768  0.70498718  0.75215270  1
  Ni  Ni31  1  0.70793802  0.00117610  0.74808955  1
  Ni  Ni32  1  0.03993147  0.37053845  0.91731432  1
  Ni  Ni33  1  0.33299930  0.96317846  0.92038565  1
  Ni  Ni34  1  0.63116623  0.96255410  0.41979403  1
  Ni  Ni35  1  0.32855051  0.36934485  0.41973693  1
  Cu  Cu36  1  0.99894458  0.29490265  0.25066484  1
  Cu  Cu37  1  0.96150525  0.33571816  0.58364199  1
  Cu  Cu38  1  0.37091602  0.03856277  0.58199820  1
  Cu  Cu39  1  0.67064827  0.62861086  0.58171457  1
  Cu  Cu40  1  0.95861330  0.62461608  0.08290172  1
  Cu  Cu41  1  0.67002775  0.04035029  0.08394585  1
  Cu  Cu42  1  0.37307437  0.33400629  0.08207146  1
  Cu  Cu43  1  0.62696087  0.67019917  0.91937301  1
  Cu  Cu44  1  0.04143367  0.66454265  0.41706280  1
  C  C45  1  0.20925220  0.02118469  0.30726717  1
  C  C46  1  0.81240653  0.79207603  0.30762099  1
  C  C47  1  0.97833420  0.19403291  0.30460392  1
  C  C48  1  0.21352872  0.19193759  0.80778239  1
  C  C49  1  0.97423596  0.78208778  0.81097057  1
  C  C50  1  0.82557084  0.02839320  0.80131731  1
  C  C51  1  0.77200349  0.96341975  0.68894738  1
  C  C52  1  0.18100372  0.22539203  0.69440333  1
  C  C53  1  0.02944059  0.81690044  0.69711265  1
  C  C54  1  0.78082376  0.81173747  0.19313456  1
  C  C55  1  0.03482158  0.22323311  0.19618368  1
  C  C56  1  0.18939993  0.96903969  0.19271091  1
  C  C57  1  0.88197104  0.35226861  0.63958465  1
  C  C58  1  0.48496380  0.12566993  0.63404613  1
  C  C59  1  0.64757873  0.51690047  0.63363758  1
  C  C60  1  0.87100964  0.51979529  0.13534896  1
  C  C61  1  0.64401201  0.12337560  0.13671336  1
  C  C62  1  0.48497397  0.35829519  0.13426402  1
  C  C63  1  0.45119359  0.30867303  0.02622131  1
  C  C64  1  0.85736056  0.54640967  0.02658116  1
  C  C65  1  0.68876547  0.13897602  0.02850400  1
  C  C66  1  0.44890216  0.14135533  0.52606463  1
  C  C67  1  0.68580627  0.54891435  0.52505504  1
  C  C68  1  0.85162537  0.31308809  0.53081192  1
  C  C69  1  0.54818857  0.69112835  0.97454887  1
  C  C70  1  0.15939419  0.45815592  0.97097649  1
  C  C71  1  0.31064727  0.85622713  0.97694638  1
  C  C72  1  0.54643916  0.85239215  0.47599117  1
  C  C73  1  0.30781792  0.45084373  0.47736104  1
  C  C74  1  0.14995332  0.69121601  0.47041903  1
  C  C75  1  0.12830723  0.64451708  0.36239190  1
  C  C76  1  0.50278391  0.85688664  0.36443027  1
  C  C77  1  0.34731434  0.49417167  0.36511757  1
  C  C78  1  0.13871447  0.49064779  0.86014081  1
  C  C79  1  0.35052837  0.85843083  0.86502653  1
  C  C80  1  0.51153434  0.64613067  0.86619696  1
  C  C81  1  0.02392908  0.82178208  0.41112759  1
  C  C82  1  0.80548440  0.97260830  0.41001746  1
  C  C83  1  0.17464611  0.18654249  0.41082955  1
  C  C84  1  0.02057687  0.19134717  0.90892865  1
  C  C85  1  0.16707880  0.97529685  0.91209184  1
  C  C86  1  0.80071177  0.82077145  0.91195777  1
  C  C87  1  0.98041893  0.17609383  0.58614350  1
  C  C88  1  0.19832211  0.02496004  0.58851292  1
  C  C89  1  0.82283930  0.80617396  0.58669834  1
  C  C90  1  0.97705618  0.80308233  0.08701496  1
  C  C91  1  0.82351550  0.01553145  0.08933816  1
  C  C92  1  0.19829529  0.17690890  0.08839863  1
  C  C93  1  0.68130665  0.15831796  0.74271621  1
  C  C94  1  0.48056755  0.32587409  0.74335099  1
  C  C95  1  0.84886392  0.51525373  0.74548962  1
  C  C96  1  0.68077484  0.51945918  0.24499669  1
  C  C97  1  0.85249438  0.32418950  0.24352425  1
  C  C98  1  0.48208876  0.15245325  0.24542189  1
  C  C99  1  0.63775179  0.50803068  0.92120883  1
  C  C100  1  0.86718113  0.37067485  0.91931529  1
  C  C101  1  0.49326026  0.14549407  0.91990158  1
  C  C102  1  0.63566092  0.13707481  0.42004097  1
  C  C103  1  0.50114669  0.36470972  0.41900535  1
  C  C104  1  0.86712395  0.51014906  0.42070103  1
  C  C105  1  0.35982033  0.49495452  0.07777882  1
  C  C106  1  0.13797033  0.65069534  0.07928762  1
  C  C107  1  0.51052778  0.86060948  0.07972702  1
  C  C108  1  0.35412094  0.86310516  0.57717254  1
  C  C109  1  0.50925394  0.64594304  0.57971246  1
  C  C110  1  0.13925477  0.49005009  0.57875089  1
  C  C111  1  0.31065513  0.82875286  0.26011109  1
  C  C112  1  0.51847637  0.68200927  0.25941955  1
  C  C113  1  0.16154086  0.47600886  0.25825811  1
  C  C114  1  0.31487836  0.48409516  0.76012126  1
  C  C115  1  0.16692174  0.68540756  0.75898475  1
  C  C116  1  0.52102474  0.83542186  0.76024190  1
