# generated using pymatgen
data_Cu2Ni2C35
_symmetry_space_group_name_H-M   'P 1'
_cell_length_a   8.82812916
_cell_length_b   8.83936253
_cell_length_c   22.10734787
_cell_angle_alpha   90.23876996
_cell_angle_beta   89.78651686
_cell_angle_gamma   120.06794444
_symmetry_Int_Tables_number   1
_chemical_formula_structural   Cu2Ni2C35
_chemical_formula_sum   'Cu6 Ni6 C105'
_cell_volume   1492.98211057
_cell_formula_units_Z   3
loop_
 _symmetry_equiv_pos_site_id
 _symmetry_equiv_pos_as_xyz
  1  'x, y, z'
loop_
 _atom_site_type_symbol
 _atom_site_label
 _atom_site_symmetry_multiplicity
 _atom_site_fract_x
 _atom_site_fract_y
 _atom_site_fract_z
 _atom_site_occupancy
  C  C0  1  0.63623336  0.00194858  0.25216999  1
  C  C1  1  0.37083847  0.37256862  0.24780378  1
  C  C2  1  0.99504667  0.62430224  0.25180700  1
  C  C3  1  0.63839847  0.63011829  0.74759981  1
  C  C4  1  0.99020961  0.35876144  0.74765160  1
  C  C5  1  0.37012909  0.01129157  0.74759087  1
  C  C6  1  0.30260551  0.96405801  0.07822114  1
  C  C7  1  0.03831308  0.34555818  0.07897248  1
  C  C8  1  0.70515230  0.67339486  0.41716826  1
  C  C9  1  0.00553636  0.00507763  0.49949760  1
  C  C10  1  0.99707072  0.99592221  0.99113063  1
  C  C11  1  0.66611138  0.33205525  0.83309969  1
  C  C12  1  0.67461890  0.32756484  0.33543212  1
  C  C13  1  0.34270481  0.66347165  0.16228834  1
  C  C14  1  0.33513781  0.66537127  0.66293479  1
  Ni  Ni15  1  0.99761413  0.99840217  0.64574996  1
  Ni  Ni16  1  0.98664526  0.99790673  0.14424805  1
  Ni  Ni17  1  0.66834615  0.32960033  0.97968208  1
  Ni  Ni18  1  0.67552667  0.32837645  0.48542026  1
  Ni  Ni19  1  0.33325290  0.67775448  0.52070468  1
  Ni  Ni20  1  0.32541735  0.66893734  0.81795730  1
  Cu  Cu21  1  0.99187814  0.99948330  0.35431265  1
  Cu  Cu22  1  0.00649255  0.00662971  0.85104471  1
  Cu  Cu23  1  0.66657411  0.33468906  0.67832867  1
  Cu  Cu24  1  0.67111727  0.33967218  0.17827512  1
  Cu  Cu25  1  0.33413048  0.66549287  0.01544134  1
  Cu  Cu26  1  0.32998181  0.66575005  0.32152283  1
  C  C27  1  0.70820830  0.70647297  0.25129364  1
  C  C28  1  0.99925371  0.29034568  0.25036298  1
  C  C29  1  0.29118431  0.29209907  0.75012161  1
  C  C30  1  0.99930770  0.71087889  0.75098069  1
  C  C31  1  0.70884904  0.99857440  0.75127445  1
  C  C32  1  0.96507770  0.33415742  0.58500007  1
  C  C33  1  0.37292373  0.04273622  0.58422643  1
  C  C34  1  0.66480962  0.62704010  0.58308837  1
  C  C35  1  0.95699058  0.62748693  0.08398119  1
  C  C36  1  0.66369549  0.03966109  0.08435331  1
  C  C37  1  0.37609495  0.33445957  0.08491572  1
  C  C38  1  0.03779443  0.37107524  0.91936208  1
  C  C39  1  0.33260577  0.96195373  0.91969957  1
  C  C40  1  0.62288656  0.96275497  0.41661621  1
  C  C41  1  0.03985744  0.66460060  0.41675932  1
  C  C42  1  0.28919863  0.00052198  0.24951956  1
  C  C43  1  0.62430160  0.66354602  0.91706133  1
  C  C44  1  0.33531030  0.37294523  0.41781522  1
  C  C45  1  0.20829462  0.02713130  0.30327371  1
  C  C46  1  0.81862680  0.78318359  0.30815186  1
  C  C47  1  0.97123218  0.17511785  0.30469686  1
  C  C48  1  0.21499731  0.17889919  0.80552566  1
  C  C49  1  0.96484130  0.78919050  0.80651764  1
  C  C50  1  0.82251555  0.03249402  0.80629177  1
  C  C51  1  0.79841048  0.96582548  0.69431074  1
  C  C52  1  0.16769848  0.20233879  0.69395963  1
  C  C53  1  0.03514167  0.83192220  0.69442952  1
  C  C54  1  0.81016496  0.83148989  0.19550352  1
  C  C55  1  0.02342146  0.19712598  0.19169917  1
  C  C56  1  0.18216819  0.97721964  0.19371675  1
  C  C57  1  0.89521347  0.37043794  0.64284604  1
  C  C58  1  0.47630539  0.10748804  0.64265924  1
  C  C59  1  0.63008970  0.52304424  0.64129265  1
  C  C60  1  0.88810333  0.52180491  0.14249716  1
  C  C61  1  0.63316578  0.11414542  0.14272621  1
  C  C62  1  0.47341067  0.35718832  0.14422243  1
  C  C63  1  0.46881952  0.30055196  0.03050216  1
  C  C64  1  0.83575008  0.53249652  0.02936237  1
  C  C65  1  0.70048414  0.16671573  0.02994108  1
  C  C66  1  0.47096310  0.16360314  0.52971569  1
  C  C67  1  0.69266201  0.53486568  0.52717440  1
  C  C68  1  0.83987769  0.30661954  0.53019649  1
  C  C69  1  0.54390866  0.68848327  0.97126083  1
  C  C70  1  0.14328550  0.45247746  0.97632825  1
  C  C71  1  0.31217279  0.85764914  0.97635855  1
  C  C72  1  0.52006144  0.83533988  0.46968954  1
  C  C73  1  0.31413000  0.46600622  0.46972973  1
  C  C74  1  0.16147378  0.68162453  0.47032873  1
  C  C75  1  0.10606202  0.62899263  0.35694353  1
  C  C76  1  0.52218859  0.89248315  0.35692548  1
  C  C77  1  0.37058977  0.47621787  0.36068211  1
  C  C78  1  0.13495436  0.49520309  0.86197831  1
  C  C79  1  0.36128607  0.86689041  0.86169337  1
  C  C80  1  0.51356032  0.63855339  0.86109083  1
  C  C81  1  0.01805976  0.82602927  0.41661419  1
  C  C82  1  0.80208218  0.97386599  0.41721424  1
  C  C83  1  0.17973756  0.19839791  0.41391444  1
  C  C84  1  0.01095041  0.18972838  0.91106485  1
  C  C85  1  0.17433555  0.98281261  0.91134265  1
  C  C86  1  0.80014594  0.81654586  0.91031731  1
  C  C87  1  0.97796372  0.16627179  0.58865824  1
  C  C88  1  0.18918973  0.02344593  0.58856387  1
  C  C89  1  0.83296204  0.81106830  0.58879944  1
  C  C90  1  0.97582289  0.81351753  0.08989566  1
  C  C91  1  0.83879815  0.03245008  0.08861969  1
  C  C92  1  0.18950843  0.15953292  0.08907186  1
  C  C93  1  0.68119001  0.15580218  0.74368031  1
  C  C94  1  0.47702786  0.32059421  0.74259557  1
  C  C95  1  0.84421564  0.52455735  0.74345319  1
  C  C96  1  0.68432207  0.52224190  0.24464201  1
  C  C97  1  0.83506834  0.30917654  0.24503056  1
  C  C98  1  0.46747912  0.15640284  0.24494746  1
  C  C99  1  0.63467967  0.49966885  0.92094082  1
  C  C100  1  0.85596499  0.36500663  0.92325477  1
  C  C101  1  0.50691828  0.14508691  0.92362006  1
  C  C102  1  0.64180093  0.14609820  0.42731999  1
  C  C103  1  0.49828856  0.36067913  0.42494770  1
  C  C104  1  0.85150451  0.49988589  0.42688832  1
  C  C105  1  0.34335698  0.48720582  0.07787825  1
  C  C106  1  0.14268711  0.65490868  0.07756953  1
  C  C107  1  0.50575066  0.85852640  0.07644294  1
  C  C108  1  0.34949272  0.85620655  0.57285334  1
  C  C109  1  0.50355721  0.65068227  0.57154597  1
  C  C110  1  0.14762439  0.49489934  0.57199689  1
  C  C111  1  0.30472208  0.84029737  0.25156712  1
  C  C112  1  0.52869574  0.69712639  0.25165945  1
  C  C113  1  0.16766904  0.47228556  0.25103978  1
  C  C114  1  0.30466839  0.47685876  0.75595127  1
  C  C115  1  0.17242646  0.69722013  0.75661311  1
  C  C116  1  0.52383546  0.82665818  0.75610863  1
