# generated using pymatgen
data_Cu12Ni2C3
_symmetry_space_group_name_H-M   'P 1'
_cell_length_a   9.44987649
_cell_length_b   9.45445518
_cell_length_c   23.87343156
_cell_angle_alpha   90.01167009
_cell_angle_beta   89.97452832
_cell_angle_gamma   119.95441428
_symmetry_Int_Tables_number   1
_chemical_formula_structural   Cu12Ni2C3
_chemical_formula_sum   'Cu72 Ni12 C18'
_cell_volume   1848.02306816
_cell_formula_units_Z   6
loop_
 _symmetry_equiv_pos_site_id
 _symmetry_equiv_pos_as_xyz
  1  'x, y, z'
loop_
 _atom_site_type_symbol
 _atom_site_label
 _atom_site_symmetry_multiplicity
 _atom_site_fract_x
 _atom_site_fract_y
 _atom_site_fract_z
 _atom_site_occupancy
  C  C0  1  0.99856140  0.99955269  0.35894707  1
  C  C1  1  0.99430437  0.00165601  0.86481946  1
  C  C2  1  0.99080365  0.99426358  0.65514020  1
  C  C3  1  0.00186090  0.00770621  0.14155633  1
  C  C4  1  0.66529536  0.32742039  0.70045711  1
  C  C5  1  0.67422225  0.33707968  0.19676171  1
  C  C6  1  0.67272362  0.33496107  0.47278288  1
  C  C7  1  0.33198397  0.66655399  0.02542124  1
  C  C8  1  0.32814146  0.67037305  0.53124820  1
  C  C9  1  0.66694964  0.33332151  0.96955279  1
  C  C10  1  0.32056312  0.65707206  0.31237304  1
  C  C11  1  0.34103394  0.67206109  0.82385952  1
  C  C12  1  0.02725437  0.30393035  0.25032211  1
  C  C13  1  0.68720523  0.96864993  0.75632162  1
  C  C14  1  0.60034539  0.63488105  0.91811619  1
  C  C15  1  0.03734572  0.40257226  0.91758016  1
  C  C16  1  0.36218262  0.96523052  0.91794864  1
  C  C17  1  0.05020812  0.65407112  0.41338036  1
  Ni  Ni18  1  0.28528638  0.96965221  0.25109931  1
  Ni  Ni19  1  0.68322973  0.71706887  0.25150780  1
  Ni  Ni20  1  0.28451428  0.32085796  0.75717620  1
  Ni  Ni21  1  0.03648097  0.71445053  0.75748252  1
  Ni  Ni22  1  0.94441401  0.31557424  0.58555107  1
  Ni  Ni23  1  0.37190149  0.05981956  0.58484362  1
  Ni  Ni24  1  0.68058110  0.62436172  0.58464249  1
  Ni  Ni25  1  0.91978697  0.61325362  0.07554237  1
  Ni  Ni26  1  0.68901117  0.07963091  0.07579738  1
  Ni  Ni27  1  0.39084655  0.31108086  0.07629427  1
  Ni  Ni28  1  0.59574019  0.94414654  0.41051431  1
  Ni  Ni29  1  0.35041313  0.40213432  0.41167456  1
  Cu  Cu30  1  0.21479326  0.00119132  0.30083995  1
  Cu  Cu31  1  0.78907304  0.78513106  0.30073590  1
  Cu  Cu32  1  0.99545611  0.19564626  0.30130903  1
  Cu  Cu33  1  0.21318332  0.20535034  0.80391466  1
  Cu  Cu34  1  0.99565395  0.78859042  0.80416011  1
  Cu  Cu35  1  0.80818259  0.01030974  0.80437175  1
  Cu  Cu36  1  0.75159726  0.92893052  0.70290951  1
  Cu  Cu37  1  0.18624526  0.25467948  0.70582010  1
  Cu  Cu38  1  0.06978443  0.81224810  0.70582902  1
  Cu  Cu39  1  0.75920518  0.81943226  0.20141547  1
  Cu  Cu40  1  0.06031761  0.23016355  0.19775663  1
  Cu  Cu41  1  0.18260902  0.94099185  0.20105794  1
  Cu  Cu42  1  0.85832973  0.33093231  0.63477172  1
  Cu  Cu43  1  0.47312384  0.14855132  0.63391522  1
  Cu  Cu44  1  0.66673206  0.52531509  0.63436511  1
  Cu  Cu45  1  0.84364621  0.51785986  0.12661261  1
  Cu  Cu46  1  0.67022352  0.15468662  0.12706947  1
  Cu  Cu47  1  0.48463454  0.32813335  0.12738265  1
  Cu  Cu48  1  0.47785900  0.29394125  0.02556680  1
  Cu  Cu49  1  0.81557008  0.52498870  0.02503357  1
  Cu  Cu50  1  0.70650866  0.18508343  0.02546276  1
  Cu  Cu51  1  0.44959533  0.14894590  0.53224086  1
  Cu  Cu52  1  0.69398748  0.54479008  0.53258154  1
  Cu  Cu53  1  0.85361939  0.30312951  0.53321083  1
  Cu  Cu54  1  0.54033931  0.67242800  0.97179763  1
  Cu  Cu55  1  0.13064206  0.46213772  0.97223904  1
  Cu  Cu56  1  0.32507401  0.86952312  0.97203344  1
  Cu  Cu57  1  0.52428366  0.85265804  0.46217505  1
  Cu  Cu58  1  0.33484588  0.47872086  0.46252995  1
  Cu  Cu59  1  0.15097133  0.67514535  0.46560754  1
  Cu  Cu60  1  0.15376974  0.64113844  0.36027028  1
  Cu  Cu61  1  0.49362473  0.84695765  0.36045189  1
  Cu  Cu62  1  0.36022891  0.50651810  0.36063298  1
  Cu  Cu63  1  0.13474408  0.52960706  0.87020418  1
  Cu  Cu64  1  0.39456438  0.86644071  0.87067489  1
  Cu  Cu65  1  0.47123579  0.60405522  0.87046668  1
  Cu  Cu66  1  0.03027442  0.80189660  0.40230399  1
  Cu  Cu67  1  0.76179629  0.96975318  0.40364533  1
  Cu  Cu68  1  0.20720571  0.23901586  0.40451443  1
  Cu  Cu69  1  0.99644606  0.23170042  0.90142687  1
  Cu  Cu70  1  0.23497863  0.00675611  0.89928659  1
  Cu  Cu71  1  0.77037428  0.76195388  0.90046248  1
  Cu  Cu72  1  0.95878832  0.16751048  0.59058648  1
  Cu  Cu73  1  0.20843309  0.04243298  0.59046356  1
  Cu  Cu74  1  0.82924688  0.78730762  0.58928009  1
  Cu  Cu75  1  0.92787945  0.77315765  0.07980720  1
  Cu  Cu76  1  0.84081071  0.07050695  0.07914738  1
  Cu  Cu77  1  0.22951248  0.15943434  0.07962193  1
  Cu  Cu78  1  0.64279097  0.10197805  0.74574519  1
  Cu  Cu79  1  0.45591167  0.36432786  0.74761917  1
  Cu  Cu80  1  0.90645152  0.54434428  0.74807487  1
  Cu  Cu81  1  0.64553077  0.54765945  0.24154152  1
  Cu  Cu82  1  0.89226885  0.34542164  0.24014234  1
  Cu  Cu83  1  0.45331621  0.10291086  0.24164137  1
  Cu  Cu84  1  0.60439312  0.46814491  0.92746991  1
  Cu  Cu85  1  0.86310798  0.39428233  0.92722752  1
  Cu  Cu86  1  0.52953226  0.13665277  0.92763125  1
  Cu  Cu87  1  0.59874288  0.10096280  0.41005066  1
  Cu  Cu88  1  0.50138691  0.39419138  0.41063124  1
  Cu  Cu89  1  0.88707301  0.49501933  0.41303185  1
  Cu  Cu90  1  0.36977725  0.45384942  0.06979473  1
  Cu  Cu91  1  0.08385223  0.63494524  0.06918572  1
  Cu  Cu92  1  0.54671069  0.91612284  0.06900038  1
  Cu  Cu93  1  0.35655875  0.89539835  0.58262196  1
  Cu  Cu94  1  0.53422016  0.64332426  0.58044162  1
  Cu  Cu95  1  0.10993689  0.46158575  0.58236622  1
  Cu  Cu96  1  0.29557046  0.81497053  0.26130702  1
  Cu  Cu97  1  0.52213047  0.71034172  0.26263908  1
  Cu  Cu98  1  0.18858949  0.47678826  0.26402930  1
  Cu  Cu99  1  0.28410208  0.47728045  0.77281767  1
  Cu  Cu100  1  0.19279976  0.71293221  0.77253521  1
  Cu  Cu101  1  0.52205346  0.80739883  0.77577658  1
