# generated using pymatgen
data_Cu2NiC8
_symmetry_space_group_name_H-M   'P 1'
_cell_length_a   6.45448700
_cell_length_b   6.40450276
_cell_length_c   5.94992992
_cell_angle_alpha   58.41164944
_cell_angle_beta   57.15280974
_cell_angle_gamma   59.74148494
_symmetry_Int_Tables_number   1
_chemical_formula_structural   Cu2NiC8
_chemical_formula_sum   'Cu2 Ni1 C8'
_cell_volume   167.51057848
_cell_formula_units_Z   1
loop_
 _symmetry_equiv_pos_site_id
 _symmetry_equiv_pos_as_xyz
  1  'x, y, z'
loop_
 _atom_site_type_symbol
 _atom_site_label
 _atom_site_symmetry_multiplicity
 _atom_site_fract_x
 _atom_site_fract_y
 _atom_site_fract_z
 _atom_site_occupancy
  C  C0  1  0.00000000  0.00000000  0.00000000  1
  C  C1  1  0.50000000  0.00000000  0.00000000  1
  Ni  Ni2  1  0.50000000  0.50000000  0.50000000  1
  Cu  Cu3  1  0.17531900  0.35786200  0.29149900  1
  Cu  Cu4  1  0.82468100  0.64213800  0.70850100  1
  C  C5  1  0.27259900  0.76465500  0.26301300  1
  C  C6  1  0.69973300  0.76465500  0.26301300  1
  C  C7  1  0.72740100  0.23534500  0.73698700  1
  C  C8  1  0.30026700  0.23534500  0.73698700  1
  C  C9  1  0.73803200  0.32075700  0.20318100  1
  C  C10  1  0.26196800  0.67924300  0.79681900  1
