# generated using pymatgen
data_CuNiC3
_symmetry_space_group_name_H-M   'P 1'
_cell_length_a   3.18680098
_cell_length_b   3.18680098
_cell_length_c   8.17023258
_cell_angle_alpha   80.35488077
_cell_angle_beta   80.35488077
_cell_angle_gamma   60.08283831
_symmetry_Int_Tables_number   1
_chemical_formula_structural   CuNiC3
_chemical_formula_sum   'Cu1 Ni1 C3'
_cell_volume   70.55800493
_cell_formula_units_Z   1
loop_
 _symmetry_equiv_pos_site_id
 _symmetry_equiv_pos_as_xyz
  1  'x, y, z'
loop_
 _atom_site_type_symbol
 _atom_site_label
 _atom_site_symmetry_multiplicity
 _atom_site_fract_x
 _atom_site_fract_y
 _atom_site_fract_z
 _atom_site_occupancy
  C  C0  1  0.53111572  0.53111572  0.41282071  1
  Ni  Ni1  1  0.10694956  0.10694956  0.71921527  1
  Cu  Cu2  1  0.95343310  0.95343310  0.09960649  1
  C  C3  1  0.25468721  0.25468721  0.21408863  1
  C  C4  1  0.79964742  0.79964742  0.62569790  1
