# generated using pymatgen
data_CuNi4C9
_symmetry_space_group_name_H-M   'P 1'
_cell_length_a   6.12723000
_cell_length_b   10.68874400
_cell_length_c   14.06564600
_cell_angle_alpha   90.00000000
_cell_angle_beta   90.00000000
_cell_angle_gamma   90.00000000
_symmetry_Int_Tables_number   1
_chemical_formula_structural   CuNi4C9
_chemical_formula_sum   'Cu4 Ni16 C36'
_cell_volume   921.19281421
_cell_formula_units_Z   4
loop_
 _symmetry_equiv_pos_site_id
 _symmetry_equiv_pos_as_xyz
  1  'x, y, z'
loop_
 _atom_site_type_symbol
 _atom_site_label
 _atom_site_symmetry_multiplicity
 _atom_site_fract_x
 _atom_site_fract_y
 _atom_site_fract_z
 _atom_site_occupancy
  Ni  Ni0  1  0.78761400  0.12058400  0.23018200  1
  Ni  Ni1  1  0.28761400  0.87941600  0.26981800  1
  Ni  Ni2  1  0.21238600  0.62058400  0.76981800  1
  Ni  Ni3  1  0.71238600  0.37941600  0.73018200  1
  Ni  Ni4  1  0.78761400  0.37941600  0.23018200  1
  Ni  Ni5  1  0.28761400  0.62058400  0.26981800  1
  Ni  Ni6  1  0.21238600  0.87941600  0.76981800  1
  Ni  Ni7  1  0.42016500  0.75000000  0.23121100  1
  Ni  Ni8  1  0.82525700  0.75000000  0.77812000  1
  Ni  Ni9  1  0.32525700  0.25000000  0.72188000  1
  Ni  Ni10  1  0.17474300  0.25000000  0.22188000  1
  Ni  Ni11  1  0.67474300  0.75000000  0.27812000  1
  Ni  Ni12  1  0.07983500  0.75000000  0.73121100  1
  Ni  Ni13  1  0.57983500  0.25000000  0.76878900  1
  Ni  Ni14  1  0.92016500  0.25000000  0.26878900  1
  Ni  Ni15  1  0.71238600  0.12058400  0.73018200  1
  Cu  Cu16  1  0.07153500  0.75000000  0.59992800  1
  Cu  Cu17  1  0.57153500  0.25000000  0.90007200  1
  Cu  Cu18  1  0.92846500  0.25000000  0.40007200  1
  Cu  Cu19  1  0.42846500  0.75000000  0.09992800  1
  C  C20  1  0.29673900  0.75000000  0.54939400  1
  C  C21  1  0.54374300  0.63739800  0.05158000  1
  C  C22  1  0.95625700  0.86260200  0.55158000  1
  C  C23  1  0.45625700  0.13739800  0.94842000  1
  C  C24  1  0.95625700  0.63739800  0.55158000  1
  C  C25  1  0.45625700  0.36260200  0.94842000  1
  C  C26  1  0.04374300  0.13739800  0.44842000  1
  C  C27  1  0.54374300  0.86260200  0.05158000  1
  C  C28  1  0.85903600  0.75000000  0.22491300  1
  C  C29  1  0.04374300  0.36260200  0.44842000  1
  C  C30  1  0.14096400  0.25000000  0.77508700  1
  C  C31  1  0.64096400  0.75000000  0.72491300  1
  C  C32  1  0.70816800  0.75000000  0.37195400  1
  C  C33  1  0.20816800  0.25000000  0.12804600  1
  C  C34  1  0.29183200  0.25000000  0.62804600  1
  C  C35  1  0.79183200  0.75000000  0.87195400  1
  C  C36  1  0.21231600  0.52973800  0.21122700  1
  C  C37  1  0.71231600  0.47026200  0.28877300  1
  C  C38  1  0.78768400  0.02973800  0.78877300  1
  C  C39  1  0.28768400  0.97026200  0.71122700  1
  C  C40  1  0.78768400  0.47026200  0.78877300  1
  C  C41  1  0.28768400  0.52973800  0.71122700  1
  C  C42  1  0.21231600  0.97026200  0.21122700  1
  C  C43  1  0.71231600  0.02973800  0.28877300  1
  C  C44  1  0.24969900  0.60031000  0.36210900  1
  C  C45  1  0.74969900  0.39969000  0.13789100  1
  C  C46  1  0.75030100  0.10031000  0.63789100  1
  C  C47  1  0.25030100  0.89969000  0.86210900  1
  C  C48  1  0.75030100  0.39969000  0.63789100  1
  C  C49  1  0.25030100  0.60031000  0.86210900  1
  C  C50  1  0.24969900  0.89969000  0.36210900  1
  C  C51  1  0.74969900  0.10031000  0.13789100  1
  C  C52  1  0.70326100  0.25000000  0.45060600  1
  C  C53  1  0.20326100  0.75000000  0.04939400  1
  C  C54  1  0.35903600  0.25000000  0.27508700  1
  C  C55  1  0.79673900  0.25000000  0.95060600  1
