# generated using pymatgen
data_Cu6Ni3C26
_symmetry_space_group_name_H-M   'P 1'
_cell_length_a   8.72775806
_cell_length_b   8.72775778
_cell_length_c   22.79941376
_cell_angle_alpha   90.00000000
_cell_angle_beta   90.00000000
_cell_angle_gamma   120.00000108
_symmetry_Int_Tables_number   1
_chemical_formula_structural   Cu6Ni3C26
_chemical_formula_sum   'Cu18 Ni9 C78'
_cell_volume   1504.04105306
_cell_formula_units_Z   3
loop_
 _symmetry_equiv_pos_site_id
 _symmetry_equiv_pos_as_xyz
  1  'x, y, z'
loop_
 _atom_site_type_symbol
 _atom_site_label
 _atom_site_symmetry_multiplicity
 _atom_site_fract_x
 _atom_site_fract_y
 _atom_site_fract_z
 _atom_site_occupancy
  C  C0  1  0.00000000  -0.00000000  0.99812698  1
  C  C1  1  0.66666700  0.33333300  0.83385273  1
  C  C2  1  0.66666700  0.33333300  0.33313606  1
  C  C3  1  0.00000000  -0.00000000  0.64518365  1
  C  C4  1  0.00000000  -0.00000000  0.14664367  1
  C  C5  1  0.33333300  0.66666700  0.52122602  1
  Ni  Ni6  1  0.00000000  -0.00000000  0.35551152  1
  Ni  Ni7  1  0.00000000  -0.00000000  0.85291250  1
  Ni  Ni8  1  0.66666700  0.33333300  0.68597646  1
  Ni  Ni9  1  0.66666700  0.33333300  0.18558341  1
  Ni  Ni10  1  0.66666700  0.33333300  0.98049661  1
  Ni  Ni11  1  0.66666700  0.33333300  0.48051852  1
  Ni  Ni12  1  0.33333300  0.66666700  0.02056857  1
  Ni  Ni13  1  0.33333300  0.66666700  0.31107617  1
  Ni  Ni14  1  0.33333300  0.66666700  0.81167620  1
  Cu  Cu15  1  0.28992881  0.00063138  0.25080090  1
  Cu  Cu16  1  0.71070257  0.71007119  0.25080090  1
  Cu  Cu17  1  0.99936862  0.28929743  0.25080090  1
  Cu  Cu18  1  0.28989188  0.28978593  0.75023008  1
  Cu  Cu19  1  -0.00010595  0.71010812  0.75023008  1
  Cu  Cu20  1  0.71021407  0.00010595  0.75023008  1
  Cu  Cu21  1  0.95494388  0.33343008  0.58336292  1
  Cu  Cu22  1  0.37848719  0.04505612  0.58336292  1
  Cu  Cu23  1  0.66656992  0.62151281  0.58336292  1
  Cu  Cu24  1  0.95723285  0.62226674  0.08318740  1
  Cu  Cu25  1  0.66503489  0.04276715  0.08318740  1
  Cu  Cu26  1  0.37773326  0.33496511  0.08318740  1
  Cu  Cu27  1  0.62328650  0.66661478  0.91650054  1
  Cu  Cu28  1  0.04332728  0.37671350  0.91650054  1
  Cu  Cu29  1  0.33338522  0.95667272  0.91650054  1
  Cu  Cu30  1  0.62239470  0.95574123  0.41603755  1
  Cu  Cu31  1  0.33334553  0.37760530  0.41603755  1
  Cu  Cu32  1  0.04425877  0.66665447  0.41603755  1
  C  C33  1  0.21116743  0.03758982  0.30544129  1
  C  C34  1  0.82642239  0.78883257  0.30544129  1
  C  C35  1  0.96241018  0.17357761  0.30544129  1
  C  C36  1  0.21268696  0.17480538  0.80509297  1
  C  C37  1  0.96211842  0.78731304  0.80509297  1
  C  C38  1  0.82519462  0.03788158  0.80509297  1
  C  C39  1  0.80351865  0.97548003  0.69536682  1
  C  C40  1  0.17196138  0.19648135  0.69536682  1
  C  C41  1  0.02451997  0.82803862  0.69536682  1
  C  C42  1  0.80326426  0.82789764  0.19573181  1
  C  C43  1  0.02463339  0.19673574  0.19573181  1
  C  C44  1  0.17210236  0.97536661  0.19573181  1
  C  C45  1  0.88110947  0.37321635  0.63816131  1
  C  C46  1  0.49210787  0.11889053  0.63816131  1
  C  C47  1  0.62678365  0.50789213  0.63816131  1
  C  C48  1  0.87804889  0.51119966  0.13855970  1
  C  C49  1  0.63315177  0.12195111  0.13855970  1
  C  C50  1  0.48880034  0.36684823  0.13855970  1
  C  C51  1  0.45015317  0.29091074  0.02819058  1
  C  C52  1  0.84075857  0.54984683  0.02819058  1
  C  C53  1  0.70908926  0.15924143  0.02819058  1
  C  C54  1  0.45238692  0.15900679  0.52844763  1
  C  C55  1  0.70662087  0.54761308  0.52844763  1
  C  C56  1  0.84099321  0.29337913  0.52844763  1
  C  C57  1  0.54567635  0.70097486  0.97223068  1
  C  C58  1  0.15529752  0.45432365  0.97223068  1
  C  C59  1  0.29902514  0.84470248  0.97223068  1
  C  C60  1  0.52972867  0.83868108  0.47121945  1
  C  C61  1  0.30895141  0.47027133  0.47121945  1
  C  C62  1  0.16131892  0.69104859  0.47121945  1
  C  C63  1  0.12224775  0.62907189  0.36130578  1
  C  C64  1  0.50682313  0.87775225  0.36130578  1
  C  C65  1  0.37092811  0.49317687  0.36130578  1
  C  C66  1  0.12129499  0.48913542  0.86084770  1
  C  C67  1  0.36783943  0.87870501  0.86084770  1
  C  C68  1  0.51086458  0.63216057  0.86084770  1
  C  C69  1  0.02961842  0.83238119  0.41100537  1
  C  C70  1  0.80276278  0.97038158  0.41100537  1
  C  C71  1  0.16761881  0.19723722  0.41100537  1
  C  C72  1  0.02413815  0.19098181  0.91118315  1
  C  C73  1  0.16684366  0.97586185  0.91118315  1
  C  C74  1  0.80901819  0.83315634  0.91118315  1
  C  C75  1  0.97842022  0.17126569  0.59447912  1
  C  C76  1  0.19284547  0.02157978  0.59447912  1
  C  C77  1  0.82873431  0.80715453  0.59447912  1
  C  C78  1  0.97569876  0.80908477  0.09275880  1
  C  C79  1  0.83338601  0.02430124  0.09275880  1
  C  C80  1  0.19091523  0.16661399  0.09275880  1
  C  C81  1  0.69289857  0.16670680  0.74301209  1
  C  C82  1  0.47380924  0.30710143  0.74301209  1
  C  C83  1  0.83329320  0.52619076  0.74301209  1
  C  C84  1  0.69278522  0.52599822  0.24336627  1
  C  C85  1  0.83321400  0.30721478  0.24336627  1
  C  C86  1  0.47400178  0.16678600  0.24336627  1
  C  C87  1  0.64227522  0.49998242  0.92212980  1
  C  C88  1  0.85770820  0.35772478  0.92212980  1
  C  C89  1  0.50001758  0.14229180  0.92212980  1
  C  C90  1  0.64018197  0.14023408  0.42346790  1
  C  C91  1  0.50005310  0.35981803  0.42346790  1
  C  C92  1  0.85976592  0.49994690  0.42346790  1
  C  C93  1  0.35412079  0.49502752  0.07561924  1
  C  C94  1  0.14090573  0.64587921  0.07561924  1
  C  C95  1  0.50497248  0.85909427  0.07561924  1
  C  C96  1  0.35482919  0.85933107  0.57219633  1
  C  C97  1  0.50450087  0.64517081  0.57219633  1
  C  C98  1  0.14066893  0.49549913  0.57219633  1
  C  C99  1  0.30374953  0.83394515  0.25587204  1
  C  C100  1  0.53019463  0.69625047  0.25587204  1
  C  C101  1  0.16605485  0.46980537  0.25587204  1
  C  C102  1  0.30398131  0.47028746  0.75558709  1
  C  C103  1  0.16630515  0.69601869  0.75558709  1
  C  C104  1  0.52971254  0.83369485  0.75558709  1
