# generated using pymatgen
data_CuNi11C7
_symmetry_space_group_name_H-M   'P 1'
_cell_length_a   10.71486156
_cell_length_b   7.66978099
_cell_length_c   2.94190200
_cell_angle_alpha   90.00000000
_cell_angle_beta   90.00000000
_cell_angle_gamma   67.97362864
_symmetry_Int_Tables_number   1
_chemical_formula_structural   CuNi11C7
_chemical_formula_sum   'Cu1 Ni11 C7'
_cell_volume   224.12111471
_cell_formula_units_Z   1
loop_
 _symmetry_equiv_pos_site_id
 _symmetry_equiv_pos_as_xyz
  1  'x, y, z'
loop_
 _atom_site_type_symbol
 _atom_site_label
 _atom_site_symmetry_multiplicity
 _atom_site_fract_x
 _atom_site_fract_y
 _atom_site_fract_z
 _atom_site_occupancy
  C  C0  1  0.48916900  0.51088200  0.50000000  1
  C  C1  1  0.98715500  0.06612600  0.00000000  1
  C  C2  1  0.01307300  0.47876500  0.50000000  1
  C  C3  1  0.33263200  0.27065700  0.00000000  1
  C  C4  1  0.67223500  0.11522500  0.50000000  1
  C  C5  1  0.30922100  0.86834600  0.50000000  1
  C  C6  1  0.69164300  0.69429300  0.00000000  1
  Ni  Ni7  1  0.00903800  0.31236700  0.00000000  1
  Ni  Ni8  1  0.33034900  0.02347800  0.00000000  1
  Ni  Ni9  1  0.01165300  0.63285700  0.00000000  1
  Ni  Ni10  1  0.21032400  0.38100000  0.50000000  1
  Ni  Ni11  1  0.46437500  0.26138300  0.50000000  1
  Ni  Ni12  1  0.11130300  0.95516500  0.50000000  1
  Ni  Ni13  1  0.36225600  0.66660600  0.00000000  1
  Ni  Ni14  1  0.85683900  0.10707000  0.50000000  1
  Ni  Ni15  1  0.57118800  0.70992500  0.50000000  1
  Ni  Ni16  1  0.81506000  0.59108400  0.50000000  1
  Ni  Ni17  1  0.68048900  0.95613500  0.00000000  1
  Cu  Cu18  1  0.63199700  0.35863300  0.00000000  1
