# generated using pymatgen
data_Cu12Ni12C13
_symmetry_space_group_name_H-M   'P 1'
_cell_length_a   9.71576602
_cell_length_b   14.59224785
_cell_length_c   3.10801100
_cell_angle_alpha   90.00000000
_cell_angle_beta   90.00000000
_cell_angle_gamma   87.58719171
_symmetry_Int_Tables_number   1
_chemical_formula_structural   Cu12Ni12C13
_chemical_formula_sum   'Cu12 Ni12 C13'
_cell_volume   440.24719241
_cell_formula_units_Z   1
loop_
 _symmetry_equiv_pos_site_id
 _symmetry_equiv_pos_as_xyz
  1  'x, y, z'
loop_
 _atom_site_type_symbol
 _atom_site_label
 _atom_site_symmetry_multiplicity
 _atom_site_fract_x
 _atom_site_fract_y
 _atom_site_fract_z
 _atom_site_occupancy
  C  C0  1  0.97925800  0.18199100  0.50000000  1
  C  C1  1  0.02336000  0.00346900  0.00000000  1
  C  C2  1  0.04000900  0.35679400  0.00000000  1
  C  C3  1  0.00071700  0.66381200  0.00000000  1
  C  C4  1  0.25556200  0.17774800  0.50000000  1
  C  C5  1  0.26870200  0.49359300  0.50000000  1
  C  C6  1  0.24496100  0.84213900  0.50000000  1
  C  C7  1  0.51424400  0.34430700  0.00000000  1
  C  C8  1  0.47566000  0.98119900  0.00000000  1
  C  C9  1  0.51909100  0.66527700  0.00000000  1
  C  C10  1  0.69917500  0.06142300  0.50000000  1
  C  C11  1  0.73032600  0.49765600  0.50000000  1
  C  C12  1  0.72464600  0.82539900  0.50000000  1
  Ni  Ni13  1  0.11033900  0.28788200  0.50000000  1
  Ni  Ni14  1  0.09667600  0.93466800  0.50000000  1
  Ni  Ni15  1  0.11232500  0.12037600  0.00000000  1
  Ni  Ni16  1  0.16572600  0.45363100  0.00000000  1
  Ni  Ni17  1  0.34443700  0.88860600  0.00000000  1
  Ni  Ni18  1  0.41636700  0.40352900  0.50000000  1
  Ni  Ni19  1  0.59909900  0.94152800  0.50000000  1
  Ni  Ni20  1  0.59936000  0.60462700  0.50000000  1
  Ni  Ni21  1  0.59968100  0.09219800  0.00000000  1
  Ni  Ni22  1  0.66504100  0.43421900  0.00000000  1
  Ni  Ni23  1  0.64025000  0.77089900  0.00000000  1
  Ni  Ni24  1  0.89090300  0.05967300  0.50000000  1
  Cu  Cu25  1  0.11620500  0.60825000  0.50000000  1
  Cu  Cu26  1  0.15196700  0.77020100  0.00000000  1
  Cu  Cu27  1  0.37095800  0.23622700  0.00000000  1
  Cu  Cu28  1  0.35682500  0.57327800  0.00000000  1
  Cu  Cu29  1  0.37057800  0.05075900  0.50000000  1
  Cu  Cu30  1  0.39480900  0.72854800  0.50000000  1
  Cu  Cu31  1  0.60367000  0.27434800  0.50000000  1
  Cu  Cu32  1  0.89052100  0.24860800  0.00000000  1
  Cu  Cu33  1  0.83021300  0.89183800  0.00000000  1
  Cu  Cu34  1  0.84487700  0.56557100  0.00000000  1
  Cu  Cu35  1  0.91767000  0.41632700  0.50000000  1
  Cu  Cu36  1  0.89293500  0.73458400  0.50000000  1
