# generated using pymatgen
data_Cu2NiC10
_symmetry_space_group_name_H-M   'P 1'
_cell_length_a   6.66215308
_cell_length_b   6.64808737
_cell_length_c   6.40009702
_cell_angle_alpha   82.39358500
_cell_angle_beta   106.47317350
_cell_angle_gamma   58.94298348
_symmetry_Int_Tables_number   1
_chemical_formula_structural   Cu2NiC10
_chemical_formula_sum   'Cu2 Ni1 C10'
_cell_volume   219.05692294
_cell_formula_units_Z   1
loop_
 _symmetry_equiv_pos_site_id
 _symmetry_equiv_pos_as_xyz
  1  'x, y, z'
loop_
 _atom_site_type_symbol
 _atom_site_label
 _atom_site_symmetry_multiplicity
 _atom_site_fract_x
 _atom_site_fract_y
 _atom_site_fract_z
 _atom_site_occupancy
  C  C0  1  0.54698527  0.61481144  0.54464814  1
  C  C1  1  0.33827114  0.28751301  0.42010155  1
  C  C2  1  0.62451980  0.69498945  0.04873672  1
  C  C3  1  0.48239169  0.31456850  0.91623973  1
  Ni  Ni4  1  0.00302589  0.78257169  0.91876155  1
  Cu  Cu5  1  0.93264580  0.95225066  0.43204322  1
  Cu  Cu6  1  0.07826920  0.17994725  0.99114030  1
  C  C7  1  0.25994968  0.73376916  0.77572104  1
  C  C8  1  0.15975710  0.71934775  0.25642319  1
  C  C9  1  0.88760916  0.57284938  0.83890237  1
  C  C10  1  0.72894821  0.14607522  0.72568163  1
  C  C11  1  0.48053951  0.04841348  0.18159826  1
  C  C12  1  0.95454954  0.25668102  0.27615629  1
