# generated using pymatgen
data_Cu8NiC32
_symmetry_space_group_name_H-M   'P 1'
_cell_length_a   5.58181747
_cell_length_b   11.18698618
_cell_length_c   11.16794684
_cell_angle_alpha   54.05206347
_cell_angle_beta   54.19643930
_cell_angle_gamma   53.95020817
_symmetry_Int_Tables_number   1
_chemical_formula_structural   Cu8NiC32
_chemical_formula_sum   'Cu8 Ni1 C32'
_cell_volume   424.78098921
_cell_formula_units_Z   1
loop_
 _symmetry_equiv_pos_site_id
 _symmetry_equiv_pos_as_xyz
  1  'x, y, z'
loop_
 _atom_site_type_symbol
 _atom_site_label
 _atom_site_symmetry_multiplicity
 _atom_site_fract_x
 _atom_site_fract_y
 _atom_site_fract_z
 _atom_site_occupancy
  Ni  Ni0  1  0.49452800  0.74864400  0.25062300  1
  C  C1  1  0.35435100  0.17900600  0.16944900  1
  C  C2  1  0.15612500  0.06728000  0.57438700  1
  C  C3  1  0.15461000  0.57161900  0.05665400  1
  C  C4  1  0.12563800  0.56790500  0.58654000  1
  C  C5  1  0.85437000  0.41642500  0.43647500  1
  C  C6  1  0.86094700  0.42059700  0.92604800  1
  C  C7  1  0.85453500  0.93883500  0.42387500  1
  C  C8  1  0.83253500  0.94029700  0.91805100  1
  Cu  Cu9  1  0.14402900  0.07497800  0.07102600  1
  Cu  Cu10  1  0.31300800  0.66881200  0.16476600  1
  Cu  Cu11  1  0.36069300  0.17036800  0.67587100  1
  Cu  Cu12  1  0.64116300  0.33200900  0.32374000  1
  Cu  Cu13  1  0.34687900  0.67658600  0.67028600  1
  Cu  Cu14  1  0.65146200  0.32440700  0.82205800  1
  Cu  Cu15  1  0.67943000  0.82913500  0.33468900  1
  Cu  Cu16  1  0.63999100  0.82312200  0.82822000  1
  C  C17  1  0.06070300  0.37672500  0.21316100  1
  C  C18  1  0.45115300  0.03663300  0.37050100  1
  C  C19  1  0.72966600  0.21996600  0.03334200  1
  C  C20  1  0.23213200  0.28260300  0.47291200  1
  C  C21  1  0.54204600  0.46991100  0.11429600  1
  C  C22  1  0.05761900  0.37564300  0.72335500  1
  C  C23  1  0.07654800  0.86766300  0.22738300  1
  C  C24  1  0.95168800  0.11978800  0.28596900  1
  C  C25  1  0.46210400  0.02059300  0.87503900  1
  C  C26  1  0.42850100  0.53559300  0.38022100  1
  C  C27  1  0.77294900  0.22388300  0.52378100  1
  C  C28  1  0.74104800  0.71320500  0.03980600  1
  C  C29  1  0.22986400  0.28203500  0.97705100  1
  C  C30  1  0.24831800  0.78467100  0.46233000  1
  C  C31  1  0.56115000  0.47208100  0.61503300  1
  C  C32  1  0.57488200  0.96184200  0.12385000  1
  C  C33  1  0.05949900  0.88442800  0.71420400  1
  C  C34  1  0.94802700  0.11519800  0.77952600  1
  C  C35  1  0.91367300  0.61852800  0.28292800  1
  C  C36  1  0.43945700  0.52649700  0.87595200  1
  C  C37  1  0.76258000  0.71983800  0.53502200  1
  C  C38  1  0.21947700  0.77623800  0.96577300  1
  C  C39  1  0.56351500  0.97238600  0.61640400  1
  C  C40  1  0.94960900  0.61426700  0.77965400  1
