# generated using pymatgen
data_CuNi5C31
_symmetry_space_group_name_H-M   'P 1'
_cell_length_a   9.07106586
_cell_length_b   8.74353274
_cell_length_c   8.66916269
_cell_angle_alpha   60.14810528
_cell_angle_beta   59.46381119
_cell_angle_gamma   58.90160583
_symmetry_Int_Tables_number   1
_chemical_formula_structural   CuNi5C31
_chemical_formula_sum   'Cu1 Ni5 C31'
_cell_volume   480.59689190
_cell_formula_units_Z   1
loop_
 _symmetry_equiv_pos_site_id
 _symmetry_equiv_pos_as_xyz
  1  'x, y, z'
loop_
 _atom_site_type_symbol
 _atom_site_label
 _atom_site_symmetry_multiplicity
 _atom_site_fract_x
 _atom_site_fract_y
 _atom_site_fract_z
 _atom_site_occupancy
  C  C0  1  0.13645800  0.62710700  0.60778100  1
  Ni  Ni1  1  0.99502900  0.99237100  0.00510000  1
  Ni  Ni2  1  0.76707300  0.74975700  0.76713200  1
  Ni  Ni3  1  0.52667300  0.49800200  0.49375700  1
  Ni  Ni4  1  0.39732200  0.85913500  0.86005700  1
  Ni  Ni5  1  0.96486800  0.34730300  0.34860300  1
  Cu  Cu6  1  0.57351200  0.13886400  0.14195600  1
  C  C7  1  0.26780800  0.24312100  0.53830800  1
  C  C8  1  0.27968100  0.95424100  0.23773800  1
  C  C9  1  0.25847100  0.52984300  0.96033000  1
  C  C10  1  0.74972300  0.44512000  0.05080900  1
  C  C11  1  0.77370500  0.05404600  0.73400500  1
  C  C12  1  0.76726200  0.74582500  0.44741300  1
  C  C13  1  0.10215500  0.09765100  0.32766100  1
  C  C14  1  0.08551500  0.47633900  0.09599100  1
  C  C15  1  0.08806000  0.32337600  0.50608400  1
  C  C16  1  0.23088600  0.08208400  0.74050000  1
  C  C17  1  0.43544800  0.15025600  0.39562300  1
  C  C18  1  0.30639900  0.38696900  0.55287000  1
  C  C19  1  0.23913700  0.95145900  0.08156500  1
  C  C20  1  0.31085800  0.75568000  0.38815700  1
  C  C21  1  0.58852300  0.62836300  0.98321000  1
  C  C22  1  0.29880100  0.54525800  0.75716400  1
  C  C23  1  0.76126700  0.25923800  0.06195200  1
  C  C24  1  0.61015700  0.00443100  0.77632500  1
  C  C25  1  0.45010000  0.00325300  0.15185900  1
  C  C26  1  0.21116100  0.72959500  0.96104700  1
  C  C27  1  0.73337200  0.43990000  0.23587500  1
  C  C28  1  0.42777400  0.39095400  0.01854200  1
  C  C29  1  0.76846600  0.23871300  0.56978700  1
  C  C30  1  0.77516500  0.06733100  0.90280500  1
  C  C31  1  0.76635900  0.57828600  0.42873500  1
  C  C32  1  0.59436700  0.79450100  0.62060700  1
  C  C33  1  0.77068900  0.90824800  0.25609900  1
  C  C34  1  0.92909500  0.70407700  0.49689000  1
  C  C35  1  0.91733000  0.49834500  0.87701900  1
  C  C36  1  0.93820800  0.87127400  0.69095900  1
