# generated using pymatgen
data_Cu2NiC3
_symmetry_space_group_name_H-M   'P 1'
_cell_length_a   9.30551900
_cell_length_b   7.00918000
_cell_length_c   9.16053538
_cell_angle_alpha   69.07718165
_cell_angle_beta   90.00000000
_cell_angle_gamma   90.00000000
_symmetry_Int_Tables_number   1
_chemical_formula_structural   Cu2NiC3
_chemical_formula_sum   'Cu8 Ni4 C12'
_cell_volume   558.09036687
_cell_formula_units_Z   4
loop_
 _symmetry_equiv_pos_site_id
 _symmetry_equiv_pos_as_xyz
  1  'x, y, z'
loop_
 _atom_site_type_symbol
 _atom_site_label
 _atom_site_symmetry_multiplicity
 _atom_site_fract_x
 _atom_site_fract_y
 _atom_site_fract_z
 _atom_site_occupancy
  C  C0  1  0.28659700  0.73621900  0.18239400  1
  C  C1  1  0.06932100  0.24331900  0.02202500  1
  C  C2  1  0.43067900  0.24331900  0.52202500  1
  C  C3  1  0.56932100  0.75668100  0.47797500  1
  C  C4  1  0.97290400  0.77825500  0.38878700  1
  C  C5  1  0.47290400  0.22174500  0.11121300  1
  C  C6  1  0.02709600  0.22174500  0.61121300  1
  C  C7  1  0.52709600  0.77825500  0.88878700  1
  C  C8  1  0.21340300  0.73621900  0.68239400  1
  C  C9  1  0.71340300  0.26378100  0.81760600  1
  C  C10  1  0.93067900  0.75668100  0.97797500  1
  C  C11  1  0.78659700  0.26378100  0.31760600  1
  Ni  Ni12  1  0.17133200  0.22484500  0.31776200  1
  Ni  Ni13  1  0.67133200  0.77515500  0.18223800  1
  Ni  Ni14  1  0.32866800  0.22484500  0.81776200  1
  Ni  Ni15  1  0.82866800  0.77515500  0.68223800  1
  Cu  Cu16  1  0.43860200  0.44667400  0.76834900  1
  Cu  Cu17  1  0.93860200  0.55332600  0.73165100  1
  Cu  Cu18  1  0.56139800  0.55332600  0.23165100  1
  Cu  Cu19  1  0.06139800  0.44667400  0.26834900  1
  Cu  Cu20  1  0.27550800  0.99727600  0.36466200  1
  Cu  Cu21  1  0.77550800  0.00272400  0.13533800  1
  Cu  Cu22  1  0.72449200  0.00272400  0.63533800  1
  Cu  Cu23  1  0.22449200  0.99727600  0.86466200  1
