# generated using pymatgen
data_Cu6NiC12
_symmetry_space_group_name_H-M   'P 1'
_cell_length_a   4.93582586
_cell_length_b   7.85011441
_cell_length_c   5.79074933
_cell_angle_alpha   97.33833643
_cell_angle_beta   93.59681523
_cell_angle_gamma   88.96802828
_symmetry_Int_Tables_number   1
_chemical_formula_structural   Cu6NiC12
_chemical_formula_sum   'Cu6 Ni1 C12'
_cell_volume   222.08552483
_cell_formula_units_Z   1
loop_
 _symmetry_equiv_pos_site_id
 _symmetry_equiv_pos_as_xyz
  1  'x, y, z'
loop_
 _atom_site_type_symbol
 _atom_site_label
 _atom_site_symmetry_multiplicity
 _atom_site_fract_x
 _atom_site_fract_y
 _atom_site_fract_z
 _atom_site_occupancy
  Ni  Ni0  1  0.50000000  0.00000000  0.00000000  1
  Cu  Cu1  1  0.50000000  0.00000000  0.50000000  1
  Cu  Cu2  1  0.47952100  0.37109000  0.80411300  1
  Cu  Cu3  1  0.52047900  0.62891000  0.19588700  1
  Cu  Cu4  1  0.02423900  0.68909600  0.66129400  1
  Cu  Cu5  1  0.97576100  0.31090400  0.33870600  1
  Cu  Cu6  1  0.00000000  0.00000000  0.00000000  1
  C  C7  1  0.76132500  0.08862000  0.26802500  1
  C  C8  1  0.69922600  0.77043400  0.46185300  1
  C  C9  1  0.70938600  0.42295600  0.11094100  1
  C  C10  1  0.29061400  0.57704400  0.88905900  1
  C  C11  1  0.30077400  0.22956600  0.53814700  1
  C  C12  1  0.23867500  0.91138000  0.73197500  1
  C  C13  1  0.79508000  0.44285100  0.62524500  1
  C  C14  1  0.75131400  0.78382000  0.95553200  1
  C  C15  1  0.71302100  0.11807900  0.78512900  1
  C  C16  1  0.28697900  0.88192100  0.21487100  1
  C  C17  1  0.24868600  0.21618000  0.04446800  1
  C  C18  1  0.20492000  0.55714900  0.37475500  1
