# generated using pymatgen
data_CuNiC11
_symmetry_space_group_name_H-M   'P 1'
_cell_length_a   7.20733739
_cell_length_b   7.20733739
_cell_length_c   7.20733739
_cell_angle_alpha   126.44364666
_cell_angle_beta   119.27228476
_cell_angle_gamma   85.23940895
_symmetry_Int_Tables_number   1
_chemical_formula_structural   CuNiC11
_chemical_formula_sum   'Cu2 Ni2 C22'
_cell_volume   250.97210281
_cell_formula_units_Z   2
loop_
 _symmetry_equiv_pos_site_id
 _symmetry_equiv_pos_as_xyz
  1  'x, y, z'
loop_
 _atom_site_type_symbol
 _atom_site_label
 _atom_site_symmetry_multiplicity
 _atom_site_fract_x
 _atom_site_fract_y
 _atom_site_fract_z
 _atom_site_occupancy
  Ni  Ni0  1  0.50000000  0.00000000  0.00000000  1
  Ni  Ni1  1  0.00000000  0.00000000  0.50000000  1
  Cu  Cu2  1  0.50000000  0.00000000  0.50000000  1
  Cu  Cu3  1  0.00000000  0.50000000  0.50000000  1
  C  C4  1  0.19882200  0.21512600  0.23307400  1
  C  C5  1  0.30117800  0.53425300  0.01630400  1
  C  C6  1  0.01794800  0.78487400  0.98369600  1
  C  C7  1  0.48205200  0.46574700  0.76692600  1
  C  C8  1  0.98205200  0.21512600  0.01630400  1
  C  C9  1  0.69882200  0.46574700  0.98369600  1
  C  C10  1  0.80117800  0.78487400  0.76692600  1
  C  C11  1  0.51794800  0.53425300  0.23307400  1
  C  C12  1  0.06964600  0.27815800  0.20851200  1
  C  C13  1  0.56964600  0.36113300  0.79148800  1
  C  C14  1  0.43035400  0.63886700  0.20851200  1
  C  C15  1  0.93035400  0.72184200  0.79148800  1
  C  C16  1  0.58848500  0.92723200  0.77221900  1
  C  C17  1  0.25000000  0.05785700  0.80785700  1
  C  C18  1  0.75000000  0.94214300  0.19214300  1
  C  C19  1  0.65501200  0.31626600  0.22778100  1
  C  C20  1  0.34498800  0.68373400  0.77221900  1
  C  C21  1  0.91151500  0.68373400  0.33874700  1
  C  C22  1  0.08848500  0.31626600  0.66125300  1
  C  C23  1  0.41151500  0.07276800  0.22778100  1
  C  C24  1  0.84498800  0.07276800  0.66125300  1
  C  C25  1  0.15501200  0.92723200  0.33874700  1
