# generated using pymatgen
data_Cu8NiC11
_symmetry_space_group_name_H-M   'P 1'
_cell_length_a   7.69297100
_cell_length_b   6.91579100
_cell_length_c   14.69659506
_cell_angle_alpha   75.69496878
_cell_angle_beta   90.00000000
_cell_angle_gamma   90.00000000
_symmetry_Int_Tables_number   1
_chemical_formula_structural   Cu8NiC11
_chemical_formula_sum   'Cu32 Ni4 C44'
_cell_volume   757.65900390
_cell_formula_units_Z   4
loop_
 _symmetry_equiv_pos_site_id
 _symmetry_equiv_pos_as_xyz
  1  'x, y, z'
loop_
 _atom_site_type_symbol
 _atom_site_label
 _atom_site_symmetry_multiplicity
 _atom_site_fract_x
 _atom_site_fract_y
 _atom_site_fract_z
 _atom_site_occupancy
  C  C0  1  0.48467000  0.95395800  0.15266500  1
  C  C1  1  0.98467000  0.04604200  0.34733500  1
  C  C2  1  0.51533000  0.04604200  0.84733500  1
  C  C3  1  0.01533000  0.95395800  0.65266500  1
  C  C4  1  0.61737600  0.76815300  0.20720200  1
  C  C5  1  0.11737600  0.23184700  0.29279800  1
  C  C6  1  0.38262400  0.23184700  0.79279800  1
  C  C7  1  0.88262400  0.76815300  0.70720200  1
  C  C8  1  0.67569500  0.00736000  0.19582500  1
  C  C9  1  0.17569500  0.99264000  0.30417500  1
  C  C10  1  0.32430500  0.99264000  0.80417500  1
  C  C11  1  0.82430500  0.00736000  0.69582500  1
  C  C12  1  0.66919500  0.91025500  0.10001400  1
  C  C13  1  0.16919500  0.08974500  0.39998600  1
  C  C14  1  0.33080500  0.08974500  0.89998600  1
  C  C15  1  0.83080500  0.91025500  0.60001400  1
  C  C16  1  0.60244700  0.63512400  0.84963100  1
  C  C17  1  0.10244700  0.36487600  0.65036900  1
  C  C18  1  0.39755300  0.36487600  0.15036900  1
  C  C19  1  0.99438800  0.56072900  0.16853400  1
  C  C20  1  0.89755300  0.63512400  0.34963100  1
  C  C21  1  0.17057100  0.60546800  0.53819200  1
  C  C22  1  0.32942900  0.60546800  0.03819200  1
  C  C23  1  0.82942900  0.39453200  0.46180800  1
  C  C24  1  0.18256300  0.06507300  0.05334300  1
  C  C25  1  0.68256300  0.93492700  0.44665700  1
  C  C26  1  0.81743700  0.93492700  0.94665700  1
  C  C27  1  0.31743700  0.06507300  0.55334300  1
  C  C28  1  0.92648000  0.20747900  0.06181300  1
  C  C29  1  0.42648000  0.79252100  0.43818700  1
  C  C30  1  0.07352000  0.79252100  0.93818700  1
  C  C31  1  0.57352000  0.20747900  0.56181300  1
  C  C32  1  0.83062400  0.49705000  0.07311900  1
  C  C33  1  0.33062400  0.50295000  0.42688100  1
  C  C34  1  0.16937600  0.50295000  0.92688100  1
  C  C35  1  0.66937600  0.49705000  0.57311900  1
  C  C36  1  0.30273700  0.69426600  0.73423200  1
  C  C37  1  0.80273700  0.30573400  0.76576800  1
  C  C38  1  0.69726300  0.30573400  0.26576800  1
  C  C39  1  0.19726300  0.69426600  0.23423200  1
  C  C40  1  0.50561200  0.56072900  0.66853400  1
  C  C41  1  0.00561200  0.43927100  0.83146600  1
  C  C42  1  0.49438800  0.43927100  0.33146600  1
  C  C43  1  0.67057100  0.39453200  0.96180800  1
  Ni  Ni44  1  0.61233900  0.90978000  0.16385100  1
  Ni  Ni45  1  0.11233900  0.09022000  0.33614900  1
  Ni  Ni46  1  0.38766100  0.09022000  0.83614900  1
  Ni  Ni47  1  0.88766100  0.90978000  0.66385100  1
  Cu  Cu48  1  0.61582700  0.76856200  0.80880000  1
  Cu  Cu49  1  0.11582700  0.23143800  0.69120000  1
  Cu  Cu50  1  0.38417300  0.23143800  0.19120000  1
  Cu  Cu51  1  0.88417300  0.76856200  0.30880000  1
  Cu  Cu52  1  0.57581700  0.42786400  0.91415400  1
  Cu  Cu53  1  0.07581700  0.57213600  0.58584600  1
  Cu  Cu54  1  0.42418300  0.57213600  0.08584600  1
  Cu  Cu55  1  0.92418300  0.42786400  0.41415400  1
  Cu  Cu56  1  0.29559400  0.03159600  0.03068200  1
  Cu  Cu57  1  0.79559400  0.96840400  0.46931800  1
  Cu  Cu58  1  0.70440600  0.96840400  0.96931800  1
  Cu  Cu59  1  0.20440600  0.03159600  0.53068200  1
  Cu  Cu60  1  0.00702600  0.09598500  0.09255100  1
  Cu  Cu61  1  0.50702600  0.90401500  0.40744900  1
  Cu  Cu62  1  0.99297400  0.90401500  0.90744900  1
  Cu  Cu63  1  0.49297400  0.09598500  0.59255100  1
  Cu  Cu64  1  0.80843900  0.36309300  0.02873600  1
  Cu  Cu65  1  0.30843900  0.63690700  0.47126400  1
  Cu  Cu66  1  0.19156100  0.63690700  0.97126400  1
  Cu  Cu67  1  0.69156100  0.36309300  0.52873600  1
  Cu  Cu68  1  0.85638900  0.60818900  0.10967000  1
  Cu  Cu69  1  0.35638900  0.39181100  0.39033000  1
  Cu  Cu70  1  0.14361100  0.39181100  0.89033000  1
  Cu  Cu71  1  0.64361100  0.60818900  0.60967000  1
  Cu  Cu72  1  0.09919700  0.52244700  0.21157600  1
  Cu  Cu73  1  0.59919700  0.47755300  0.28842400  1
  Cu  Cu74  1  0.90080300  0.47755300  0.78842400  1
  Cu  Cu75  1  0.40080300  0.52244700  0.71157600  1
  Cu  Cu76  1  0.26997800  0.79734500  0.25005600  1
  Cu  Cu77  1  0.76997800  0.20265500  0.24994400  1
  Cu  Cu78  1  0.73002200  0.20265500  0.74994400  1
  Cu  Cu79  1  0.23002200  0.79734500  0.75005600  1
