# generated using pymatgen
data_Cu5Ni3C
_symmetry_space_group_name_H-M   'P 1'
_cell_length_a   7.12510483
_cell_length_b   7.12510483
_cell_length_c   16.69662864
_cell_angle_alpha   84.71927581
_cell_angle_beta   84.71927581
_cell_angle_gamma   33.11273282
_symmetry_Int_Tables_number   1
_chemical_formula_structural   Cu5Ni3C
_chemical_formula_sum   'Cu10 Ni6 C2'
_cell_volume   460.91607527
_cell_formula_units_Z   2
loop_
 _symmetry_equiv_pos_site_id
 _symmetry_equiv_pos_as_xyz
  1  'x, y, z'
loop_
 _atom_site_type_symbol
 _atom_site_label
 _atom_site_symmetry_multiplicity
 _atom_site_fract_x
 _atom_site_fract_y
 _atom_site_fract_z
 _atom_site_occupancy
  C  C0  1  0.50000000  0.50000000  0.50000000  1
  C  C1  1  0.00000000  0.00000000  0.00000000  1
  Ni  Ni2  1  0.21977300  0.21977300  0.60605300  1
  Ni  Ni3  1  0.78022700  0.78022700  0.39394700  1
  Ni  Ni4  1  0.47445300  0.47445300  0.78297900  1
  Ni  Ni5  1  0.52554700  0.52554700  0.21702100  1
  Ni  Ni6  1  0.73652400  0.73652400  0.89117200  1
  Ni  Ni7  1  0.26347600  0.26347600  0.10882800  1
  Cu  Cu8  1  0.84878300  0.84878300  0.53458300  1
  Cu  Cu9  1  0.15121700  0.15121700  0.46541700  1
  Cu  Cu10  1  0.57586600  0.57586600  0.63583400  1
  Cu  Cu11  1  0.42413400  0.42413400  0.36416600  1
  Cu  Cu12  1  0.84621700  0.84621700  0.74423100  1
  Cu  Cu13  1  0.15378300  0.15378300  0.25576900  1
  Cu  Cu14  1  0.08919000  0.08919000  0.85940700  1
  Cu  Cu15  1  0.91081000  0.91081000  0.14059300  1
  Cu  Cu16  1  0.64637100  0.64637100  0.05753200  1
  Cu  Cu17  1  0.35362900  0.35362900  0.94246800  1
