# generated using pymatgen
data_Cu3NiC
_symmetry_space_group_name_H-M   'P 1'
_cell_length_a   12.17007700
_cell_length_b   5.83175800
_cell_length_c   7.06762971
_cell_angle_alpha   66.32774426
_cell_angle_beta   90.00000000
_cell_angle_gamma   90.00000000
_symmetry_Int_Tables_number   1
_chemical_formula_structural   Cu3NiC
_chemical_formula_sum   'Cu12 Ni4 C4'
_cell_volume   459.40353655
_cell_formula_units_Z   4
loop_
 _symmetry_equiv_pos_site_id
 _symmetry_equiv_pos_as_xyz
  1  'x, y, z'
loop_
 _atom_site_type_symbol
 _atom_site_label
 _atom_site_symmetry_multiplicity
 _atom_site_fract_x
 _atom_site_fract_y
 _atom_site_fract_z
 _atom_site_occupancy
  C  C0  1  0.91033500  0.27477600  0.24785800  1
  C  C1  1  0.41033500  0.22522400  0.75214200  1
  C  C2  1  0.08966500  0.72522400  0.75214200  1
  C  C3  1  0.58966500  0.77477600  0.24785800  1
  Ni  Ni4  1  0.76954400  0.35904600  0.70029400  1
  Ni  Ni5  1  0.26954400  0.14095400  0.29970600  1
  Ni  Ni6  1  0.23045600  0.64095400  0.29970600  1
  Ni  Ni7  1  0.73045600  0.85904600  0.70029400  1
  Cu  Cu8  1  0.81750300  0.83145300  0.94113000  1
  Cu  Cu9  1  0.31750300  0.66854700  0.05887000  1
  Cu  Cu10  1  0.18249700  0.16854700  0.05887000  1
  Cu  Cu11  1  0.68249700  0.33145300  0.94113000  1
  Cu  Cu12  1  0.59904500  0.67162300  0.81047500  1
  Cu  Cu13  1  0.09904500  0.82837700  0.18952500  1
  Cu  Cu14  1  0.40095500  0.32837700  0.18952500  1
  Cu  Cu15  1  0.90095500  0.17162300  0.81047500  1
  Cu  Cu16  1  0.80110100  0.70348800  0.53699300  1
  Cu  Cu17  1  0.30110100  0.79651200  0.46300700  1
  Cu  Cu18  1  0.19889900  0.29651200  0.46300700  1
  Cu  Cu19  1  0.69889900  0.20348800  0.53699300  1
