# generated using pymatgen
data_Cu2NiC17
_symmetry_space_group_name_H-M   'P 1'
_cell_length_a   9.13406549
_cell_length_b   9.13406517
_cell_length_c   22.37012357
_cell_angle_alpha   88.81854630
_cell_angle_beta   91.18145369
_cell_angle_gamma   120.13559406
_symmetry_Int_Tables_number   1
_chemical_formula_structural   Cu2NiC17
_chemical_formula_sum   'Cu12 Ni6 C102'
_cell_volume   1613.64973235
_cell_formula_units_Z   6
loop_
 _symmetry_equiv_pos_site_id
 _symmetry_equiv_pos_as_xyz
  1  'x, y, z'
loop_
 _atom_site_type_symbol
 _atom_site_label
 _atom_site_symmetry_multiplicity
 _atom_site_fract_x
 _atom_site_fract_y
 _atom_site_fract_z
 _atom_site_occupancy
  C  C0  1  0.63208170  0.00362465  0.24353421  1
  C  C1  1  0.99717631  0.63622438  0.24844300  1
  C  C2  1  0.99637535  0.36791830  0.74353421  1
  C  C3  1  0.36377562  0.00282369  0.74844300  1
  C  C4  1  0.29874870  0.33695765  0.57686721  1
  C  C5  1  0.66384331  0.96955738  0.58177600  1
  C  C6  1  0.66304235  0.70125130  0.07686721  1
  C  C7  1  0.03044262  0.33615669  0.08177600  1
  C  C8  1  0.96541470  0.67029165  0.91020121  1
  C  C9  1  0.33050931  0.30289138  0.91511000  1
  C  C10  1  0.32970835  0.03458530  0.41020121  1
  C  C11  1  0.69710862  0.66949069  0.41511000  1
  C  C12  1  0.00097936  0.01977286  0.49713117  1
  C  C13  1  0.98022714  0.99902064  0.99713117  1
  C  C14  1  0.66764636  0.35310586  0.83046417  1
  C  C15  1  0.64689414  0.33235364  0.33046417  1
  C  C16  1  0.33431236  0.68643986  0.16379817  1
  C  C17  1  0.31356014  0.66568764  0.66379817  1
  C  C18  1  0.03009970  0.01298203  0.64633164  1
  C  C19  1  0.98701797  0.96990030  0.14633164  1
  C  C20  1  0.69676670  0.34631503  0.97966464  1
  C  C21  1  0.65368497  0.30323330  0.47966464  1
  C  C22  1  0.36343270  0.67964903  0.31299864  1
  C  C23  1  0.32035097  0.63656730  0.81299864  1
  Ni  Ni24  1  0.00601128  0.00901895  0.35031559  1
  Ni  Ni25  1  0.99098105  0.99398872  0.85031559  1
  Ni  Ni26  1  0.67267828  0.34235195  0.68364859  1
  Ni  Ni27  1  0.65764805  0.32732172  0.18364859  1
  Ni  Ni28  1  0.33934428  0.67568595  0.01698259  1
  Ni  Ni29  1  0.32431405  0.66065572  0.51698259  1
  Cu  Cu30  1  0.29137753  0.99532329  0.25247374  1
  Cu  Cu31  1  0.70653416  0.70253547  0.25160224  1
  Cu  Cu32  1  0.29746453  0.29346584  0.75160224  1
  Cu  Cu33  1  0.00467671  0.70862247  0.75247374  1
  Cu  Cu34  1  0.95804453  0.32865629  0.58580674  1
  Cu  Cu35  1  0.37320116  0.03586847  0.58493524  1
  Cu  Cu36  1  0.96413153  0.62679884  0.08493524  1
  Cu  Cu37  1  0.67134371  0.04195547  0.08580674  1
  Cu  Cu38  1  0.62471053  0.66199029  0.91914074  1
  Cu  Cu39  1  0.03986716  0.36920247  0.91826924  1
  Cu  Cu40  1  0.63079753  0.96013284  0.41826924  1
  Cu  Cu41  1  0.33800971  0.37528947  0.41914074  1
  C  C42  1  0.00828820  0.30039630  0.24785071  1
  C  C43  1  0.69960370  0.99171180  0.74785071  1
  C  C44  1  0.67495520  0.63372930  0.58118371  1
  C  C45  1  0.36627070  0.32504480  0.08118371  1
  C  C46  1  0.34162120  0.96706330  0.91451771  1
  C  C47  1  0.03293670  0.65837880  0.41451771  1
  C  C48  1  0.21954267  0.02246236  0.31384262  1
  C  C49  1  0.81767536  0.78512203  0.31100304  1
  C  C50  1  0.97646051  0.19480100  0.30223741  1
  C  C51  1  0.21487797  0.18232464  0.81100304  1
  C  C52  1  0.97753764  0.78045733  0.81384262  1
  C  C53  1  0.80519900  0.02353949  0.80223741  1
  C  C54  1  0.78043299  0.97416048  0.69416348  1
  C  C55  1  0.17130561  0.20103208  0.69144092  1
  C  C56  1  0.02881321  0.84570355  0.69614771  1
  C  C57  1  0.79896792  0.82869439  0.19144092  1
  C  C58  1  0.02583952  0.21956701  0.19416348  1
  C  C59  1  0.15429645  0.97118679  0.19614771  1
  C  C60  1  0.88620967  0.35579536  0.64717562  1
  C  C61  1  0.48434236  0.11845503  0.64433604  1
  C  C62  1  0.64312751  0.52813400  0.63557041  1
  C  C63  1  0.88154497  0.51565764  0.14433604  1
  C  C64  1  0.64420464  0.11379033  0.14717562  1
  C  C65  1  0.47186600  0.35687249  0.13557041  1
  C  C66  1  0.44709999  0.30749348  0.02749648  1
  C  C67  1  0.83797261  0.53436508  0.02477392  1
  C  C68  1  0.69548021  0.17903655  0.02948071  1
  C  C69  1  0.46563492  0.16202739  0.52477392  1
  C  C70  1  0.69250652  0.55290001  0.52749648  1
  C  C71  1  0.82096345  0.30451979  0.52948071  1
  C  C72  1  0.55287567  0.68912936  0.98050962  1
  C  C73  1  0.15100836  0.45178903  0.97767004  1
  C  C74  1  0.30979351  0.86146800  0.96890441  1
  C  C75  1  0.54821097  0.84899164  0.47767004  1
  C  C76  1  0.31087064  0.44712433  0.48050962  1
  C  C77  1  0.13853200  0.69020649  0.46890441  1
  C  C78  1  0.11376599  0.64082748  0.36083048  1
  C  C79  1  0.50463861  0.86769908  0.35810792  1
  C  C80  1  0.36214621  0.51237055  0.36281471  1
  C  C81  1  0.13230092  0.49536139  0.85810792  1
  C  C82  1  0.35917252  0.88623401  0.86083048  1
  C  C83  1  0.48762945  0.63785379  0.86281471  1
  C  C84  1  0.01125104  0.81038725  0.41184155  1
  C  C85  1  0.81396614  0.97543054  0.41191646  1
  C  C86  1  0.18417014  0.18041236  0.41340594  1
  C  C87  1  0.02456946  0.18603386  0.91191646  1
  C  C88  1  0.18961275  0.98874896  0.91184155  1
  C  C89  1  0.81958764  0.81582986  0.91340594  1
  C  C90  1  0.96215112  0.14602267  0.58943303  1
  C  C91  1  0.18907547  0.03375781  0.58934839  1
  C  C92  1  0.82774566  0.80596812  0.58753715  1
  C  C93  1  0.96624219  0.81092453  0.08934839  1
  C  C94  1  0.85397733  0.03784888  0.08943303  1
  C  C95  1  0.19403188  0.17225434  0.08753715  1
  C  C96  1  0.67791804  0.14372025  0.74517455  1
  C  C97  1  0.48063314  0.30876354  0.74524946  1
  C  C98  1  0.85083714  0.51374536  0.74673894  1
  C  C99  1  0.69123646  0.51936686  0.24524946  1
  C  C100  1  0.85627975  0.32208196  0.24517455  1
  C  C101  1  0.48625464  0.14916286  0.24673894  1
  C  C102  1  0.62881812  0.47935567  0.92276603  1
  C  C103  1  0.85574247  0.36709081  0.92268139  1
  C  C104  1  0.49441266  0.13930112  0.92087015  1
  C  C105  1  0.63290919  0.14425753  0.42268139  1
  C  C106  1  0.52064433  0.37118188  0.42276603  1
  C  C107  1  0.86069888  0.50558734  0.42087015  1
  C  C108  1  0.34458404  0.47705425  0.07850855  1
  C  C109  1  0.14729914  0.64209754  0.07858346  1
  C  C110  1  0.51750314  0.84707936  0.08007294  1
  C  C111  1  0.35790246  0.85270086  0.57858346  1
  C  C112  1  0.52294575  0.65541596  0.57850855  1
  C  C113  1  0.15292064  0.48249686  0.58007294  1
  C  C114  1  0.29548412  0.81268967  0.25610003  1
  C  C115  1  0.52240847  0.70042481  0.25601539  1
  C  C116  1  0.16107866  0.47263512  0.25420415  1
  C  C117  1  0.29957519  0.47759153  0.75601539  1
  C  C118  1  0.18731033  0.70451588  0.75610003  1
  C  C119  1  0.52736488  0.83892134  0.75420415  1
