# generated using pymatgen
data_Cu3NiC3
_symmetry_space_group_name_H-M   'P 1'
_cell_length_a   3.87953800
_cell_length_b   3.87953800
_cell_length_c   14.96024900
_cell_angle_alpha   90.00000000
_cell_angle_beta   90.00000000
_cell_angle_gamma   90.00000000
_symmetry_Int_Tables_number   1
_chemical_formula_structural   Cu3NiC3
_chemical_formula_sum   'Cu6 Ni2 C6'
_cell_volume   225.16394145
_cell_formula_units_Z   2
loop_
 _symmetry_equiv_pos_site_id
 _symmetry_equiv_pos_as_xyz
  1  'x, y, z'
loop_
 _atom_site_type_symbol
 _atom_site_label
 _atom_site_symmetry_multiplicity
 _atom_site_fract_x
 _atom_site_fract_y
 _atom_site_fract_z
 _atom_site_occupancy
  C  C0  1  0.00000000  0.50000000  0.09216900  1
  C  C1  1  0.50000000  0.00000000  0.90783100  1
  C  C2  1  0.00000000  0.50000000  0.33823200  1
  C  C3  1  0.50000000  0.00000000  0.66176800  1
  C  C4  1  0.50000000  0.00000000  0.20734900  1
  C  C5  1  0.00000000  0.50000000  0.79265100  1
  Ni  Ni6  1  0.50000000  0.00000000  0.42055100  1
  Ni  Ni7  1  0.00000000  0.50000000  0.57944900  1
  Cu  Cu8  1  0.00000000  0.50000000  0.92651200  1
  Cu  Cu9  1  0.50000000  0.00000000  0.07348800  1
  Cu  Cu10  1  0.50000000  0.50000000  0.77331500  1
  Cu  Cu11  1  0.50000000  0.50000000  0.22668500  1
  Cu  Cu12  1  0.00000000  0.00000000  0.22668500  1
  Cu  Cu13  1  0.00000000  0.00000000  0.77331500  1
