# generated using pymatgen
data_Cu12NiC24
_symmetry_space_group_name_H-M   'P 1'
_cell_length_a   4.81839086
_cell_length_b   5.80300382
_cell_length_c   15.19009273
_cell_angle_alpha   88.81975080
_cell_angle_beta   91.33674056
_cell_angle_gamma   92.32609114
_symmetry_Int_Tables_number   1
_chemical_formula_structural   Cu12NiC24
_chemical_formula_sum   'Cu12 Ni1 C24'
_cell_volume   424.18474742
_cell_formula_units_Z   1
loop_
 _symmetry_equiv_pos_site_id
 _symmetry_equiv_pos_as_xyz
  1  'x, y, z'
loop_
 _atom_site_type_symbol
 _atom_site_label
 _atom_site_symmetry_multiplicity
 _atom_site_fract_x
 _atom_site_fract_y
 _atom_site_fract_z
 _atom_site_occupancy
  Ni  Ni0  1  0.98454200  0.57729800  0.42252000  1
  Cu  Cu1  1  0.01979800  0.12258900  0.39780600  1
  Cu  Cu2  1  0.05854200  0.82256900  0.23133700  1
  Cu  Cu3  1  0.02862500  0.17635600  0.07738600  1
  Cu  Cu4  1  0.00674100  0.17585600  0.74641400  1
  Cu  Cu5  1  0.99152400  0.83850800  0.59541600  1
  Cu  Cu6  1  0.02457700  0.85745800  0.91305300  1
  Cu  Cu7  1  0.48885600  0.36147900  0.59319800  1
  Cu  Cu8  1  0.49316300  0.34277500  0.92038200  1
  Cu  Cu9  1  0.53012300  0.33608800  0.25105300  1
  Cu  Cu10  1  0.51965200  0.63038300  0.09032700  1
  Cu  Cu11  1  0.51855800  0.81771900  0.44339500  1
  Cu  Cu12  1  0.45191200  0.64850300  0.75248000  1
  C  C13  1  0.27368200  0.07708200  0.30290900  1
  C  C14  1  0.18185200  0.12478300  0.63761700  1
  C  C15  1  0.21785800  0.13013600  0.97024400  1
  C  C16  1  0.26522000  0.87501900  0.13084300  1
  C  C17  1  0.14312600  0.87624200  0.47404000  1
  C  C18  1  0.21458300  0.89010100  0.80023700  1
  C  C19  1  0.29567800  0.39589600  0.14783900  1
  C  C20  1  0.25557700  0.61577800  0.64694500  1
  C  C21  1  0.26291800  0.40334400  0.81355000  1
  C  C22  1  0.72163200  0.39014300  0.02628400  1
  C  C23  1  0.74479700  0.60533900  0.19220700  1
  C  C24  1  0.78019800  0.33907600  0.35239400  1
  C  C25  1  0.73621100  0.60973400  0.53037900  1
  C  C26  1  0.69821200  0.39518200  0.69816400  1
  C  C27  1  0.27914300  0.60516100  0.32900200  1
  C  C28  1  0.24664800  0.36840000  0.47981800  1
  C  C29  1  0.27938000  0.62391900  0.98214300  1
  C  C30  1  0.71001700  0.63304700  0.86074100  1
  C  C31  1  0.80630600  0.10961600  0.18423800  1
  C  C32  1  0.71420400  0.10450000  0.51090100  1
  C  C33  1  0.79978300  0.82280600  0.34137500  1
  C  C34  1  0.76691000  0.86902400  0.02418400  1
  C  C35  1  0.77297400  0.13514700  0.85395600  1
  C  C36  1  0.71647900  0.88818100  0.69605400  1
