# generated using pymatgen
data_Cu2NiC9
_symmetry_space_group_name_H-M   'P 1'
_cell_length_a   5.48045000
_cell_length_b   5.48045007
_cell_length_c   7.37441100
_cell_angle_alpha   90.00000000
_cell_angle_beta   90.00000000
_cell_angle_gamma   119.99998915
_symmetry_Int_Tables_number   1
_chemical_formula_structural   Cu2NiC9
_chemical_formula_sum   'Cu2 Ni1 C9'
_cell_volume   191.81848773
_cell_formula_units_Z   1
loop_
 _symmetry_equiv_pos_site_id
 _symmetry_equiv_pos_as_xyz
  1  'x, y, z'
loop_
 _atom_site_type_symbol
 _atom_site_label
 _atom_site_symmetry_multiplicity
 _atom_site_fract_x
 _atom_site_fract_y
 _atom_site_fract_z
 _atom_site_occupancy
  C  C0  1  0.33333300  0.66666700  0.78145000  1
  Ni  Ni1  1  0.00000000  0.00000000  0.97942000  1
  Cu  Cu2  1  0.33333300  0.66666700  0.27042400  1
  Cu  Cu3  1  0.66666700  0.33333300  0.73430900  1
  C  C4  1  0.66666700  0.33333300  0.49943900  1
  C  C5  1  0.33333300  0.66666700  0.51072500  1
  C  C6  1  0.67806600  0.02152300  0.84439300  1
  C  C7  1  0.08894700  0.33582400  0.18368500  1
  C  C8  1  0.66417600  0.75312500  0.18368500  1
  C  C9  1  0.24687500  0.91105300  0.18368500  1
  C  C10  1  0.97847700  0.65654100  0.84439300  1
  C  C11  1  0.34345900  0.32193400  0.84439300  1
