# generated using pymatgen
data_Cu3Ni3C4
_symmetry_space_group_name_H-M   'P 1'
_cell_length_a   9.33307300
_cell_length_b   6.45381600
_cell_length_c   18.63730768
_cell_angle_alpha   87.16253546
_cell_angle_beta   90.00000000
_cell_angle_gamma   90.00000000
_symmetry_Int_Tables_number   1
_chemical_formula_structural   Cu3Ni3C4
_chemical_formula_sum   'Cu12 Ni12 C16'
_cell_volume   1121.22206918
_cell_formula_units_Z   4
loop_
 _symmetry_equiv_pos_site_id
 _symmetry_equiv_pos_as_xyz
  1  'x, y, z'
loop_
 _atom_site_type_symbol
 _atom_site_label
 _atom_site_symmetry_multiplicity
 _atom_site_fract_x
 _atom_site_fract_y
 _atom_site_fract_z
 _atom_site_occupancy
  C  C0  1  0.15889400  0.53795700  0.18472400  1
  C  C1  1  0.65889400  0.46204300  0.31527600  1
  C  C2  1  0.84110600  0.46204300  0.81527600  1
  C  C3  1  0.34110600  0.53795700  0.68472400  1
  C  C4  1  0.25964500  0.79056800  0.23399200  1
  C  C5  1  0.75964500  0.20943200  0.26600800  1
  C  C6  1  0.74035500  0.20943200  0.76600800  1
  C  C7  1  0.24035500  0.79056800  0.73399200  1
  C  C8  1  0.39682500  0.98718500  0.09998900  1
  C  C9  1  0.89682500  0.01281500  0.40001100  1
  C  C10  1  0.60317500  0.01281500  0.90001100  1
  C  C11  1  0.10317500  0.98718500  0.59998900  1
  C  C12  1  0.25658700  0.63886500  0.03164200  1
  C  C13  1  0.75658700  0.36113500  0.46835800  1
  C  C14  1  0.74341300  0.36113500  0.96835800  1
  C  C15  1  0.24341300  0.63886500  0.53164200  1
  Ni  Ni16  1  0.53025600  0.06428900  0.60703400  1
  Ni  Ni17  1  0.03025600  0.93571100  0.89296600  1
  Ni  Ni18  1  0.46974400  0.93571100  0.39296600  1
  Ni  Ni19  1  0.96974400  0.06428900  0.10703400  1
  Ni  Ni20  1  0.71068400  0.78161500  0.62871400  1
  Ni  Ni21  1  0.21068400  0.21838500  0.87128600  1
  Ni  Ni22  1  0.28931600  0.21838500  0.37128600  1
  Ni  Ni23  1  0.78931600  0.78161500  0.12871400  1
  Ni  Ni24  1  0.90397300  0.48148500  0.65286700  1
  Ni  Ni25  1  0.40397300  0.51851500  0.84713300  1
  Ni  Ni26  1  0.09602700  0.51851500  0.34713300  1
  Ni  Ni27  1  0.59602700  0.48148500  0.15286700  1
  Cu  Cu28  1  0.14970700  0.84200000  0.53793700  1
  Cu  Cu29  1  0.64970700  0.15800000  0.96206300  1
  Cu  Cu30  1  0.85029300  0.15800000  0.46206300  1
  Cu  Cu31  1  0.35029300  0.84200000  0.03793700  1
  Cu  Cu32  1  0.15669500  0.93216000  0.67730500  1
  Cu  Cu33  1  0.65669500  0.06784000  0.82269500  1
  Cu  Cu34  1  0.84330500  0.06784000  0.32269500  1
  Cu  Cu35  1  0.34330500  0.93216000  0.17730500  1
  Cu  Cu36  1  0.30964000  0.54060800  0.60172900  1
  Cu  Cu37  1  0.80964000  0.45939200  0.89827100  1
  Cu  Cu38  1  0.69036000  0.45939200  0.39827100  1
  Cu  Cu39  1  0.19036000  0.54060800  0.10172900  1
