# generated using pymatgen
data_Cu2NiC8
_symmetry_space_group_name_H-M   'P 1'
_cell_length_a   6.45366450
_cell_length_b   6.45366485
_cell_length_c   6.45366474
_cell_angle_alpha   53.81058169
_cell_angle_beta   53.81058615
_cell_angle_gamma   53.81059211
_symmetry_Int_Tables_number   1
_chemical_formula_structural   Cu2NiC8
_chemical_formula_sum   'Cu2 Ni1 C8'
_cell_volume   162.56923209
_cell_formula_units_Z   1
loop_
 _symmetry_equiv_pos_site_id
 _symmetry_equiv_pos_as_xyz
  1  'x, y, z'
loop_
 _atom_site_type_symbol
 _atom_site_label
 _atom_site_symmetry_multiplicity
 _atom_site_fract_x
 _atom_site_fract_y
 _atom_site_fract_z
 _atom_site_occupancy
  C  C0  1  0.12091900  0.12091900  0.12091900  1
  C  C1  1  0.87908100  0.87908100  0.87908100  1
  Ni  Ni2  1  0.50000000  0.50000000  0.50000000  1
  Cu  Cu3  1  0.31783800  0.31783800  0.31783800  1
  Cu  Cu4  1  0.68216200  0.68216200  0.68216200  1
  C  C5  1  0.11405500  0.67832700  0.45686500  1
  C  C6  1  0.67832700  0.45686500  0.11405500  1
  C  C7  1  0.45686500  0.11405500  0.67832700  1
  C  C8  1  0.88594500  0.32167300  0.54313500  1
  C  C9  1  0.54313500  0.88594500  0.32167300  1
  C  C10  1  0.32167300  0.54313500  0.88594500  1
