# generated using pymatgen
data_CuNi3C2
_symmetry_space_group_name_H-M   'P 1'
_cell_length_a   8.51371100
_cell_length_b   8.52010100
_cell_length_c   14.63433800
_cell_angle_alpha   90.00000000
_cell_angle_beta   90.00000000
_cell_angle_gamma   90.00000000
_symmetry_Int_Tables_number   1
_chemical_formula_structural   CuNi3C2
_chemical_formula_sum   'Cu8 Ni24 C16'
_cell_volume   1061.54089180
_cell_formula_units_Z   8
loop_
 _symmetry_equiv_pos_site_id
 _symmetry_equiv_pos_as_xyz
  1  'x, y, z'
loop_
 _atom_site_type_symbol
 _atom_site_label
 _atom_site_symmetry_multiplicity
 _atom_site_fract_x
 _atom_site_fract_y
 _atom_site_fract_z
 _atom_site_occupancy
  Ni  Ni0  1  0.16406200  0.52326800  0.92409100  1
  Ni  Ni1  1  0.33593800  0.02326800  0.07590900  1
  Ni  Ni2  1  0.66406200  0.47673200  0.57590900  1
  Ni  Ni3  1  0.01150000  0.09942900  0.28159500  1
  Ni  Ni4  1  0.16406200  0.02326800  0.57590900  1
  Ni  Ni5  1  0.66406200  0.97673200  0.92409100  1
  Ni  Ni6  1  0.33593800  0.52326800  0.42409100  1
  Ni  Ni7  1  0.83593800  0.47673200  0.07590900  1
  Ni  Ni8  1  0.95603600  0.19597000  0.45962100  1
  Ni  Ni9  1  0.95603600  0.69597000  0.04037900  1
  Ni  Ni10  1  0.45603600  0.30403000  0.45962100  1
  Ni  Ni11  1  0.54396400  0.19597000  0.95962100  1
  Ni  Ni12  1  0.04396400  0.80403000  0.54037900  1
  Ni  Ni13  1  0.04396400  0.30403000  0.95962100  1
  Ni  Ni14  1  0.54396400  0.69597000  0.54037900  1
  Ni  Ni15  1  0.45603600  0.80403000  0.04037900  1
  Ni  Ni16  1  0.51150000  0.90057100  0.21840500  1
  Ni  Ni17  1  0.01150000  0.59942900  0.21840500  1
  Ni  Ni18  1  0.51150000  0.40057100  0.28159500  1
  Ni  Ni19  1  0.48850000  0.09942900  0.78159500  1
  Ni  Ni20  1  0.98850000  0.90057100  0.71840500  1
  Ni  Ni21  1  0.98850000  0.40057100  0.78159500  1
  Ni  Ni22  1  0.48850000  0.59942900  0.71840500  1
  Ni  Ni23  1  0.83593800  0.97673200  0.42409100  1
  C  C24  1  0.89426000  0.97091000  0.31909900  1
  C  C25  1  0.03712100  0.72379800  0.13947300  1
  C  C26  1  0.53712100  0.27620200  0.36052700  1
  C  C27  1  0.46287900  0.22379800  0.86052700  1
  C  C28  1  0.96287900  0.77620200  0.63947300  1
  C  C29  1  0.96287900  0.27620200  0.86052700  1
  C  C30  1  0.46287900  0.72379800  0.63947300  1
  C  C31  1  0.53712100  0.77620200  0.13947300  1
  C  C32  1  0.03712100  0.22379800  0.36052700  1
  C  C33  1  0.89426000  0.47091000  0.18090100  1
  C  C34  1  0.39426000  0.52909000  0.31909900  1
  C  C35  1  0.60574000  0.97091000  0.81909900  1
  C  C36  1  0.10574000  0.02909000  0.68090100  1
  C  C37  1  0.10574000  0.52909000  0.81909900  1
  C  C38  1  0.60574000  0.47091000  0.68090100  1
  C  C39  1  0.39426000  0.02909000  0.18090100  1
  Cu  Cu40  1  0.74224300  0.10377400  0.59543300  1
  Cu  Cu41  1  0.24224300  0.89622600  0.90456700  1
  Cu  Cu42  1  0.75775700  0.60377400  0.40456700  1
  Cu  Cu43  1  0.25775700  0.39622600  0.09543300  1
  Cu  Cu44  1  0.25775700  0.89622600  0.40456700  1
  Cu  Cu45  1  0.75775700  0.10377400  0.09543300  1
  Cu  Cu46  1  0.24224300  0.39622600  0.59543300  1
  Cu  Cu47  1  0.74224300  0.60377400  0.90456700  1
