# generated using pymatgen
data_Cu5NiC29
_symmetry_space_group_name_H-M   'P 1'
_cell_length_a   8.77540791
_cell_length_b   8.77388448
_cell_length_c   22.71737700
_cell_angle_alpha   90.07307597
_cell_angle_beta   89.91362584
_cell_angle_gamma   119.98526221
_symmetry_Int_Tables_number   1
_chemical_formula_structural   Cu5NiC29
_chemical_formula_sum   'Cu15 Ni3 C87'
_cell_volume   1514.99760690
_cell_formula_units_Z   3
loop_
 _symmetry_equiv_pos_site_id
 _symmetry_equiv_pos_as_xyz
  1  'x, y, z'
loop_
 _atom_site_type_symbol
 _atom_site_label
 _atom_site_symmetry_multiplicity
 _atom_site_fract_x
 _atom_site_fract_y
 _atom_site_fract_z
 _atom_site_occupancy
  C  C0  1  0.99986504  0.99786773  0.99767866  1
  C  C1  1  0.66600727  0.33375103  0.83095106  1
  C  C2  1  0.66833713  0.33406583  0.33673213  1
  C  C3  1  0.99864070  0.00320622  0.35660647  1
  C  C4  1  0.00055319  0.99950128  0.64296550  1
  C  C5  1  0.66822677  0.33318898  0.19074899  1
  C  C6  1  0.66460017  0.33372223  0.97642586  1
  C  C7  1  0.33621144  0.67130341  0.02353972  1
  C  C8  1  0.33807333  0.66988698  0.80870177  1
  Ni  Ni9  1  0.00495310  0.28955014  0.24943280  1
  Ni  Ni10  1  0.62026308  0.67061795  0.91612480  1
  Ni  Ni11  1  0.33040156  0.95089500  0.91640510  1
  C  C12  1  0.99987549  0.99868958  0.85485948  1
  C  C13  1  0.00161059  0.00144352  0.14703341  1
  C  C14  1  0.66595948  0.33345277  0.68455157  1
  C  C15  1  0.66764688  0.33347449  0.48166682  1
  C  C16  1  0.33190432  0.66583752  0.52016433  1
  C  C17  1  0.33190417  0.66510835  0.31224800  1
  Cu  Cu18  1  0.28542112  0.99829676  0.25007804  1
  Cu  Cu19  1  0.71331282  0.71499025  0.25023820  1
  Cu  Cu20  1  0.28807372  0.28545337  0.75005340  1
  Cu  Cu21  1  0.99640622  0.70950051  0.74981776  1
  Cu  Cu22  1  0.71562808  0.00459229  0.74996112  1
  Cu  Cu23  1  0.95746089  0.33539781  0.58339389  1
  Cu  Cu24  1  0.37879635  0.04234636  0.58319692  1
  Cu  Cu25  1  0.66350924  0.62163222  0.58324243  1
  Cu  Cu26  1  0.95159419  0.62061605  0.08358472  1
  Cu  Cu27  1  0.66988923  0.04864478  0.08326845  1
  Cu  Cu28  1  0.37781801  0.32985349  0.08333197  1
  Cu  Cu29  1  0.05136561  0.38448771  0.91680144  1
  Cu  Cu30  1  0.61937969  0.95588142  0.41642492  1
  Cu  Cu31  1  0.33779256  0.37921665  0.41664341  1
  Cu  Cu32  1  0.04234919  0.66456998  0.41665726  1
  C  C33  1  0.19852513  0.03171397  0.30402479  1
  C  C34  1  0.83493464  0.79768174  0.30418072  1
  C  C35  1  0.96645763  0.15984521  0.30648084  1
  C  C36  1  0.21162606  0.17350885  0.80573565  1
  C  C37  1  0.95953751  0.78601522  0.80529303  1
  C  C38  1  0.82694566  0.03999014  0.80565450  1
  C  C39  1  0.80503685  0.97782347  0.69564558  1
  C  C40  1  0.17271425  0.19435773  0.69561934  1
  C  C41  1  0.02331494  0.82606799  0.69543086  1
  C  C42  1  0.78986412  0.81884081  0.19334921  1
  C  C43  1  0.03505094  0.20920167  0.18986576  1
  C  C44  1  0.17762905  0.96248029  0.19357317  1
  C  C45  1  0.87850766  0.37075285  0.63853408  1
  C  C46  1  0.49213864  0.12090423  0.63849785  1
  C  C47  1  0.62808110  0.50780704  0.63845806  1
  C  C48  1  0.86099171  0.50679284  0.13878745  1
  C  C49  1  0.64391817  0.13745448  0.13842183  1
  C  C50  1  0.49138232  0.35611055  0.13822344  1
  C  C51  1  0.47241147  0.30726585  0.02854828  1
  C  C52  1  0.83604753  0.53061312  0.02899641  1
  C  C53  1  0.69498478  0.16449164  0.02892768  1
  C  C54  1  0.45217255  0.16073401  0.52877763  1
  C  C55  1  0.70925869  0.54858456  0.52880891  1
  C  C56  1  0.83942919  0.29005142  0.52885585  1
  C  C57  1  0.52200184  0.68958454  0.97467245  1
  C  C58  1  0.16200863  0.47082641  0.97242536  1
  C  C59  1  0.30467985  0.83108672  0.97482920  1
  C  C60  1  0.54363349  0.84449379  0.47199735  1
  C  C61  1  0.29901069  0.45278562  0.47228097  1
  C  C62  1  0.15361177  0.70122792  0.47247827  1
  C  C63  1  0.12212099  0.62862265  0.36219460  1
  C  C64  1  0.50632928  0.87770361  0.36136751  1
  C  C65  1  0.37492554  0.49474034  0.36218711  1
  C  C66  1  0.13213585  0.49655253  0.86099966  1
  C  C67  1  0.36023432  0.85877704  0.85825870  1
  C  C68  1  0.49682181  0.63363939  0.85792148  1
  C  C69  1  0.02366075  0.82904286  0.40575172  1
  C  C70  1  0.80274595  0.97117624  0.40675289  1
  C  C71  1  0.17226858  0.19441425  0.40620950  1
  C  C72  1  0.02997192  0.20110256  0.91167757  1
  C  C73  1  0.16362240  0.97951023  0.91278982  1
  C  C74  1  0.81022775  0.84522936  0.91268042  1
  C  C75  1  0.97510829  0.16921529  0.59520821  1
  C  C76  1  0.19498425  0.02511509  0.59491422  1
  C  C77  1  0.83008360  0.80524467  0.59517827  1
  C  C78  1  0.97114531  0.80463309  0.08820613  1
  C  C79  1  0.83151145  0.02499437  0.08681226  1
  C  C80  1  0.19634481  0.16155310  0.08563414  1
  C  C81  1  0.68804786  0.16416220  0.74339538  1
  C  C82  1  0.47490964  0.31137627  0.74347900  1
  C  C83  1  0.83453894  0.52336439  0.74315558  1
  C  C84  1  0.69406054  0.52757638  0.24229396  1
  C  C85  1  0.82215001  0.30282534  0.24187650  1
  C  C86  1  0.46828459  0.17178499  0.24185364  1
  C  C87  1  0.64047143  0.49526033  0.92522331  1
  C  C88  1  0.86733454  0.36752285  0.92556850  1
  C  C89  1  0.51162043  0.14184777  0.92544033  1
  C  C90  1  0.64612715  0.14361699  0.42221898  1
  C  C91  1  0.49930245  0.35354681  0.42257196  1
  C  C92  1  0.85562167  0.50122860  0.42245783  1
  C  C93  1  0.35950958  0.49360312  0.07408149  1
  C  C94  1  0.13140827  0.63302141  0.07532525  1
  C  C95  1  0.50118828  0.86729507  0.07568725  1
  C  C96  1  0.35352694  0.85878629  0.57531822  1
  C  C97  1  0.50539266  0.64703506  0.57512496  1
  C  C98  1  0.14087283  0.49390400  0.57542047  1
  C  C99  1  0.31898298  0.84718790  0.25959201  1
  C  C100  1  0.53316139  0.69349615  0.25959452  1
  C  C101  1  0.16714345  0.48215977  0.25862432  1
  C  C102  1  0.29948753  0.46621216  0.75759748  1
  C  C103  1  0.16302583  0.69362207  0.75787292  1
  C  C104  1  0.53318466  0.83482605  0.75724304  1
