# generated using pymatgen
data_Cu6Ni3C29
_symmetry_space_group_name_H-M   'P 1'
_cell_length_a   8.82691249
_cell_length_b   8.83741867
_cell_length_c   22.55990314
_cell_angle_alpha   90.00424850
_cell_angle_beta   89.98309822
_cell_angle_gamma   120.01044273
_symmetry_Int_Tables_number   1
_chemical_formula_structural   Cu6Ni3C29
_chemical_formula_sum   'Cu18 Ni9 C87'
_cell_volume   1523.89969897
_cell_formula_units_Z   3
loop_
 _symmetry_equiv_pos_site_id
 _symmetry_equiv_pos_as_xyz
  1  'x, y, z'
loop_
 _atom_site_type_symbol
 _atom_site_label
 _atom_site_symmetry_multiplicity
 _atom_site_fract_x
 _atom_site_fract_y
 _atom_site_fract_z
 _atom_site_occupancy
  C  C0  1  0.64018735  0.00943060  0.24631026  1
  C  C1  1  0.36883364  0.35909182  0.24614006  1
  C  C2  1  0.99055966  0.63019580  0.24589245  1
  C  C3  1  0.98924713  0.36274174  0.74403241  1
  C  C4  1  0.37237198  0.00762637  0.74431044  1
  C  C5  1  0.70582130  0.67530364  0.41582534  1
  C  C6  1  0.01077017  0.01157100  0.49674495  1
  C  C7  1  0.99985104  0.99989268  0.00216886  1
  C  C8  1  0.66565327  0.34406025  0.83250063  1
  C  C9  1  0.66568566  0.32326369  0.33329644  1
  C  C10  1  0.33307229  0.66666452  0.16127985  1
  C  C11  1  0.34345992  0.66555475  0.66169221  1
  C  C12  1  0.00564757  0.00638758  0.35373441  1
  C  C13  1  0.66574673  0.33968531  0.68266766  1
  C  C14  1  0.66669441  0.33319330  0.18111572  1
  Ni  Ni15  1  0.99888132  0.99814943  0.85408739  1
  Ni  Ni16  1  0.99747533  0.99703176  0.64533340  1
  Ni  Ni17  1  0.00050818  0.00037292  0.14701913  1
  Ni  Ni18  1  0.66700364  0.33293067  0.98374465  1
  Ni  Ni19  1  0.66612306  0.32876010  0.48466081  1
  Ni  Ni20  1  0.33335827  0.66662384  0.01984184  1
  Ni  Ni21  1  0.33082394  0.66628518  0.52018123  1
  Ni  Ni22  1  0.33105451  0.66656027  0.31857770  1
  Ni  Ni23  1  0.33751894  0.66593387  0.81727948  1
  Cu  Cu24  1  0.29136631  0.00045258  0.25160383  1
  Cu  Cu25  1  0.70797400  0.70772541  0.25271222  1
  Cu  Cu26  1  0.99896109  0.29037356  0.25172161  1
  Cu  Cu27  1  0.29261054  0.29214946  0.75049184  1
  Cu  Cu28  1  0.99738427  0.70595052  0.75113467  1
  Cu  Cu29  1  0.70720269  0.99831301  0.75032793  1
  Cu  Cu30  1  0.96028069  0.33307631  0.58603256  1
  Cu  Cu31  1  0.37343599  0.03945099  0.58597522  1
  Cu  Cu32  1  0.66591941  0.62561405  0.58345659  1
  Cu  Cu33  1  0.96023088  0.62747162  0.08509994  1
  Cu  Cu34  1  0.66694790  0.03951335  0.08508624  1
  Cu  Cu35  1  0.37275687  0.33315273  0.08505192  1
  Cu  Cu36  1  0.62750653  0.66487808  0.91775116  1
  Cu  Cu37  1  0.03795556  0.37260109  0.91651944  1
  Cu  Cu38  1  0.33520020  0.96220134  0.91661562  1
  Cu  Cu39  1  0.62868653  0.96382469  0.41683420  1
  Cu  Cu40  1  0.33180023  0.36929073  0.41782580  1
  Cu  Cu41  1  0.03646855  0.66638788  0.41741967  1
  C  C42  1  0.20625854  0.03012362  0.30467106  1
  C  C43  1  0.81687237  0.78831921  0.30796729  1
  C  C44  1  0.96802098  0.17519256  0.30470399  1
  C  C45  1  0.21019316  0.17527196  0.80638138  1
  C  C46  1  0.96983061  0.78901521  0.80745824  1
  C  C47  1  0.82416136  0.03401834  0.80594620  1
  C  C48  1  0.78782287  0.96183602  0.69542601  1
  C  C49  1  0.16779626  0.21193253  0.69643557  1
  C  C50  1  0.04374374  0.83057376  0.69705742  1
  C  C51  1  0.78533254  0.82885988  0.19698508  1
  C  C52  1  0.04546075  0.21874518  0.19486004  1
  C  C53  1  0.17338557  0.95467840  0.19475851  1
  C  C54  1  0.88162732  0.35732335  0.64236788  1
  C  C55  1  0.47682578  0.11726660  0.64232184  1
  C  C56  1  0.64013794  0.51451920  0.63671880  1
  C  C57  1  0.88298366  0.52465234  0.14138418  1
  C  C58  1  0.64158854  0.11719185  0.14131467  1
  C  C59  1  0.47567615  0.35860799  0.14134423  1
  C  C60  1  0.45393824  0.30342765  0.02798606  1
  C  C61  1  0.84962318  0.54637125  0.02800359  1
  C  C62  1  0.69714428  0.15022763  0.02797789  1
  C  C63  1  0.45278866  0.15004737  0.52895767  1
  C  C64  1  0.69549192  0.55234802  0.52375405  1
  C  C65  1  0.85030563  0.30330512  0.52895689  1
  C  C66  1  0.54350072  0.69750567  0.97199731  1
  C  C67  1  0.15664808  0.45962087  0.97007562  1
  C  C68  1  0.30351030  0.84354603  0.97012616  1
  C  C69  1  0.53749891  0.83925595  0.46975583  1
  C  C70  1  0.30733430  0.46289612  0.47142002  1
  C  C71  1  0.15484844  0.69370653  0.47088492  1
  C  C72  1  0.10969871  0.62900987  0.35886315  1
  C  C73  1  0.51725068  0.88889138  0.35823988  1
  C  C74  1  0.37702120  0.48793090  0.35993250  1
  C  C75  1  0.11366197  0.47914583  0.85791904  1
  C  C76  1  0.36539226  0.88630094  0.85793837  1
  C  C77  1  0.51747231  0.63142515  0.86040011  1
  C  C78  1  0.01214711  0.82407187  0.41210423  1
  C  C79  1  0.80514365  0.97459510  0.41123985  1
  C  C80  1  0.17299317  0.19201826  0.41183150  1
  C  C81  1  0.02176132  0.18994313  0.91173259  1
  C  C82  1  0.16865554  0.97867371  0.91212223  1
  C  C83  1  0.81001364  0.83167318  0.91242461  1
  C  C84  1  0.98139350  0.16761993  0.58768335  1
  C  C85  1  0.18704416  0.01919077  0.58795190  1
  C  C86  1  0.83270601  0.81181837  0.58658596  1
  C  C87  1  0.98065966  0.81363453  0.08740408  1
  C  C88  1  0.83268445  0.01872989  0.08744212  1
  C  C89  1  0.18639804  0.16731843  0.08723221  1
  C  C90  1  0.68627848  0.15956086  0.74494953  1
  C  C91  1  0.47071773  0.30833867  0.74413494  1
  C  C92  1  0.84324877  0.52327613  0.74491610  1
  C  C93  1  0.68309634  0.52413445  0.24400777  1
  C  C94  1  0.84106933  0.31743333  0.24355671  1
  C  C95  1  0.47620697  0.15858792  0.24356586  1
  C  C96  1  0.64580707  0.50041250  0.92302904  1
  C  C97  1  0.85562626  0.35577029  0.92220077  1
  C  C98  1  0.50047327  0.14454245  0.92226064  1
  C  C99  1  0.64083739  0.14383684  0.42297120  1
  C  C100  1  0.50724790  0.36545483  0.42329859  1
  C  C101  1  0.85181031  0.49837447  0.42291000  1
  C  C102  1  0.35445040  0.49953812  0.07803087  1
  C  C103  1  0.14505798  0.64556466  0.07796779  1
  C  C104  1  0.50010609  0.85516073  0.07800570  1
  C  C105  1  0.35478840  0.85492141  0.57885336  1
  C  C106  1  0.50083994  0.64686109  0.57782823  1
  C  C107  1  0.14495571  0.49947572  0.57926379  1
  C  C108  1  0.30923463  0.82981459  0.25590368  1
  C  C109  1  0.51933932  0.68985516  0.25608477  1
  C  C110  1  0.16992818  0.47887831  0.25632152  1
  C  C111  1  0.29986099  0.47269001  0.75674159  1
  C  C112  1  0.17114790  0.69423919  0.75663334  1
  C  C113  1  0.52031794  0.83312932  0.75608735  1
