# generated using pymatgen
data_Cu2NiC10
_symmetry_space_group_name_H-M   'P 1'
_cell_length_a   6.50985539
_cell_length_b   6.10509719
_cell_length_c   6.95555685
_cell_angle_alpha   59.47835416
_cell_angle_beta   53.81307668
_cell_angle_gamma   86.59378334
_symmetry_Int_Tables_number   1
_chemical_formula_structural   Cu2NiC10
_chemical_formula_sum   'Cu2 Ni1 C10'
_cell_volume   180.33726214
_cell_formula_units_Z   1
loop_
 _symmetry_equiv_pos_site_id
 _symmetry_equiv_pos_as_xyz
  1  'x, y, z'
loop_
 _atom_site_type_symbol
 _atom_site_label
 _atom_site_symmetry_multiplicity
 _atom_site_fract_x
 _atom_site_fract_y
 _atom_site_fract_z
 _atom_site_occupancy
  Ni  Ni0  1  0.50000000  0.50000000  0.00000000  1
  Cu  Cu1  1  0.00000000  0.50000000  0.50000000  1
  Cu  Cu2  1  0.50000000  0.00000000  0.00000000  1
  C  C3  1  0.00000000  0.00000000  0.50000000  1
  C  C4  1  0.00000000  0.00000000  0.00000000  1
  C  C5  1  0.72582800  0.77289600  0.97274800  1
  C  C6  1  0.24742800  0.75362900  0.42885200  1
  C  C7  1  0.73922700  0.26176100  0.93402800  1
  C  C8  1  0.77242800  0.72534900  0.52862400  1
  C  C9  1  0.22757200  0.27465100  0.47137600  1
  C  C10  1  0.26077300  0.73823900  0.06597200  1
  C  C11  1  0.75257200  0.24637100  0.57114800  1
  C  C12  1  0.27417200  0.22710400  0.02725200  1
