# generated using pymatgen
data_Cu2NiC2
_symmetry_space_group_name_H-M   'P 1'
_cell_length_a   3.23513200
_cell_length_b   3.23515359
_cell_length_c   36.62826806
_cell_angle_alpha   89.99390383
_cell_angle_beta   90.00000000
_cell_angle_gamma   119.99975877
_symmetry_Int_Tables_number   1
_chemical_formula_structural   Cu2NiC2
_chemical_formula_sum   'Cu4 Ni2 C4'
_cell_volume   331.99762539
_cell_formula_units_Z   2
loop_
 _symmetry_equiv_pos_site_id
 _symmetry_equiv_pos_as_xyz
  1  'x, y, z'
loop_
 _atom_site_type_symbol
 _atom_site_label
 _atom_site_symmetry_multiplicity
 _atom_site_fract_x
 _atom_site_fract_y
 _atom_site_fract_z
 _atom_site_occupancy
  C  C0  1  0.33329200  0.66658600  0.46844800  1
  C  C1  1  0.33331800  0.66663400  0.11593200  1
  C  C2  1  0.33332900  0.66665600  0.58887300  1
  C  C3  1  0.66665700  0.33331500  0.34003700  1
  Ni  Ni4  1  0.33335100  0.66670100  0.38710500  1
  Ni  Ni5  1  0.33334300  0.66668700  0.29312100  1
  Cu  Cu6  1  0.66671300  0.33342500  0.07359700  1
  Cu  Cu7  1  0.66671800  0.33343700  0.54628700  1
  Cu  Cu8  1  0.66659600  0.33319100  0.15825400  1
  Cu  Cu9  1  0.66661800  0.33323600  0.63109800  1
