# generated using pymatgen
data_Cu2NiC11
_symmetry_space_group_name_H-M   'P 1'
_cell_length_a   6.71626552
_cell_length_b   8.41777575
_cell_length_c   6.71626535
_cell_angle_alpha   51.70734127
_cell_angle_beta   51.89664884
_cell_angle_gamma   51.70734668
_symmetry_Int_Tables_number   1
_chemical_formula_structural   Cu2NiC11
_chemical_formula_sum   'Cu2 Ni1 C11'
_cell_volume   216.51106485
_cell_formula_units_Z   1
loop_
 _symmetry_equiv_pos_site_id
 _symmetry_equiv_pos_as_xyz
  1  'x, y, z'
loop_
 _atom_site_type_symbol
 _atom_site_label
 _atom_site_symmetry_multiplicity
 _atom_site_fract_x
 _atom_site_fract_y
 _atom_site_fract_z
 _atom_site_occupancy
  C  C0  1  0.76469557  0.87208705  0.76469557  1
  C  C1  1  0.22435146  0.18054370  0.22435146  1
  C  C2  1  0.09692273  0.82416737  0.09692273  1
  Ni  Ni3  1  0.86089431  0.34850243  0.86089431  1
  Cu  Cu4  1  0.53877744  0.65430856  0.53877744  1
  Cu  Cu5  1  0.43859632  0.35846131  0.43859632  1
  C  C6  1  0.69280601  0.35003245  0.69280601  1
  C  C7  1  0.19215550  0.85097729  0.66557747  1
  C  C8  1  0.66557747  0.85097729  0.19215550  1
  C  C9  1  0.37909896  0.62394649  0.37909896  1
  C  C10  1  0.79815892  0.19069887  0.26924594  1
  C  C11  1  0.26453719  0.42272415  0.26453719  1
  C  C12  1  0.69811119  0.66580316  0.69811119  1
  C  C13  1  0.26924594  0.19069887  0.79815892  1
