# generated using pymatgen
data_Cu3Ni3C35
_symmetry_space_group_name_H-M   'P 1'
_cell_length_a   8.81781723
_cell_length_b   8.78406000
_cell_length_c   21.70768102
_cell_angle_alpha   90.02701870
_cell_angle_beta   90.07365124
_cell_angle_gamma   120.06428513
_symmetry_Int_Tables_number   1
_chemical_formula_structural   Cu3Ni3C35
_chemical_formula_sum   'Cu9 Ni9 C105'
_cell_volume   1455.18442536
_cell_formula_units_Z   3
loop_
 _symmetry_equiv_pos_site_id
 _symmetry_equiv_pos_as_xyz
  1  'x, y, z'
loop_
 _atom_site_type_symbol
 _atom_site_label
 _atom_site_symmetry_multiplicity
 _atom_site_fract_x
 _atom_site_fract_y
 _atom_site_fract_z
 _atom_site_occupancy
  C  C0  1  0.63044684  0.99862734  0.25256818  1
  C  C1  1  0.36783805  0.36997062  0.25222361  1
  C  C2  1  0.00226898  0.63358087  0.25375988  1
  C  C3  1  0.63716968  0.62844092  0.74509385  1
  C  C4  1  0.99704476  0.35885153  0.74416948  1
  C  C5  1  0.29849709  0.33811517  0.58403342  1
  C  C6  1  0.03336037  0.69910995  0.58281676  1
  C  C7  1  0.66768018  0.96451952  0.58126483  1
  C  C8  1  0.30185211  0.96846298  0.08436869  1
  C  C9  1  0.66311749  0.69876936  0.08485558  1
  C  C10  1  0.03702159  0.33106232  0.08256115  1
  C  C11  1  0.32606929  0.29767103  0.91338304  1
  C  C12  1  0.97289779  0.29880622  0.41589670  1
  C  C13  1  0.32837950  0.02866647  0.41557351  1
  C  C14  1  0.69931101  0.67239201  0.41572563  1
  C  C15  1  0.99793992  0.00037248  0.49971693  1
  C  C16  1  0.99198392  0.99661365  0.99710104  1
  C  C17  1  0.66404762  0.32400650  0.82822779  1
  C  C18  1  0.66544888  0.33230534  0.33216282  1
  C  C19  1  0.33596058  0.66665952  0.16666732  1
  C  C20  1  0.33448183  0.67156530  0.66075531  1
  C  C21  1  0.66945586  0.32757509  0.97938889  1
  C  C22  1  0.67258703  0.33787371  0.47950713  1
  C  C23  1  0.32716552  0.66398716  0.80980016  1
  Ni  Ni24  1  0.99874233  0.99919512  0.35519258  1
  Ni  Ni25  1  0.00020829  0.00511956  0.85222415  1
  Ni  Ni26  1  0.99899948  0.00403629  0.64654994  1
  Ni  Ni27  1  0.00118030  0.00428293  0.14752618  1
  Ni  Ni28  1  0.65921996  0.33063819  0.68489999  1
  Ni  Ni29  1  0.66130037  0.33065897  0.18379896  1
  Ni  Ni30  1  0.33821511  0.66390852  0.01959588  1
  Ni  Ni31  1  0.33264513  0.66110283  0.51793733  1
  Ni  Ni32  1  0.33260580  0.66581909  0.31814708  1
  Cu  Cu33  1  0.29062983  0.27017870  0.74923893  1
  Cu  Cu34  1  0.96233621  0.33480165  0.58876895  1
  Cu  Cu35  1  0.66668936  0.63161074  0.58808556  1
  Cu  Cu36  1  0.66509605  0.03461435  0.08827833  1
  Cu  Cu37  1  0.37174549  0.33366675  0.08677911  1
  Cu  Cu38  1  0.04284534  0.36997541  0.91923192  1
  Cu  Cu39  1  0.61848419  0.94596769  0.41497681  1
  Cu  Cu40  1  0.32655495  0.37839746  0.41449791  1
  Cu  Cu41  1  0.05586683  0.67462763  0.41514352  1
  C  C42  1  0.28696302  0.00007083  0.24928809  1
  C  C43  1  0.71409555  0.71220994  0.24890569  1
  C  C44  1  0.99949693  0.28914106  0.24939782  1
  C  C45  1  0.99648949  0.72140113  0.74967609  1
  C  C46  1  0.71962782  0.00692789  0.74931708  1
  C  C47  1  0.37470701  0.04132188  0.58646919  1
  C  C48  1  0.95815515  0.62510858  0.08700862  1
  C  C49  1  0.63186854  0.67924283  0.91749618  1
  C  C50  1  0.32271579  0.94706595  0.91919880  1
  C  C51  1  0.20187047  0.03175041  0.30625452  1
  C  C52  1  0.82988276  0.79707792  0.30630434  1
  C  C53  1  0.96578835  0.17123929  0.30627495  1
  C  C54  1  0.20044337  0.16926255  0.81248325  1
  C  C55  1  0.96814610  0.80662156  0.80624537  1
  C  C56  1  0.83317543  0.03370122  0.80587093  1
  C  C57  1  0.79205304  0.96291640  0.69139939  1
  C  C58  1  0.16138073  0.19758512  0.69018404  1
  C  C59  1  0.02659309  0.82899287  0.69078266  1
  C  C60  1  0.80132154  0.82885956  0.19154241  1
  C  C61  1  0.03058056  0.20349450  0.19188450  1
  C  C62  1  0.17001964  0.96908018  0.19175121  1
  C  C63  1  0.86309240  0.36722710  0.64571547  1
  C  C64  1  0.50083765  0.13244586  0.64026923  1
  C  C65  1  0.62838596  0.49827295  0.64489872  1
  C  C66  1  0.87289004  0.50309700  0.14297187  1
  C  C67  1  0.62838305  0.13035033  0.14536645  1
  C  C68  1  0.50532181  0.37521797  0.14421034  1
  C  C69  1  0.46228401  0.29680604  0.02522915  1
  C  C70  1  0.83548597  0.53959675  0.02973355  1
  C  C71  1  0.70791288  0.17086111  0.02809399  1
  C  C72  1  0.45443389  0.15715410  0.52665444  1
  C  C73  1  0.70230197  0.53942448  0.52578083  1
  C  C74  1  0.83391220  0.29575759  0.52630002  1
  C  C75  1  0.54293642  0.70070485  0.97556400  1
  C  C76  1  0.16962802  0.46865888  0.97747604  1
  C  C77  1  0.30726218  0.84039415  0.97708025  1
  C  C78  1  0.53418968  0.82952201  0.47651017  1
  C  C79  1  0.29167377  0.46029066  0.47614671  1
  C  C80  1  0.17167167  0.70702363  0.47675231  1
  C  C81  1  0.13066752  0.62654335  0.35418797  1
  C  C82  1  0.49612648  0.86875202  0.35370213  1
  C  C83  1  0.37378128  0.50299152  0.35376162  1
  C  C84  1  0.13522690  0.49587328  0.85750495  1
  C  C85  1  0.36008435  0.86614109  0.86179454  1
  C  C86  1  0.50875358  0.64014755  0.86012084  1
  C  C87  1  0.02358009  0.84059958  0.40750057  1
  C  C88  1  0.81571534  0.97533889  0.40745270  1
  C  C89  1  0.15759128  0.18160920  0.40670594  1
  C  C90  1  0.02624661  0.17995572  0.91091668  1
  C  C91  1  0.16363534  0.97105685  0.91241974  1
  C  C92  1  0.81218998  0.83624731  0.90844171  1
  C  C93  1  0.97757432  0.15778136  0.59039495  1
  C  C94  1  0.19311739  0.02440528  0.59171693  1
  C  C95  1  0.84670552  0.82073461  0.59190787  1
  C  C96  1  0.97449723  0.80753354  0.09255782  1
  C  C97  1  0.83938561  0.01667943  0.09236312  1
  C  C98  1  0.18078488  0.15535195  0.09233396  1
  C  C99  1  0.69937175  0.17038873  0.74308426  1
  C  C100  1  0.49209939  0.31256322  0.74402894  1
  C  C101  1  0.83978792  0.53054962  0.74627028  1
  C  C102  1  0.69623955  0.52527037  0.24363796  1
  C  C103  1  0.83355627  0.31051671  0.24323813  1
  C  C104  1  0.47382672  0.16833042  0.24440852  1
  C  C105  1  0.63662362  0.50315184  0.92225075  1
  C  C106  1  0.85134286  0.36006840  0.92079868  1
  C  C107  1  0.49039148  0.13776490  0.92224264  1
  C  C108  1  0.64037047  0.14516073  0.42063898  1
  C  C109  1  0.50187820  0.35483226  0.42096421  1
  C  C110  1  0.85560821  0.49653932  0.42031283  1
  C  C111  1  0.35374652  0.50843731  0.07780310  1
  C  C112  1  0.13965798  0.64347331  0.07794053  1
  C  C113  1  0.48855439  0.84696419  0.07587411  1
  C  C114  1  0.35859913  0.85956805  0.57921922  1
  C  C115  1  0.49314475  0.64913546  0.57861755  1
  C  C116  1  0.15106596  0.51212900  0.57912343  1
  C  C117  1  0.30745170  0.83380356  0.25310426  1
  C  C118  1  0.52829581  0.69182655  0.25260445  1
  C  C119  1  0.16658890  0.47539165  0.25362070  1
  C  C120  1  0.31400328  0.47942711  0.75549253  1
  C  C121  1  0.16447373  0.69786525  0.75437911  1
  C  C122  1  0.53232286  0.83798141  0.75624328  1
