# generated using pymatgen
data_Cu3NiC16
_symmetry_space_group_name_H-M   'P 1'
_cell_length_a   15.37750226
_cell_length_b   8.85646871
_cell_length_c   8.86058934
_cell_angle_alpha   90.18948212
_cell_angle_beta   124.86701449
_cell_angle_gamma   89.86516721
_symmetry_Int_Tables_number   1
_chemical_formula_structural   Cu3NiC16
_chemical_formula_sum   'Cu12 Ni4 C64'
_cell_volume   990.09109101
_cell_formula_units_Z   4
loop_
 _symmetry_equiv_pos_site_id
 _symmetry_equiv_pos_as_xyz
  1  'x, y, z'
loop_
 _atom_site_type_symbol
 _atom_site_label
 _atom_site_symmetry_multiplicity
 _atom_site_fract_x
 _atom_site_fract_y
 _atom_site_fract_z
 _atom_site_occupancy
  C  C0  1  0.24129839  0.76969911  0.99054074  1
  C  C1  1  0.74855175  0.72405535  0.50249890  1
  C  C2  1  0.75021236  0.27190969  0.00387362  1
  C  C3  1  0.24144627  0.22319056  0.49228207  1
  C  C4  1  0.50209141  0.09962425  0.75241095  1
  C  C5  1  0.50319323  0.90086169  0.24559988  1
  C  C6  1  0.00421153  0.61290614  0.74987604  1
  C  C7  1  0.00056597  0.38472257  0.24402521  1
  C  C8  1  0.81694178  0.93323220  0.22348560  1
  C  C9  1  0.81450782  0.07221467  0.71764945  1
  C  C10  1  0.30260865  0.43254602  0.19968931  1
  C  C11  1  0.30987897  0.56289419  0.72247304  1
  Ni  Ni12  1  0.89926241  0.74988921  0.94398432  1
  Ni  Ni13  1  0.89879709  0.25115197  0.44249954  1
  Ni  Ni14  1  0.10008078  0.24564559  0.04937936  1
  Ni  Ni15  1  0.39557585  0.25062178  0.94092792  1
  C  C16  1  0.10187827  0.76071502  0.54928933  1
  C  C17  1  0.60117177  0.25785006  0.55321897  1
  C  C18  1  0.39621262  0.74906894  0.43849761  1
  C  C19  1  0.60402097  0.74177779  0.05280018  1
  Cu  Cu20  1  0.99789543  0.96457153  0.75075246  1
  Cu  Cu21  1  -0.00008905  0.05034208  0.24098117  1
  Cu  Cu22  1  0.49330269  0.43839494  0.74891925  1
  Cu  Cu23  1  0.49607281  0.54562489  0.23896324  1
  Cu  Cu24  1  0.35415371  0.90755758  0.76357799  1
  Cu  Cu25  1  0.65894678  0.89083269  0.74788017  1
  Cu  Cu26  1  0.65318641  0.11282184  0.24575495  1
  Cu  Cu27  1  0.34799424  0.10824898  0.24300260  1
  Cu  Cu28  1  0.86322206  0.40134926  0.75539478  1
  Cu  Cu29  1  0.14598453  0.38318320  0.74742769  1
  Cu  Cu30  1  0.14297674  0.59917095  0.23456489  1
  Cu  Cu31  1  0.85855362  0.59681709  0.25597867  1
  C  C32  1  0.15581695  0.55988843  0.74643140  1
  C  C33  1  0.85824170  0.57694902  0.76497475  1
  C  C34  1  0.85644537  0.42175012  0.26520437  1
  C  C35  1  0.14927009  0.42399618  0.21825070  1
  C  C36  1  0.67060303  0.06565050  0.74572339  1
  C  C37  1  0.34908112  0.08047555  0.77648032  1
  C  C38  1  0.34403034  0.93348410  0.23577679  1
  C  C39  1  0.66545009  0.93754782  0.24148100  1
  C  C40  1  0.42261326  0.53016907  0.56949341  1
  C  C41  1  0.55876483  0.53901413  0.91721581  1
  C  C42  1  0.55693894  0.46245239  0.42331209  1
  C  C43  1  0.43747705  0.43960560  0.06985276  1
  C  C44  1  0.92815025  0.05847732  0.57016185  1
  C  C45  1  0.05833596  0.07061978  0.91649309  1
  C  C46  1  0.07720892  0.96665670  0.42087431  1
  C  C47  1  0.92975448  0.93926377  0.07907299  1
  C  C48  1  0.26217563  0.82383396  0.75083888  1
  C  C49  1  0.75585872  0.81575833  0.76749827  1
  C  C50  1  0.75066319  0.18465939  0.26252929  1
  C  C51  1  0.24774499  0.17831822  0.21808107  1
  C  C52  1  0.76993182  0.32727811  0.74896174  1
  C  C53  1  0.24518483  0.31932873  0.76438798  1
  C  C54  1  0.23434249  0.66893238  0.23354406  1
  C  C55  1  0.76422782  0.67078719  0.24472063  1
  C  C56  1  0.35698500  0.87611622  0.59459595  1
  C  C57  1  0.65747300  0.86487591  0.91838624  1
  C  C58  1  0.65800838  0.13616447  0.42377542  1
  C  C59  1  0.36439927  0.16322523  0.09573543  1
  C  C60  1  0.86366502  0.35984849  0.58525019  1
  C  C61  1  0.14392243  0.34908396  0.91646817  1
  C  C62  1  0.15690340  0.62123666  0.42135168  1
  C  C63  1  0.86585571  0.64221759  0.09492003  1
  C  C64  1  0.45499773  0.84695407  0.94030792  1
  C  C65  1  0.55636401  0.83692003  0.56756284  1
  C  C66  1  0.54686097  0.16928394  0.07527913  1
  C  C67  1  0.44416495  0.16030871  0.43546903  1
  C  C68  1  0.96572393  0.34070144  0.93017295  1
  C  C69  1  0.04297265  0.32501804  0.56836322  1
  C  C70  1  0.03769076  0.66795574  0.07413235  1
  C  C71  1  0.95562571  0.65726176  0.44088788  1
  C  C72  1  0.07611999  0.85572414  0.74871286  1
  C  C73  1  0.92107241  0.86121956  0.76826544  1
  C  C74  1  0.92049822  0.14774335  0.25932581  1
  C  C75  1  0.06863245  0.16135872  0.21528261  1
  C  C76  1  0.57328765  0.32815841  0.75270552  1
  C  C77  1  0.41289781  0.34078364  0.76094122  1
  C  C78  1  0.40689485  0.64282596  0.22607465  1
  C  C79  1  0.57596398  0.65662531  0.24647261  1
