# generated using pymatgen
data_Cu6Ni6C7
_symmetry_space_group_name_H-M   'P 1'
_cell_length_a   5.21292293
_cell_length_b   14.80380568
_cell_length_c   3.05057400
_cell_angle_alpha   90.00000000
_cell_angle_beta   90.00000000
_cell_angle_gamma   90.51034617
_symmetry_Int_Tables_number   1
_chemical_formula_structural   Cu6Ni6C7
_chemical_formula_sum   'Cu6 Ni6 C7'
_cell_volume   235.40680649
_cell_formula_units_Z   1
loop_
 _symmetry_equiv_pos_site_id
 _symmetry_equiv_pos_as_xyz
  1  'x, y, z'
loop_
 _atom_site_type_symbol
 _atom_site_label
 _atom_site_symmetry_multiplicity
 _atom_site_fract_x
 _atom_site_fract_y
 _atom_site_fract_z
 _atom_site_occupancy
  C  C0  1  0.93679600  0.83827200  0.50000000  1
  C  C1  1  0.10444400  0.02908300  0.00000000  1
  C  C2  1  0.03720400  0.34140500  0.00000000  1
  C  C3  1  0.99756000  0.65253700  0.00000000  1
  C  C4  1  0.59857900  0.15098200  0.50000000  1
  C  C5  1  0.41738700  0.50444200  0.50000000  1
  C  C6  1  0.41047200  0.82512300  0.50000000  1
  Ni  Ni7  1  0.16774600  0.59062000  0.50000000  1
  Ni  Ni8  1  0.18863600  0.94386700  0.50000000  1
  Ni  Ni9  1  0.40004000  0.11088900  0.00000000  1
  Ni  Ni10  1  0.15798000  0.78122400  0.00000000  1
  Ni  Ni11  1  0.30621600  0.42613900  0.00000000  1
  Ni  Ni12  1  0.89345200  0.07913300  0.50000000  1
  Cu  Cu13  1  0.18044200  0.26964000  0.50000000  1
  Cu  Cu14  1  0.73412500  0.24140200  0.00000000  1
  Cu  Cu15  1  0.65515300  0.55394300  0.00000000  1
  Cu  Cu16  1  0.69653400  0.88196700  0.00000000  1
  Cu  Cu17  1  0.83517000  0.39313000  0.50000000  1
  Cu  Cu18  1  0.71262100  0.72879200  0.50000000  1
