# generated using pymatgen
data_Cu2Ni4C
_symmetry_space_group_name_H-M   'P 1'
_cell_length_a   10.83044600
_cell_length_b   10.83044600
_cell_length_c   10.83044600
_cell_angle_alpha   90.00000000
_cell_angle_beta   90.00000000
_cell_angle_gamma   90.00000000
_symmetry_Int_Tables_number   1
_chemical_formula_structural   Cu2Ni4C
_chemical_formula_sum   'Cu36 Ni72 C18'
_cell_volume   1270.39572601
_cell_formula_units_Z   18
loop_
 _symmetry_equiv_pos_site_id
 _symmetry_equiv_pos_as_xyz
  1  'x, y, z'
loop_
 _atom_site_type_symbol
 _atom_site_label
 _atom_site_symmetry_multiplicity
 _atom_site_fract_x
 _atom_site_fract_y
 _atom_site_fract_z
 _atom_site_occupancy
  C  C0  1  0.81486500  0.50000000  0.00000000  1
  C  C1  1  0.50000000  0.00000000  0.81486500  1
  C  C2  1  0.00000000  0.81486500  0.50000000  1
  C  C3  1  0.50000000  0.00000000  0.18513500  1
  C  C4  1  0.00000000  0.18513500  0.50000000  1
  C  C5  1  0.18513500  0.50000000  0.00000000  1
  C  C6  1  0.00000000  0.63210800  0.13193000  1
  C  C7  1  0.00000000  0.36789200  0.86807000  1
  C  C8  1  0.00000000  0.63210800  0.86807000  1
  C  C9  1  0.36789200  0.86807000  0.00000000  1
  C  C10  1  0.86807000  0.00000000  0.63210800  1
  C  C11  1  0.86807000  0.00000000  0.36789200  1
  C  C12  1  0.63210800  0.13193000  0.00000000  1
  C  C13  1  0.13193000  0.00000000  0.63210800  1
  C  C14  1  0.63210800  0.86807000  0.00000000  1
  C  C15  1  0.36789200  0.13193000  0.00000000  1
  C  C16  1  0.13193000  0.00000000  0.36789200  1
  C  C17  1  0.00000000  0.36789200  0.13193000  1
  Ni  Ni18  1  0.00000000  0.92381800  0.19343300  1
  Ni  Ni19  1  0.00000000  0.07618200  0.80656700  1
  Ni  Ni20  1  0.00000000  0.92381800  0.80656700  1
  Ni  Ni21  1  0.07618200  0.80656700  0.00000000  1
  Ni  Ni22  1  0.80656700  0.00000000  0.92381800  1
  Ni  Ni23  1  0.80656700  0.00000000  0.07618200  1
  Ni  Ni24  1  0.92381800  0.19343300  0.00000000  1
  Ni  Ni25  1  0.19343300  0.00000000  0.92381800  1
  Ni  Ni26  1  0.92381800  0.80656700  0.00000000  1
  Ni  Ni27  1  0.07618200  0.19343300  0.00000000  1
  Ni  Ni28  1  0.19343300  0.00000000  0.07618200  1
  Ni  Ni29  1  0.00000000  0.07618200  0.19343300  1
  Ni  Ni30  1  0.50000000  0.69186400  0.07459800  1
  Ni  Ni31  1  0.50000000  0.30813600  0.92540200  1
  Ni  Ni32  1  0.50000000  0.69186400  0.92540200  1
  Ni  Ni33  1  0.30813600  0.92540200  0.50000000  1
  Ni  Ni34  1  0.92540200  0.50000000  0.69186400  1
  Ni  Ni35  1  0.92540200  0.50000000  0.30813600  1
  Ni  Ni36  1  0.69186400  0.07459800  0.50000000  1
  Ni  Ni37  1  0.07459800  0.50000000  0.69186400  1
  Ni  Ni38  1  0.69186400  0.92540200  0.50000000  1
  Ni  Ni39  1  0.30813600  0.07459800  0.50000000  1
  Ni  Ni40  1  0.07459800  0.50000000  0.30813600  1
  Ni  Ni41  1  0.50000000  0.30813600  0.07459800  1
  Ni  Ni42  1  0.20613900  0.21684600  0.59811800  1
  Ni  Ni43  1  0.20613900  0.78315400  0.40188200  1
  Ni  Ni44  1  0.79386100  0.21684600  0.40188200  1
  Ni  Ni45  1  0.78315400  0.40188200  0.20613900  1
  Ni  Ni46  1  0.40188200  0.79386100  0.21684600  1
  Ni  Ni47  1  0.40188200  0.20613900  0.78315400  1
  Ni  Ni48  1  0.21684600  0.59811800  0.20613900  1
  Ni  Ni49  1  0.59811800  0.20613900  0.21684600  1
  Ni  Ni50  1  0.21684600  0.40188200  0.79386100  1
  Ni  Ni51  1  0.78315400  0.59811800  0.79386100  1
  Ni  Ni52  1  0.59811800  0.79386100  0.78315400  1
  Ni  Ni53  1  0.79386100  0.78315400  0.59811800  1
  Ni  Ni54  1  0.79386100  0.78315400  0.40188200  1
  Ni  Ni55  1  0.79386100  0.21684600  0.59811800  1
  Ni  Ni56  1  0.20613900  0.78315400  0.59811800  1
  Ni  Ni57  1  0.21684600  0.59811800  0.79386100  1
  Ni  Ni58  1  0.59811800  0.20613900  0.78315400  1
  Ni  Ni59  1  0.59811800  0.79386100  0.21684600  1
  Ni  Ni60  1  0.78315400  0.40188200  0.79386100  1
  Ni  Ni61  1  0.40188200  0.79386100  0.78315400  1
  Ni  Ni62  1  0.78315400  0.59811800  0.20613900  1
  Ni  Ni63  1  0.21684600  0.40188200  0.20613900  1
  Ni  Ni64  1  0.40188200  0.20613900  0.21684600  1
  Ni  Ni65  1  0.20613900  0.21684600  0.40188200  1
  Ni  Ni66  1  0.09911400  0.22140500  0.70458600  1
  Ni  Ni67  1  0.09911400  0.77859500  0.29541400  1
  Ni  Ni68  1  0.90088600  0.22140500  0.29541400  1
  Ni  Ni69  1  0.77859500  0.29541400  0.09911400  1
  Ni  Ni70  1  0.29541400  0.90088600  0.22140500  1
  Ni  Ni71  1  0.29541400  0.09911400  0.77859500  1
  Ni  Ni72  1  0.09911400  0.22140500  0.29541400  1
  Ni  Ni73  1  0.29541400  0.09911400  0.22140500  1
  Ni  Ni74  1  0.22140500  0.29541400  0.09911400  1
  Ni  Ni75  1  0.77859500  0.70458600  0.09911400  1
  Ni  Ni76  1  0.29541400  0.90088600  0.77859500  1
  Ni  Ni77  1  0.77859500  0.29541400  0.90088600  1
  Ni  Ni78  1  0.70458600  0.90088600  0.22140500  1
  Ni  Ni79  1  0.70458600  0.09911400  0.77859500  1
  Ni  Ni80  1  0.22140500  0.70458600  0.90088600  1
  Ni  Ni81  1  0.09911400  0.77859500  0.70458600  1
  Ni  Ni82  1  0.90088600  0.22140500  0.70458600  1
  Ni  Ni83  1  0.90088600  0.77859500  0.29541400  1
  Ni  Ni84  1  0.90088600  0.77859500  0.70458600  1
  Ni  Ni85  1  0.70458600  0.90088600  0.77859500  1
  Ni  Ni86  1  0.77859500  0.70458600  0.90088600  1
  Ni  Ni87  1  0.22140500  0.29541400  0.90088600  1
  Ni  Ni88  1  0.70458600  0.09911400  0.22140500  1
  Ni  Ni89  1  0.22140500  0.70458600  0.09911400  1
  Cu  Cu90  1  0.75041600  0.00000000  0.00000000  1
  Cu  Cu91  1  0.00000000  0.00000000  0.75041600  1
  Cu  Cu92  1  0.00000000  0.75041600  0.00000000  1
  Cu  Cu93  1  0.00000000  0.00000000  0.24958400  1
  Cu  Cu94  1  0.00000000  0.24958400  0.00000000  1
  Cu  Cu95  1  0.24958400  0.00000000  0.00000000  1
  Cu  Cu96  1  0.75003700  0.00000000  0.50000000  1
  Cu  Cu97  1  0.00000000  0.50000000  0.75003700  1
  Cu  Cu98  1  0.50000000  0.75003700  0.00000000  1
  Cu  Cu99  1  0.00000000  0.50000000  0.24996300  1
  Cu  Cu100  1  0.50000000  0.24996300  0.00000000  1
  Cu  Cu101  1  0.24996300  0.00000000  0.50000000  1
  Cu  Cu102  1  0.12459200  0.17674500  0.62452800  1
  Cu  Cu103  1  0.12459200  0.82325500  0.37547200  1
  Cu  Cu104  1  0.87540800  0.17674500  0.37547200  1
  Cu  Cu105  1  0.82325500  0.37547200  0.12459200  1
  Cu  Cu106  1  0.37547200  0.87540800  0.17674500  1
  Cu  Cu107  1  0.37547200  0.12459200  0.82325500  1
  Cu  Cu108  1  0.17674500  0.62452800  0.12459200  1
  Cu  Cu109  1  0.62452800  0.12459200  0.17674500  1
  Cu  Cu110  1  0.17674500  0.37547200  0.87540800  1
  Cu  Cu111  1  0.82325500  0.62452800  0.87540800  1
  Cu  Cu112  1  0.62452800  0.87540800  0.82325500  1
  Cu  Cu113  1  0.87540800  0.82325500  0.62452800  1
  Cu  Cu114  1  0.87540800  0.82325500  0.37547200  1
  Cu  Cu115  1  0.87540800  0.17674500  0.62452800  1
  Cu  Cu116  1  0.12459200  0.82325500  0.62452800  1
  Cu  Cu117  1  0.17674500  0.62452800  0.87540800  1
  Cu  Cu118  1  0.62452800  0.12459200  0.82325500  1
  Cu  Cu119  1  0.62452800  0.87540800  0.17674500  1
  Cu  Cu120  1  0.82325500  0.37547200  0.87540800  1
  Cu  Cu121  1  0.37547200  0.87540800  0.82325500  1
  Cu  Cu122  1  0.82325500  0.62452800  0.12459200  1
  Cu  Cu123  1  0.17674500  0.37547200  0.12459200  1
  Cu  Cu124  1  0.37547200  0.12459200  0.17674500  1
  Cu  Cu125  1  0.12459200  0.17674500  0.37547200  1
