# generated using pymatgen
data_Cu4NiC2
_symmetry_space_group_name_H-M   'P 1'
_cell_length_a   4.77626900
_cell_length_b   7.38510100
_cell_length_c   11.69828700
_cell_angle_alpha   90.00000000
_cell_angle_beta   90.00000000
_cell_angle_gamma   90.00000000
_symmetry_Int_Tables_number   1
_chemical_formula_structural   Cu4NiC2
_chemical_formula_sum   'Cu16 Ni4 C8'
_cell_volume   412.63635589
_cell_formula_units_Z   4
loop_
 _symmetry_equiv_pos_site_id
 _symmetry_equiv_pos_as_xyz
  1  'x, y, z'
loop_
 _atom_site_type_symbol
 _atom_site_label
 _atom_site_symmetry_multiplicity
 _atom_site_fract_x
 _atom_site_fract_y
 _atom_site_fract_z
 _atom_site_occupancy
  C  C0  1  0.43809600  0.50000000  0.25000000  1
  C  C1  1  0.56190400  0.00000000  0.75000000  1
  C  C2  1  0.56190400  0.50000000  0.75000000  1
  C  C3  1  0.43809600  0.00000000  0.25000000  1
  C  C4  1  0.44961900  0.75000000  0.59417200  1
  C  C5  1  0.44961900  0.25000000  0.90582800  1
  C  C6  1  0.55038100  0.25000000  0.40582800  1
  C  C7  1  0.55038100  0.75000000  0.09417200  1
  Ni  Ni8  1  0.99380700  0.75000000  0.93818200  1
  Ni  Ni9  1  0.99380700  0.25000000  0.56181800  1
  Ni  Ni10  1  0.00619300  0.25000000  0.06181800  1
  Ni  Ni11  1  0.00619300  0.75000000  0.43818200  1
  Cu  Cu12  1  0.42546700  0.75000000  0.16282100  1
  Cu  Cu13  1  0.42546700  0.25000000  0.33717900  1
  Cu  Cu14  1  0.57453300  0.25000000  0.83717900  1
  Cu  Cu15  1  0.57453300  0.75000000  0.66282100  1
  Cu  Cu16  1  0.94496700  0.41494100  0.13305300  1
  Cu  Cu17  1  0.94496700  0.58505900  0.36694700  1
  Cu  Cu18  1  0.05503300  0.91494100  0.86694700  1
  Cu  Cu19  1  0.05503300  0.08505900  0.63305300  1
  Cu  Cu20  1  0.32268400  0.75000000  0.45526100  1
  Cu  Cu21  1  0.32268400  0.25000000  0.04473900  1
  Cu  Cu22  1  0.67731600  0.25000000  0.54473900  1
  Cu  Cu23  1  0.67731600  0.75000000  0.95526100  1
  Cu  Cu24  1  0.94496700  0.91494100  0.36694700  1
  Cu  Cu25  1  0.94496700  0.08505900  0.13305300  1
  Cu  Cu26  1  0.05503300  0.41494100  0.63305300  1
  Cu  Cu27  1  0.05503300  0.58505900  0.86694700  1
