# generated using pymatgen
data_Cu5(NiC)7
_symmetry_space_group_name_H-M   'P 1'
_cell_length_a   5.18249994
_cell_length_b   7.84589458
_cell_length_c   5.95797040
_cell_angle_alpha   100.42332676
_cell_angle_beta   98.11185277
_cell_angle_gamma   84.77391722
_symmetry_Int_Tables_number   1
_chemical_formula_structural   Cu5(NiC)7
_chemical_formula_sum   'Cu5 Ni7 C7'
_cell_volume   235.34212345
_cell_formula_units_Z   1
loop_
 _symmetry_equiv_pos_site_id
 _symmetry_equiv_pos_as_xyz
  1  'x, y, z'
loop_
 _atom_site_type_symbol
 _atom_site_label
 _atom_site_symmetry_multiplicity
 _atom_site_fract_x
 _atom_site_fract_y
 _atom_site_fract_z
 _atom_site_occupancy
  C  C0  1  0.04604409  0.34395416  0.84474055  1
  C  C1  1  0.42823232  0.96659919  0.57500216  1
  C  C2  1  0.52509907  0.65450393  0.15557003  1
  C  C3  1  0.53239312  0.37637775  0.75948174  1
  C  C4  1  0.98190345  0.66934503  0.64560408  1
  C  C5  1  0.99750814  0.31967091  0.33227093  1
  C  C6  1  0.99322581  0.98806592  0.01123646  1
  Ni  Ni7  1  0.81509982  0.44576935  0.59416653  1
  Ni  Ni8  1  0.83834627  0.11504078  0.26093305  1
  Ni  Ni9  1  0.69057341  0.76125391  0.44880810  1
  Ni  Ni10  1  0.75493375  0.45024054  0.06019556  1
  Ni  Ni11  1  0.27417191  0.55005860  0.87998758  1
  Ni  Ni12  1  0.27604654  0.22749900  0.59246255  1
  Ni  Ni13  1  0.15388916  0.88005402  0.74370197  1
  Cu  Cu14  1  0.74240366  0.79853253  0.94223671  1
  Cu  Cu15  1  0.76534486  0.14565859  0.77520955  1
  Cu  Cu16  1  0.27106783  0.85979156  0.22070413  1
  Cu  Cu17  1  0.20724202  0.52632632  0.37578992  1
  Cu  Cu18  1  0.22036578  0.20458991  0.06761139  1
