# generated using pymatgen
data_Cu2(NiC)5
_symmetry_space_group_name_H-M   'P 1'
_cell_length_a   4.24865400
_cell_length_b   4.24865400
_cell_length_c   11.97830853
_cell_angle_alpha   100.21531624
_cell_angle_beta   100.21531624
_cell_angle_gamma   90.00000000
_symmetry_Int_Tables_number   1
_chemical_formula_structural   Cu2(NiC)5
_chemical_formula_sum   'Cu2 Ni5 C5'
_cell_volume   209.31008283
_cell_formula_units_Z   1
loop_
 _symmetry_equiv_pos_site_id
 _symmetry_equiv_pos_as_xyz
  1  'x, y, z'
loop_
 _atom_site_type_symbol
 _atom_site_label
 _atom_site_symmetry_multiplicity
 _atom_site_fract_x
 _atom_site_fract_y
 _atom_site_fract_z
 _atom_site_occupancy
  C  C0  1  0.50000000  0.50000000  0.00000000  1
  C  C1  1  0.67615200  0.67615200  0.35230400  1
  C  C2  1  0.32384800  0.32384800  0.64769600  1
  C  C3  1  0.90892200  0.90892200  0.81784400  1
  C  C4  1  0.09107800  0.09107800  0.18215600  1
  Ni  Ni5  1  0.10369500  0.60369500  0.20739000  1
  Ni  Ni6  1  0.60369500  0.10369500  0.20739000  1
  Ni  Ni7  1  0.00000000  0.00000000  0.00000000  1
  Ni  Ni8  1  0.89630500  0.39630500  0.79261000  1
  Ni  Ni9  1  0.39630500  0.89630500  0.79261000  1
  Cu  Cu10  1  0.20509400  0.20509400  0.41018800  1
  Cu  Cu11  1  0.79490600  0.79490600  0.58981200  1
