# generated using pymatgen
data_Cu6NiC34
_symmetry_space_group_name_H-M   'P 1'
_cell_length_a   9.33353017
_cell_length_b   9.33014749
_cell_length_c   22.90550646
_cell_angle_alpha   89.66974660
_cell_angle_beta   90.06901379
_cell_angle_gamma   120.08196445
_symmetry_Int_Tables_number   1
_chemical_formula_structural   Cu6NiC34
_chemical_formula_sum   'Cu18 Ni3 C102'
_cell_volume   1725.98750889
_cell_formula_units_Z   3
loop_
 _symmetry_equiv_pos_site_id
 _symmetry_equiv_pos_as_xyz
  1  'x, y, z'
loop_
 _atom_site_type_symbol
 _atom_site_label
 _atom_site_symmetry_multiplicity
 _atom_site_fract_x
 _atom_site_fract_y
 _atom_site_fract_z
 _atom_site_occupancy
  C  C0  1  0.63548208  0.01522970  0.24206844  1
  C  C1  1  0.38120950  0.36263763  0.24404529  1
  C  C2  1  0.98198011  0.62231861  0.24156783  1
  C  C3  1  0.64033819  0.62209146  0.73998627  1
  C  C4  1  0.97888936  0.35803374  0.74296474  1
  C  C5  1  0.38479526  0.02155351  0.74040556  1
  C  C6  1  0.02600458  0.69616276  0.58731078  1
  C  C7  1  0.66614134  0.97112714  0.58646813  1
  C  C8  1  0.30797180  0.97396061  0.08762976  1
  C  C9  1  0.66776143  0.69394579  0.08803020  1
  C  C10  1  0.69312453  0.02685509  0.92023860  1
  C  C11  1  0.33523370  0.30354053  0.91834096  1
  C  C12  1  0.96887414  0.28613008  0.40692478  1
  C  C13  1  0.31512254  0.02724257  0.40778196  1
  C  C14  1  0.71873628  0.68894402  0.40651886  1
  C  C15  1  0.01435090  0.01342326  0.49211188  1
  C  C16  1  0.99992815  0.99897726  0.00088269  1
  C  C17  1  0.68156773  0.34730637  0.82791164  1
  C  C18  1  0.66616258  0.33302411  0.32152579  1
  C  C19  1  0.31362860  0.64748140  0.16406966  1
  C  C20  1  0.33399145  0.64866638  0.66334715  1
  C  C21  1  0.00100081  0.99074946  0.84925464  1
  C  C22  1  0.00938141  0.00919387  0.64894874  1
  C  C23  1  0.00032777  0.01124954  0.15150799  1
  C  C24  1  0.68303606  0.34327929  0.98443115  1
  C  C25  1  0.66013012  0.33399554  0.48457508  1
  C  C26  1  0.31826423  0.65749287  0.01810743  1
  C  C27  1  0.33260848  0.65750176  0.51760008  1
  C  C28  1  0.33446140  0.66814916  0.31815024  1
  C  C29  1  0.32675572  0.66755667  0.81731409  1
  Ni  Ni30  1  0.00107271  0.00099922  0.34227302  1
  Ni  Ni31  1  0.65936931  0.33253300  0.67589016  1
  Ni  Ni32  1  0.67401375  0.33151512  0.17650463  1
  Cu  Cu33  1  0.30360259  0.00560969  0.25156464  1
  Cu  Cu34  1  0.70125322  0.69745202  0.25275937  1
  Cu  Cu35  1  0.99408131  0.30115659  0.25573360  1
  Cu  Cu36  1  0.31193418  0.30686517  0.75263876  1
  Cu  Cu37  1  0.99458587  0.68859138  0.74489599  1
  Cu  Cu38  1  0.69616893  0.00382400  0.74898848  1
  Cu  Cu39  1  0.96053264  0.33631092  0.58632167  1
  Cu  Cu40  1  0.36716638  0.02621123  0.58565841  1
  Cu  Cu41  1  0.66765832  0.63681429  0.58692003  1
  Cu  Cu42  1  0.96825457  0.63794325  0.09135854  1
  Cu  Cu43  1  0.65984825  0.02739244  0.08559577  1
  Cu  Cu44  1  0.37711764  0.33553032  0.08598439  1
  Cu  Cu45  1  0.63163304  0.66740624  0.91781893  1
  Cu  Cu46  1  0.02737075  0.35450796  0.91219738  1
  Cu  Cu47  1  0.33712369  0.97630370  0.91811688  1
  Cu  Cu48  1  0.64289038  0.97155046  0.41720179  1
  Cu  Cu49  1  0.32669916  0.35552779  0.41253356  1
  Cu  Cu50  1  0.03017259  0.67221684  0.41737362  1
  C  C51  1  0.21686828  0.02190235  0.30673973  1
  C  C52  1  0.80429773  0.78561318  0.30785656  1
  C  C53  1  0.97871760  0.20383440  0.31261795  1
  C  C54  1  0.23163627  0.21000612  0.81005913  1
  C  C55  1  0.97832712  0.78469602  0.79714137  1
  C  C56  1  0.80105136  0.01882217  0.80386885  1
  C  C57  1  0.78156090  0.98157933  0.69453402  1
  C  C58  1  0.19341928  0.21267843  0.70176437  1
  C  C59  1  0.01661630  0.78960946  0.68857427  1
  C  C60  1  0.78712630  0.80246301  0.19752418  1
  C  C61  1  0.01917973  0.21120312  0.20382567  1
  C  C62  1  0.19872372  0.98604993  0.19651739  1
  C  C63  1  0.87185749  0.35034528  0.64111384  1
  C  C64  1  0.46756690  0.11607373  0.64076875  1
  C  C65  1  0.65637793  0.53920227  0.64303204  1
  C  C66  1  0.88715405  0.54440036  0.14876897  1
  C  C67  1  0.65034356  0.11839794  0.14060316  1
  C  C68  1  0.48212050  0.35141276  0.14065829  1
  C  C69  1  0.46292264  0.32300580  0.02994771  1
  C  C70  1  0.86162316  0.54287958  0.03846284  1
  C  C71  1  0.67199475  0.12361269  0.02889374  1
  C  C72  1  0.45218991  0.12190115  0.52906262  1
  C  C73  1  0.67748470  0.54804010  0.53160887  1
  C  C74  1  0.86136127  0.32432719  0.53062337  1
  C  C75  1  0.53996307  0.68079128  0.97217141  1
  C  C76  1  0.14017523  0.45573079  0.96338551  1
  C  C77  1  0.32592097  0.87468401  0.97323117  1
  C  C78  1  0.55166673  0.86537901  0.47182123  1
  C  C79  1  0.30841499  0.45146121  0.46434993  1
  C  C80  1  0.13408220  0.68730377  0.47243328  1
  C  C81  1  0.11639747  0.64944284  0.36335828  1
  C  C82  1  0.53606226  0.88611644  0.36253582  1
  C  C83  1  0.35061109  0.45599729  0.35574687  1
  C  C84  1  0.10321550  0.44307683  0.85347208  1
  C  C85  1  0.34552615  0.88690622  0.86244073  1
  C  C86  1  0.52895819  0.65402552  0.86272199  1
  C  C87  1  0.01747794  0.83135432  0.41297199  1
  C  C88  1  0.81522352  0.98515370  0.41411979  1
  C  C89  1  0.16976111  0.18125323  0.41125362  1
  C  C90  1  0.01472681  0.18146307  0.91528262  1
  C  C91  1  0.18631219  0.00396060  0.91744489  1
  C  C92  1  0.80363677  0.82783143  0.91589957  1
  C  C93  1  0.97513492  0.17797905  0.58778616  1
  C  C94  1  0.18785645  -0.00402938  0.58627865  1
  C  C95  1  0.82721715  0.81127080  0.58652114  1
  C  C96  1  0.98274142  0.81180849  0.08940351  1
  C  C97  1  0.80779291  -0.00481197  0.08690362  1
  C  C98  1  0.20454174  0.17628057  0.08813887  1
  C  C99  1  0.68060576  0.16130535  0.74566774  1
  C  C100  1  0.48365389  0.32019580  0.74615135  1
  C  C101  1  0.83795396  0.51439931  0.74450248  1
  C  C102  1  0.68205145  0.52271143  0.25005052  1
  C  C103  1  0.83479260  0.31340751  0.24908809  1
  C  C104  1  0.47872959  0.16165702  0.24758017  1
  C  C105  1  0.64631015  0.50976709  0.92011695  1
  C  C106  1  0.85008471  0.32670861  0.91703836  1
  C  C107  1  0.49793669  0.14866072  0.91885200  1
  C  C108  1  0.66337464  0.14722244  0.41969460  1
  C  C109  1  0.48200030  0.33669112  0.41844213  1
  C  C110  1  0.85327071  0.51837825  0.42002396  1
  C  C111  1  0.36026621  0.49358431  0.08366928  1
  C  C112  1  0.14716416  0.66667322  0.08701862  1
  C  C113  1  0.49753359  0.85411416  0.08510380  1
  C  C114  1  0.35541758  0.85288278  0.58484653  1
  C  C115  1  0.51737157  0.66594088  0.58475678  1
  C  C116  1  0.13474132  0.49509206  0.58383890  1
  C  C117  1  0.32338050  0.84888450  0.25364306  1
  C  C118  1  0.52475581  0.67811138  0.25374496  1
  C  C119  1  0.14754194  0.47986478  0.25524110  1
  C  C120  1  0.33561469  0.48455111  0.75274772  1
  C  C121  1  0.15109066  0.67063299  0.75011474  1
  C  C122  1  0.51924273  0.84866289  0.75214276  1
