# generated using pymatgen
data_Cu(NiC3)3
_symmetry_space_group_name_H-M   'P 1'
_cell_length_a   6.10473718
_cell_length_b   5.92389460
_cell_length_c   6.21840026
_cell_angle_alpha   58.87045321
_cell_angle_beta   58.83093098
_cell_angle_gamma   59.53522571
_symmetry_Int_Tables_number   1
_chemical_formula_structural   Cu(NiC3)3
_chemical_formula_sum   'Cu1 Ni3 C9'
_cell_volume   155.66002340
_cell_formula_units_Z   1
loop_
 _symmetry_equiv_pos_site_id
 _symmetry_equiv_pos_as_xyz
  1  'x, y, z'
loop_
 _atom_site_type_symbol
 _atom_site_label
 _atom_site_symmetry_multiplicity
 _atom_site_fract_x
 _atom_site_fract_y
 _atom_site_fract_z
 _atom_site_occupancy
  C  C0  1  0.00000000  0.00000000  0.50000000  1
  Ni  Ni1  1  0.50000000  0.00000000  0.00000000  1
  Ni  Ni2  1  0.00000000  0.50000000  0.00000000  1
  Ni  Ni3  1  0.50000000  0.50000000  0.00000000  1
  Cu  Cu4  1  0.00000000  0.00000000  0.00000000  1
  C  C5  1  0.22340700  0.25814600  0.79574600  1
  C  C6  1  0.75832400  0.22411300  0.78255100  1
  C  C7  1  0.21748500  0.74454300  0.78181800  1
  C  C8  1  0.76116100  0.74005100  0.80139900  1
  C  C9  1  0.23884000  0.25995000  0.19860100  1
  C  C10  1  0.78251500  0.25545700  0.21818200  1
  C  C11  1  0.24167600  0.77588700  0.21744900  1
  C  C12  1  0.77659300  0.74185400  0.20425400  1
