# generated using pymatgen
data_Cu3NiC17
_symmetry_space_group_name_H-M   'P 1'
_cell_length_a   9.29909062
_cell_length_b   9.29909028
_cell_length_c   22.62263344
_cell_angle_alpha   90.00000000
_cell_angle_beta   90.00000000
_cell_angle_gamma   120.00000120
_symmetry_Int_Tables_number   1
_chemical_formula_structural   Cu3NiC17
_chemical_formula_sum   'Cu18 Ni6 C102'
_cell_volume   1694.16119211
_cell_formula_units_Z   6
loop_
 _symmetry_equiv_pos_site_id
 _symmetry_equiv_pos_as_xyz
  1  'x, y, z'
loop_
 _atom_site_type_symbol
 _atom_site_label
 _atom_site_symmetry_multiplicity
 _atom_site_fract_x
 _atom_site_fract_y
 _atom_site_fract_z
 _atom_site_occupancy
  C  C0  1  0.63809893  0.01263760  0.24684587  1
  C  C1  1  0.37453866  0.36190107  0.24684587  1
  C  C2  1  0.98736240  0.62546134  0.24684587  1
  C  C3  1  0.63809893  0.62546134  0.74684587  1
  C  C4  1  0.98736240  0.36190107  0.74684587  1
  C  C5  1  0.37453866  0.01263760  0.74684587  1
  C  C6  1  0.30476593  0.34597060  0.58017887  1
  C  C7  1  0.04120566  0.69523407  0.58017887  1
  C  C8  1  0.65402940  0.95879434  0.58017887  1
  C  C9  1  0.30476593  0.95879434  0.08017887  1
  C  C10  1  0.65402940  0.69523407  0.08017887  1
  C  C11  1  0.04120566  0.34597060  0.08017887  1
  C  C12  1  0.97143193  0.67930460  0.91351287  1
  C  C13  1  0.70787166  0.02856807  0.91351287  1
  C  C14  1  0.32069540  0.29212834  0.91351287  1
  C  C15  1  0.97143193  0.29212834  0.41351287  1
  C  C16  1  0.32069540  0.02856807  0.41351287  1
  C  C17  1  0.70787166  0.67930460  0.41351287  1
  C  C18  1  0.00000000  -0.00000000  0.49316666  1
  C  C19  1  0.00000000  -0.00000000  0.99316666  1
  C  C20  1  0.66666700  0.33333300  0.82649966  1
  C  C21  1  0.66666700  0.33333300  0.32649966  1
  C  C22  1  0.33333300  0.66666700  0.15983366  1
  C  C23  1  0.33333300  0.66666700  0.65983366  1
  C  C24  1  0.00000000  -0.00000000  0.65153512  1
  C  C25  1  0.00000000  -0.00000000  0.15153512  1
  C  C26  1  0.66666700  0.33333300  0.98486812  1
  C  C27  1  0.66666700  0.33333300  0.48486812  1
  C  C28  1  0.33333300  0.66666700  0.31820212  1
  C  C29  1  0.33333300  0.66666700  0.81820212  1
  Ni  Ni30  1  0.00000000  -0.00000000  0.34382843  1
  Ni  Ni31  1  0.00000000  -0.00000000  0.84382843  1
  Ni  Ni32  1  0.66666700  0.33333300  0.67716143  1
  Ni  Ni33  1  0.66666700  0.33333300  0.17716143  1
  Ni  Ni34  1  0.33333300  0.66666700  0.01049543  1
  Ni  Ni35  1  0.33333300  0.66666700  0.51049543  1
  Cu  Cu36  1  0.30400968  0.00625872  0.25185745  1
  Cu  Cu37  1  0.70224905  0.69599032  0.25185745  1
  Cu  Cu38  1  0.99374128  0.29775095  0.25185745  1
  Cu  Cu39  1  0.30400968  0.29775095  0.75185745  1
  Cu  Cu40  1  0.99374128  0.69599032  0.75185745  1
  Cu  Cu41  1  0.70224905  0.00625872  0.75185745  1
  Cu  Cu42  1  0.97067668  0.33959172  0.58519045  1
  Cu  Cu43  1  0.36891605  0.02932332  0.58519045  1
  Cu  Cu44  1  0.66040828  0.63108395  0.58519045  1
  Cu  Cu45  1  0.97067668  0.63108395  0.08519045  1
  Cu  Cu46  1  0.66040828  0.02932332  0.08519045  1
  Cu  Cu47  1  0.36891605  0.33959172  0.08519045  1
  Cu  Cu48  1  0.63734268  0.67292572  0.91852445  1
  Cu  Cu49  1  0.03558205  0.36265732  0.91852445  1
  Cu  Cu50  1  0.32707428  0.96441795  0.91852445  1
  Cu  Cu51  1  0.63734268  0.96441795  0.41852445  1
  Cu  Cu52  1  0.32707428  0.36265732  0.41852445  1
  Cu  Cu53  1  0.03558205  0.67292572  0.41852445  1
  C  C54  1  0.21693099  0.02699552  0.30713830  1
  C  C55  1  0.81006452  0.78306901  0.30713830  1
  C  C56  1  0.97300448  0.18993548  0.30713830  1
  C  C57  1  0.21693099  0.18993548  0.80713830  1
  C  C58  1  0.97300448  0.78306901  0.80713830  1
  C  C59  1  0.81006452  0.02699552  0.80713830  1
  C  C60  1  0.78120848  0.97888867  0.69580162  1
  C  C61  1  0.19768019  0.21879152  0.69580162  1
  C  C62  1  0.02111133  0.80231981  0.69580162  1
  C  C63  1  0.78120848  0.80231981  0.19580162  1
  C  C64  1  0.02111133  0.21879152  0.19580162  1
  C  C65  1  0.19768019  0.97888867  0.19580162  1
  C  C66  1  0.88359799  0.36032852  0.64047130  1
  C  C67  1  0.47673152  0.11640201  0.64047130  1
  C  C68  1  0.63967148  0.52326848  0.64047130  1
  C  C69  1  0.88359799  0.52326848  0.14047130  1
  C  C70  1  0.63967148  0.11640201  0.14047130  1
  C  C71  1  0.47673152  0.36032852  0.14047130  1
  C  C72  1  0.44787548  0.31222167  0.02913462  1
  C  C73  1  0.86434719  0.55212452  0.02913462  1
  C  C74  1  0.68777833  0.13565281  0.02913462  1
  C  C75  1  0.44787548  0.13565281  0.52913462  1
  C  C76  1  0.68777833  0.55212452  0.52913462  1
  C  C77  1  0.86434719  0.31222167  0.52913462  1
  C  C78  1  0.55026399  0.69366252  0.97380530  1
  C  C79  1  0.14339752  0.44973601  0.97380530  1
  C  C80  1  0.30633748  0.85660248  0.97380530  1
  C  C81  1  0.55026399  0.85660248  0.47380530  1
  C  C82  1  0.30633748  0.44973601  0.47380530  1
  C  C83  1  0.14339752  0.69366252  0.47380530  1
  C  C84  1  0.11454148  0.64555567  0.36246862  1
  C  C85  1  0.53101319  0.88545852  0.36246862  1
  C  C86  1  0.35444433  0.46898681  0.36246862  1
  C  C87  1  0.11454148  0.46898681  0.86246862  1
  C  C88  1  0.35444433  0.88545852  0.86246862  1
  C  C89  1  0.53101319  0.64555567  0.86246862  1
  C  C90  1  0.01865377  0.83043680  0.41396980  1
  C  C91  1  0.81178303  0.98134623  0.41396980  1
  C  C92  1  0.16956320  0.18821697  0.41396980  1
  C  C93  1  0.01865377  0.18821697  0.91396980  1
  C  C94  1  0.16956320  0.98134623  0.91396980  1
  C  C95  1  0.81178303  0.83043680  0.91396980  1
  C  C96  1  0.98971463  0.18212544  0.58821022  1
  C  C97  1  0.19241081  0.01028537  0.58821022  1
  C  C98  1  0.81787456  0.80758919  0.58821022  1
  C  C99  1  0.98971463  0.80758919  0.08821022  1
  C  C100  1  0.81787456  0.01028537  0.08821022  1
  C  C101  1  0.19241081  0.18212544  0.08821022  1
  C  C102  1  0.68532077  0.16376980  0.74730280  1
  C  C103  1  0.47845003  0.31467923  0.74730280  1
  C  C104  1  0.83623020  0.52154997  0.74730280  1
  C  C105  1  0.68532077  0.52154997  0.24730280  1
  C  C106  1  0.83623020  0.31467923  0.24730280  1
  C  C107  1  0.47845003  0.16376980  0.24730280  1
  C  C108  1  0.65638163  0.51545844  0.92154322  1
  C  C109  1  0.85907781  0.34361837  0.92154322  1
  C  C110  1  0.48454156  0.14092219  0.92154322  1
  C  C111  1  0.65638163  0.14092219  0.42154322  1
  C  C112  1  0.48454156  0.34361837  0.42154322  1
  C  C113  1  0.85907781  0.51545844  0.42154322  1
  C  C114  1  0.35198677  0.49710380  0.08063680  1
  C  C115  1  0.14511603  0.64801323  0.08063680  1
  C  C116  1  0.50289620  0.85488397  0.08063680  1
  C  C117  1  0.35198677  0.85488397  0.58063680  1
  C  C118  1  0.50289620  0.64801323  0.58063680  1
  C  C119  1  0.14511603  0.49710380  0.58063680  1
  C  C120  1  0.32304763  0.84879244  0.25487722  1
  C  C121  1  0.52574381  0.67695237  0.25487722  1
  C  C122  1  0.15120756  0.47425619  0.25487722  1
  C  C123  1  0.32304763  0.47425619  0.75487722  1
  C  C124  1  0.15120756  0.67695237  0.75487722  1
  C  C125  1  0.52574381  0.84879244  0.75487722  1
