# generated using pymatgen
data_Cu2Ni5C32
_symmetry_space_group_name_H-M   'P 1'
_cell_length_a   18.52078647
_cell_length_b   9.27916030
_cell_length_c   23.38075774
_cell_angle_alpha   89.87981036
_cell_angle_beta   88.44103074
_cell_angle_gamma   120.18327275
_symmetry_Int_Tables_number   1
_chemical_formula_structural   Cu2Ni5C32
_chemical_formula_sum   'Cu12 Ni30 C192'
_cell_volume   3471.51567943
_cell_formula_units_Z   6
loop_
 _symmetry_equiv_pos_site_id
 _symmetry_equiv_pos_as_xyz
  1  'x, y, z'
loop_
 _atom_site_type_symbol
 _atom_site_label
 _atom_site_symmetry_multiplicity
 _atom_site_fract_x
 _atom_site_fract_y
 _atom_site_fract_z
 _atom_site_occupancy
  Ni  Ni0  1  0.19230920  0.37553414  0.24233383  1
  Ni  Ni1  1  0.69220802  0.37839693  0.24233203  1
  Ni  Ni2  1  0.98768191  0.64350421  0.25606373  1
  Ni  Ni3  1  0.49056488  0.63693822  0.26349949  1
  Ni  Ni4  1  0.32554332  0.65959481  0.74465293  1
  Ni  Ni5  1  0.82147103  0.65230453  0.74454036  1
  Ni  Ni6  1  0.98964225  0.33897373  0.75289312  1
  Ni  Ni7  1  0.18778575  0.99825295  0.73782164  1
  Ni  Ni8  1  0.69105075  0.00364869  0.73929859  1
  Ni  Ni9  1  0.52346426  0.70928856  0.57127156  1
  Ni  Ni10  1  0.32446848  0.97425715  0.59107232  1
  Ni  Ni11  1  0.82291946  0.96617363  0.58928689  1
  Ni  Ni12  1  0.15506212  0.98704508  0.07937295  1
  Ni  Ni13  1  0.65471351  0.98671847  0.07908033  1
  Ni  Ni14  1  0.32648554  0.68017322  0.09472793  1
  Ni  Ni15  1  0.82596193  0.68030225  0.09511280  1
  Ni  Ni16  1  0.65684581  0.00552108  0.42771554  1
  Ni  Ni17  1  0.35848778  0.67081785  0.40776487  1
  Ni  Ni18  1  0.02077705  0.00653439  0.50302028  1
  Ni  Ni19  1  0.51272232  0.00856356  0.49900541  1
  Ni  Ni20  1  0.01085589  0.03249039  0.00181062  1
  Ni  Ni21  1  0.51124665  0.03421947  0.00098127  1
  Ni  Ni22  1  0.34535884  0.30822101  0.83133545  1
  Ni  Ni23  1  0.83203010  0.30868771  0.83522342  1
  Ni  Ni24  1  0.34028555  0.33899034  0.33671810  1
  Ni  Ni25  1  0.83864149  0.35568657  0.33255702  1
  Ni  Ni26  1  0.17415480  0.64770289  0.16704199  1
  Ni  Ni27  1  0.67394053  0.64874469  0.16855338  1
  Ni  Ni28  1  0.16836484  0.69115372  0.65873837  1
  Ni  Ni29  1  0.66512153  0.67015740  0.66160664  1
  Cu  Cu30  1  0.99512687  0.99189527  0.35240480  1
  Cu  Cu31  1  0.49752753  0.99903608  0.34988677  1
  Cu  Cu32  1  0.99819800  0.00219045  0.85311241  1
  Cu  Cu33  1  0.49700575  0.00511843  0.85261581  1
  Cu  Cu34  1  0.33257593  0.32356501  0.68316380  1
  Cu  Cu35  1  0.83086747  0.32874223  0.67965781  1
  Cu  Cu36  1  0.33372869  0.33244380  0.18295415  1
  Cu  Cu37  1  0.83345602  0.33285680  0.18228103  1
  Cu  Cu38  1  0.16354942  0.65173070  0.01699346  1
  Cu  Cu39  1  0.66336372  0.65179338  0.01700297  1
  Cu  Cu40  1  0.16144377  0.66807184  0.51853506  1
  Cu  Cu41  1  0.66628414  0.66289471  0.51375454  1
  C  C42  1  0.00150657  0.99970177  0.64892308  1
  C  C43  1  0.50194391  0.01030122  0.65234761  1
  C  C44  1  0.99460611  0.00563450  0.15425645  1
  C  C45  1  0.49560742  0.00549153  0.15312680  1
  C  C46  1  0.32744491  0.32951471  0.98476859  1
  C  C47  1  0.82712460  0.32971032  0.98457591  1
  C  C48  1  0.33010761  0.32672754  0.48335623  1
  C  C49  1  0.82912954  0.33153424  0.48767463  1
  C  C50  1  0.17290614  0.67497614  0.31792190  1
  C  C51  1  0.66982823  0.67108809  0.32131421  1
  C  C52  1  0.17404547  0.67632324  0.82276726  1
  C  C53  1  0.66832952  0.66979418  0.82089490  1
  C  C54  1  0.34815865  0.70021838  0.25085763  1
  C  C55  1  0.84846040  0.70296926  0.24985828  1
  C  C56  1  0.34881401  0.99486219  0.75114964  1
  C  C57  1  0.85102894  0.99598732  0.74951562  1
  C  C58  1  0.18105506  0.03541265  0.58709861  1
  C  C59  1  0.67839669  0.02868988  0.58645483  1
  C  C60  1  0.17948785  0.32393828  0.08880890  1
  C  C61  1  0.67941597  0.32451763  0.08841528  1
  C  C62  1  0.51388611  0.65931783  0.41877294  1
  C  C63  1  0.14647645  0.98926461  0.24993826  1
  C  C64  1  0.64814594  0.99148850  0.24910289  1
  C  C65  1  0.00409582  0.30852471  0.25230932  1
  C  C66  1  0.50414402  0.30805814  0.25024181  1
  C  C67  1  0.14776610  0.30612960  0.75155734  1
  C  C68  1  0.64995895  0.30886257  0.75152426  1
  C  C69  1  0.00272131  0.70262037  0.75243905  1
  C  C70  1  0.50384776  0.70660987  0.75146138  1
  C  C71  1  0.48191010  0.32658513  0.58216394  1
  C  C72  1  0.98028949  0.32394571  0.58386179  1
  C  C73  1  0.33625002  0.63869855  0.58401189  1
  C  C74  1  0.83701351  0.64074151  0.58367723  1
  C  C75  1  0.48174960  0.63833131  0.08192980  1
  C  C76  1  0.98195719  0.63846251  0.08182335  1
  C  C77  1  0.33555795  0.03714460  0.08002168  1
  C  C78  1  0.83591436  0.03799909  0.07977416  1
  C  C79  1  0.31723549  0.65367776  0.91759744  1
  C  C80  1  0.81596079  0.65341527  0.91664741  1
  C  C81  1  0.01269628  0.37394527  0.91589312  1
  C  C82  1  0.51250035  0.37362643  0.91759619  1
  C  C83  1  0.17085934  0.97438290  0.91823959  1
  C  C84  1  0.67092616  0.97307941  0.91751452  1
  C  C85  1  0.31321392  0.96833546  0.41725486  1
  C  C86  1  0.81750924  0.98154438  0.41908641  1
  C  C87  1  0.16781898  0.37171046  0.41554535  1
  C  C88  1  0.67367940  0.36567630  0.41528991  1
  C  C89  1  0.01344092  0.65318548  0.41578908  1
  C  C90  1  0.10631984  0.01997733  0.29910682  1
  C  C91  1  0.60865373  0.01611169  0.30065861  1
  C  C92  1  0.40143583  0.78749075  0.30635846  1
  C  C93  1  0.91412030  0.80022456  0.29819952  1
  C  C94  1  0.49568165  0.20978325  0.30153303  1
  C  C95  1  0.99530937  0.20776152  0.30294863  1
  C  C96  1  0.11276634  0.19640680  0.80203308  1
  C  C97  1  0.61132165  0.20074375  0.80197083  1
  C  C98  1  0.49537011  0.79250704  0.80113063  1
  C  C99  1  0.99230499  0.78252910  0.80322017  1
  C  C100  1  0.40172539  0.99602815  0.80355648  1
  C  C101  1  0.91324177  0.02605885  0.79999089  1
  C  C102  1  0.38846955  0.96182137  0.68936763  1
  C  C103  1  0.88968645  0.95663793  0.68887611  1
  C  C104  1  0.09662215  0.22926252  0.70040074  1
  C  C105  1  0.60267658  0.23425263  0.69891683  1
  C  C106  1  0.01981243  0.80849050  0.70002029  1
  C  C107  1  0.51995715  0.80920653  0.69744531  1
  C  C108  1  0.39079589  0.80721818  0.18907358  1
  C  C109  1  0.88601801  0.80354995  0.18578146  1
  C  C110  1  0.02030217  0.23688612  0.19912179  1
  C  C111  1  0.51699779  0.23074076  0.19745823  1
  C  C112  1  0.09765994  0.96444533  0.19655346  1
  C  C113  1  0.59782523  0.97334406  0.19729294  1
  C  C114  1  0.44410234  0.35351035  0.63395666  1
  C  C115  1  0.94582988  0.34524040  0.63865315  1
  C  C116  1  0.22905137  0.10945035  0.64637715  1
  C  C117  1  0.73139974  0.11186716  0.64272859  1
  C  C118  1  0.32938683  0.54740476  0.63726953  1
  C  C119  1  0.83117408  0.55412586  0.63784624  1
  C  C120  1  0.44719811  0.54385401  0.13584520  1
  C  C121  1  0.94771841  0.54492243  0.13614203  1
  C  C122  1  0.32746038  0.11727642  0.13177403  1
  C  C123  1  0.82785266  0.11809126  0.13160857  1
  C  C124  1  0.23088811  0.34699323  0.14615831  1
  C  C125  1  0.73096567  0.34753937  0.14564257  1
  C  C126  1  0.22275801  0.27747577  0.03279650  1
  C  C127  1  0.72262692  0.27773978  0.03231079  1
  C  C128  1  0.43018602  0.54545631  0.03239509  1
  C  C129  1  0.93014604  0.54387724  0.03254892  1
  C  C130  1  0.34951523  0.14127658  0.02761691  1
  C  C131  1  0.84985507  0.14263127  0.02733586  1
  C  C132  1  0.23065278  0.15492841  0.52996922  1
  C  C133  1  0.72217806  0.13785149  0.52560866  1
  C  C134  1  0.34728997  0.55556781  0.53251755  1
  C  C135  1  0.84705223  0.55306433  0.53300582  1
  C  C136  1  0.43129573  0.30721737  0.53127025  1
  C  C137  1  0.92675741  0.31330803  0.53504435  1
  C  C138  1  0.27308190  0.66590270  0.96861942  1
  C  C139  1  0.77256168  0.66423117  0.96817605  1
  C  C140  1  0.06229810  0.46394349  0.96419243  1
  C  C141  1  0.56010567  0.45856740  0.96726873  1
  C  C142  1  0.16385537  0.87634370  0.96954308  1
  C  C143  1  0.66449776  0.87683515  0.96910147  1
  C  C144  1  0.27337183  0.86945198  0.46979988  1
  C  C145  1  0.77963507  0.88788057  0.47290421  1
  C  C146  1  0.16054874  0.45943812  0.46515012  1
  C  C147  1  0.66680131  0.45163647  0.46578450  1
  C  C148  1  0.06354245  0.66301836  0.46394904  1
  C  C149  1  0.56784004  0.68354480  0.47470250  1
  C  C150  1  0.05246131  0.63566201  0.35985128  1
  C  C151  1  0.56012289  0.64158250  0.35809427  1
  C  C152  1  0.26172290  0.88443460  0.36605094  1
  C  C153  1  0.76369285  0.89389998  0.36945030  1
  C  C154  1  0.17720724  0.46969414  0.36068454  1
  C  C155  1  0.68222205  0.45945085  0.36102341  1
  C  C156  1  0.05369560  0.47146150  0.86015955  1
  C  C157  1  0.55441628  0.47495327  0.86319178  1
  C  C158  1  0.17716413  0.88951153  0.86426749  1
  C  C159  1  0.67832122  0.88887011  0.86380716  1
  C  C160  1  0.26770399  0.63408413  0.86435769  1
  C  C161  1  0.76704661  0.63702835  0.86358609  1
  C  C162  1  0.00461069  0.80185704  0.41335676  1
  C  C163  1  0.50508438  0.82745746  0.41519923  1
  C  C164  1  0.39607679  0.98236689  0.41157686  1
  C  C165  1  0.90213967  0.00944404  0.41240648  1
  C  C166  1  0.09578672  0.20248870  0.41316777  1
  C  C167  1  0.60048736  0.19464843  0.41419127  1
  C  C168  1  0.00387985  0.20760409  0.91368522  1
  C  C169  1  0.50376829  0.20725379  0.91428992  1
  C  C170  1  0.09773695  0.99655714  0.91563573  1
  C  C171  1  0.59803891  0.99552178  0.91459211  1
  C  C172  1  0.40071003  0.79994822  0.91358043  1
  C  C173  1  0.89963982  0.79989034  0.91268631  1
  C  C174  1  0.48288305  0.16529456  0.58633549  1
  C  C175  1  0.97759928  0.15918775  0.58409279  1
  C  C176  1  0.08647082  0.01683315  0.58814703  1
  C  C177  1  0.58201211  0.00295437  0.58972331  1
  C  C178  1  0.41406916  0.80882007  0.58387213  1
  C  C179  1  0.91146340  0.81280869  0.58195534  1
  C  C180  1  0.48167092  0.80083915  0.08319881  1
  C  C181  1  0.98188825  0.80055189  0.08277438  1
  C  C182  1  0.40732022  0.00601620  0.08214803  1
  C  C183  1  0.90787178  0.00783704  0.08180599  1
  C  C184  1  0.08564430  0.14667109  0.09195724  1
  C  C185  1  0.58592614  0.14717918  0.09099681  1
  C  C186  1  0.33033464  0.14852892  0.75051247  1
  C  C187  1  0.83729986  0.15742253  0.74670908  1
  C  C188  1  0.23588740  0.34829996  0.74337434  1
  C  C189  1  0.73715804  0.34005134  0.74562826  1
  C  C190  1  0.42650986  0.54318640  0.74695044  1
  C  C191  1  0.92587927  0.53613104  0.74703507  1
  C  C192  1  0.33988078  0.51497659  0.24856905  1
  C  C193  1  0.83799168  0.51533383  0.24771110  1
  C  C194  1  0.43110228  0.33094617  0.24653983  1
  C  C195  1  0.93070730  0.33012137  0.24763056  1
  C  C196  1  0.23261138  0.12827899  0.24400897  1
  C  C197  1  0.73332694  0.13594944  0.24383524  1
  C  C198  1  0.32338394  0.49780035  0.91970880  1
  C  C199  1  0.82240297  0.49708521  0.91819043  1
  C  C200  1  0.42730841  0.35810879  0.92012156  1
  C  C201  1  0.92773690  0.35953720  0.91888786  1
  C  C202  1  0.25054070  0.14082086  0.91747772  1
  C  C203  1  0.75086472  0.14041223  0.91673473  1
  C  C204  1  0.32179124  0.13643804  0.41849946  1
  C  C205  1  0.81935639  0.14704670  0.42025999  1
  C  C206  1  0.24849919  0.36883501  0.41661237  1
  C  C207  1  0.75121076  0.34976780  0.41732904  1
  C  C208  1  0.41649003  0.49352535  0.42160889  1
  C  C209  1  0.92786061  0.49690100  0.42030062  1
  C  C210  1  0.17715868  0.49613133  0.08091228  1
  C  C211  1  0.67715005  0.49670313  0.08091403  1
  C  C212  1  0.06989937  0.67885527  0.07515550  1
  C  C213  1  0.56988988  0.67986633  0.07520658  1
  C  C214  1  0.25664693  0.87213810  0.07643818  1
  C  C215  1  0.75702977  0.87330749  0.07610560  1
  C  C216  1  0.17692610  0.85506845  0.58125492  1
  C  C217  1  0.66954779  0.84290797  0.58261254  1
  C  C218  1  0.26266500  0.66121312  0.58015660  1
  C  C219  1  0.76100894  0.65585341  0.57977151  1
  C  C220  1  0.06635108  0.46148580  0.57689792  1
  C  C221  1  0.56782399  0.46884873  0.57640715  1
  C  C222  1  0.14532789  0.82522113  0.25683598  1
  C  C223  1  0.64972099  0.83150341  0.25291481  1
  C  C224  1  0.25098314  0.67183863  0.25239528  1
  C  C225  1  0.75188010  0.67552372  0.25726823  1
  C  C226  1  0.08075117  0.48067915  0.25521200  1
  C  C227  1  0.58198351  0.47754455  0.25174734  1
  C  C228  1  0.14708391  0.46784534  0.75919127  1
  C  C229  1  0.65706760  0.47750898  0.75748347  1
  C  C230  1  0.07710102  0.67759517  0.75664648  1
  C  C231  1  0.58027008  0.68817682  0.75562008  1
  C  C232  1  0.25259984  0.81389583  0.75371689  1
  C  C233  1  0.75563555  0.82084826  0.75608882  1
