# generated using pymatgen
data_CuNiC19
_symmetry_space_group_name_H-M   'P 1'
_cell_length_a   9.49145284
_cell_length_b   9.49145249
_cell_length_c   22.68326270
_cell_angle_alpha   90.00000000
_cell_angle_beta   90.00000000
_cell_angle_gamma   120.00000123
_symmetry_Int_Tables_number   1
_chemical_formula_structural   CuNiC19
_chemical_formula_sum   'Cu6 Ni6 C114'
_cell_volume   1769.70762057
_cell_formula_units_Z   6
loop_
 _symmetry_equiv_pos_site_id
 _symmetry_equiv_pos_as_xyz
  1  'x, y, z'
loop_
 _atom_site_type_symbol
 _atom_site_label
 _atom_site_symmetry_multiplicity
 _atom_site_fract_x
 _atom_site_fract_y
 _atom_site_fract_z
 _atom_site_occupancy
  C  C0  1  0.63983331  0.01093420  0.24591474  1
  C  C1  1  0.37110089  0.36016669  0.24591474  1
  C  C2  1  0.98906580  0.62889911  0.24591474  1
  C  C3  1  0.63983331  0.62889911  0.74591474  1
  C  C4  1  0.98906580  0.36016669  0.74591474  1
  C  C5  1  0.37110089  0.01093420  0.74591474  1
  C  C6  1  0.30650031  0.34426720  0.57924774  1
  C  C7  1  0.03776789  0.69349969  0.57924774  1
  C  C8  1  0.65573280  0.96223211  0.57924774  1
  C  C9  1  0.30650031  0.96223211  0.07924774  1
  C  C10  1  0.65573280  0.69349969  0.07924774  1
  C  C11  1  0.03776789  0.34426720  0.07924774  1
  C  C12  1  0.97316631  0.67760120  0.91258174  1
  C  C13  1  0.70443389  0.02683369  0.91258174  1
  C  C14  1  0.32239880  0.29556611  0.91258174  1
  C  C15  1  0.97316631  0.29556611  0.41258174  1
  C  C16  1  0.32239880  0.02683369  0.41258174  1
  C  C17  1  0.70443389  0.67760120  0.41258174  1
  C  C18  1  -0.00000000  -0.00000000  0.49576789  1
  C  C19  1  -0.00000000  -0.00000000  0.99576789  1
  C  C20  1  0.66666700  0.33333300  0.82910089  1
  C  C21  1  0.66666700  0.33333300  0.32910089  1
  C  C22  1  0.33333300  0.66666700  0.16243489  1
  C  C23  1  0.33333300  0.66666700  0.66243489  1
  Ni  Ni24  1  -0.00000000  -0.00000000  0.34638169  1
  Ni  Ni25  1  -0.00000000  -0.00000000  0.84638169  1
  Ni  Ni26  1  0.66666700  0.33333300  0.67971469  1
  Ni  Ni27  1  0.66666700  0.33333300  0.17971469  1
  Ni  Ni28  1  0.33333300  0.66666700  0.01304869  1
  Ni  Ni29  1  0.33333300  0.66666700  0.51304869  1
  Cu  Cu30  1  -0.00000000  -0.00000000  0.65258985  1
  Cu  Cu31  1  -0.00000000  -0.00000000  0.15258985  1
  Cu  Cu32  1  0.66666700  0.33333300  0.98592285  1
  Cu  Cu33  1  0.66666700  0.33333300  0.48592285  1
  Cu  Cu34  1  0.33333300  0.66666700  0.31925685  1
  Cu  Cu35  1  0.33333300  0.66666700  0.81925685  1
  C  C36  1  0.30838617  0.99693801  0.25159801  1
  C  C37  1  0.68855184  0.69161383  0.25159801  1
  C  C38  1  0.00306199  0.31144816  0.25159801  1
  C  C39  1  0.30838617  0.31144816  0.75159801  1
  C  C40  1  0.00306199  0.69161383  0.75159801  1
  C  C41  1  0.68855184  0.99693801  0.75159801  1
  C  C42  1  0.97505317  0.33027101  0.58493101  1
  C  C43  1  0.35521884  0.02494683  0.58493101  1
  C  C44  1  0.66972899  0.64478116  0.58493101  1
  C  C45  1  0.97505317  0.64478116  0.08493101  1
  C  C46  1  0.66972899  0.02494683  0.08493101  1
  C  C47  1  0.35521884  0.33027101  0.08493101  1
  C  C48  1  0.64171917  0.66360501  0.91826501  1
  C  C49  1  0.02188484  0.35828083  0.91826501  1
  C  C50  1  0.33639499  0.97811516  0.91826501  1
  C  C51  1  0.64171917  0.97811516  0.41826501  1
  C  C52  1  0.33639499  0.35828083  0.41826501  1
  C  C53  1  0.02188484  0.66360501  0.41826501  1
  C  C54  1  0.22594904  0.01024267  0.30779386  1
  C  C55  1  0.78429362  0.77405096  0.30779386  1
  C  C56  1  0.98975733  0.21570638  0.30779386  1
  C  C57  1  0.22594904  0.21570638  0.80779386  1
  C  C58  1  0.98975733  0.77405096  0.80779386  1
  C  C59  1  0.78429362  0.01024267  0.80779386  1
  C  C60  1  0.78092945  0.98420411  0.69655182  1
  C  C61  1  0.20327465  0.21907055  0.69655182  1
  C  C62  1  0.01579589  0.79672535  0.69655182  1
  C  C63  1  0.78092945  0.79672535  0.19655182  1
  C  C64  1  0.01579589  0.21907055  0.19655182  1
  C  C65  1  0.20327465  0.98420411  0.19655182  1
  C  C66  1  0.89261604  0.34357567  0.64112686  1
  C  C67  1  0.45096062  0.10738396  0.64112686  1
  C  C68  1  0.65642433  0.54903938  0.64112686  1
  C  C69  1  0.89261604  0.54903938  0.14112686  1
  C  C70  1  0.65642433  0.10738396  0.14112686  1
  C  C71  1  0.45096062  0.34357567  0.14112686  1
  C  C72  1  0.44759645  0.31753711  0.02988482  1
  C  C73  1  0.86994165  0.55240355  0.02988482  1
  C  C74  1  0.68246289  0.13005835  0.02988482  1
  C  C75  1  0.44759645  0.13005835  0.52988482  1
  C  C76  1  0.68246289  0.55240355  0.52988482  1
  C  C77  1  0.86994165  0.31753711  0.52988482  1
  C  C78  1  0.55928204  0.67690967  0.97446086  1
  C  C79  1  0.11762662  0.44071796  0.97446086  1
  C  C80  1  0.32309033  0.88237338  0.97446086  1
  C  C81  1  0.55928204  0.88237338  0.47446086  1
  C  C82  1  0.32309033  0.44071796  0.47446086  1
  C  C83  1  0.11762662  0.67690967  0.47446086  1
  C  C84  1  0.11426245  0.65087111  0.36321882  1
  C  C85  1  0.53660765  0.88573755  0.36321882  1
  C  C86  1  0.34912889  0.46339235  0.36321882  1
  C  C87  1  0.11426245  0.46339235  0.86321882  1
  C  C88  1  0.34912889  0.88573755  0.86321882  1
  C  C89  1  0.53660765  0.65087111  0.86321882  1
  C  C90  1  -0.00128887  0.81408986  0.41537547  1
  C  C91  1  0.81537873  0.00128887  0.41537547  1
  C  C92  1  0.18591014  0.18462127  0.41537547  1
  C  C93  1  -0.00128887  0.18462127  0.91537547  1
  C  C94  1  0.18591014  0.00128887  0.91537547  1
  C  C95  1  0.81537873  0.81408986  0.91537547  1
  C  C96  1  0.98834846  0.17187614  0.58451961  1
  C  C97  1  0.18352767  0.01165154  0.58451961  1
  C  C98  1  0.82812386  0.81647233  0.58451961  1
  C  C99  1  0.98834846  0.81647233  0.08451961  1
  C  C100  1  0.82812386  0.01165154  0.08451961  1
  C  C101  1  0.18352767  0.17187614  0.08451961  1
  C  C102  1  0.66537813  0.14742286  0.74870847  1
  C  C103  1  0.48204573  0.33462187  0.74870847  1
  C  C104  1  0.85257714  0.51795427  0.74870847  1
  C  C105  1  0.66537813  0.51795427  0.24870847  1
  C  C106  1  0.85257714  0.33462187  0.24870847  1
  C  C107  1  0.48204573  0.14742286  0.24870847  1
  C  C108  1  0.65501546  0.50520914  0.91785261  1
  C  C109  1  0.85019467  0.34498454  0.91785261  1
  C  C110  1  0.49479086  0.14980533  0.91785261  1
  C  C111  1  0.65501546  0.14980533  0.41785261  1
  C  C112  1  0.49479086  0.34498454  0.41785261  1
  C  C113  1  0.85019467  0.50520914  0.41785261  1
  C  C114  1  0.33204413  0.48075686  0.08204247  1
  C  C115  1  0.14871173  0.66795587  0.08204247  1
  C  C116  1  0.51924314  0.85128827  0.08204247  1
  C  C117  1  0.33204413  0.85128827  0.58204247  1
  C  C118  1  0.51924314  0.66795587  0.58204247  1
  C  C119  1  0.14871173  0.48075686  0.58204247  1
  C  C120  1  0.32168146  0.83854314  0.25118661  1
  C  C121  1  0.51686067  0.67831854  0.25118661  1
  C  C122  1  0.16145686  0.48313933  0.25118661  1
  C  C123  1  0.32168146  0.48313933  0.75118661  1
  C  C124  1  0.16145686  0.67831854  0.75118661  1
  C  C125  1  0.51686067  0.83854314  0.75118661  1
