# generated using pymatgen
data_Cu2NiC11
_symmetry_space_group_name_H-M   'P 1'
_cell_length_a   5.96749704
_cell_length_b   6.93370932
_cell_length_c   8.24350583
_cell_angle_alpha   114.92369942
_cell_angle_beta   126.35662230
_cell_angle_gamma   89.97908972
_symmetry_Int_Tables_number   1
_chemical_formula_structural   Cu2NiC11
_chemical_formula_sum   'Cu2 Ni1 C11'
_cell_volume   234.13135166
_cell_formula_units_Z   1
loop_
 _symmetry_equiv_pos_site_id
 _symmetry_equiv_pos_as_xyz
  1  'x, y, z'
loop_
 _atom_site_type_symbol
 _atom_site_label
 _atom_site_symmetry_multiplicity
 _atom_site_fract_x
 _atom_site_fract_y
 _atom_site_fract_z
 _atom_site_occupancy
  Ni  Ni0  1  0.49940206  0.48483251  0.99969731  1
  Cu  Cu1  1  0.70177229  0.71528764  0.44156752  1
  Cu  Cu2  1  0.29927283  0.27217794  0.55852123  1
  C  C3  1  0.49993510  0.97381857  0.00003444  1
  C  C4  1  0.99918622  0.71956568  0.99923553  1
  C  C5  1  0.00055695  0.25800263  0.00074501  1
  C  C6  1  0.01076760  0.38871500  0.80359685  1
  C  C7  1  0.98875022  0.58627136  0.19628272  1
  C  C8  1  -0.01660585  0.89020556  0.77114858  1
  C  C9  1  0.01741304  0.11861254  0.22907858  1
  C  C10  1  0.50498585  0.38759923  0.21063786  1
  C  C11  1  0.51779513  0.80940807  0.20404778  1
  C  C12  1  0.49574206  0.17662741  0.78990144  1
  C  C13  1  0.48102350  0.60467487  0.79550316  1
