# generated using pymatgen
data_Cu4NiC10
_symmetry_space_group_name_H-M   'P 1'
_cell_length_a   5.39233173
_cell_length_b   12.13878866
_cell_length_c   3.23524750
_cell_angle_alpha   90.00000000
_cell_angle_beta   90.00000000
_cell_angle_gamma   91.08403590
_symmetry_Int_Tables_number   1
_chemical_formula_structural   Cu4NiC10
_chemical_formula_sum   'Cu4 Ni1 C10'
_cell_volume   211.72967271
_cell_formula_units_Z   1
loop_
 _symmetry_equiv_pos_site_id
 _symmetry_equiv_pos_as_xyz
  1  'x, y, z'
loop_
 _atom_site_type_symbol
 _atom_site_label
 _atom_site_symmetry_multiplicity
 _atom_site_fract_x
 _atom_site_fract_y
 _atom_site_fract_z
 _atom_site_occupancy
  Ni  Ni0  1  0.65274450  0.12323007  0.00000000  1
  Cu  Cu1  1  0.65261248  0.38803374  -0.00000000  1
  Cu  Cu2  1  0.30907018  0.64117470  -0.00000000  1
  Cu  Cu3  1  0.16308305  0.11309723  -0.00000000  1
  Cu  Cu4  1  0.81366313  0.84416456  -0.00000000  1
  C  C5  1  0.80588906  0.40295866  0.50000000  1
  C  C6  1  0.17225782  0.61257986  0.50000000  1
  C  C7  1  0.38313797  0.09307596  0.50000000  1
  C  C8  1  0.68129683  0.87709500  0.50000000  1
  C  C9  1  0.96444957  0.22081980  -0.00000000  1
  C  C10  1  0.08685698  0.77915153  -0.00000000  1
  C  C11  1  0.47777664  0.27015433  -0.00000000  1
  C  C12  1  0.58189819  0.71241505  -0.00000000  1
  C  C13  1  0.45075163  0.49414403  -0.00000000  1
  C  C14  1  0.92951197  0.00568347  -0.00000000  1
