# generated using pymatgen
data_Cu2Ni2C
_symmetry_space_group_name_H-M   'P 1'
_cell_length_a   6.09440700
_cell_length_b   8.49465000
_cell_length_c   8.74769000
_cell_angle_alpha   90.00000000
_cell_angle_beta   90.00000000
_cell_angle_gamma   90.00000000
_symmetry_Int_Tables_number   1
_chemical_formula_structural   Cu2Ni2C
_chemical_formula_sum   'Cu8 Ni8 C4'
_cell_volume   452.86663783
_cell_formula_units_Z   4
loop_
 _symmetry_equiv_pos_site_id
 _symmetry_equiv_pos_as_xyz
  1  'x, y, z'
loop_
 _atom_site_type_symbol
 _atom_site_label
 _atom_site_symmetry_multiplicity
 _atom_site_fract_x
 _atom_site_fract_y
 _atom_site_fract_z
 _atom_site_occupancy
  C  C0  1  0.56825600  0.25000000  0.42923000  1
  C  C1  1  0.93174400  0.75000000  0.92923000  1
  C  C2  1  0.43174400  0.75000000  0.57077000  1
  C  C3  1  0.06825600  0.25000000  0.07077000  1
  Ni  Ni4  1  0.82107400  0.44224300  0.87996400  1
  Ni  Ni5  1  0.82107400  0.05775700  0.87996400  1
  Ni  Ni6  1  0.67892600  0.94224300  0.37996400  1
  Ni  Ni7  1  0.32107400  0.05775700  0.62003600  1
  Ni  Ni8  1  0.17892600  0.55775700  0.12003600  1
  Ni  Ni9  1  0.17892600  0.94224300  0.12003600  1
  Ni  Ni10  1  0.32107400  0.44224300  0.62003600  1
  Ni  Ni11  1  0.67892600  0.55775700  0.37996400  1
  Cu  Cu12  1  0.21967000  0.75000000  0.43159900  1
  Cu  Cu13  1  0.35288100  0.25000000  0.27964300  1
  Cu  Cu14  1  0.85288100  0.25000000  0.22035700  1
  Cu  Cu15  1  0.71967000  0.75000000  0.06840100  1
  Cu  Cu16  1  0.78033000  0.25000000  0.56840100  1
  Cu  Cu17  1  0.14711900  0.75000000  0.77964300  1
  Cu  Cu18  1  0.64711900  0.75000000  0.72035700  1
  Cu  Cu19  1  0.28033000  0.25000000  0.93159900  1
