# generated using pymatgen
data_Cu5NiC33
_symmetry_space_group_name_H-M   'P 1'
_cell_length_a   9.18132312
_cell_length_b   9.17512397
_cell_length_c   23.30348233
_cell_angle_alpha   89.90233715
_cell_angle_beta   90.05460401
_cell_angle_gamma   120.24563402
_symmetry_Int_Tables_number   1
_chemical_formula_structural   Cu5NiC33
_chemical_formula_sum   'Cu15 Ni3 C99'
_cell_volume   1695.85123294
_cell_formula_units_Z   3
loop_
 _symmetry_equiv_pos_site_id
 _symmetry_equiv_pos_as_xyz
  1  'x, y, z'
loop_
 _atom_site_type_symbol
 _atom_site_label
 _atom_site_symmetry_multiplicity
 _atom_site_fract_x
 _atom_site_fract_y
 _atom_site_fract_z
 _atom_site_occupancy
  C  C0  1  0.00351361  0.64183890  0.25046014  1
  C  C1  1  0.63202016  0.64090061  0.75014851  1
  C  C2  1  0.37059551  0.99753148  0.75112844  1
  C  C3  1  0.66511217  0.97224163  0.58585033  1
  C  C4  1  0.29785811  0.97000289  0.08270390  1
  C  C5  1  0.67851699  0.69670342  0.08118863  1
  C  C6  1  0.02592813  0.33259473  0.08384021  1
  C  C7  1  0.96618128  0.30131803  0.41730443  1
  C  C8  1  0.33885493  0.03585048  0.41998581  1
  C  C9  1  0.00687811  0.99012356  0.50186412  1
  C  C10  1  0.00037430  0.99166133  0.99441400  1
  C  C11  1  0.67936519  0.33134196  0.83781462  1
  C  C12  1  0.65440112  0.33387548  0.33318537  1
  C  C13  1  0.34076848  0.66658874  0.17077053  1
  C  C14  1  0.31918895  0.65564520  0.66674678  1
  C  C15  1  0.99305041  0.99491352  0.34993033  1
  C  C16  1  0.00093697  0.00243546  0.15272614  1
  C  C17  1  0.66857148  0.33787335  0.97827838  1
  C  C18  1  0.66331331  0.34187103  0.48703004  1
  C  C19  1  0.34452557  0.66782517  0.31499411  1
  C  C20  1  0.32738308  0.66215881  0.81405339  1
  C  C21  1  0.99518288  0.00259473  0.85323669  1
  C  C22  1  0.00447920  0.00286107  0.64778310  1
  C  C23  1  0.66937271  0.32813577  0.68391608  1
  C  C24  1  0.66722127  0.33098180  0.18331765  1
  C  C25  1  0.32961835  0.66644487  0.01362875  1
  C  C26  1  0.33231885  0.66526586  0.52164720  1
  Ni  Ni27  1  0.71384413  0.00715656  0.74820483  1
  Ni  Ni28  1  0.36570950  0.03276266  0.58313658  1
  Ni  Ni29  1  0.96671639  0.62928637  0.08364678  1
  Cu  Cu30  1  0.30662752  0.00582407  0.24972705  1
  Cu  Cu31  1  0.69893869  0.69037946  0.24594747  1
  Cu  Cu32  1  0.99230445  0.30279414  0.24902344  1
  Cu  Cu33  1  0.29122440  0.28410939  0.74895146  1
  Cu  Cu34  1  0.99261841  0.71216703  0.74937916  1
  Cu  Cu35  1  0.96415988  0.33380315  0.58369419  1
  Cu  Cu36  1  0.66632460  0.63300894  0.58705796  1
  Cu  Cu37  1  0.66075909  0.03657984  0.08257361  1
  Cu  Cu38  1  0.37672440  0.33973034  0.08289122  1
  Cu  Cu39  1  0.63204850  0.67487727  0.91505665  1
  Cu  Cu40  1  0.04080196  0.36476097  0.91675807  1
  Cu  Cu41  1  0.32413515  0.95882824  0.91464764  1
  Cu  Cu42  1  0.62820219  0.96156984  0.42088377  1
  Cu  Cu43  1  0.33135461  0.37197696  0.41888187  1
  Cu  Cu44  1  0.04503458  0.66712683  0.41727385  1
  C  C45  1  0.22394419  0.02885620  0.30408262  1
  C  C46  1  0.81571505  0.77584376  0.29791443  1
  C  C47  1  0.97204052  0.19785273  0.30327188  1
  C  C48  1  0.20842807  0.17295346  0.80282211  1
  C  C49  1  0.96805740  0.79684793  0.80330745  1
  C  C50  1  0.83157286  0.02632188  0.80441768  1
  C  C51  1  0.80272519  0.98135055  0.69151299  1
  C  C52  1  0.18231618  0.19566398  0.69595205  1
  C  C53  1  0.01807360  0.82524900  0.69666829  1
  C  C54  1  0.77826436  0.79161228  0.19074986  1
  C  C55  1  0.01521333  0.22289937  0.19448356  1
  C  C56  1  0.19642502  0.97882748  0.19611267  1
  C  C57  1  0.87001668  0.36075135  0.63476677  1
  C  C58  1  0.49773230  0.13308203  0.63777208  1
  C  C59  1  0.64226822  0.52143637  0.64058172  1
  C  C60  1  0.87764767  0.50749664  0.14132324  1
  C  C61  1  0.62959701  0.12101877  0.13592203  1
  C  C62  1  0.49136494  0.36575243  0.13613774  1
  C  C63  1  0.44783411  0.29818777  0.03084987  1
  C  C64  1  0.84035721  0.54319958  0.03111656  1
  C  C65  1  0.69329155  0.14691676  0.03038926  1
  C  C66  1  0.44121342  0.13640794  0.52424505  1
  C  C67  1  0.70151644  0.56143727  0.53342257  1
  C  C68  1  0.85884996  0.29615677  0.52863450  1
  C  C69  1  0.53858215  0.69236682  0.96979299  1
  C  C70  1  0.15079577  0.45655514  0.97231294  1
  C  C71  1  0.30618336  0.84412309  0.96925522  1
  C  C72  1  0.53593516  0.85291178  0.47510604  1
  C  C73  1  0.31693919  0.46874435  0.47164818  1
  C  C74  1  0.16196785  0.68285666  0.46909337  1
  C  C75  1  0.12051800  0.64572256  0.36101334  1
  C  C76  1  0.52039749  0.87985355  0.36730598  1
  C  C77  1  0.34851325  0.47039003  0.36386711  1
  C  C78  1  0.12567065  0.47226783  0.86427483  1
  C  C79  1  0.34504915  0.87807108  0.86018180  1
  C  C80  1  0.53094409  0.65619834  0.86064287  1
  C  C81  1  0.03888367  0.83262266  0.41611924  1
  C  C82  1  0.80578461  0.98268192  0.41727880  1
  C  C83  1  0.16494420  0.19670230  0.41712322  1
  C  C84  1  0.03323277  0.19137615  0.91247224  1
  C  C85  1  0.15986614  0.96795861  0.91165467  1
  C  C86  1  0.80866402  0.83926641  0.91204414  1
  C  C87  1  0.97800274  0.17384718  0.59390234  1
  C  C88  1  0.17860580  0.00677111  0.59338729  1
  C  C89  1  0.81724443  0.81618057  0.59414083  1
  C  C90  1  0.00002037  0.82153339  0.08912862  1
  C  C91  1  0.81471232  0.01313716  0.09050115  1
  C  C92  1  0.19469902  0.19192155  0.09104492  1
  C  C93  1  0.69006982  0.17472476  0.74232890  1
  C  C94  1  0.46920425  0.29904079  0.74183663  1
  C  C95  1  0.82831158  0.53790766  0.74193640  1
  C  C96  1  0.68865195  0.51511297  0.24087211  1
  C  C97  1  0.82963695  0.31762488  0.24340758  1
  C  C98  1  0.48332230  0.16383546  0.24169252  1
  C  C99  1  0.65210832  0.51991914  0.91985661  1
  C  C100  1  0.86427865  0.33989441  0.92178488  1
  C  C101  1  0.47880396  0.13381308  0.92107417  1
  C  C102  1  0.64724892  0.13958137  0.42441285  1
  C  C103  1  0.48244510  0.34280858  0.42193494  1
  C  C104  1  0.87158821  0.50628461  0.42356152  1
  C  C105  1  0.36980093  0.50680506  0.07594054  1
  C  C106  1  0.15322753  0.64038515  0.07530028  1
  C  C107  1  0.49832848  0.85782170  0.07605575  1
  C  C108  1  0.36004390  0.84835640  0.57854603  1
  C  C109  1  0.50617019  0.65055612  0.57965065  1
  C  C110  1  0.14180652  0.49133232  0.57790511  1
  C  C111  1  0.31704599  0.84294663  0.25329869  1
  C  C112  1  0.52283934  0.66767062  0.25130473  1
  C  C113  1  0.14296747  0.48557300  0.25248118  1
  C  C114  1  0.31978624  0.46388099  0.75213519  1
  C  C115  1  0.15205041  0.69763645  0.75280588  1
  C  C116  1  0.52461598  0.83874938  0.75111049  1
