# generated using pymatgen
data_CuNi4C13
_symmetry_space_group_name_H-M   'P 1'
_cell_length_a   5.60670500
_cell_length_b   11.32981157
_cell_length_c   10.07047361
_cell_angle_alpha   27.53143181
_cell_angle_beta   50.91565644
_cell_angle_gamma   56.01566006
_symmetry_Int_Tables_number   1
_chemical_formula_structural   CuNi4C13
_chemical_formula_sum   'Cu1 Ni4 C13'
_cell_volume   229.52359927
_cell_formula_units_Z   1
loop_
 _symmetry_equiv_pos_site_id
 _symmetry_equiv_pos_as_xyz
  1  'x, y, z'
loop_
 _atom_site_type_symbol
 _atom_site_label
 _atom_site_symmetry_multiplicity
 _atom_site_fract_x
 _atom_site_fract_y
 _atom_site_fract_z
 _atom_site_occupancy
  C  C0  1  0.79513600  0.50694300  0.76909100  1
  Ni  Ni1  1  0.01815200  0.99980600  0.99031000  1
  Ni  Ni2  1  0.97142700  0.49501500  0.01504700  1
  Ni  Ni3  1  0.46896500  0.99793500  0.51572300  1
  Ni  Ni4  1  0.51958000  0.50177100  0.48708500  1
  Cu  Cu5  1  0.29639700  0.99639400  0.29047100  1
  C  C6  1  0.36576300  0.30612000  0.10399000  1
  C  C7  1  0.23305400  0.10124000  0.63583400  1
  C  C8  1  0.09336200  0.31166200  0.74490600  1
  C  C9  1  0.85483200  0.19856600  0.21326100  1
  C  C10  1  0.33716700  0.80262400  0.13377600  1
  C  C11  1  0.73299900  0.39593600  0.33795300  1
  C  C12  1  0.21175600  0.62755300  0.60340100  1
  C  C13  1  0.59624900  0.19046100  0.86439900  1
  C  C14  1  0.12650500  0.81801400  0.70560700  1
  C  C15  1  0.84178500  0.69783100  0.23495000  1
  C  C16  1  0.71065500  0.86534600  0.36579500  1
  C  C17  1  0.63551600  0.68083000  0.83520100  1
