# generated using pymatgen
data_Cu2NiC15
_symmetry_space_group_name_H-M   'P 1'
_cell_length_a   8.82228822
_cell_length_b   8.81186451
_cell_length_c   22.94313251
_cell_angle_alpha   90.15946960
_cell_angle_beta   90.00000000
_cell_angle_gamma   120.03913834
_symmetry_Int_Tables_number   1
_chemical_formula_structural   Cu2NiC15
_chemical_formula_sum   'Cu12 Ni6 C90'
_cell_volume   1544.04068283
_cell_formula_units_Z   6
loop_
 _symmetry_equiv_pos_site_id
 _symmetry_equiv_pos_as_xyz
  1  'x, y, z'
loop_
 _atom_site_type_symbol
 _atom_site_label
 _atom_site_symmetry_multiplicity
 _atom_site_fract_x
 _atom_site_fract_y
 _atom_site_fract_z
 _atom_site_occupancy
  C  C0  1  0.00155612  0.00259873  0.49883639  1
  C  C1  1  0.00104261  0.00259873  0.99883639  1
  C  C2  1  0.66921444  0.33554676  0.83217800  1
  C  C3  1  0.66633332  0.33554676  0.33217800  1
  C  C4  1  0.33406448  0.66513069  0.16542763  1
  C  C5  1  0.33106521  0.66513069  0.66542763  1
  C  C6  1  0.00025138  0.99954422  0.64530565  1
  C  C7  1  0.99929283  0.99954422  0.14530565  1
  C  C8  1  0.66451046  0.33295741  0.97853900  1
  C  C9  1  0.66844794  0.33295741  0.47853900  1
  C  C10  1  0.33874832  0.66298530  0.31187712  1
  C  C11  1  0.32423598  0.66298530  0.81187712  1
  Ni  Ni12  1  0.71441465  0.70968923  0.25020886  1
  Ni  Ni13  1  0.99527458  0.70968923  0.75020886  1
  Ni  Ni14  1  0.95891188  0.33664635  0.58341626  1
  Ni  Ni15  1  0.37773547  0.33664635  0.08341626  1
  Ni  Ni16  1  0.04299740  0.37289231  0.91704635  1
  Ni  Ni17  1  0.32989391  0.37289231  0.41704635  1
  C  C18  1  0.00033507  0.99910289  0.35243974  1
  C  C19  1  0.99876783  0.99910289  0.85243974  1
  C  C20  1  0.67129729  0.33585728  0.68582173  1
  C  C21  1  0.66456099  0.33585728  0.18582173  1
  C  C22  1  0.33249935  0.66241116  0.01914350  1
  C  C23  1  0.32991081  0.66241116  0.51914350  1
  Cu  Cu24  1  0.28993522  0.00064419  0.25003238  1
  Cu  Cu25  1  0.99652106  0.28721301  0.24984419  1
  Cu  Cu26  1  0.29069195  0.28721301  0.74984419  1
  Cu  Cu27  1  0.71070897  0.00064419  0.75003238  1
  Cu  Cu28  1  0.37995943  0.04443383  0.58329135  1
  Cu  Cu29  1  0.66424423  0.62079398  0.58343230  1
  Cu  Cu30  1  0.95655075  0.62079398  0.08343230  1
  Cu  Cu31  1  0.66447540  0.04443383  0.08329135  1
  Cu  Cu32  1  0.62225476  0.66904190  0.91635850  1
  Cu  Cu33  1  0.33126016  0.95330250  0.91709788  1
  Cu  Cu34  1  0.62204133  0.95330250  0.41709788  1
  Cu  Cu35  1  0.04678614  0.66904190  0.41635850  1
  C  C36  1  0.21303611  0.03565140  0.30463984  1
  C  C37  1  0.82828164  0.79451757  0.30790756  1
  C  C38  1  0.96628705  0.17893060  0.30473317  1
  C  C39  1  0.21264355  0.17893060  0.80473317  1
  C  C40  1  0.96623593  0.79451757  0.80790756  1
  C  C41  1  0.82261529  0.03565140  0.80463984  1
  C  C42  1  0.79821772  0.97030923  0.69540993  1
  C  C43  1  0.17256037  0.20449303  0.69520728  1
  C  C44  1  0.03225481  0.83601598  0.69272762  1
  C  C45  1  0.80376117  0.83601598  0.19272762  1
  C  C46  1  0.03193267  0.20449303  0.19520728  1
  C  C47  1  0.17209151  0.97030923  0.19540993  1
  C  C48  1  0.87344761  0.36751591  0.64040720  1
  C  C49  1  0.48793801  0.12270008  0.63866868  1
  C  C50  1  0.62995830  0.51023403  0.63810334  1
  C  C51  1  0.88027673  0.51023403  0.13810334  1
  C  C52  1  0.63476307  0.12270008  0.13866868  1
  C  C53  1  0.49406930  0.36751591  0.14040720  1
  C  C54  1  0.47028623  0.30116830  0.02590277  1
  C  C55  1  0.83910613  0.53616615  0.02885801  1
  C  C56  1  0.69815146  0.16133340  0.02864437  1
  C  C57  1  0.46318294  0.16133340  0.52864437  1
  C  C58  1  0.69706102  0.53616615  0.52885801  1
  C  C59  1  0.83088307  0.30116830  0.52590277  1
  C  C60  1  0.54670218  0.70286012  0.97162810  1
  C  C61  1  0.16054338  0.45886898  0.97363436  1
  C  C62  1  0.30181905  0.84480567  0.97206076  1
  C  C63  1  0.54298562  0.84480567  0.47206076  1
  C  C64  1  0.29832460  0.45886898  0.47363436  1
  C  C65  1  0.15615694  0.70286012  0.47162810  1
  C  C66  1  0.12977097  0.63610452  0.36198691  1
  C  C67  1  0.50479495  0.87033173  0.36218481  1
  C  C68  1  0.36468688  0.50159735  0.35936555  1
  C  C69  1  0.13690948  0.50159735  0.85936555  1
  C  C70  1  0.36553578  0.87033173  0.86218481  1
  C  C71  1  0.50633255  0.63610452  0.86198691  1
  C  C72  1  0.02203071  0.82864431  0.41047381  1
  C  C73  1  0.80494925  0.97648375  0.41021279  1
  C  C74  1  0.15974710  0.18081381  0.40906266  1
  C  C75  1  0.02106672  0.18081381  0.90906266  1
  C  C76  1  0.17153450  0.97648375  0.91021279  1
  C  C77  1  0.80661359  0.82864431  0.91047381  1
  C  C78  1  0.97551701  0.15868243  0.59171827  1
  C  C79  1  0.19580707  0.02673729  0.59052904  1
  C  C80  1  0.83180583  0.80469842  0.59060300  1
  C  C81  1  0.97289260  0.80469842  0.09060300  1
  C  C82  1  0.83093022  0.02673729  0.09052904  1
  C  C83  1  0.18316542  0.15868243  0.09171827  1
  C  C84  1  0.68615773  0.16027823  0.74319166  1
  C  C85  1  0.47261910  0.30822103  0.74208860  1
  C  C86  1  0.82659658  0.51608830  0.74452355  1
  C  C87  1  0.68949272  0.51608830  0.24452355  1
  C  C88  1  0.83560293  0.30822103  0.24208860  1
  C  C89  1  0.47412150  0.16027823  0.24319166  1
  C  C90  1  0.64036426  0.50204457  0.92426780  1
  C  C91  1  0.84988893  0.35744831  0.92483690  1
  C  C92  1  0.49865722  0.13753696  0.92383573  1
  C  C93  1  0.63888074  0.13753696  0.42383573  1
  C  C94  1  0.50756038  0.35744831  0.42483690  1
  C  C95  1  0.86168131  0.50204457  0.42426780  1
  C  C96  1  0.35627213  0.50758380  0.07755366  1
  C  C97  1  0.14110947  0.64788470  0.07652183  1
  C  C98  1  0.50288048  0.86178764  0.07577351  1
  C  C99  1  0.35890616  0.86178764  0.57577351  1
  C  C100  1  0.50677423  0.64788470  0.57652183  1
  C  C101  1  0.15131067  0.50758380  0.57755366  1
  C  C102  1  0.30489291  0.83375578  0.25723300  1
  C  C103  1  0.51890796  0.69427668  0.25793378  1
  C  C104  1  0.16245753  0.47263817  0.25727333  1
  C  C105  1  0.31017964  0.47263817  0.75727333  1
  C  C106  1  0.17536773  0.69427668  0.75793378  1
  C  C107  1  0.52886187  0.83375578  0.75723300  1
