# generated using pymatgen
data_Cu5(Ni3C35)2
_symmetry_space_group_name_H-M   'P 1'
_cell_length_a   9.35801324
_cell_length_b   9.35549814
_cell_length_c   10.20907105
_cell_angle_alpha   90.00724653
_cell_angle_beta   89.98845561
_cell_angle_gamma   119.98544625
_symmetry_Int_Tables_number   1
_chemical_formula_structural   Cu5(Ni3C35)2
_chemical_formula_sum   'Cu5 Ni6 C70'
_cell_volume   774.16065120
_cell_formula_units_Z   1
loop_
 _symmetry_equiv_pos_site_id
 _symmetry_equiv_pos_as_xyz
  1  'x, y, z'
loop_
 _atom_site_type_symbol
 _atom_site_label
 _atom_site_symmetry_multiplicity
 _atom_site_fract_x
 _atom_site_fract_y
 _atom_site_fract_z
 _atom_site_occupancy
  C  C0  1  0.66560700  0.88621900  0.00179400  1
  C  C1  1  0.00059300  0.55505500  0.00188000  1
  C  C2  1  0.33439100  0.22454900  0.66385800  1
  C  C3  1  0.00126500  0.22266000  0.66379700  1
  C  C4  1  0.33298400  0.88813000  0.00236100  1
  C  C5  1  0.99908200  0.55559200  0.66411300  1
  C  C6  1  0.33303800  0.88858400  0.66380300  1
  C  C7  1  0.66655600  0.88673300  0.66406100  1
  C  C8  1  0.66662700  0.22320500  0.33330500  1
  C  C9  1  0.00011300  0.88977300  0.00328200  1
  C  C10  1  0.66617400  0.22365600  0.00238800  1
  Ni  Ni11  1  0.00407300  0.22427800  0.00234200  1
  Ni  Ni12  1  0.66280500  0.55449200  0.00227700  1
  Ni  Ni13  1  0.00237900  0.22317100  0.33398000  1
  Ni  Ni14  1  0.66561000  0.55671800  0.33450000  1
  Ni  Ni15  1  0.99907500  0.88858400  0.33237800  1
  Ni  Ni16  1  0.33507900  0.55493200  0.66010200  1
  Cu  Cu17  1  0.66586300  0.55579300  0.66304100  1
  Cu  Cu18  1  0.66701100  0.22431200  0.66436800  1
  Cu  Cu19  1  0.33207800  0.88728600  0.33400600  1
  Cu  Cu20  1  0.33382800  0.55430900  0.33417900  1
  Cu  Cu21  1  0.33282600  0.22402500  0.33471900  1
  C  C22  1  0.99823600  0.88746900  0.66400100  1
  C  C23  1  0.66686100  0.88627200  0.33405700  1
  C  C24  1  0.00078400  0.55624400  0.33422000  1
  C  C25  1  0.33386300  0.55190700  0.00567300  1
  C  C26  1  0.33312800  0.22671200  0.00163300  1
  C  C27  1  0.11391800  0.44546700  0.49379000  1
  C  C28  1  0.11240700  0.77817500  0.17291600  1
  C  C29  1  0.44386200  0.11131900  0.49445800  1
  C  C30  1  0.11286200  0.11114300  0.49296200  1
  C  C31  1  0.77625500  0.77616400  0.16958000  1
  C  C32  1  0.44279500  0.77555500  0.17394900  1
  C  C33  1  0.77980600  0.11093700  0.16856300  1
  C  C34  1  0.77702200  0.44647800  0.16880800  1
  C  C35  1  0.44275700  0.44374300  0.17403800  1
  C  C36  1  0.11367100  0.44457800  0.17218300  1
  C  C37  1  0.44094100  0.11087000  0.17367700  1
  C  C38  1  0.11378200  0.11368600  0.17250800  1
  C  C39  1  0.77686000  0.11128000  0.49797000  1
  C  C40  1  0.88520000  0.66475300  0.83277400  1
  C  C41  1  0.55503600  0.66389000  0.83176500  1
  C  C42  1  0.77486300  0.44472700  0.50078900  1
  C  C43  1  0.88770400  0.66611300  0.16970900  1
  C  C44  1  0.22274300  0.00037200  0.49130500  1
  C  C45  1  0.55415100  0.99996300  0.49619200  1
  C  C46  1  0.88982900  0.99947100  0.49523400  1
  C  C47  1  0.22500100  0.33511300  0.49196200  1
  C  C48  1  0.55542600  0.33478200  0.49854200  1
  C  C49  1  0.88774800  0.33292500  0.49842400  1
  C  C50  1  0.22421100  0.66698400  0.49239200  1
  C  C51  1  0.55403500  0.66348800  0.49651200  1
  C  C52  1  0.88703600  0.66648300  0.49792900  1
  C  C53  1  0.22264800  0.00146300  0.83357000  1
  C  C54  1  0.55712800  0.00195000  0.83177100  1
  C  C55  1  0.88887200  0.00031000  0.83479000  1
  C  C56  1  0.22383200  0.33552100  0.83433100  1
  C  C57  1  0.55736700  0.33592900  0.82979300  1
  C  C58  1  0.88788200  0.33261000  0.83315600  1
  C  C59  1  0.22312500  0.66450500  0.83366100  1
  C  C60  1  0.55291000  0.66402000  0.17199300  1
  C  C61  1  0.22376700  0.66616000  0.17410800  1
  C  C62  1  0.89174900  0.33376400  0.16856900  1
  C  C63  1  0.44659200  0.44647600  0.83141500  1
  C  C64  1  0.11183000  0.77935500  0.49341100  1
  C  C65  1  0.44301300  0.77619600  0.49238400  1
  C  C66  1  0.77721300  0.77508400  0.49831500  1
  C  C67  1  0.11178600  0.11234900  0.83429000  1
  C  C68  1  0.44647300  0.11363500  0.83160100  1
  C  C69  1  0.77812200  0.11227600  0.83345000  1
  C  C70  1  0.11284400  0.44467800  0.83424900  1
  C  C71  1  0.77547200  0.44457200  0.83038200  1
  C  C72  1  0.55201500  0.33406500  0.17132200  1
  C  C73  1  0.10977400  0.77726800  0.83337900  1
  C  C74  1  0.44385300  0.77463100  0.83340600  1
  C  C75  1  0.77603600  0.77440200  0.83226100  1
  C  C76  1  0.22368500  0.00192600  0.17524200  1
  C  C77  1  0.55342900  0.99741800  0.17180800  1
  C  C78  1  0.88991800  0.00135300  0.17010300  1
  C  C79  1  0.22390000  0.33400400  0.17385700  1
  C  C80  1  0.44501900  0.44506300  0.49439000  1
