# generated using pymatgen
data_CuNiC19
_symmetry_space_group_name_H-M   'P 1'
_cell_length_a   9.59539269
_cell_length_b   9.59539232
_cell_length_c   23.61222715
_cell_angle_alpha   90.00000000
_cell_angle_beta   90.00000000
_cell_angle_gamma   120.00000131
_symmetry_Int_Tables_number   1
_chemical_formula_structural   CuNiC19
_chemical_formula_sum   'Cu6 Ni6 C114'
_cell_volume   1882.75178282
_cell_formula_units_Z   6
loop_
 _symmetry_equiv_pos_site_id
 _symmetry_equiv_pos_as_xyz
  1  'x, y, z'
loop_
 _atom_site_type_symbol
 _atom_site_label
 _atom_site_symmetry_multiplicity
 _atom_site_fract_x
 _atom_site_fract_y
 _atom_site_fract_z
 _atom_site_occupancy
  C  C0  1  0.63841113  0.01176308  0.24780202  1
  C  C1  1  0.37335195  0.36158887  0.24780202  1
  C  C2  1  0.98823692  0.62664805  0.24780202  1
  C  C3  1  0.63841113  0.62664805  0.74780202  1
  C  C4  1  0.98823692  0.36158887  0.74780202  1
  C  C5  1  0.37335195  0.01176308  0.74780202  1
  C  C6  1  0.30507813  0.34509608  0.58113502  1
  C  C7  1  0.04001895  0.69492187  0.58113502  1
  C  C8  1  0.65490392  0.95998105  0.58113502  1
  C  C9  1  0.30507813  0.95998105  0.08113502  1
  C  C10  1  0.65490392  0.69492187  0.08113502  1
  C  C11  1  0.04001895  0.34509608  0.08113502  1
  C  C12  1  0.97174413  0.67843008  0.91446902  1
  C  C13  1  0.70668495  0.02825587  0.91446902  1
  C  C14  1  0.32156992  0.29331505  0.91446902  1
  C  C15  1  0.97174413  0.29331505  0.41446902  1
  C  C16  1  0.32156992  0.02825587  0.41446902  1
  C  C17  1  0.70668495  0.67843008  0.41446902  1
  C  C18  1  -0.00000000  -0.00000000  0.49426637  1
  C  C19  1  -0.00000000  -0.00000000  0.99426637  1
  C  C20  1  0.66666700  0.33333300  0.82759937  1
  C  C21  1  0.66666700  0.33333300  0.32759937  1
  C  C22  1  0.33333300  0.66666700  0.16093337  1
  C  C23  1  0.33333300  0.66666700  0.66093337  1
  Ni  Ni24  1  -0.00000000  -0.00000000  0.34667936  1
  Ni  Ni25  1  -0.00000000  -0.00000000  0.84667936  1
  Ni  Ni26  1  0.66666700  0.33333300  0.68001236  1
  Ni  Ni27  1  0.66666700  0.33333300  0.18001236  1
  Ni  Ni28  1  0.33333300  0.66666700  0.01334636  1
  Ni  Ni29  1  0.33333300  0.66666700  0.51334636  1
  Cu  Cu30  1  -0.00000000  -0.00000000  0.65446598  1
  Cu  Cu31  1  -0.00000000  -0.00000000  0.15446598  1
  Cu  Cu32  1  0.66666700  0.33333300  0.98779898  1
  Cu  Cu33  1  0.66666700  0.33333300  0.48779898  1
  Cu  Cu34  1  0.33333300  0.66666700  0.32113298  1
  Cu  Cu35  1  0.33333300  0.66666700  0.82113298  1
  C  C36  1  0.30960305  0.00420640  0.25147300  1
  C  C37  1  0.69460336  0.69039695  0.25147300  1
  C  C38  1  0.99579360  0.30539664  0.25147300  1
  C  C39  1  0.30960305  0.30539664  0.75147300  1
  C  C40  1  0.99579360  0.69039695  0.75147300  1
  C  C41  1  0.69460336  0.00420640  0.75147300  1
  C  C42  1  0.97627005  0.33753940  0.58480600  1
  C  C43  1  0.36127036  0.02372995  0.58480600  1
  C  C44  1  0.66246060  0.63872964  0.58480600  1
  C  C45  1  0.97627005  0.63872964  0.08480600  1
  C  C46  1  0.66246060  0.02372995  0.08480600  1
  C  C47  1  0.36127036  0.33753940  0.08480600  1
  C  C48  1  0.64293605  0.67087340  0.91814000  1
  C  C49  1  0.02793636  0.35706395  0.91814000  1
  C  C50  1  0.32912660  0.97206364  0.91814000  1
  C  C51  1  0.64293605  0.97206364  0.41814000  1
  C  C52  1  0.32912660  0.35706395  0.41814000  1
  C  C53  1  0.02793636  0.67087340  0.41814000  1
  C  C54  1  0.22223163  0.01930475  0.30369542  1
  C  C55  1  0.79707312  0.77776837  0.30369542  1
  C  C56  1  0.98069525  0.20292688  0.30369542  1
  C  C57  1  0.22223163  0.20292688  0.80369542  1
  C  C58  1  0.98069525  0.77776837  0.80369542  1
  C  C59  1  0.79707312  0.01930475  0.80369542  1
  C  C60  1  0.77374792  0.98272244  0.69713469  1
  C  C61  1  0.20897451  0.22625208  0.69713469  1
  C  C62  1  0.01727756  0.79102549  0.69713469  1
  C  C63  1  0.77374792  0.79102549  0.19713469  1
  C  C64  1  0.01727756  0.22625208  0.19713469  1
  C  C65  1  0.20897451  0.98272244  0.19713469  1
  C  C66  1  0.88889863  0.35263775  0.63702842  1
  C  C67  1  0.46374012  0.11110137  0.63702842  1
  C  C68  1  0.64736225  0.53625988  0.63702842  1
  C  C69  1  0.88889863  0.53625988  0.13702842  1
  C  C70  1  0.64736225  0.11110137  0.13702842  1
  C  C71  1  0.46374012  0.35263775  0.13702842  1
  C  C72  1  0.44041492  0.31605544  0.03046769  1
  C  C73  1  0.87564151  0.55958508  0.03046769  1
  C  C74  1  0.68394456  0.12435849  0.03046769  1
  C  C75  1  0.44041492  0.12435849  0.53046769  1
  C  C76  1  0.68394456  0.55958508  0.53046769  1
  C  C77  1  0.87564151  0.31605544  0.53046769  1
  C  C78  1  0.55556463  0.68597175  0.97036242  1
  C  C79  1  0.13040612  0.44443537  0.97036242  1
  C  C80  1  0.31402825  0.86959388  0.97036242  1
  C  C81  1  0.55556463  0.86959388  0.47036242  1
  C  C82  1  0.31402825  0.44443537  0.47036242  1
  C  C83  1  0.13040612  0.68597175  0.47036242  1
  C  C84  1  0.10708092  0.64938944  0.36380169  1
  C  C85  1  0.54230751  0.89291908  0.36380169  1
  C  C86  1  0.35061056  0.45769249  0.36380169  1
  C  C87  1  0.10708092  0.45769249  0.86380169  1
  C  C88  1  0.35061056  0.89291908  0.86380169  1
  C  C89  1  0.54230751  0.64938944  0.86380169  1
  C  C90  1  0.01294958  0.82485036  0.41470961  1
  C  C91  1  0.81190078  0.98705042  0.41470961  1
  C  C92  1  0.17514964  0.18809922  0.41470961  1
  C  C93  1  0.01294958  0.18809922  0.91470961  1
  C  C94  1  0.17514964  0.98705042  0.91470961  1
  C  C95  1  0.81190078  0.82485036  0.91470961  1
  C  C96  1  0.99592642  0.18577546  0.58671469  1
  C  C97  1  0.18984905  0.00407358  0.58671469  1
  C  C98  1  0.81422454  0.81015095  0.58671469  1
  C  C99  1  0.99592642  0.81015095  0.08671469  1
  C  C100  1  0.81422454  0.00407358  0.08671469  1
  C  C101  1  0.18984905  0.18577546  0.08671469  1
  C  C102  1  0.67961658  0.15818336  0.74804261  1
  C  C103  1  0.47856778  0.32038342  0.74804261  1
  C  C104  1  0.84181664  0.52143222  0.74804261  1
  C  C105  1  0.67961658  0.52143222  0.24804261  1
  C  C106  1  0.84181664  0.32038342  0.24804261  1
  C  C107  1  0.47856778  0.15818336  0.24804261  1
  C  C108  1  0.66259342  0.51910846  0.92004769  1
  C  C109  1  0.85651605  0.33740658  0.92004769  1
  C  C110  1  0.48089154  0.14348395  0.92004769  1
  C  C111  1  0.66259342  0.14348395  0.42004769  1
  C  C112  1  0.48089154  0.33740658  0.42004769  1
  C  C113  1  0.85651605  0.51910846  0.42004769  1
  C  C114  1  0.34628258  0.49151736  0.08137661  1
  C  C115  1  0.14523378  0.65371742  0.08137661  1
  C  C116  1  0.50848264  0.85476622  0.08137661  1
  C  C117  1  0.34628258  0.85476622  0.58137661  1
  C  C118  1  0.50848264  0.65371742  0.58137661  1
  C  C119  1  0.14523378  0.49151736  0.58137661  1
  C  C120  1  0.32925942  0.85244246  0.25338169  1
  C  C121  1  0.52318205  0.67074058  0.25338169  1
  C  C122  1  0.14755754  0.47681795  0.25338169  1
  C  C123  1  0.32925942  0.47681795  0.75338169  1
  C  C124  1  0.14755754  0.67074058  0.75338169  1
  C  C125  1  0.52318205  0.85244246  0.75338169  1
