# generated using pymatgen
data_Cu12Ni12C13
_symmetry_space_group_name_H-M   'P 1'
_cell_length_a   9.63890572
_cell_length_b   14.54099533
_cell_length_c   3.13587506
_cell_angle_alpha   91.37482663
_cell_angle_beta   88.90755427
_cell_angle_gamma   90.03573681
_symmetry_Int_Tables_number   1
_chemical_formula_structural   Cu12Ni12C13
_chemical_formula_sum   'Cu12 Ni12 C13'
_cell_volume   439.31560095
_cell_formula_units_Z   1
loop_
 _symmetry_equiv_pos_site_id
 _symmetry_equiv_pos_as_xyz
  1  'x, y, z'
loop_
 _atom_site_type_symbol
 _atom_site_label
 _atom_site_symmetry_multiplicity
 _atom_site_fract_x
 _atom_site_fract_y
 _atom_site_fract_z
 _atom_site_occupancy
  C  C0  1  0.99778500  0.84064400  0.13633600  1
  C  C1  1  0.00389100  0.02934900  0.88902100  1
  C  C2  1  0.01860300  0.33180900  0.99146500  1
  C  C3  1  0.01159100  0.64395400  0.01734400  1
  C  C4  1  0.23462900  0.17126600  0.46521000  1
  C  C5  1  0.25344100  0.47828400  0.49856300  1
  C  C6  1  0.27858200  0.85374700  0.57012200  1
  C  C7  1  0.50069100  0.34248300  0.98739000  1
  C  C8  1  0.51203600  0.00861100  0.02240900  1
  C  C9  1  0.51801700  0.65681900  0.01527400  1
  C  C10  1  0.74548800  0.15670800  0.47405200  1
  C  C11  1  0.72107100  0.49092900  0.49483900  1
  C  C12  1  0.68381400  0.83204800  0.52778600  1
  Ni  Ni13  1  0.09674000  0.26990000  0.48140900  1
  Ni  Ni14  1  0.08220800  0.91118100  0.62842800  1
  Ni  Ni15  1  0.16347300  0.10580000  0.96006000  1
  Ni  Ni16  1  0.15280500  0.43346800  0.99815800  1
  Ni  Ni17  1  0.34865000  0.90955300  0.06573900  1
  Ni  Ni18  1  0.40923700  0.39457500  0.49614900  1
  Ni  Ni19  1  0.58484500  0.95184700  0.51306700  1
  Ni  Ni20  1  0.58860800  0.58971100  0.50519100  1
  Ni  Ni21  1  0.65226400  0.11184900  0.97799600  1
  Ni  Ni22  1  0.66036400  0.42506800  0.99135200  1
  Ni  Ni23  1  0.64297400  0.75391900  0.02339000  1
  Ni  Ni24  1  0.90839600  0.07151200  0.41110400  1
  Cu  Cu25  1  0.11834500  0.59101500  0.50843800  1
  Cu  Cu26  1  0.16220100  0.76095600  0.05541500  1
  Cu  Cu27  1  0.35071000  0.23648300  0.98073700  1
  Cu  Cu28  1  0.34467300  0.56046800  0.00807700  1
  Cu  Cu29  1  0.40108300  0.08450400  0.48565100  1
  Cu  Cu30  1  0.39169900  0.73012800  0.54083200  1
  Cu  Cu31  1  0.59820100  0.26772100  0.48344600  1
  Cu  Cu32  1  0.84716400  0.23825700  0.97440200  1
  Cu  Cu33  1  0.82716200  0.89713300  0.00720600  1
  Cu  Cu34  1  0.84528100  0.56025600  0.00019200  1
  Cu  Cu35  1  0.90570000  0.40032500  0.49132900  1
  Cu  Cu36  1  0.93758100  0.73642000  0.53075200  1
