# generated using pymatgen
data_CuNiC16
_symmetry_space_group_name_H-M   'P 1'
_cell_length_a   8.85959789
_cell_length_b   8.87273692
_cell_length_c   22.44987390
_cell_angle_alpha   88.77992306
_cell_angle_beta   90.00000000
_cell_angle_gamma   119.95102653
_symmetry_Int_Tables_number   1
_chemical_formula_structural   CuNiC16
_chemical_formula_sum   'Cu6 Ni6 C96'
_cell_volume   1528.61840323
_cell_formula_units_Z   6
loop_
 _symmetry_equiv_pos_site_id
 _symmetry_equiv_pos_as_xyz
  1  'x, y, z'
loop_
 _atom_site_type_symbol
 _atom_site_label
 _atom_site_symmetry_multiplicity
 _atom_site_fract_x
 _atom_site_fract_y
 _atom_site_fract_z
 _atom_site_occupancy
  Ni  Ni0  1  0.98000398  0.97917776  0.49956889  1
  Ni  Ni1  1  -0.00082622  0.97917776  0.99956889  1
  Ni  Ni2  1  0.65175031  0.31163252  0.83382220  1
  Ni  Ni3  1  0.65988321  0.31163252  0.33382220  1
  Ni  Ni4  1  0.32757179  0.67738438  0.16741072  1
  Ni  Ni5  1  0.34981160  0.67738438  0.66741072  1
  Cu  Cu6  1  0.99859766  0.99785859  0.64120321  1
  Cu  Cu7  1  -0.00073907  0.99785859  0.14120321  1
  Cu  Cu8  1  0.66007586  0.33171864  0.97457962  1
  Cu  Cu9  1  0.67164378  0.33171864  0.47457962  1
  Cu  Cu10  1  0.33519769  0.67216699  0.30831135  1
  Cu  Cu11  1  0.33696830  0.67216699  0.80831135  1
  C  C12  1  0.00951671  0.00184622  0.35179164  1
  C  C13  1  0.99232950  0.00184622  0.85179164  1
  C  C14  1  0.67261754  0.33936261  0.68649741  1
  C  C15  1  0.66674607  0.33936261  0.18649741  1
  C  C16  1  0.30619702  0.67501951  0.01985038  1
  C  C17  1  0.36882149  0.67501951  0.51985038  1
  C  C18  1  0.30421145  0.02933581  0.24780625  1
  C  C19  1  0.72512435  0.02933581  0.74780625  1
  C  C20  1  0.64970213  0.60690450  0.58231444  1
  C  C21  1  0.95720337  0.60690450  0.08231444  1
  C  C22  1  0.30390771  0.94914482  0.91275351  1
  C  C23  1  0.64523611  0.94914482  0.41275351  1
  C  C24  1  0.72106246  0.69264252  0.25067515  1
  C  C25  1  0.97535049  0.27820096  0.24883961  1
  C  C26  1  0.30285047  0.27820096  0.74883961  1
  C  C27  1  0.97158007  0.69264252  0.75067515  1
  C  C28  1  0.97979032  0.36646932  0.58310098  1
  C  C29  1  0.39062239  0.02585323  0.58325783  1
  C  C30  1  0.63523184  0.02585323  0.08325783  1
  C  C31  1  0.38668000  0.36646932  0.08310098  1
  C  C32  1  0.63714431  0.69473792  0.91601344  1
  C  C33  1  0.05261696  0.36203369  0.91712648  1
  C  C34  1  0.30941573  0.36203369  0.41712648  1
  C  C35  1  0.05759260  0.69473792  0.41601344  1
  C  C36  1  0.21304478  0.05201033  0.30785373  1
  C  C37  1  0.82679032  0.77802693  0.30553788  1
  C  C38  1  0.95466961  0.17110566  0.30593346  1
  C  C39  1  0.21643605  0.17110566  0.80593346  1
  C  C40  1  0.95123660  0.77802693  0.80553788  1
  C  C41  1  0.83896555  0.05201033  0.80785373  1
  C  C42  1  0.81337339  0.01789709  0.69358518  1
  C  C43  1  0.20795975  0.19845775  0.69602903  1
  C  C44  1  0.00061184  0.79462737  0.69684172  1
  C  C45  1  0.79401553  0.79462737  0.19684172  1
  C  C46  1  -0.00950200  0.19845775  0.19602903  1
  C  C47  1  0.20452371  0.01789709  0.19358518  1
  C  C48  1  0.89188204  0.38293031  0.63952002  1
  C  C49  1  0.49397428  0.10856322  0.63882693  1
  C  C50  1  0.62340131  0.49016738  0.64237689  1
  C  C51  1  0.86676707  0.49016738  0.14237689  1
  C  C52  1  0.61458994  0.10856322  0.13882693  1
  C  C53  1  0.49104927  0.38293031  0.13952002  1
  C  C54  1  0.46624676  0.34401835  0.03070688  1
  C  C55  1  0.86165746  0.52266256  0.02754752  1
  C  C56  1  0.65361136  0.12360052  0.02911087  1
  C  C57  1  0.46999016  0.12360052  0.52911087  1
  C  C58  1  0.66100610  0.52266256  0.52754752  1
  C  C59  1  0.87777260  0.34401835  0.53070688  1
  C  C60  1  0.55184571  0.71277870  0.97117380  1
  C  C61  1  0.15610725  0.44720080  0.97347109  1
  C  C62  1  0.27389083  0.83433997  0.97479099  1
  C  C63  1  0.56044814  0.83433997  0.47479099  1
  C  C64  1  0.29109255  0.44720080  0.47347109  1
  C  C65  1  0.16093198  0.71277870  0.47117380  1
  C  C66  1  0.13250956  0.67431684  0.36199658  1
  C  C67  1  0.53561860  0.86171748  0.36077877  1
  C  C68  1  0.32114703  0.45932992  0.36355289  1
  C  C69  1  0.13818190  0.45932992  0.86355289  1
  C  C70  1  0.32609788  0.86171748  0.86077877  1
  C  C71  1  0.54180628  0.67431684  0.86199658  1
  C  C72  1  0.05780829  0.86904080  0.41208546  1
  C  C73  1  0.82745094  0.95234259  0.40783931  1
  C  C74  1  0.14054245  0.18684129  0.41617482  1
  C  C75  1  0.04629884  0.18684129  0.91617482  1
  C  C76  1  0.12489165  0.95234259  0.90783931  1
  C  C77  1  0.81123251  0.86904080  0.91208546  1
  C  C78  1  0.01748162  0.22458431  0.58869680  1
  C  C79  1  0.21205012  -0.00884191  0.58844515  1
  C  C80  1  0.79738449  0.79130413  0.58743093  1
  C  C81  1  0.99391964  0.79130413  0.08743093  1
  C  C82  1  0.77910797  -0.00884191  0.08844515  1
  C  C83  1  0.20710269  0.22458431  0.08869680  1
  C  C84  1  0.71698517  0.20773953  0.74411023  1
  C  C85  1  0.47809773  0.28317712  0.74723506  1
  C  C86  1  0.79636349  0.52241756  0.74736583  1
  C  C87  1  0.72605507  0.52241756  0.24736583  1
  C  C88  1  0.80508039  0.28317712  0.24723506  1
  C  C89  1  0.49075537  0.20773953  0.24411023  1
  C  C90  1  0.67882393  0.55534509  0.92123929  1
  C  C91  1  0.87512451  0.33177620  0.92062949  1
  C  C92  1  0.45185177  0.13307028  0.91932045  1
  C  C93  1  0.68121951  0.13307028  0.41932045  1
  C  C94  1  0.45665269  0.33177620  0.42062949  1
  C  C95  1  0.87652215  0.55534509  0.42123929  1
  C  C96  1  0.38806952  0.53929468  0.07931141  1
  C  C97  1  0.14274085  0.61244613  0.08074453  1
  C  C98  1  0.46316858  0.85096355  0.08055797  1
  C  C99  1  0.38779397  0.85096355  0.58055797  1
  C  C100  1  0.46970428  0.61244613  0.58074453  1
  C  C101  1  0.15122416  0.53929468  0.57931141  1
  C  C102  1  0.33923041  0.87989024  0.25380109  1
  C  C103  1  0.53929845  0.64789415  0.25696261  1
  C  C104  1  0.12184974  0.45547308  0.25349224  1
  C  C105  1  0.33362235  0.45547308  0.75349224  1
  C  C106  1  0.10859471  0.64789415  0.75696261  1
  C  C107  1  0.54065882  0.87989024  0.75380109  1
