# generated using pymatgen
data_Cu6NiC28
_symmetry_space_group_name_H-M   'P 1'
_cell_length_a   5.75819848
_cell_length_b   7.04975018
_cell_length_c   13.62265391
_cell_angle_alpha   87.85363856
_cell_angle_beta   95.00139172
_cell_angle_gamma   117.59691481
_symmetry_Int_Tables_number   1
_chemical_formula_structural   Cu6NiC28
_chemical_formula_sum   'Cu6 Ni1 C28'
_cell_volume   488.21229323
_cell_formula_units_Z   1
loop_
 _symmetry_equiv_pos_site_id
 _symmetry_equiv_pos_as_xyz
  1  'x, y, z'
loop_
 _atom_site_type_symbol
 _atom_site_label
 _atom_site_symmetry_multiplicity
 _atom_site_fract_x
 _atom_site_fract_y
 _atom_site_fract_z
 _atom_site_occupancy
  C  C0  1  0.30783300  0.45064600  0.11224500  1
  C  C1  1  0.76272500  0.51290800  0.89436900  1
  C  C2  1  0.68205400  0.50525900  0.45707200  1
  C  C3  1  0.20888300  0.50973600  0.65798100  1
  C  C4  1  0.89977000  0.93427300  0.64920400  1
  C  C5  1  0.96972700  0.20805100  0.40142400  1
  C  C6  1  0.59975800  0.04759800  0.12161000  1
  C  C7  1  0.46878200  0.92870800  0.86424900  1
  Ni  Ni8  1  0.14392000  0.95132200  0.28786800  1
  Cu  Cu9  1  0.56116800  0.24054000  0.65975400  1
  Cu  Cu10  1  0.44512300  0.76571900  0.34268200  1
  Cu  Cu11  1  0.93844800  0.70649500  0.13427800  1
  Cu  Cu12  1  0.11689300  0.24727400  0.84992100  1
  Cu  Cu13  1  0.42703500  0.98111500  0.50007400  1
  Cu  Cu14  1  0.03576700  0.98578800  0.99543800  1
  C  C15  1  0.29416000  0.20836700  0.74396400  1
  C  C16  1  0.24928300  0.75634500  0.22079400  1
  C  C17  1  0.77364700  0.89201800  0.28452300  1
  C  C18  1  0.83222300  0.24063700  0.76579100  1
  C  C19  1  0.14654400  0.73915600  0.42374600  1
  C  C20  1  0.26638600  0.15687200  0.52476300  1
  C  C21  1  0.36208900  0.20756300  0.95475800  1
  C  C22  1  0.16839200  0.78131000  0.00860500  1
  C  C23  1  0.77187300  0.22505200  0.55206600  1
  C  C24  1  0.62246400  0.82538900  0.47484500  1
  C  C25  1  0.70170400  0.75942900  0.03901700  1
  C  C26  1  0.91774300  0.20689700  0.97073700  1
  C  C27  1  0.70117300  0.54112100  0.64570400  1
  C  C28  1  0.35341600  0.48225500  0.33000100  1
  C  C29  1  0.12504100  0.04834300  0.13837000  1
  C  C30  1  0.92841800  0.91952600  0.85811700  1
  C  C31  1  0.39710700  0.90598500  0.64060700  1
  C  C32  1  0.73971000  0.41996000  0.14445900  1
  C  C33  1  0.30167200  0.54520800  0.84042400  1
  C  C34  1  0.49335800  0.08905800  0.36471100  1
