# generated using pymatgen
data_Cu5NiC5
_symmetry_space_group_name_H-M   'P 1'
_cell_length_a   6.38968685
_cell_length_b   6.38991416
_cell_length_c   8.01443608
_cell_angle_alpha   85.15353028
_cell_angle_beta   85.15232061
_cell_angle_gamma   78.86820360
_symmetry_Int_Tables_number   1
_chemical_formula_structural   Cu5NiC5
_chemical_formula_sum   'Cu10 Ni2 C10'
_cell_volume   319.14213085
_cell_formula_units_Z   2
loop_
 _symmetry_equiv_pos_site_id
 _symmetry_equiv_pos_as_xyz
  1  'x, y, z'
loop_
 _atom_site_type_symbol
 _atom_site_label
 _atom_site_symmetry_multiplicity
 _atom_site_fract_x
 _atom_site_fract_y
 _atom_site_fract_z
 _atom_site_occupancy
  C  C0  1  0.30256100  0.29908600  0.03455700  1
  C  C1  1  0.70090900  0.69743300  0.46544900  1
  C  C2  1  0.69743700  0.70091500  0.96544100  1
  C  C3  1  0.29909200  0.30256400  0.53455000  1
  C  C4  1  0.79726800  0.20273300  0.24999700  1
  C  C5  1  0.20274200  0.79726400  0.75000400  1
  C  C6  1  0.09856900  0.84900700  0.15512400  1
  C  C7  1  0.15098700  0.90143800  0.34486500  1
  C  C8  1  0.90143000  0.15099800  0.84487700  1
  C  C9  1  0.84901600  0.09856200  0.65513600  1
  Ni  Ni10  1  0.05680700  0.94319300  0.25001300  1
  Ni  Ni11  1  0.94318800  0.05680300  0.74997900  1
  Cu  Cu12  1  0.45028400  0.54971900  0.75000100  1
  Cu  Cu13  1  0.54971700  0.45028300  0.24999700  1
  Cu  Cu14  1  0.38464900  0.98667800  0.81041500  1
  Cu  Cu15  1  0.01331900  0.61534800  0.68958200  1
  Cu  Cu16  1  0.61534700  0.01332200  0.18959100  1
  Cu  Cu17  1  0.98668100  0.38465300  0.31042100  1
  Cu  Cu18  1  0.27787300  0.86762600  0.51123200  1
  Cu  Cu19  1  0.13237000  0.72212700  0.98876900  1
  Cu  Cu20  1  0.72212700  0.13237700  0.48876900  1
  Cu  Cu21  1  0.86763000  0.27787200  0.01123100  1
