# generated using pymatgen
data_Cu2NiC14
_symmetry_space_group_name_H-M   'P 1'
_cell_length_a   8.38711812
_cell_length_b   8.39730754
_cell_length_c   21.77986424
_cell_angle_alpha   89.84944524
_cell_angle_beta   90.00000000
_cell_angle_gamma   119.95986867
_symmetry_Int_Tables_number   1
_chemical_formula_structural   Cu2NiC14
_chemical_formula_sum   'Cu12 Ni6 C84'
_cell_volume   1328.96059264
_cell_formula_units_Z   6
loop_
 _symmetry_equiv_pos_site_id
 _symmetry_equiv_pos_as_xyz
  1  'x, y, z'
loop_
 _atom_site_type_symbol
 _atom_site_label
 _atom_site_symmetry_multiplicity
 _atom_site_fract_x
 _atom_site_fract_y
 _atom_site_fract_z
 _atom_site_occupancy
  C  C0  1  0.00076045  0.00014767  0.35444887  1
  C  C1  1  0.99938723  0.00014767  0.85444887  1
  C  C2  1  0.67982607  0.34208208  0.68816760  1
  C  C3  1  0.66225700  0.34208208  0.18816760  1
  C  C4  1  0.32860760  0.65277864  0.02102649  1
  C  C5  1  0.32417004  0.65277864  0.52102649  1
  C  C6  1  0.00114953  0.00081071  0.64637537  1
  C  C7  1  0.99966118  0.00081071  0.14637537  1
  C  C8  1  0.66491118  0.33157903  0.97995999  1
  C  C9  1  0.66666886  0.33157903  0.47995999  1
  C  C10  1  0.34474196  0.66132898  0.31307163  1
  C  C11  1  0.31658602  0.66132898  0.81307163  1
  Ni  Ni12  1  0.71493619  0.71493040  0.25078648  1
  Ni  Ni13  1  -0.00000580  0.71493040  0.75078648  1
  Ni  Ni14  1  0.95427081  0.33011369  0.58377947  1
  Ni  Ni15  1  0.37584389  0.33011369  0.08377947  1
  Ni  Ni16  1  0.03926040  0.37353080  0.91760203  1
  Ni  Ni17  1  0.33426939  0.37353080  0.41760203  1
  Cu  Cu18  1  0.29071612  0.99647473  0.25097066  1
  Cu  Cu19  1  -0.00027822  0.29191550  0.25025743  1
  Cu  Cu20  1  0.29219372  0.29191550  0.75025743  1
  Cu  Cu21  1  0.70575861  0.99647473  0.75097066  1
  Cu  Cu22  1  0.37672031  0.04276583  0.58419497  1
  Cu  Cu23  1  0.66773070  0.62481180  0.58381248  1
  Cu  Cu24  1  0.95708210  0.62481180  0.08381248  1
  Cu  Cu25  1  0.66604653  0.04276583  0.08419497  1
  Cu  Cu26  1  0.62144009  0.66589084  0.91660955  1
  Cu  Cu27  1  0.33489537  0.95653294  0.91778996  1
  Cu  Cu28  1  0.62163656  0.95653294  0.41778996  1
  Cu  Cu29  1  0.04444975  0.66589084  0.41660955  1
  C  C30  1  0.21213948  0.03449500  0.30500089  1
  C  C31  1  0.83244620  0.80028186  0.30731422  1
  C  C32  1  0.96587215  0.17856420  0.30495893  1
  C  C33  1  0.21269204  0.17856420  0.80495893  1
  C  C34  1  0.96783566  0.80028186  0.80731422  1
  C  C35  1  0.82235552  0.03449500  0.80500089  1
  C  C36  1  0.78447937  0.95817191  0.69448398  1
  C  C37  1  0.17252321  0.21569861  0.69423669  1
  C  C38  1  0.04126703  0.83874477  0.69163767  1
  C  C39  1  0.79747774  0.83874477  0.19163767  1
  C  C40  1  0.04317540  0.21569861  0.19423669  1
  C  C41  1  0.17369254  0.95817191  0.19448398  1
  C  C42  1  0.86965884  0.36438471  0.63990855  1
  C  C43  1  0.48934328  0.12468177  0.63899176  1
  C  C44  1  0.62887696  0.50811930  0.63823272  1
  C  C45  1  0.87924335  0.50811930  0.13823272  1
  C  C46  1  0.63533949  0.12468177  0.13899176  1
  C  C47  1  0.49472687  0.36438471  0.13990855  1
  C  C48  1  0.45990600  0.28983726  0.02491639  1
  C  C49  1  0.83919653  0.54691219  0.02768238  1
  C  C50  1  0.70848707  0.16172759  0.02771169  1
  C  C51  1  0.45324151  0.16172759  0.52771169  1
  C  C52  1  0.70771666  0.54691219  0.52768238  1
  C  C53  1  0.82993226  0.28983726  0.52491639  1
  C  C54  1  0.54363134  0.70284796  0.97145785  1
  C  C55  1  0.15985227  0.45899397  0.97327887  1
  C  C56  1  0.30338202  0.84284927  0.97255625  1
  C  C57  1  0.53946625  0.84284927  0.47255625  1
  C  C58  1  0.29914070  0.45899397  0.47327887  1
  C  C59  1  0.15921562  0.70284796  0.47145785  1
  C  C60  1  0.12395798  0.62798844  0.36031052  1
  C  C61  1  0.50335477  0.88034934  0.36122778  1
  C  C62  1  0.37750564  0.49916199  0.35897017  1
  C  C63  1  0.12165536  0.49916199  0.85897017  1
  C  C64  1  0.37699357  0.88034934  0.86122778  1
  C  C65  1  0.50402946  0.62798844  0.86031052  1
  C  C66  1  0.02371188  0.82666610  0.40909921  1
  C  C67  1  0.80217563  0.97520822  0.40969024  1
  C  C68  1  0.16683536  0.18717761  0.40670628  1
  C  C69  1  0.02034226  0.18717761  0.90670628  1
  C  C70  1  0.17303260  0.97520822  0.90969024  1
  C  C71  1  0.80295421  0.82666610  0.90909921  1
  C  C72  1  0.97280945  0.15520817  0.59285001  1
  C  C73  1  0.19207458  0.02708265  0.59027192  1
  C  C74  1  0.83657764  0.80760163  0.59075159  1
  C  C75  1  0.97102399  0.80760163  0.09075159  1
  C  C76  1  0.83500807  0.02708265  0.09027192  1
  C  C77  1  0.18239872  0.15520817  0.09285001  1
  C  C78  1  0.68318968  0.15628260  0.74246784  1
  C  C79  1  0.47163194  0.30798469  0.74076546  1
  C  C80  1  0.83248838  0.52707987  0.74241630  1
  C  C81  1  0.69459249  0.52707987  0.24241630  1
  C  C82  1  0.83635376  0.30798469  0.24076546  1
  C  C83  1  0.47309393  0.15628260  0.24246784  1
  C  C84  1  0.63722550  0.49754875  0.92371805  1
  C  C85  1  0.84731339  0.35812043  0.92676057  1
  C  C86  1  0.50303508  0.14082100  0.92359193  1
  C  C87  1  0.63778692  0.14082100  0.42359193  1
  C  C88  1  0.51080803  0.35812043  0.42676057  1
  C  C89  1  0.86032424  0.49754875  0.42371805  1
  C  C90  1  0.35807688  0.49911375  0.07532475  1
  C  C91  1  0.13984442  0.64832287  0.07556000  1
  C  C92  1  0.50378144  0.86340686  0.07484914  1
  C  C93  1  0.35962442  0.86340686  0.57484914  1
  C  C94  1  0.50847745  0.64832287  0.57556000  1
  C  C95  1  0.14103587  0.49911375  0.57532475  1
  C  C96  1  0.30360887  0.82694114  0.25876071  1
  C  C97  1  0.52167141  0.69860120  0.25739150  1
  C  C98  1  0.16622735  0.47732869  0.25729420  1
  C  C99  1  0.31110034  0.47732869  0.75729420  1
  C  C100  1  0.17692879  0.69860120  0.75739150  1
  C  C101  1  0.52333127  0.82694114  0.75876071  1
