# generated using pymatgen
data_Cu4NiC5
_symmetry_space_group_name_H-M   'P 1'
_cell_length_a   7.84440900
_cell_length_b   8.63483100
_cell_length_c   9.26610500
_cell_angle_alpha   90.00000000
_cell_angle_beta   90.00000000
_cell_angle_gamma   90.00000000
_symmetry_Int_Tables_number   1
_chemical_formula_structural   Cu4NiC5
_chemical_formula_sum   'Cu32 Ni8 C40'
_cell_volume   627.64097512
_cell_formula_units_Z   8
loop_
 _symmetry_equiv_pos_site_id
 _symmetry_equiv_pos_as_xyz
  1  'x, y, z'
loop_
 _atom_site_type_symbol
 _atom_site_label
 _atom_site_symmetry_multiplicity
 _atom_site_fract_x
 _atom_site_fract_y
 _atom_site_fract_z
 _atom_site_occupancy
  C  C0  1  0.37216500  0.37428200  0.30125400  1
  C  C1  1  0.87216500  0.12571800  0.69874600  1
  C  C2  1  0.62783500  0.87428200  0.19874600  1
  C  C3  1  0.12783500  0.62571800  0.80125400  1
  C  C4  1  0.62783500  0.62571800  0.69874600  1
  C  C5  1  0.12783500  0.87428200  0.30125400  1
  C  C6  1  0.37216500  0.12571800  0.80125400  1
  C  C7  1  0.87216500  0.37428200  0.19874600  1
  Ni  Ni8  1  0.67171800  0.15966300  0.40879100  1
  Ni  Ni9  1  0.17171800  0.34033700  0.59120900  1
  Ni  Ni10  1  0.32828200  0.65966300  0.09120900  1
  Ni  Ni11  1  0.82828200  0.84033700  0.90879100  1
  Ni  Ni12  1  0.32828200  0.84033700  0.59120900  1
  Ni  Ni13  1  0.82828200  0.65966300  0.40879100  1
  Ni  Ni14  1  0.67171800  0.34033700  0.90879100  1
  Ni  Ni15  1  0.17171800  0.15966300  0.09120900  1
  Cu  Cu16  1  0.92305600  0.21299900  0.42734800  1
  Cu  Cu17  1  0.42305600  0.28700100  0.57265200  1
  Cu  Cu18  1  0.07694400  0.71299900  0.07265200  1
  Cu  Cu19  1  0.57694400  0.78700100  0.92734800  1
  Cu  Cu20  1  0.07694400  0.78700100  0.57265200  1
  Cu  Cu21  1  0.57694400  0.71299900  0.42734800  1
  Cu  Cu22  1  0.92305600  0.28700100  0.92734800  1
  Cu  Cu23  1  0.42305600  0.21299900  0.07265200  1
  Cu  Cu24  1  0.98365900  0.11538300  0.24453600  1
  Cu  Cu25  1  0.48365900  0.38461700  0.75546400  1
  Cu  Cu26  1  0.01634100  0.61538300  0.25546400  1
  Cu  Cu27  1  0.51634100  0.88461700  0.74453600  1
  Cu  Cu28  1  0.01634100  0.88461700  0.75546400  1
  Cu  Cu29  1  0.51634100  0.61538300  0.24453600  1
  Cu  Cu30  1  0.98365900  0.38461700  0.74453600  1
  Cu  Cu31  1  0.48365900  0.11538300  0.25546400  1
  Cu  Cu32  1  0.10488100  0.46962200  0.41357200  1
  Cu  Cu33  1  0.60488100  0.03037800  0.58642800  1
  Cu  Cu34  1  0.89511900  0.96962200  0.08642800  1
  Cu  Cu35  1  0.39511900  0.53037800  0.91357200  1
  Cu  Cu36  1  0.89511900  0.53037800  0.58642800  1
  Cu  Cu37  1  0.39511900  0.96962200  0.41357200  1
  Cu  Cu38  1  0.10488100  0.03037800  0.91357200  1
  Cu  Cu39  1  0.60488100  0.46962200  0.08642800  1
  Cu  Cu40  1  0.64257400  0.38842900  0.46822900  1
  Cu  Cu41  1  0.14257400  0.11157100  0.53177100  1
  Cu  Cu42  1  0.35742600  0.88842900  0.03177100  1
  Cu  Cu43  1  0.85742600  0.61157100  0.96822900  1
  Cu  Cu44  1  0.35742600  0.61157100  0.53177100  1
  Cu  Cu45  1  0.85742600  0.88842900  0.46822900  1
  Cu  Cu46  1  0.64257400  0.11157100  0.96822900  1
  Cu  Cu47  1  0.14257400  0.38842900  0.03177100  1
  C  C48  1  0.83913200  0.20586800  0.34617100  1
  C  C49  1  0.33913200  0.29413200  0.65382900  1
  C  C50  1  0.16086800  0.70586800  0.15382900  1
  C  C51  1  0.66086800  0.79413200  0.84617100  1
  C  C52  1  0.16086800  0.79413200  0.65382900  1
  C  C53  1  0.66086800  0.70586800  0.34617100  1
  C  C54  1  0.83913200  0.29413200  0.84617100  1
  C  C55  1  0.33913200  0.20586800  0.15382900  1
  C  C56  1  0.57005400  0.05834400  0.31413200  1
  C  C57  1  0.07005400  0.44165600  0.68586800  1
  C  C58  1  0.42994600  0.55834400  0.18586800  1
  C  C59  1  0.92994600  0.94165600  0.81413200  1
  C  C60  1  0.42994600  0.94165600  0.68586800  1
  C  C61  1  0.92994600  0.55834400  0.31413200  1
  C  C62  1  0.57005400  0.44165600  0.81413200  1
  C  C63  1  0.07005400  0.05834400  0.18586800  1
  C  C64  1  0.71013600  0.07509700  0.54425600  1
  C  C65  1  0.21013600  0.42490300  0.45574400  1
  C  C66  1  0.28986400  0.57509700  0.95574400  1
  C  C67  1  0.78986400  0.92490300  0.04425600  1
  C  C68  1  0.28986400  0.92490300  0.45574400  1
  C  C69  1  0.78986400  0.57509700  0.54425600  1
  C  C70  1  0.71013600  0.42490300  0.04425600  1
  C  C71  1  0.21013600  0.07509700  0.95574400  1
  C  C72  1  0.56771900  0.30470500  0.43337700  1
  C  C73  1  0.06771900  0.19529500  0.56662300  1
  C  C74  1  0.43228100  0.80470500  0.06662300  1
  C  C75  1  0.93228100  0.69529500  0.93337700  1
  C  C76  1  0.43228100  0.69529500  0.56662300  1
  C  C77  1  0.93228100  0.80470500  0.43337700  1
  C  C78  1  0.56771900  0.19529500  0.93337700  1
  C  C79  1  0.06771900  0.30470500  0.06662300  1
