# generated using pymatgen
data_Cu11Ni2C9
_symmetry_space_group_name_H-M   'P 1'
_cell_length_a   3.80235431
_cell_length_b   7.99876446
_cell_length_c   10.69973714
_cell_angle_alpha   72.97223192
_cell_angle_beta   89.99766364
_cell_angle_gamma   76.25787147
_symmetry_Int_Tables_number   1
_chemical_formula_structural   Cu11Ni2C9
_chemical_formula_sum   'Cu11 Ni2 C9'
_cell_volume   301.40275131
_cell_formula_units_Z   1
loop_
 _symmetry_equiv_pos_site_id
 _symmetry_equiv_pos_as_xyz
  1  'x, y, z'
loop_
 _atom_site_type_symbol
 _atom_site_label
 _atom_site_symmetry_multiplicity
 _atom_site_fract_x
 _atom_site_fract_y
 _atom_site_fract_z
 _atom_site_occupancy
  C  C0  1  0.50795400  0.98054200  0.86493100  1
  C  C1  1  0.43757600  0.12104400  0.27737400  1
  C  C2  1  0.03900600  0.91902000  0.61459200  1
  C  C3  1  0.10702200  0.78240500  0.14224700  1
  C  C4  1  0.19232900  0.61153800  0.41344400  1
  C  C5  1  0.22231700  0.55263700  0.75947900  1
  C  C6  1  0.74606700  0.50424500  0.20782700  1
  C  C7  1  0.85175800  0.29256600  0.54790400  1
  C  C8  1  0.85702800  0.28269700  0.96405400  1
  Ni  Ni9  1  0.24584900  0.50465500  0.26441900  1
  Ni  Ni10  1  0.83797800  0.32051200  0.12552200  1
  Cu  Cu11  1  0.06616000  0.86382900  0.29071700  1
  Cu  Cu12  1  0.15303700  0.69102900  0.57956700  1
  Cu  Cu13  1  0.12224800  0.75292600  0.80977300  1
  Cu  Cu14  1  0.62057600  0.75530900  0.09088400  1
  Cu  Cu15  1  0.72024400  0.55592600  0.42512200  1
  Cu  Cu16  1  0.75498100  0.48718100  0.78157100  1
  Cu  Cu17  1  0.32235400  0.35156600  0.55817900  1
  Cu  Cu18  1  0.34522800  0.30644400  0.90716200  1
  Cu  Cu19  1  0.93191300  0.13256200  0.44987800  1
  Cu  Cu20  1  0.94312500  0.10988400  0.70320400  1
  Cu  Cu21  1  0.98257600  0.03149600  0.00541700  1
