# generated using pymatgen
data_Cu3Ni5C74
_symmetry_space_group_name_H-M   'P 1'
_cell_length_a   18.36570521
_cell_length_b   9.16519627
_cell_length_c   22.49626018
_cell_angle_alpha   90.03032791
_cell_angle_beta   90.21502781
_cell_angle_gamma   120.13687671
_symmetry_Int_Tables_number   1
_chemical_formula_structural   Cu3Ni5C74
_chemical_formula_sum   'Cu9 Ni15 C222'
_cell_volume   3274.80110439
_cell_formula_units_Z   3
loop_
 _symmetry_equiv_pos_site_id
 _symmetry_equiv_pos_as_xyz
  1  'x, y, z'
loop_
 _atom_site_type_symbol
 _atom_site_label
 _atom_site_symmetry_multiplicity
 _atom_site_fract_x
 _atom_site_fract_y
 _atom_site_fract_z
 _atom_site_occupancy
  C  C0  1  0.19552807  0.36113231  0.24647493  1
  C  C1  1  0.68923142  0.35602530  0.24578686  1
  C  C2  1  0.99700866  0.64684196  0.25234722  1
  C  C3  1  0.49474650  0.63675111  0.24089139  1
  C  C4  1  0.31686606  0.63197678  0.74612497  1
  C  C5  1  0.81508843  0.62514504  0.73483716  1
  C  C6  1  0.19134447  0.02670706  0.74625422  1
  C  C7  1  0.69406784  0.02779908  0.74587774  1
  C  C8  1  0.15419388  0.32479407  0.57597207  1
  C  C9  1  0.66763806  0.34565546  0.57677474  1
  C  C10  1  0.01120924  0.69802245  0.57718250  1
  C  C11  1  0.52274777  0.70348086  0.57957896  1
  C  C12  1  0.32177423  0.97042604  0.59149962  1
  C  C13  1  0.82049877  0.95238101  0.58931301  1
  C  C14  1  0.15626109  0.98064830  0.07806456  1
  C  C15  1  0.64819826  0.96458851  0.07342697  1
  C  C16  1  0.82079554  0.67435968  0.09044296  1
  C  C17  1  0.02051246  0.34090252  0.07871841  1
  C  C18  1  0.52481950  0.35387400  0.08724955  1
  C  C19  1  0.49525527  0.68432795  0.92440576  1
  C  C20  1  0.98938207  0.67826201  0.91836230  1
  C  C21  1  0.84522338  0.03282143  0.90603590  1
  C  C22  1  0.16108127  0.27956313  0.90684066  1
  C  C23  1  0.66559815  0.27875221  0.91655537  1
  C  C24  1  0.49366541  0.30727503  0.41903697  1
  C  C25  1  0.98931493  0.29989985  0.42232077  1
  C  C26  1  0.16543307  0.05294055  0.41664621  1
  C  C27  1  0.66697317  0.05267610  0.41616272  1
  C  C28  1  0.34854129  0.65727260  0.40551673  1
  C  C29  1  0.84693202  0.65307626  0.41853388  1
  C  C30  1  0.00465528  0.99731546  0.49952591  1
  C  C31  1  0.51551373  0.01795923  0.49575166  1
  C  C32  1  0.00937916  0.00812731  0.99517858  1
  C  C33  1  0.50368547  0.99605699  0.99884201  1
  C  C34  1  0.33063513  0.30001230  0.82704283  1
  C  C35  1  0.82644810  0.30954177  0.82595679  1
  C  C36  1  0.32377577  0.32613499  0.32533544  1
  C  C37  1  0.81891345  0.32383589  0.32854302  1
  C  C38  1  0.18962147  0.68069804  0.16251219  1
  C  C39  1  0.66623214  0.67061777  0.16063250  1
  C  C40  1  0.16356071  0.66759383  0.66389177  1
  C  C41  1  0.67471183  0.66969612  0.66006981  1
  Ni  Ni42  1  0.00644566  0.00295599  0.34783917  1
  Ni  Ni43  1  0.50692009  0.00448639  0.34634508  1
  Ni  Ni44  1  0.00604569  0.01140029  0.84571053  1
  Ni  Ni45  1  0.50523573  0.01416273  0.84956987  1
  Ni  Ni46  1  0.32671643  0.30800015  0.68628358  1
  Ni  Ni47  1  0.82352307  0.31844212  0.68268464  1
  Ni  Ni48  1  0.32903998  0.34475959  0.18451889  1
  Ni  Ni49  1  0.82213662  0.33044139  0.18617200  1
  Ni  Ni50  1  0.81846719  0.31146129  0.98387158  1
  Ni  Ni51  1  0.32041834  0.32554860  0.48301220  1
  Ni  Ni52  1  0.81866941  0.33777185  0.48772893  1
  Ni  Ni53  1  0.17186861  0.67256057  0.01652016  1
  Ni  Ni54  1  0.65901693  0.66501180  0.01982248  1
  Ni  Ni55  1  0.16427172  0.66352484  0.51607534  1
  Ni  Ni56  1  0.67159345  0.66225713  0.51936934  1
  Cu  Cu57  1  0.00016328  0.00743592  0.64960686  1
  Cu  Cu58  1  0.50495660  0.01867140  0.65264322  1
  Cu  Cu59  1  0.00357693  0.99627976  0.15240247  1
  Cu  Cu60  1  0.50046825  0.98121647  0.14768001  1
  Cu  Cu61  1  0.32616074  0.32778646  0.98499233  1
  Cu  Cu62  1  0.17654649  0.67349253  0.31227989  1
  Cu  Cu63  1  0.67506575  0.67023543  0.31122343  1
  Cu  Cu64  1  0.17113583  0.67882284  0.81187577  1
  Cu  Cu65  1  0.67095834  0.67672464  0.81182227  1
  C  C66  1  0.15383280  0.00390721  0.25332421  1
  C  C67  1  0.65124682  0.00146512  0.25313962  1
  C  C68  1  0.35663699  0.70764617  0.25520395  1
  C  C69  1  0.85577415  0.70357725  0.25245724  1
  C  C70  1  0.15185254  0.30094693  0.75160099  1
  C  C71  1  0.65240044  0.30116950  0.75548746  1
  C  C72  1  0.35736039  0.00743637  0.75184381  1
  C  C73  1  0.85721068  0.01355888  0.75457169  1
  C  C74  1  0.18432720  0.02738056  0.58175919  1
  C  C75  1  0.68196588  0.02804935  0.58197738  1
  C  C76  1  0.83518680  0.63071100  0.58336605  1
  C  C77  1  0.48002399  0.62185692  0.08508837  1
  C  C78  1  0.18201883  0.34227236  0.08614741  1
  C  C79  1  0.68401992  0.33841086  0.08212674  1
  C  C80  1  0.16317598  0.96079479  0.92028349  1
  C  C81  1  0.66550142  0.96532923  0.91936473  1
  C  C82  1  0.16442669  0.36684729  0.42048524  1
  C  C83  1  0.66339827  0.36435656  0.41921725  1
  C  C84  1  0.99825900  0.29417677  0.25151618  1
  C  C85  1  0.49740355  0.29043114  0.25216081  1
  C  C86  1  0.99931262  0.70480524  0.75202469  1
  C  C87  1  0.49840389  0.70320685  0.75092127  1
  C  C88  1  0.47536773  0.33381935  0.58196365  1
  C  C89  1  0.97861063  0.33703275  0.58172804  1
  C  C90  1  0.33469973  0.62697845  0.58281429  1
  C  C91  1  0.97865615  0.62199040  0.08260443  1
  C  C92  1  0.33162845  0.03874085  0.08513392  1
  C  C93  1  0.83687400  0.04813661  0.08244037  1
  C  C94  1  0.31429557  0.66836684  0.91752577  1
  C  C95  1  0.81567341  0.66772512  0.91958410  1
  C  C96  1  0.01960836  0.37574186  0.91988658  1
  C  C97  1  0.51890917  0.37184235  0.91779735  1
  C  C98  1  0.31588263  0.96518685  0.42052456  1
  C  C99  1  0.81618579  0.96523975  0.41881310  1
  C  C100  1  0.01908960  0.66298559  0.41711291  1
  C  C101  1  0.51865087  0.66221770  0.41962360  1
  C  C102  1  0.10880752  0.03313921  0.30993221  1
  C  C103  1  0.60950525  0.03224851  0.31113879  1
  C  C104  1  0.40601797  0.79749619  0.31577690  1
  C  C105  1  0.91105886  0.80128087  0.30996741  1
  C  C106  1  0.49033743  0.19469856  0.30617533  1
  C  C107  1  0.98744314  0.19415567  0.30494931  1
  C  C108  1  0.11099738  0.18311906  0.80953480  1
  C  C109  1  0.60882269  0.18126637  0.81151947  1
  C  C110  1  0.48675168  0.77880333  0.80507144  1
  C  C111  1  0.98945144  0.78431568  0.80600274  1
  C  C112  1  0.41046853  0.00055499  0.80643199  1
  C  C113  1  0.90560389  0.01392535  0.81462843  1
  C  C114  1  0.39274821  0.96650600  0.68837082  1
  C  C115  1  0.89848362  0.97188285  0.69592860  1
  C  C116  1  0.09474771  0.21137899  0.69115308  1
  C  C117  1  0.59389960  0.21159441  0.69386124  1
  C  C118  1  0.01410031  0.81439378  0.69886315  1
  C  C119  1  0.51313961  0.81634841  0.69777659  1
  C  C120  1  0.40105577  0.82817548  0.19740862  1
  C  C121  1  0.89749099  0.81723770  0.19050620  1
  C  C122  1  0.01307749  0.21291200  0.19776363  1
  C  C123  1  0.51158489  0.21436718  0.19827699  1
  C  C124  1  0.08996601  0.96938803  0.19306908  1
  C  C125  1  0.58994911  0.96982897  0.19351171  1
  C  C126  1  0.43381913  0.35478757  0.63403990  1
  C  C127  1  0.93659528  0.35534171  0.63388134  1
  C  C128  1  0.24363107  0.11130786  0.64012539  1
  C  C129  1  0.73766551  0.10859457  0.64154486  1
  C  C130  1  0.32715899  0.52854984  0.63671893  1
  C  C131  1  0.82599665  0.51842321  0.64165098  1
  C  C132  1  0.43541475  0.50306047  0.14158521  1
  C  C133  1  0.93900968  0.52217588  0.13630236  1
  C  C134  1  0.31838075  0.11994615  0.13700560  1
  C  C135  1  0.82947355  0.13614739  0.13427410  1
  C  C136  1  0.23245497  0.35222258  0.14517491  1
  C  C137  1  0.74320247  0.37191252  0.14052083  1
  C  C138  1  0.22602813  0.30291522  0.02701540  1
  C  C139  1  0.72103259  0.29226314  0.02345256  1
  C  C140  1  0.42476180  0.53034129  0.02292997  1
  C  C141  1  0.92863977  0.54052207  0.02834796  1
  C  C142  1  0.34192440  0.14285695  0.03028618  1
  C  C143  1  0.85128683  0.14834886  0.02732326  1
  C  C144  1  0.22324598  0.14411655  0.52252415  1
  C  C145  1  0.71909613  0.14562013  0.52292966  1
  C  C146  1  0.34712570  0.54810149  0.52918997  1
  C  C147  1  0.85705325  0.55904887  0.52341964  1
  C  C148  1  0.42665685  0.31052510  0.52684123  1
  C  C149  1  0.93065763  0.31332024  0.52607809  1
  C  C150  1  0.27118252  0.68303881  0.96937531  1
  C  C151  1  0.77380434  0.68784347  0.97211745  1
  C  C152  1  0.07116888  0.45443884  0.97376465  1
  C  C153  1  0.56848391  0.45027426  0.97243963  1
  C  C154  1  0.15247688  0.84836753  0.97888763  1
  C  C155  1  0.65510710  0.84826274  0.97631718  1
  C  C156  1  0.27394818  0.86167602  0.47331076  1
  C  C157  1  0.77509941  0.86309365  0.47204322  1
  C  C158  1  0.15261699  0.45870758  0.47851494  1
  C  C159  1  0.64870405  0.45393275  0.47668478  1
  C  C160  1  0.07171207  0.68746335  0.47030069  1
  C  C161  1  0.57157029  0.68530244  0.47251661  1
  C  C162  1  0.06270199  0.65031505  0.36284765  1
  C  C163  1  0.55941653  0.64313962  0.36510937  1
  C  C164  1  0.26023590  0.88239370  0.36694251  1
  C  C165  1  0.76025112  0.88081442  0.36555631  1
  C  C166  1  0.17453285  0.49030982  0.36194135  1
  C  C167  1  0.67369790  0.48737947  0.36054378  1
  C  C168  1  0.06294870  0.47984828  0.86703904  1
  C  C169  1  0.56258306  0.48092132  0.86583732  1
  C  C170  1  0.17196103  0.86301565  0.86090916  1
  C  C171  1  0.67469049  0.86438139  0.85990507  1
  C  C172  1  0.26285266  0.64269366  0.86253862  1
  C  C173  1  0.76210229  0.64116943  0.86522692  1
  C  C174  1  0.00739047  0.81236080  0.41375135  1
  C  C175  1  0.50724394  0.81184779  0.41600963  1
  C  C176  1  0.39879829  0.97771508  0.41415756  1
  C  C177  1  0.89916640  0.97630930  0.41199057  1
  C  C178  1  0.07839230  0.17955011  0.41414293  1
  C  C179  1  0.57774192  0.17728283  0.41262385  1
  C  C180  1  0.00815426  0.20298508  0.91512908  1
  C  C181  1  0.50977349  0.20260497  0.91245447  1
  C  C182  1  0.07819304  0.97894201  0.91449179  1
  C  C183  1  0.57921126  0.97892719  0.91464115  1
  C  C184  1  0.40075233  0.81232506  0.91300220  1
  C  C185  1  0.90005679  0.82129660  0.91383513  1
  C  C186  1  0.48224765  0.17420709  0.58689761  1
  C  C187  1  0.98815580  0.18136347  0.58643129  1
  C  C188  1  0.08924192  0.00958959  0.58903289  1
  C  C189  1  0.58325651  0.00646984  0.58856899  1
  C  C190  1  0.41126348  0.80137955  0.58635749  1
  C  C191  1  0.91791284  0.82794283  0.58912134  1
  C  C192  1  0.48900061  0.81256085  0.08455472  1
  C  C193  1  0.98419600  0.79485793  0.08563542  1
  C  C194  1  0.41000379  0.03146681  0.08838355  1
  C  C195  1  0.91365860  0.02722327  0.08764000  1
  C  C196  1  0.08538031  0.16164613  0.08575392  1
  C  C197  1  0.58575908  0.17382462  0.09007198  1
  C  C198  1  0.34234723  0.16575153  0.74705934  1
  C  C199  1  0.84215111  0.17061694  0.74649716  1
  C  C200  1  0.24785382  0.33455516  0.74394623  1
  C  C201  1  0.74618611  0.32908258  0.74754205  1
  C  C202  1  0.42387630  0.53804629  0.74031896  1
  C  C203  1  0.92532308  0.53686431  0.74452492  1
  C  C204  1  0.34725320  0.52181974  0.24958208  1
  C  C205  1  0.84973466  0.52056598  0.24665123  1
  C  C206  1  0.42476338  0.31567184  0.24682381  1
  C  C207  1  0.92709725  0.32068731  0.24176684  1
  C  C208  1  0.24529549  0.16454403  0.24341415  1
  C  C209  1  0.74378958  0.16310115  0.24409587  1
  C  C210  1  0.31984389  0.50844906  0.92023306  1
  C  C211  1  0.82700613  0.51769106  0.92299439  1
  C  C212  1  0.43451344  0.36045154  0.92026500  1
  C  C213  1  0.93568036  0.36428114  0.92377835  1
  C  C214  1  0.24829337  0.15427787  0.92030679  1
  C  C215  1  0.75372692  0.14985329  0.91776359  1
  C  C216  1  0.32686185  0.13712283  0.42313632  1
  C  C217  1  0.82769085  0.13705075  0.42171472  1
  C  C218  1  0.25216045  0.35800045  0.41870348  1
  C  C219  1  0.75072163  0.35459117  0.41812186  1
  C  C220  1  0.43426467  0.50542510  0.42414000  1
  C  C221  1  0.93665206  0.50430778  0.41968688  1
  C  C222  1  0.16578465  0.49965169  0.07643972  1
  C  C223  1  0.67619854  0.50928959  0.07504109  1
  C  C224  1  0.06547594  0.65177649  0.07929626  1
  C  C225  1  0.57581463  0.65397108  0.08085385  1
  C  C226  1  0.25644418  0.86890912  0.07783427  1
  C  C227  1  0.76170332  0.87661118  0.07814291  1
  C  C228  1  0.17045865  0.83427902  0.57612656  1
  C  C229  1  0.66677868  0.83586463  0.57529826  1
  C  C230  1  0.25840359  0.64434114  0.57852606  1
  C  C231  1  0.75033148  0.64904678  0.57946895  1
  C  C232  1  0.06538042  0.48657381  0.57886733  1
  C  C233  1  0.56186173  0.48033699  0.57906695  1
  C  C234  1  0.14850473  0.81749121  0.25614348  1
  C  C235  1  0.64799879  0.81676636  0.25671965  1
  C  C236  1  0.25752314  0.67509233  0.25393642  1
  C  C237  1  0.75786913  0.67289204  0.25307149  1
  C  C238  1  0.07725660  0.46429509  0.25525833  1
  C  C239  1  0.57631332  0.46538031  0.25589800  1
  C  C240  1  0.15902534  0.48841554  0.75707930  1
  C  C241  1  0.65921008  0.48758132  0.75701721  1
  C  C242  1  0.07783508  0.69268435  0.75521918  1
  C  C243  1  0.57630226  0.69063224  0.75408821  1
  C  C244  1  0.25851611  0.83282599  0.75408163  1
  C  C245  1  0.75961703  0.83459416  0.75513990  1
