# generated using pymatgen
data_Cu10Ni2C3
_symmetry_space_group_name_H-M   'P 1'
_cell_length_a   5.31098302
_cell_length_b   5.56972428
_cell_length_c   7.55653752
_cell_angle_alpha   113.85748687
_cell_angle_beta   111.71440597
_cell_angle_gamma   95.52070921
_symmetry_Int_Tables_number   1
_chemical_formula_structural   Cu10Ni2C3
_chemical_formula_sum   'Cu10 Ni2 C3'
_cell_volume   181.79769035
_cell_formula_units_Z   1
loop_
 _symmetry_equiv_pos_site_id
 _symmetry_equiv_pos_as_xyz
  1  'x, y, z'
loop_
 _atom_site_type_symbol
 _atom_site_label
 _atom_site_symmetry_multiplicity
 _atom_site_fract_x
 _atom_site_fract_y
 _atom_site_fract_z
 _atom_site_occupancy
  C  C0  1  0.48362185  0.60549899  0.21548101  1
  C  C1  1  0.99922111  0.48176339  0.51325601  1
  C  C2  1  0.51015399  0.01167984  0.99323280  1
  Ni  Ni3  1  0.08987722  0.87973621  0.25951529  1
  Ni  Ni4  1  0.91360165  0.14033393  0.75695099  1
  Cu  Cu5  1  0.67166057  0.32998619  0.26054337  1
  Cu  Cu6  1  0.32453616  0.69949548  0.75143538  1
  Cu  Cu7  1  0.77092281  0.78693674  0.13773425  1
  Cu  Cu8  1  0.18452946  0.16875491  0.42438052  1
  Cu  Cu9  1  0.23254861  0.23676887  0.89711496  1
  Cu  Cu10  1  0.82664019  0.85566492  0.57414330  1
  Cu  Cu11  1  0.18774949  0.69308304  0.35149290  1
  Cu  Cu12  1  0.22458884  0.83973923  0.11069966  1
  Cu  Cu13  1  0.83606248  0.32950202  0.66744613  1
  Cu  Cu14  1  0.78178556  0.15355624  0.89907342  1
