# generated using pymatgen
data_Cu5Ni7C66
_symmetry_space_group_name_H-M   'P 1'
_cell_length_a   18.14731088
_cell_length_b   9.07010724
_cell_length_c   22.72290005
_cell_angle_alpha   90.02977102
_cell_angle_beta   90.04225194
_cell_angle_gamma   119.99946022
_symmetry_Int_Tables_number   1
_chemical_formula_structural   Cu5Ni7C66
_chemical_formula_sum   'Cu15 Ni21 C198'
_cell_volume   3239.07576358
_cell_formula_units_Z   3
loop_
 _symmetry_equiv_pos_site_id
 _symmetry_equiv_pos_as_xyz
  1  'x, y, z'
loop_
 _atom_site_type_symbol
 _atom_site_label
 _atom_site_symmetry_multiplicity
 _atom_site_fract_x
 _atom_site_fract_y
 _atom_site_fract_z
 _atom_site_occupancy
  C  C0  1  0.31674844  0.00121778  0.24475210  1
  C  C1  1  0.81571962  0.01171034  0.24584754  1
  C  C2  1  0.18725845  0.36817495  0.24689886  1
  C  C3  1  0.31835590  0.62252048  0.74703188  1
  C  C4  1  0.81596889  0.63167807  0.74487031  1
  C  C5  1  0.68678196  0.00569404  0.74754715  1
  C  C6  1  0.16299166  0.33852214  0.58461817  1
  C  C7  1  0.65716646  0.33624891  0.57816745  1
  C  C8  1  0.01599533  0.69882022  0.57336900  1
  C  C9  1  0.15927922  0.98214694  0.08143605  1
  C  C10  1  0.66200896  0.98577417  0.08430149  1
  C  C11  1  0.51517362  0.33184096  0.07244655  1
  C  C12  1  0.85044060  0.02267520  0.92090457  1
  C  C13  1  0.66466798  0.31029504  0.91948313  1
  C  C14  1  0.48450594  0.29109041  0.42088897  1
  C  C15  1  0.16678236  0.02143242  0.42089839  1
  C  C16  1  0.66656552  0.05179642  0.41568156  1
  C  C17  1  0.84925432  0.65593160  0.41612322  1
  C  C18  1  0.99665380  0.99215407  0.49813070  1
  C  C19  1  0.48508820  0.97940747  0.49502117  1
  C  C20  1  0.99513598  0.99061513  0.99596448  1
  C  C21  1  0.48699457  -0.00022635  0.99489004  1
  C  C22  1  0.33725495  0.33117564  0.83226688  1
  C  C23  1  0.84083962  0.34344970  0.83193039  1
  C  C24  1  0.33542466  0.35069045  0.33212205  1
  C  C25  1  0.83779237  0.34389659  0.33015667  1
  C  C26  1  0.16691721  0.65194776  0.16186988  1
  C  C27  1  0.67624714  0.66987091  0.16295912  1
  C  C28  1  0.17779772  0.68764095  0.66232325  1
  C  C29  1  0.66695348  0.68336508  0.66112183  1
  C  C30  1  0.00395897  0.00518558  0.35017324  1
  C  C31  1  0.50030856  0.99345576  0.35206702  1
  C  C32  1  0.00262775  0.00793460  0.85145553  1
  C  C33  1  0.49933016  0.00307824  0.85116135  1
  C  C34  1  0.32744654  0.33246281  0.68637732  1
  C  C35  1  0.82580635  0.31934142  0.68433277  1
  C  C36  1  0.32584294  0.33125015  0.18403370  1
  C  C37  1  0.82717798  0.32250773  0.18594051  1
  C  C38  1  0.33259512  0.31601265  0.98007001  1
  C  C39  1  0.83007566  0.33520100  0.98612516  1
  C  C40  1  0.32712277  0.33259933  0.48632795  1
  C  C41  1  0.83231632  0.34654230  0.48091838  1
  C  C42  1  0.17156496  0.66407932  0.02188254  1
  C  C43  1  0.67579023  0.65851060  0.01841487  1
  C  C44  1  0.17735124  0.69398835  0.51846168  1
  C  C45  1  0.66911331  0.66561975  0.52212391  1
  C  C46  1  0.66517193  0.66074131  0.31277401  1
  C  C47  1  0.16448542  0.65701761  0.81302794  1
  C  C48  1  0.99897185  0.00694884  0.64954153  1
  C  C49  1  0.50476498  0.98709664  0.64554996  1
  C  C50  1  0.00464702  0.02238291  0.14521456  1
  C  C51  1  0.49829177  0.98913989  0.14900376  1
  C  C52  1  0.16346905  0.67880251  0.31069736  1
  C  C53  1  0.66232246  0.64524531  0.81083523  1
  Ni  Ni54  1  0.14507037  0.00116496  0.24947237  1
  Ni  Ni55  1  0.64792609  0.99609397  0.25382035  1
  Ni  Ni56  1  0.35406460  0.70205425  0.25314328  1
  Ni  Ni57  1  0.99822750  0.29574337  0.25375593  1
  Ni  Ni58  1  0.14782360  0.29702681  0.75257601  1
  Ni  Ni59  1  0.64411145  0.28629867  0.75012823  1
  Ni  Ni60  1  0.49846241  0.70193571  0.75440519  1
  Ni  Ni61  1  0.85438476  0.00632365  0.75499866  1
  Ni  Ni62  1  0.18525868  0.03613916  0.58496133  1
  Ni  Ni63  1  0.68737998  0.03457301  0.58159837  1
  Ni  Ni64  1  0.33190569  0.62728975  0.58481690  1
  Ni  Ni65  1  0.83442456  0.63043895  0.58589271  1
  Ni  Ni66  1  0.33406611  0.03984588  0.08616349  1
  Ni  Ni67  1  0.83202213  0.03741973  0.08228996  1
  Ni  Ni68  1  0.18878341  0.33786577  0.08221800  1
  Ni  Ni69  1  0.68532289  0.33408474  0.08506274  1
  Ni  Ni70  1  0.81871967  0.66677217  0.91494250  1
  Ni  Ni71  1  0.51546672  0.36958733  0.91920043  1
  Ni  Ni72  1  0.31693683  0.96970147  0.41482515  1
  Ni  Ni73  1  0.66548005  0.37371526  0.41774556  1
  Ni  Ni74  1  0.01765507  0.66341762  0.41885631  1
  Cu  Cu75  1  0.85613937  0.71188490  0.25038156  1
  Cu  Cu76  1  0.50167348  0.29335372  0.24881446  1
  Cu  Cu77  1  0.00236689  0.71197082  0.74932505  1
  Cu  Cu78  1  0.35503782  0.99929169  0.74995377  1
  Cu  Cu79  1  0.47882474  0.32940248  0.58377901  1
  Cu  Cu80  1  0.97801249  0.32882761  0.58339578  1
  Cu  Cu81  1  0.47763830  0.62597747  0.08298349  1
  Cu  Cu82  1  0.98026447  0.63011993  0.08418923  1
  Cu  Cu83  1  0.31253328  0.66547663  0.91604476  1
  Cu  Cu84  1  0.02048656  0.37720859  0.91723354  1
  Cu  Cu85  1  0.16524031  0.95336994  0.91699085  1
  Cu  Cu86  1  0.66582694  0.95554410  0.91668639  1
  Cu  Cu87  1  0.81268426  0.95785676  0.41603417  1
  Cu  Cu88  1  0.16633351  0.37697785  0.41646229  1
  Cu  Cu89  1  0.52111232  0.66303785  0.41721627  1
  C  C90  1  0.10347865  0.03020795  0.30782338  1
  C  C91  1  0.60418656  0.01665608  0.31251786  1
  C  C92  1  0.41105045  0.80220089  0.30824620  1
  C  C93  1  0.90287086  0.78757681  0.30599063  1
  C  C94  1  0.48928572  0.19031196  0.30193648  1
  C  C95  1  0.98084368  0.16481904  0.30672345  1
  C  C96  1  0.09896906  0.17730225  0.80723601  1
  C  C97  1  0.60232535  0.17293784  0.80788256  1
  C  C98  1  0.48119249  0.79873714  0.80698077  1
  C  C99  1  0.98768061  0.79227333  0.80054625  1
  C  C100  1  0.40446194  0.02045159  0.80360182  1
  C  C101  1  0.90802569  0.02215312  0.81298891  1
  C  C102  1  0.39643978  0.96997818  0.69787221  1
  C  C103  1  0.90451055  0.97346361  0.69783558  1
  C  C104  1  0.08580016  0.19649895  0.69289273  1
  C  C105  1  0.58505673  0.19440540  0.69134201  1
  C  C106  1  0.01401623  0.81676226  0.69470437  1
  C  C107  1  0.51490563  0.83218898  0.69459663  1
  C  C108  1  0.40150918  0.83052872  0.19464963  1
  C  C109  1  0.90098245  0.82595080  0.19955865  1
  C  C110  1  0.01442227  0.19725646  0.19441066  1
  C  C111  1  0.51166405  0.20651096  0.19541835  1
  C  C112  1  0.08592620  0.97669227  0.19104306  1
  C  C113  1  0.58349218  0.97734430  0.19568047  1
  C  C114  1  0.43669867  0.34894198  0.63516155  1
  C  C115  1  0.93876163  0.35336170  0.63633712  1
  C  C116  1  0.24619349  0.13433228  0.63917287  1
  C  C117  1  0.73831292  0.11931157  0.64248681  1
  C  C118  1  0.31961085  0.51746989  0.64408515  1
  C  C119  1  0.82357495  0.51662288  0.64374478  1
  C  C120  1  0.43845665  0.52269990  0.13608142  1
  C  C121  1  0.94247809  0.52934692  0.13696461  1
  C  C122  1  0.31956567  0.12151930  0.14569921  1
  C  C123  1  0.82084342  0.12811586  0.14055351  1
  C  C124  1  0.23675029  0.35842183  0.14470353  1
  C  C125  1  0.74664651  0.36008681  0.13932945  1
  C  C126  1  0.23184413  0.29152398  0.02870186  1
  C  C127  1  0.72218694  0.29200421  0.02468790  1
  C  C128  1  0.42617185  0.55186876  0.03026787  1
  C  C129  1  0.92805751  0.55070366  0.03087972  1
  C  C130  1  0.35910278  0.17060812  0.03078301  1
  C  C131  1  0.84992062  0.15142872  0.02238225  1
  C  C132  1  0.22016863  0.15048812  0.52420473  1
  C  C133  1  0.72816613  0.15854320  0.52493802  1
  C  C134  1  0.35016565  0.54143719  0.52766043  1
  C  C135  1  0.85745105  0.55665358  0.52696287  1
  C  C136  1  0.43043979  0.30790281  0.52828414  1
  C  C137  1  0.92657535  0.30096387  0.53054859  1
  C  C138  1  0.26805317  0.68581738  0.96742330  1
  C  C139  1  0.77216904  0.70173947  0.96981645  1
  C  C140  1  0.07058369  0.46550519  0.96949728  1
  C  C141  1  0.57492385  0.45977070  0.97645491  1
  C  C142  1  0.15730496  0.85731988  0.97169198  1
  C  C143  1  0.65625674  0.85803950  0.97045223  1
  C  C144  1  0.27087719  0.85439452  0.47172863  1
  C  C145  1  0.76912538  0.84715970  0.46705027  1
  C  C146  1  0.15659962  0.45521525  0.47017887  1
  C  C147  1  0.65139720  0.46040751  0.47664964  1
  C  C148  1  0.07617835  0.69502017  0.47635526  1
  C  C149  1  0.57425655  0.68698594  0.46922518  1
  C  C150  1  0.07391111  0.65268046  0.36057094  1
  C  C151  1  0.56231783  0.64330123  0.36355242  1
  C  C152  1  0.25270522  0.86236941  0.35670165  1
  C  C153  1  0.76234600  0.88267813  0.36118820  1
  C  C154  1  0.17414906  0.47685107  0.36266682  1
  C  C155  1  0.67955095  0.50173075  0.36223311  1
  C  C156  1  0.06278294  0.47705045  0.86332600  1
  C  C157  1  0.57361011  0.49533835  0.86080006  1
  C  C158  1  0.17238774  0.86121878  0.86511698  1
  C  C159  1  0.67601648  0.87121071  0.86344114  1
  C  C160  1  0.26299433  0.65028854  0.86118682  1
  C  C161  1  0.75422728  0.64514682  0.85627297  1
  C  C162  1  0.00826624  0.83507042  0.41151944  1
  C  C163  1  0.51244946  0.81668016  0.41350342  1
  C  C164  1  0.41211318  0.00069824  0.40915626  1
  C  C165  1  0.89670854  0.96720045  0.41238296  1
  C  C166  1  0.09047384  0.20127456  0.41272058  1
  C  C167  1  0.58213246  0.18344722  0.41321971  1
  C  C168  1  0.01205886  0.20508988  0.91500452  1
  C  C169  1  0.51348201  0.18754217  0.91153991  1
  C  C170  1  0.08869355  0.97036841  0.91265051  1
  C  C171  1  0.59213458  0.98281243  0.91222837  1
  C  C172  1  0.39732451  0.82065307  0.91340374  1
  C  C173  1  0.91104486  0.83762737  0.91015051  1
  C  C174  1  0.48937409  0.17541608  0.58848034  1
  C  C175  1  0.98774345  0.17195829  0.58955851  1
  C  C176  1  0.08905159  0.02410691  0.59384911  1
  C  C177  1  0.59155883  0.02796401  0.58974334  1
  C  C178  1  0.41521988  0.82420338  0.59441237  1
  C  C179  1  0.92140176  0.82161455  0.59460938  1
  C  C180  1  0.48812529  0.80285729  0.08966432  1
  C  C181  1  0.99030230  0.80513330  0.08893850  1
  C  C182  1  0.42064307  0.02129643  0.09437052  1
  C  C183  1  0.91536265  0.00715142  0.09408759  1
  C  C184  1  0.09157940  0.15571662  0.08954792  1
  C  C185  1  0.58940909  0.15368407  0.09387155  1
  C  C186  1  0.34522475  0.14851961  0.74313584  1
  C  C187  1  0.84051342  0.16707803  0.74651680  1
  C  C188  1  0.24252598  0.32341963  0.74714186  1
  C  C189  1  0.74100723  0.32078701  0.74581082  1
  C  C190  1  0.41872168  0.51634362  0.74435599  1
  C  C191  1  0.92642093  0.54258115  0.74268196  1
  C  C192  1  0.33971503  0.51283087  0.24604809  1
  C  C193  1  0.84674578  0.54389198  0.24396141  1
  C  C194  1  0.42512456  0.30874295  0.24237961  1
  C  C195  1  0.91804431  0.32020732  0.24422503  1
  C  C196  1  0.24132948  0.16152564  0.24588191  1
  C  C197  1  0.74203144  0.16288182  0.24675201  1
  C  C198  1  0.31913234  0.51144680  0.92106016  1
  C  C199  1  0.81695929  0.48493128  0.91823093  1
  C  C200  1  0.42392133  0.35881896  0.91802089  1
  C  C201  1  0.93344540  0.35411683  0.91914105  1
  C  C202  1  0.24322438  0.12344280  0.91882294  1
  C  C203  1  0.74575964  0.12668797  0.91867444  1
  C  C204  1  0.32037649  0.15506718  0.41692250  1
  C  C205  1  0.82120639  0.12686962  0.42263402  1
  C  C206  1  0.24322373  0.35738581  0.41831749  1
  C  C207  1  0.75171031  0.35665134  0.42029033  1
  C  C208  1  0.43702009  0.50541038  0.42158205  1
  C  C209  1  0.92428879  0.49534204  0.41774013  1
  C  C210  1  0.16955242  0.49291429  0.07558706  1
  C  C211  1  0.66298243  0.48624144  0.08162422  1
  C  C212  1  0.06807961  0.65903104  0.07674519  1
  C  C213  1  0.56459711  0.65367931  0.07791799  1
  C  C214  1  0.24699599  0.85736520  0.07645723  1
  C  C215  1  0.74351175  0.85530273  0.07758996  1
  C  C216  1  0.16258745  0.83899992  0.58208122  1
  C  C217  1  0.66791869  0.84203671  0.57615847  1
  C  C218  1  0.24354776  0.63226434  0.57820305  1
  C  C219  1  0.74775687  0.63997894  0.57966087  1
  C  C220  1  0.06481774  0.47505877  0.57802386  1
  C  C221  1  0.56603777  0.47937965  0.57996217  1
  C  C222  1  0.15410476  0.82695614  0.25320655  1
  C  C223  1  0.65955412  0.82736432  0.25263468  1
  C  C224  1  0.25900124  0.68895460  0.25645986  1
  C  C225  1  0.77174537  0.70395113  0.25293685  1
  C  C226  1  0.09097474  0.47259380  0.25868170  1
  C  C227  1  0.57881836  0.46262096  0.25199503  1
  C  C228  1  0.15799666  0.48921960  0.75458960  1
  C  C229  1  0.65365659  0.47939529  0.75358126  1
  C  C230  1  0.08003511  0.69885727  0.75460632  1
  C  C231  1  0.59126228  0.70977437  0.75923508  1
  C  C232  1  0.26962500  0.83979661  0.75483367  1
  C  C233  1  0.75961349  0.82911561  0.75670804  1
