# generated using pymatgen
data_Cu6Ni3C4
_symmetry_space_group_name_H-M   'P 1'
_cell_length_a   6.27869333
_cell_length_b   6.27869333
_cell_length_c   6.27869250
_cell_angle_alpha   115.44566092
_cell_angle_beta   115.44566092
_cell_angle_gamma   115.44565118
_symmetry_Int_Tables_number   1
_chemical_formula_structural   Cu6Ni3C4
_chemical_formula_sum   'Cu6 Ni3 C4'
_cell_volume   132.73059876
_cell_formula_units_Z   1
loop_
 _symmetry_equiv_pos_site_id
 _symmetry_equiv_pos_as_xyz
  1  'x, y, z'
loop_
 _atom_site_type_symbol
 _atom_site_label
 _atom_site_symmetry_multiplicity
 _atom_site_fract_x
 _atom_site_fract_y
 _atom_site_fract_z
 _atom_site_occupancy
  C  C0  1  0.84100600  0.84100600  0.84100600  1
  C  C1  1  0.46638200  0.98250300  0.46638300  1
  C  C2  1  0.46638200  0.46638300  0.98250300  1
  C  C3  1  0.98250300  0.46638200  0.46638200  1
  Ni  Ni4  1  0.68798300  0.22766000  0.22766000  1
  Ni  Ni5  1  0.22766000  0.68798300  0.22766000  1
  Ni  Ni6  1  0.22766000  0.22766000  0.68798300  1
  Cu  Cu7  1  0.24940800  0.50325900  0.24940800  1
  Cu  Cu8  1  0.55612800  0.95449300  0.95449300  1
  Cu  Cu9  1  0.95449300  0.95449300  0.55612800  1
  Cu  Cu10  1  0.50325900  0.24940800  0.24940800  1
  Cu  Cu11  1  0.24940800  0.24940800  0.50325900  1
  Cu  Cu12  1  0.95449300  0.55612800  0.95449300  1
