# generated using pymatgen
data_Cu3(NiC)2
_symmetry_space_group_name_H-M   'P 1'
_cell_length_a   8.67113719
_cell_length_b   8.67113719
_cell_length_c   8.67113763
_cell_angle_alpha   95.78418431
_cell_angle_beta   95.78418431
_cell_angle_gamma   95.78418628
_symmetry_Int_Tables_number   1
_chemical_formula_structural   Cu3(NiC)2
_chemical_formula_sum   'Cu12 Ni8 C8'
_cell_volume   641.28283674
_cell_formula_units_Z   4
loop_
 _symmetry_equiv_pos_site_id
 _symmetry_equiv_pos_as_xyz
  1  'x, y, z'
loop_
 _atom_site_type_symbol
 _atom_site_label
 _atom_site_symmetry_multiplicity
 _atom_site_fract_x
 _atom_site_fract_y
 _atom_site_fract_z
 _atom_site_occupancy
  C  C0  1  0.13813600  0.74197500  0.91813700  1
  C  C1  1  0.91813700  0.13813600  0.74197500  1
  C  C2  1  0.20232600  0.20232600  0.20232600  1
  C  C3  1  0.86186400  0.25802500  0.08186300  1
  C  C4  1  0.08186300  0.86186400  0.25802500  1
  C  C5  1  0.25802500  0.08186300  0.86186400  1
  C  C6  1  0.79767400  0.79767400  0.79767400  1
  C  C7  1  0.74197500  0.91813700  0.13813600  1
  Ni  Ni8  1  0.24248600  0.55049000  0.85644200  1
  Ni  Ni9  1  0.55049000  0.85644200  0.24248600  1
  Ni  Ni10  1  0.75751400  0.44951000  0.14355800  1
  Ni  Ni11  1  0.14355800  0.75751400  0.44951000  1
  Ni  Ni12  1  0.44951000  0.14355800  0.75751400  1
  Ni  Ni13  1  0.64735200  0.64735200  0.64735200  1
  Ni  Ni14  1  0.35264800  0.35264800  0.35264800  1
  Ni  Ni15  1  0.85644200  0.24248600  0.55049000  1
  Cu  Cu16  1  0.24110500  0.89431200  0.87108900  1
  Cu  Cu17  1  0.03728800  0.27576700  0.17349900  1
  Cu  Cu18  1  0.17349900  0.03728800  0.27576700  1
  Cu  Cu19  1  0.27576700  0.17349900  0.03728800  1
  Cu  Cu20  1  0.82650100  0.96271200  0.72423300  1
  Cu  Cu21  1  0.72423300  0.82650100  0.96271200  1
  Cu  Cu22  1  0.96271200  0.72423300  0.82650100  1
  Cu  Cu23  1  0.10568800  0.12891100  0.75889500  1
  Cu  Cu24  1  0.87108900  0.24110500  0.89431200  1
  Cu  Cu25  1  0.89431200  0.87108900  0.24110500  1
  Cu  Cu26  1  0.75889500  0.10568800  0.12891100  1
  Cu  Cu27  1  0.12891100  0.75889500  0.10568800  1
