# generated using pymatgen
data_Cu2NiC10
_symmetry_space_group_name_H-M   'P 1'
_cell_length_a   3.98458420
_cell_length_b   3.98458514
_cell_length_c   17.02571927
_cell_angle_alpha   96.57158388
_cell_angle_beta   96.57173453
_cell_angle_gamma   89.97289388
_symmetry_Int_Tables_number   1
_chemical_formula_structural   Cu2NiC10
_chemical_formula_sum   'Cu2 Ni1 C10'
_cell_volume   266.75351556
_cell_formula_units_Z   1
loop_
 _symmetry_equiv_pos_site_id
 _symmetry_equiv_pos_as_xyz
  1  'x, y, z'
loop_
 _atom_site_type_symbol
 _atom_site_label
 _atom_site_symmetry_multiplicity
 _atom_site_fract_x
 _atom_site_fract_y
 _atom_site_fract_z
 _atom_site_occupancy
  C  C0  1  0.88871784  0.88989504  0.77465873  1
  C  C1  1  0.11010895  0.11128116  0.22534027  1
  C  C2  1  -0.00080451  0.00080351  -0.00000000  1
  Ni  Ni3  1  0.25771374  0.74228626  0.50000000  1
  Cu  Cu4  1  0.44252170  0.44378684  0.88458266  1
  Cu  Cu5  1  0.55621116  0.55748330  0.11541734  1
  C  C6  1  0.34383716  0.34521122  0.68099052  1
  C  C7  1  0.65478779  0.65616183  0.31900848  1
  C  C8  1  0.06527483  0.56621527  0.13347086  1
  C  C9  1  0.93359835  0.43504405  0.86636997  1
  C  C10  1  0.43378372  0.93472317  0.86652914  1
  C  C11  1  0.49929231  0.50070569  0.00000000  1
  C  C12  1  0.56495596  0.06640065  0.13363003  1
