# generated using pymatgen
data_Cu(NiC9)2
_symmetry_space_group_name_H-M   'P 1'
_cell_length_a   9.12807728
_cell_length_b   9.11267273
_cell_length_c   21.99793556
_cell_angle_alpha   90.47450559
_cell_angle_beta   90.00000000
_cell_angle_gamma   120.05593552
_symmetry_Int_Tables_number   1
_chemical_formula_structural   Cu(NiC9)2
_chemical_formula_sum   'Cu6 Ni12 C108'
_cell_volume   1583.69919156
_cell_formula_units_Z   6
loop_
 _symmetry_equiv_pos_site_id
 _symmetry_equiv_pos_as_xyz
  1  'x, y, z'
loop_
 _atom_site_type_symbol
 _atom_site_label
 _atom_site_symmetry_multiplicity
 _atom_site_fract_x
 _atom_site_fract_y
 _atom_site_fract_z
 _atom_site_occupancy
  C  C0  1  0.64579617  0.02070816  0.25255146  1
  C  C1  1  0.36899420  0.35745410  0.24540077  1
  C  C2  1  0.98904986  0.61961830  0.24103592  1
  C  C3  1  0.63056844  0.61961830  0.74103592  1
  C  C4  1  0.98845990  0.35745410  0.74540077  1
  C  C5  1  0.37491199  0.02070816  0.75255146  1
  C  C6  1  0.31246317  0.35404116  0.58588446  1
  C  C7  1  0.03566120  0.69078710  0.57873377  1
  C  C8  1  0.65571686  0.95295130  0.57436892  1
  C  C9  1  0.29723544  0.95295130  0.07436892  1
  C  C10  1  0.65512690  0.69078710  0.07873377  1
  C  C11  1  0.04157899  0.35404116  0.08588446  1
  C  C12  1  0.97912917  0.68737516  0.91921846  1
  C  C13  1  0.70232720  0.02412110  0.91206777  1
  C  C14  1  0.32238286  0.28628530  0.90770292  1
  C  C15  1  0.96390144  0.28628530  0.40770292  1
  C  C16  1  0.32179290  0.02412110  0.41206777  1
  C  C17  1  0.70824499  0.68737516  0.41921846  1
  C  C18  1  0.98600720  0.98828271  0.49469134  1
  C  C19  1  0.00227551  0.98828271  0.99469134  1
  C  C20  1  0.65267420  0.32161571  0.82802434  1
  C  C21  1  0.66894251  0.32161571  0.32802434  1
  C  C22  1  0.31934020  0.65494971  0.16135834  1
  C  C23  1  0.33560851  0.65494971  0.66135834  1
  C  C24  1  0.98267112  0.01108904  0.64705254  1
  C  C25  1  0.02841791  0.01108904  0.14705254  1
  C  C26  1  0.64933812  0.34442204  0.98038554  1
  C  C27  1  0.69508491  0.34442204  0.48038554  1
  C  C28  1  0.31600412  0.67775604  0.31371954  1
  C  C29  1  0.36175091  0.67775604  0.81371954  1
  C  C30  1  -0.00025836  0.00176139  0.34852407  1
  C  C31  1  0.00201975  0.00176139  0.84852407  1
  C  C32  1  0.66640864  0.33509439  0.68185707  1
  C  C33  1  0.66868675  0.33509439  0.18185707  1
  C  C34  1  0.33307464  0.66842839  0.01519107  1
  C  C35  1  0.33535275  0.66842839  0.51519107  1
  Ni  Ni36  1  0.29809327  0.00329674  0.25333585  1
  Ni  Ni37  1  0.00377109  0.29413362  0.25235973  1
  Ni  Ni38  1  0.29036254  0.29413362  0.75235973  1
  Ni  Ni39  1  0.70520347  0.00329674  0.75333585  1
  Ni  Ni40  1  0.96476027  0.33662974  0.58666885  1
  Ni  Ni41  1  0.67043809  0.62746662  0.58569273  1
  Ni  Ni42  1  0.95702954  0.62746662  0.08569273  1
  Ni  Ni43  1  0.37187047  0.33662974  0.08666885  1
  Ni  Ni44  1  0.63142627  0.66996374  0.92000285  1
  Ni  Ni45  1  0.33710409  0.96080062  0.91902673  1
  Ni  Ni46  1  0.62369554  0.96080062  0.41902673  1
  Ni  Ni47  1  0.03853647  0.66996374  0.42000285  1
  Cu  Cu48  1  0.70322554  0.70966104  0.25056921  1
  Cu  Cu49  1  0.00643550  0.70966104  0.75056921  1
  Cu  Cu50  1  0.36989254  0.04299404  0.58390221  1
  Cu  Cu51  1  0.67310250  0.04299404  0.08390221  1
  Cu  Cu52  1  0.03655854  0.37632804  0.91723621  1
  Cu  Cu53  1  0.33976850  0.37632804  0.41723621  1
  C  C54  1  0.21202735  0.02862376  0.31264691  1
  C  C55  1  0.80070836  0.78691985  0.30703021  1
  C  C56  1  0.96960783  0.18136593  0.31200174  1
  C  C57  1  0.21175811  0.18136593  0.81200174  1
  C  C58  1  0.98621150  0.78691985  0.80703021  1
  C  C59  1  0.81659641  0.02862376  0.81264691  1
  C  C60  1  0.79901191  0.97166641  0.69199857  1
  C  C61  1  0.15992692  0.18903374  0.69238098  1
  C  C62  1  0.02486500  0.81459033  0.69611363  1
  C  C63  1  0.78972533  0.81459033  0.19611363  1
  C  C64  1  0.02910682  0.18903374  0.19238098  1
  C  C65  1  0.17265450  0.97166641  0.19199857  1
  C  C66  1  0.87869435  0.36195676  0.64597991  1
  C  C67  1  0.46737536  0.12025285  0.64036321  1
  C  C68  1  0.63627483  0.51469893  0.64533474  1
  C  C69  1  0.87842511  0.51469893  0.14533474  1
  C  C70  1  0.65287850  0.12025285  0.14036321  1
  C  C71  1  0.48326341  0.36195676  0.14597991  1
  C  C72  1  0.46567891  0.30499941  0.02533157  1
  C  C73  1  0.82659392  0.52236674  0.02571398  1
  C  C74  1  0.69153200  0.14792333  0.02944663  1
  C  C75  1  0.45639233  0.14792333  0.52944663  1
  C  C76  1  0.69577382  0.52236674  0.52571398  1
  C  C77  1  0.83932150  0.30499941  0.52533157  1
  C  C78  1  0.54536035  0.69529076  0.97931391  1
  C  C79  1  0.13404136  0.45358685  0.97369721  1
  C  C80  1  0.30294083  0.84803293  0.97866874  1
  C  C81  1  0.54509111  0.84803293  0.47866874  1
  C  C82  1  0.31954450  0.45358685  0.47369721  1
  C  C83  1  0.14992941  0.69529076  0.47931391  1
  C  C84  1  0.13234491  0.63833341  0.35866557  1
  C  C85  1  0.49325992  0.85570074  0.35904798  1
  C  C86  1  0.35819800  0.48125733  0.36278063  1
  C  C87  1  0.12305833  0.48125733  0.86278063  1
  C  C88  1  0.36243982  0.85570074  0.85904798  1
  C  C89  1  0.50598750  0.63833341  0.85866557  1
  C  C90  1  0.00714901  0.82827219  0.41255838  1
  C  C91  1  0.81429093  0.99110706  0.41253956  1
  C  C92  1  0.18973698  0.20398700  0.41389335  1
  C  C93  1  0.01425002  0.20398700  0.91389335  1
  C  C94  1  0.17681613  0.99110706  0.91253956  1
  C  C95  1  0.82112318  0.82827219  0.91255838  1
  C  C96  1  0.97061650  0.15433121  0.58770120  1
  C  C97  1  0.19857733  0.02955887  0.58614272  1
  C  C98  1  0.85302034  0.81453853  0.58947185  1
  C  C99  1  0.96151819  0.81453853  0.08947185  1
  C  C100  1  0.83098154  0.02955887  0.08614272  1
  C  C101  1  0.18371471  0.15433121  0.08770120  1
  C  C102  1  0.67381601  0.16160519  0.74589138  1
  C  C103  1  0.48095793  0.32444006  0.74587256  1
  C  C104  1  0.85640398  0.53732000  0.74722635  1
  C  C105  1  0.68091702  0.53732000  0.24722635  1
  C  C106  1  0.84348313  0.32444006  0.24587256  1
  C  C107  1  0.48779018  0.16160519  0.24589138  1
  C  C108  1  0.63728350  0.48766421  0.92103420  1
  C  C109  1  0.86524433  0.36289187  0.91947572  1
  C  C110  1  0.51968734  0.14787153  0.92280485  1
  C  C111  1  0.62818519  0.14787153  0.42280485  1
  C  C112  1  0.49764854  0.36289187  0.41947572  1
  C  C113  1  0.85038171  0.48766421  0.42103420  1
  C  C114  1  0.34048201  0.49493919  0.07922538  1
  C  C115  1  0.14762393  0.65777406  0.07920656  1
  C  C116  1  0.52306998  0.87065400  0.08056035  1
  C  C117  1  0.34758302  0.87065400  0.58056035  1
  C  C118  1  0.51014913  0.65777406  0.57920656  1
  C  C119  1  0.15445618  0.49493919  0.57922538  1
  C  C120  1  0.30394950  0.82099821  0.25436820  1
  C  C121  1  0.53191033  0.69622587  0.25280972  1
  C  C122  1  0.18635334  0.48120553  0.25613885  1
  C  C123  1  0.29485119  0.48120553  0.75613885  1
  C  C124  1  0.16431454  0.69622587  0.75280972  1
  C  C125  1  0.51704771  0.82099821  0.75436820  1
