# generated using pymatgen
data_Cu2NiC10
_symmetry_space_group_name_H-M   'P 1'
_cell_length_a   5.76125260
_cell_length_b   5.49301677
_cell_length_c   6.01023731
_cell_angle_alpha   74.11948042
_cell_angle_beta   100.85010200
_cell_angle_gamma   60.83509943
_symmetry_Int_Tables_number   1
_chemical_formula_structural   Cu2NiC10
_chemical_formula_sum   'Cu2 Ni1 C10'
_cell_volume   147.57700686
_cell_formula_units_Z   1
loop_
 _symmetry_equiv_pos_site_id
 _symmetry_equiv_pos_as_xyz
  1  'x, y, z'
loop_
 _atom_site_type_symbol
 _atom_site_label
 _atom_site_symmetry_multiplicity
 _atom_site_fract_x
 _atom_site_fract_y
 _atom_site_fract_z
 _atom_site_occupancy
  C  C0  1  0.01759101  0.24296801  0.55229792  1
  C  C1  1  0.98240899  0.75703199  0.44770208  1
  C  C2  1  0.50000000  0.50000000  0.50000000  1
  C  C3  1  0.00000000  0.00000000  -0.00000000  1
  Ni  Ni4  1  0.50000000  0.00000000  0.50000000  1
  Cu  Cu5  1  0.67281262  0.64878294  0.01095608  1
  Cu  Cu6  1  0.32718738  0.35121706  0.98904392  1
  C  C7  1  0.29619856  0.73073678  0.77135249  1
  C  C8  1  0.13402263  0.46204351  0.23506750  1
  C  C9  1  0.47866954  0.88946686  0.21480117  1
  C  C10  1  0.86597737  0.53795649  0.76493350  1
  C  C11  1  0.52133046  0.11053314  0.78519983  1
  C  C12  1  0.70380144  0.26926322  0.22864751  1
