# generated using pymatgen
data_Cu2NiC14
_symmetry_space_group_name_H-M   'P 1'
_cell_length_a   5.87448564
_cell_length_b   7.11247102
_cell_length_c   13.97644637
_cell_angle_alpha   82.97004933
_cell_angle_beta   72.83283597
_cell_angle_gamma   65.57111927
_symmetry_Int_Tables_number   1
_chemical_formula_structural   Cu2NiC14
_chemical_formula_sum   'Cu2 Ni1 C14'
_cell_volume   507.99819808
_cell_formula_units_Z   1
loop_
 _symmetry_equiv_pos_site_id
 _symmetry_equiv_pos_as_xyz
  1  'x, y, z'
loop_
 _atom_site_type_symbol
 _atom_site_label
 _atom_site_symmetry_multiplicity
 _atom_site_fract_x
 _atom_site_fract_y
 _atom_site_fract_z
 _atom_site_occupancy
  C  C0  1  0.45870931  0.75274899  0.11251633  1
  C  C1  1  0.13950758  0.22304951  0.55296180  1
  C  C2  1  0.78871119  0.75299530  0.38720763  1
  C  C3  1  0.63644384  0.22336134  0.94699834  1
  Ni  Ni4  1  0.36395278  0.27097130  0.74998058  1
  C  C5  1  0.62925166  0.74082969  0.75018113  1
  C  C6  1  0.38020150  0.23980381  0.24988046  1
  Cu  Cu7  1  0.08297763  0.83304513  0.75001366  1
  Cu  Cu8  1  0.87329810  0.25365175  0.24984051  1
  C  C9  1  0.92058534  0.54045509  0.83567063  1
  C  C10  1  0.27117571  0.98152758  0.85472660  1
  C  C11  1  0.53870424  0.54008155  0.66499048  1
  C  C12  1  0.74634330  0.98145682  0.64531027  1
  C  C13  1  0.41035369  0.44110504  0.34914911  1
  C  C14  1  0.20597832  0.03463033  0.34254265  1
  C  C15  1  0.75962154  0.03463256  0.15732275  1
  C  C16  1  0.14835128  0.44136821  0.15070705  1
