# generated using pymatgen
data_Cu(NiC8)2
_symmetry_space_group_name_H-M   'P 1'
_cell_length_a   8.89363573
_cell_length_b   8.89363544
_cell_length_c   22.48746282
_cell_angle_alpha   88.63375619
_cell_angle_beta   91.36624385
_cell_angle_gamma   119.56814031
_symmetry_Int_Tables_number   1
_chemical_formula_structural   Cu(NiC8)2
_chemical_formula_sum   'Cu6 Ni12 C96'
_cell_volume   1546.45714527
_cell_formula_units_Z   6
loop_
 _symmetry_equiv_pos_site_id
 _symmetry_equiv_pos_as_xyz
  1  'x, y, z'
loop_
 _atom_site_type_symbol
 _atom_site_label
 _atom_site_symmetry_multiplicity
 _atom_site_fract_x
 _atom_site_fract_y
 _atom_site_fract_z
 _atom_site_occupancy
  C  C0  1  0.98773920  0.62477194  0.24979374  1
  C  C1  1  0.37522806  0.01226080  0.74979374  1
  C  C2  1  0.65440620  0.95810494  0.58312674  1
  C  C3  1  0.04189506  0.34559380  0.08312674  1
  C  C4  1  0.32107220  0.29143894  0.91646074  1
  C  C5  1  0.70856106  0.67892780  0.41646074  1
  C  C6  1  0.01174275  0.99550977  0.49453734  1
  C  C7  1  0.00449023  0.98825725  0.99453734  1
  C  C8  1  0.67840975  0.32884277  0.82787034  1
  C  C9  1  0.67115723  0.32159025  0.32787034  1
  C  C10  1  0.34507575  0.66217677  0.16120434  1
  C  C11  1  0.33782323  0.65492425  0.66120434  1
  C  C12  1  0.99791603  0.00053929  0.64515101  1
  C  C13  1  0.99946071  0.00208397  0.14515101  1
  C  C14  1  0.66458303  0.33387229  0.97848401  1
  C  C15  1  0.66612771  0.33541697  0.47848401  1
  C  C16  1  0.33124903  0.66720629  0.31181801  1
  C  C17  1  0.33279371  0.66875097  0.81181801  1
  C  C18  1  0.97052939  0.98557172  0.35259536  1
  C  C19  1  0.01442828  0.02947061  0.85259536  1
  C  C20  1  0.63719639  0.31890472  0.68592836  1
  C  C21  1  0.68109528  0.36280361  0.18592836  1
  C  C22  1  0.30386239  0.65223872  0.01926236  1
  C  C23  1  0.34776128  0.69613761  0.51926236  1
  Ni  Ni24  1  0.70636034  0.70694199  0.25156804  1
  Ni  Ni25  1  0.98925356  0.28150188  0.25100650  1
  Ni  Ni26  1  0.29305801  0.29363966  0.75156804  1
  Ni  Ni27  1  0.71849812  0.01074644  0.75100650  1
  Ni  Ni28  1  0.37302734  0.04027499  0.58490104  1
  Ni  Ni29  1  0.65592056  0.61483488  0.58433950  1
  Ni  Ni30  1  0.95972501  0.62697266  0.08490104  1
  Ni  Ni31  1  0.38516512  0.34407944  0.08433950  1
  Ni  Ni32  1  0.03969334  0.37360899  0.91823504  1
  Ni  Ni33  1  0.32258656  0.94816888  0.91767350  1
  Ni  Ni34  1  0.62639101  0.96030666  0.41823504  1
  Ni  Ni35  1  0.05183112  0.67741344  0.41767350  1
  Cu  Cu36  1  0.29343856  0.00816016  0.25161357  1
  Cu  Cu37  1  0.99183984  0.70656144  0.75161357  1
  Cu  Cu38  1  0.96010556  0.34149316  0.58494657  1
  Cu  Cu39  1  0.65850684  0.03989444  0.08494657  1
  Cu  Cu40  1  0.62677156  0.67482716  0.91828057  1
  Cu  Cu41  1  0.32517284  0.37322844  0.41828057  1
  C  C42  1  0.21280278  0.02684297  0.30433848  1
  C  C43  1  0.82709763  0.78280299  0.31053574  1
  C  C44  1  0.97844444  0.16774917  0.30864298  1
  C  C45  1  0.21719701  0.17290237  0.81053574  1
  C  C46  1  0.97315703  0.78719722  0.80433848  1
  C  C47  1  0.83225083  0.02155556  0.80864298  1
  C  C48  1  0.80076970  0.97372010  0.69024912  1
  C  C49  1  0.16411393  0.18913562  0.69383768  1
  C  C50  1  0.02548461  0.82070602  0.69669855  1
  C  C51  1  0.81086438  0.83588607  0.19383768  1
  C  C52  1  0.02627990  0.19923030  0.19024912  1
  C  C53  1  0.17929398  0.97451539  0.19669855  1
  C  C54  1  0.87946978  0.36017597  0.63767148  1
  C  C55  1  0.49376463  0.11613599  0.64386874  1
  C  C56  1  0.64511144  0.50108217  0.64197598  1
  C  C57  1  0.88386401  0.50623537  0.14386874  1
  C  C58  1  0.63982403  0.12053022  0.13767148  1
  C  C59  1  0.49891783  0.35488856  0.14197598  1
  C  C60  1  0.46743670  0.30705310  0.02358212  1
  C  C61  1  0.83078093  0.52246862  0.02717068  1
  C  C62  1  0.69215161  0.15403902  0.03003155  1
  C  C63  1  0.47753138  0.16921907  0.52717068  1
  C  C64  1  0.69294690  0.53256330  0.52358212  1
  C  C65  1  0.84596098  0.30784839  0.53003155  1
  C  C66  1  0.54613578  0.69350997  0.97100548  1
  C  C67  1  0.16043063  0.44946999  0.97720274  1
  C  C68  1  0.31177744  0.83441617  0.97530998  1
  C  C69  1  0.55053001  0.83956937  0.47720274  1
  C  C70  1  0.30649003  0.45386422  0.47100548  1
  C  C71  1  0.16558383  0.68822256  0.47530998  1
  C  C72  1  0.13410270  0.64038710  0.35691612  1
  C  C73  1  0.49744693  0.85580262  0.36050468  1
  C  C74  1  0.35881761  0.48737302  0.36336555  1
  C  C75  1  0.14419738  0.50255307  0.86050468  1
  C  C76  1  0.35961290  0.86589730  0.85691612  1
  C  C77  1  0.51262698  0.64118239  0.86336555  1
  C  C78  1  0.02685473  0.84645454  0.40953429  1
  C  C79  1  0.81580757  0.97808620  0.41182210  1
  C  C80  1  0.18173522  0.19924393  0.40990845  1
  C  C81  1  0.02191380  0.18419243  0.91182210  1
  C  C82  1  0.15354546  0.97314527  0.90953429  1
  C  C83  1  0.80075607  0.81826478  0.90990845  1
  C  C84  1  0.96572287  0.17193749  0.58740904  1
  C  C85  1  0.18170191  0.02650024  0.58989867  1
  C  C86  1  0.82929913  0.81533832  0.59085933  1
  C  C87  1  0.97349976  0.81829809  0.08989867  1
  C  C88  1  0.82806251  0.03427713  0.08740904  1
  C  C89  1  0.18466168  0.17070087  0.09085933  1
  C  C90  1  0.69352173  0.17978754  0.74286729  1
  C  C91  1  0.48247457  0.31141920  0.74515510  1
  C  C92  1  0.84840222  0.53257693  0.74324145  1
  C  C93  1  0.68858080  0.51752543  0.24515510  1
  C  C94  1  0.82021246  0.30647827  0.24286729  1
  C  C95  1  0.46742307  0.15159778  0.24324145  1
  C  C96  1  0.63238987  0.50527049  0.92074204  1
  C  C97  1  0.84836891  0.35983324  0.92323167  1
  C  C98  1  0.49596613  0.14867132  0.92419233  1
  C  C99  1  0.64016676  0.15163109  0.42323167  1
  C  C100  1  0.49472951  0.36761013  0.42074204  1
  C  C101  1  0.85132868  0.50403387  0.42419233  1
  C  C102  1  0.36018773  0.51312154  0.07620129  1
  C  C103  1  0.14914057  0.64475320  0.07848910  1
  C  C104  1  0.51506822  0.86591093  0.07657545  1
  C  C105  1  0.35524680  0.85085943  0.57848910  1
  C  C106  1  0.48687846  0.63981227  0.57620129  1
  C  C107  1  0.13408907  0.48493178  0.57657545  1
  C  C108  1  0.29905587  0.83860449  0.25407604  1
  C  C109  1  0.51503491  0.69316724  0.25656567  1
  C  C110  1  0.16263213  0.48200532  0.25752633  1
  C  C111  1  0.30683276  0.48496509  0.75656567  1
  C  C112  1  0.16139551  0.70094413  0.75407604  1
  C  C113  1  0.51799468  0.83736787  0.75752633  1
