# generated using pymatgen
data_Cu4(Ni2C)5
_symmetry_space_group_name_H-M   'P 1'
_cell_length_a   13.84245100
_cell_length_b   13.84245100
_cell_length_c   4.35966400
_cell_angle_alpha   90.00000000
_cell_angle_beta   90.00000000
_cell_angle_gamma   90.00000000
_symmetry_Int_Tables_number   1
_chemical_formula_structural   Cu4(Ni2C)5
_chemical_formula_sum   'Cu8 Ni20 C10'
_cell_volume   835.37025852
_cell_formula_units_Z   2
loop_
 _symmetry_equiv_pos_site_id
 _symmetry_equiv_pos_as_xyz
  1  'x, y, z'
loop_
 _atom_site_type_symbol
 _atom_site_label
 _atom_site_symmetry_multiplicity
 _atom_site_fract_x
 _atom_site_fract_y
 _atom_site_fract_z
 _atom_site_occupancy
  C  C0  1  0.00000000  0.00000000  0.00000000  1
  C  C1  1  0.50000000  0.50000000  0.00000000  1
  C  C2  1  0.20441100  0.70441100  0.50000000  1
  C  C3  1  0.29558900  0.20441100  0.50000000  1
  C  C4  1  0.70441100  0.79558900  0.50000000  1
  C  C5  1  0.79558900  0.29558900  0.50000000  1
  C  C6  1  0.40302700  0.90302700  0.00000000  1
  C  C7  1  0.09697300  0.40302700  0.00000000  1
  C  C8  1  0.59697300  0.09697300  0.00000000  1
  C  C9  1  0.90302700  0.59697300  0.00000000  1
  Ni  Ni10  1  0.97950200  0.14880200  0.50000000  1
  Ni  Ni11  1  0.02049800  0.85119800  0.50000000  1
  Ni  Ni12  1  0.14880200  0.02049800  0.50000000  1
  Ni  Ni13  1  0.85119800  0.97950200  0.50000000  1
  Ni  Ni14  1  0.64880200  0.47950200  0.50000000  1
  Ni  Ni15  1  0.52049800  0.64880200  0.50000000  1
  Ni  Ni16  1  0.47950200  0.35119800  0.50000000  1
  Ni  Ni17  1  0.35119800  0.52049800  0.50000000  1
  Ni  Ni18  1  0.29717500  0.36624500  0.00000000  1
  Ni  Ni19  1  0.70282500  0.63375500  0.00000000  1
  Ni  Ni20  1  0.36624500  0.70282500  0.00000000  1
  Ni  Ni21  1  0.63375500  0.29717500  0.00000000  1
  Ni  Ni22  1  0.86624500  0.79717500  0.00000000  1
  Ni  Ni23  1  0.20282500  0.86624500  0.00000000  1
  Ni  Ni24  1  0.79717500  0.13375500  0.00000000  1
  Ni  Ni25  1  0.13375500  0.20282500  0.00000000  1
  Ni  Ni26  1  0.89629000  0.39629000  0.00000000  1
  Ni  Ni27  1  0.60371000  0.89629000  0.00000000  1
  Ni  Ni28  1  0.10371000  0.60371000  0.00000000  1
  Ni  Ni29  1  0.39629000  0.10371000  0.00000000  1
  Cu  Cu30  1  0.27329700  0.54843700  0.00000000  1
  Cu  Cu31  1  0.45156300  0.27329700  0.00000000  1
  Cu  Cu32  1  0.54843700  0.72670300  0.00000000  1
  Cu  Cu33  1  0.72670300  0.45156300  0.00000000  1
  Cu  Cu34  1  0.77329700  0.95156300  0.00000000  1
  Cu  Cu35  1  0.22670300  0.04843700  0.00000000  1
  Cu  Cu36  1  0.04843700  0.77329700  0.00000000  1
  Cu  Cu37  1  0.95156300  0.22670300  0.00000000  1
