# generated using pymatgen
data_Cu2Ni4C45
_symmetry_space_group_name_H-M   'P 1'
_cell_length_a   8.71413008
_cell_length_b   8.71412980
_cell_length_c   22.43734139
_cell_angle_alpha   90.00000000
_cell_angle_beta   90.00000000
_cell_angle_gamma   120.00000106
_symmetry_Int_Tables_number   1
_chemical_formula_structural   Cu2Ni4C45
_chemical_formula_sum   'Cu4 Ni8 C90'
_cell_volume   1475.53693910
_cell_formula_units_Z   2
loop_
 _symmetry_equiv_pos_site_id
 _symmetry_equiv_pos_as_xyz
  1  'x, y, z'
loop_
 _atom_site_type_symbol
 _atom_site_label
 _atom_site_symmetry_multiplicity
 _atom_site_fract_x
 _atom_site_fract_y
 _atom_site_fract_z
 _atom_site_occupancy
  Ni  Ni0  1  0.00000000  0.00000000  0.35305078  1
  Ni  Ni1  1  0.00000000  0.00000000  0.85305078  1
  Ni  Ni2  1  0.00000000  0.00000000  0.64523006  1
  Ni  Ni3  1  0.00000000  0.00000000  0.14523006  1
  Ni  Ni4  1  0.66666700  0.33333300  0.68750078  1
  Ni  Ni5  1  0.66666700  0.33333300  0.18750078  1
  Ni  Ni6  1  0.33333300  0.66666700  0.02202532  1
  Ni  Ni7  1  0.33333300  0.66666700  0.52202532  1
  Cu  Cu8  1  0.66666700  0.33333300  0.98169089  1
  Cu  Cu9  1  0.66666700  0.33333300  0.48169089  1
  Cu  Cu10  1  0.33333300  0.66666700  0.30786700  1
  Cu  Cu11  1  0.33333300  0.66666700  0.80786700  1
  C  C12  1  0.28975117  0.00867968  0.24976157  1
  C  C13  1  0.71892851  0.71024883  0.24976157  1
  C  C14  1  0.99132032  0.28107149  0.24976157  1
  C  C15  1  0.28975117  0.28107149  0.74976157  1
  C  C16  1  0.99132032  0.71024883  0.74976157  1
  C  C17  1  0.71892851  0.00867968  0.74976157  1
  C  C18  1  0.96206975  0.33502775  0.58605864  1
  C  C19  1  0.37295900  0.03793025  0.58605864  1
  C  C20  1  0.66497225  0.62704100  0.58605864  1
  C  C21  1  0.96206975  0.62704100  0.08605864  1
  C  C22  1  0.66497225  0.03793025  0.08605864  1
  C  C23  1  0.37295900  0.33502775  0.08605864  1
  C  C24  1  0.62493576  0.67184622  0.91783328  1
  C  C25  1  0.04690945  0.37506424  0.91783328  1
  C  C26  1  0.32815378  0.95309055  0.91783328  1
  C  C27  1  0.62493576  0.95309055  0.41783328  1
  C  C28  1  0.32815378  0.37506424  0.41783328  1
  C  C29  1  0.04690945  0.67184622  0.41783328  1
  C  C30  1  0.20965189  0.02819912  0.30407861  1
  C  C31  1  0.81854723  0.79034811  0.30407861  1
  C  C32  1  0.97180088  0.18145277  0.30407861  1
  C  C33  1  0.20965189  0.18145277  0.80407861  1
  C  C34  1  0.97180088  0.79034811  0.80407861  1
  C  C35  1  0.81854723  0.02819912  0.80407861  1
  C  C36  1  0.78538428  0.96314940  0.69702611  1
  C  C37  1  0.17776512  0.21461572  0.69702611  1
  C  C38  1  0.03685060  0.82223488  0.69702611  1
  C  C39  1  0.78538428  0.82223488  0.19702611  1
  C  C40  1  0.03685060  0.21461572  0.19702611  1
  C  C41  1  0.17776512  0.96314940  0.19702611  1
  C  C42  1  0.87393947  0.36437127  0.63604095  1
  C  C43  1  0.49043279  0.12606053  0.63604095  1
  C  C44  1  0.63562873  0.50956721  0.63604095  1
  C  C45  1  0.87393947  0.50956721  0.13604095  1
  C  C46  1  0.63562873  0.12606053  0.13604095  1
  C  C47  1  0.49043279  0.36437127  0.13604095  1
  C  C48  1  0.46667164  0.30535503  0.02929164  1
  C  C49  1  0.83868438  0.53332836  0.02929164  1
  C  C50  1  0.69464497  0.16131562  0.02929164  1
  C  C51  1  0.46667164  0.16131562  0.52929164  1
  C  C52  1  0.69464497  0.53332836  0.52929164  1
  C  C53  1  0.83868438  0.30535503  0.52929164  1
  C  C54  1  0.54064787  0.69520191  0.96981966  1
  C  C55  1  0.15455304  0.45935213  0.96981966  1
  C  C56  1  0.30479809  0.84544696  0.96981966  1
  C  C57  1  0.54064787  0.84544696  0.46981966  1
  C  C58  1  0.30479809  0.45935213  0.46981966  1
  C  C59  1  0.15455304  0.69520191  0.46981966  1
  C  C60  1  0.12729498  0.63484962  0.36318569  1
  C  C61  1  0.50755364  0.87270502  0.36318569  1
  C  C62  1  0.36515038  0.49244636  0.36318569  1
  C  C63  1  0.12729498  0.49244636  0.86318569  1
  C  C64  1  0.36515038  0.87270502  0.86318569  1
  C  C65  1  0.50755364  0.63484962  0.86318569  1
  C  C66  1  0.02232013  0.82193035  0.40718068  1
  C  C67  1  0.79961023  0.97767987  0.40718068  1
  C  C68  1  0.17806965  0.20038977  0.40718068  1
  C  C69  1  0.02232013  0.20038977  0.90718068  1
  C  C70  1  0.17806965  0.97767987  0.90718068  1
  C  C71  1  0.79961023  0.82193035  0.90718068  1
  C  C72  1  0.97107534  0.17324123  0.58998240  1
  C  C73  1  0.20216588  0.02892466  0.58998240  1
  C  C74  1  0.82675877  0.79783412  0.58998240  1
  C  C75  1  0.97107534  0.79783412  0.08998240  1
  C  C76  1  0.82675877  0.02892466  0.08998240  1
  C  C77  1  0.20216588  0.17324123  0.08998240  1
  C  C78  1  0.68540602  0.15426540  0.74193663  1
  C  C79  1  0.46886039  0.31459398  0.74193663  1
  C  C80  1  0.84573460  0.53113961  0.74193663  1
  C  C81  1  0.68540602  0.53113961  0.24193663  1
  C  C82  1  0.84573460  0.31459398  0.24193663  1
  C  C83  1  0.46886039  0.15426540  0.24193663  1
  C  C84  1  0.63936000  0.50599381  0.92484960  1
  C  C85  1  0.86663481  0.36064000  0.92484960  1
  C  C86  1  0.49400619  0.13336519  0.92484960  1
  C  C87  1  0.63936000  0.13336519  0.42484960  1
  C  C88  1  0.49400619  0.36064000  0.42484960  1
  C  C89  1  0.86663481  0.50599381  0.42484960  1
  C  C90  1  0.36057782  0.49111157  0.07316413  1
  C  C91  1  0.13053275  0.63942218  0.07316413  1
  C  C92  1  0.50888843  0.86946725  0.07316413  1
  C  C93  1  0.36057782  0.86946725  0.57316413  1
  C  C94  1  0.50888843  0.63942218  0.57316413  1
  C  C95  1  0.13053275  0.49111157  0.57316413  1
  C  C96  1  0.30904597  0.83936339  0.26066880  1
  C  C97  1  0.53031641  0.69095403  0.26066880  1
  C  C98  1  0.16063661  0.46968359  0.26066880  1
  C  C99  1  0.30904597  0.46968359  0.76066880  1
  C  C100  1  0.16063661  0.69095403  0.76066880  1
  C  C101  1  0.53031641  0.83936339  0.76066880  1
