# generated using pymatgen
data_Cu3NiC37
_symmetry_space_group_name_H-M   'P 1'
_cell_length_a   9.17268884
_cell_length_b   9.16024769
_cell_length_c   22.85607526
_cell_angle_alpha   90.05245067
_cell_angle_beta   90.14962289
_cell_angle_gamma   120.04216043
_symmetry_Int_Tables_number   1
_chemical_formula_structural   Cu3NiC37
_chemical_formula_sum   'Cu9 Ni3 C111'
_cell_volume   1662.45000793
_cell_formula_units_Z   3
loop_
 _symmetry_equiv_pos_site_id
 _symmetry_equiv_pos_as_xyz
  1  'x, y, z'
loop_
 _atom_site_type_symbol
 _atom_site_label
 _atom_site_symmetry_multiplicity
 _atom_site_fract_x
 _atom_site_fract_y
 _atom_site_fract_z
 _atom_site_occupancy
  C  C0  1  0.63744759  0.01131578  0.24751226  1
  C  C1  1  0.37423417  0.36277490  0.24775759  1
  C  C2  1  0.98964499  0.62845377  0.24945293  1
  C  C3  1  0.63863482  0.62472523  0.74818017  1
  C  C4  1  0.98685105  0.36735375  0.74600076  1
  C  C5  1  0.37124682  0.00753925  0.74641219  1
  C  C6  1  0.02911838  0.69131315  0.58441597  1
  C  C7  1  0.66653988  0.97243183  0.58153023  1
  C  C8  1  0.31113952  0.97539361  0.08417134  1
  C  C9  1  0.66214124  0.69275013  0.08421118  1
  C  C10  1  0.02872518  0.33316518  0.08193843  1
  C  C11  1  0.33416794  0.30377848  0.91797935  1
  C  C12  1  0.96907267  0.28970049  0.41516194  1
  C  C13  1  0.32104207  0.03107161  0.41442557  1
  C  C14  1  0.70973223  0.67865433  0.41429973  1
  C  C15  1  0.00534997  0.00861383  0.49321564  1
  C  C16  1  0.99136100  0.99766049  0.99714300  1
  C  C17  1  0.67963796  0.34147873  0.83260412  1
  C  C18  1  0.66573238  0.33319224  0.33175403  1
  C  C19  1  0.33745340  0.66802205  0.16565125  1
  C  C20  1  0.32690357  0.65712637  0.66417309  1
  C  C21  1  0.98896668  0.98970864  0.85397233  1
  C  C22  1  0.00780934  0.00610013  0.64710790  1
  C  C23  1  0.00037498  0.00391951  0.14921533  1
  C  C24  1  0.67263172  0.33227273  0.98022407  1
  C  C25  1  0.66860616  0.33125195  0.48132160  1
  C  C26  1  0.33891756  0.66483770  0.01642752  1
  C  C27  1  0.32893616  0.65710556  0.51672290  1
  C  C28  1  0.33355667  0.66670697  0.31829237  1
  C  C29  1  0.32735816  0.66326154  0.81737307  1
  Ni  Ni30  1  0.99944483  0.99935314  0.35349358  1
  Ni  Ni31  1  0.67819577  0.34382053  0.67954264  1
  Ni  Ni32  1  0.65884665  0.32788815  0.17709929  1
  Cu  Cu33  1  0.99713676  0.70218116  0.74877670  1
  Cu  Cu34  1  0.96121729  0.33465416  0.58586706  1
  Cu  Cu35  1  0.66526507  0.04146794  0.08627186  1
  Cu  Cu36  1  0.37668514  0.33384367  0.08476198  1
  Cu  Cu37  1  0.62898094  0.66566394  0.91625498  1
  Cu  Cu38  1  0.03542287  0.36961327  0.91666877  1
  Cu  Cu39  1  0.62969166  0.96069391  0.41749710  1
  Cu  Cu40  1  0.33151107  0.36793460  0.41529111  1
  Cu  Cu41  1  0.03848307  0.66930949  0.41673906  1
  C  C42  1  0.29380572  0.00141243  0.25157305  1
  C  C43  1  0.70809008  0.70521799  0.25120283  1
  C  C44  1  0.99772599  0.29360536  0.25150747  1
  C  C45  1  0.29394849  0.29201028  0.75112426  1
  C  C46  1  0.70736306  0.00035245  0.74937055  1
  C  C47  1  0.37669314  0.04336546  0.58540728  1
  C  C48  1  0.66417018  0.62473415  0.58566699  1
  C  C49  1  0.95783691  0.62397619  0.08541914  1
  C  C50  1  0.33337566  0.96030019  0.91679655  1
  C  C51  1  0.20993140  0.02670327  0.30495964  1
  C  C52  1  0.81672600  0.78892768  0.30506372  1
  C  C53  1  0.97117216  0.18362456  0.30479970  1
  C  C54  1  0.20854899  0.18278775  0.80569884  1
  C  C55  1  0.97390695  0.80367294  0.80337211  1
  C  C56  1  0.82430955  0.02802050  0.80224617  1
  C  C57  1  0.79036654  0.96981885  0.69476809  1
  C  C58  1  0.17485772  0.20696031  0.69787784  1
  C  C59  1  0.03289038  0.82619610  0.69201099  1
  C  C60  1  0.79182228  0.81834799  0.19553312  1
  C  C61  1  0.02737078  0.20891629  0.19577882  1
  C  C62  1  0.18090848  0.97164283  0.19555623  1
  C  C63  1  0.88257136  0.36954860  0.64309801  1
  C  C64  1  0.48316265  0.12090055  0.64026595  1
  C  C65  1  0.63676758  0.52128246  0.64057819  1
  C  C66  1  0.88748384  0.51862737  0.14070349  1
  C  C67  1  0.62985818  0.11575508  0.14452349  1
  C  C68  1  0.49017864  0.37618069  0.14263888  1
  C  C69  1  0.45774823  0.29845597  0.02662666  1
  C  C70  1  0.84279932  0.54271613  0.03179473  1
  C  C71  1  0.70430515  0.16506868  0.03006521  1
  C  C72  1  0.45652036  0.14944193  0.52968209  1
  C  C73  1  0.69535044  0.54461699  0.53052381  1
  C  C74  1  0.84229374  0.30092244  0.52746092  1
  C  C75  1  0.54035773  0.69370581  0.97411974  1
  C  C76  1  0.15603100  0.45964876  0.97381942  1
  C  C77  1  0.30713348  0.85209583  0.97154747  1
  C  C78  1  0.53831980  0.84244666  0.47435699  1
  C  C79  1  0.30191773  0.46432905  0.47008473  1
  C  C80  1  0.15903032  0.69765603  0.47351632  1
  C  C81  1  0.12376360  0.62959550  0.35939836  1
  C  C82  1  0.50599978  0.87511246  0.35965782  1
  C  C83  1  0.37023877  0.49246507  0.35804477  1
  C  C84  1  0.12771712  0.48749888  0.85893578  1
  C  C85  1  0.35791632  0.87565281  0.86203307  1
  C  C86  1  0.50885548  0.63684272  0.85885520  1
  C  C87  1  0.02136279  0.83468565  0.41179946  1
  C  C88  1  0.81224808  0.97933049  0.41188279  1
  C  C89  1  0.16531627  0.18602103  0.41110334  1
  C  C90  1  0.03623741  0.19261937  0.90971588  1
  C  C91  1  0.17901255  0.98503789  0.90982067  1
  C  C92  1  0.81313383  0.83375906  0.91172439  1
  C  C93  1  0.96908553  0.15887789  0.59006000  1
  C  C94  1  0.19427573  0.01582281  0.58951874  1
  C  C95  1  0.82888648  0.80387120  0.59047808  1
  C  C96  1  0.97720101  0.80397817  0.09083741  1
  C  C97  1  0.83197559  0.01640122  0.09062636  1
  C  C98  1  0.18667304  0.16328037  0.09062532  1
  C  C99  1  0.68479090  0.15460316  0.74546163  1
  C  C100  1  0.46739465  0.30833548  0.74452600  1
  C  C101  1  0.82966962  0.51885595  0.74691690  1
  C  C102  1  0.68779901  0.52835679  0.24477115  1
  C  C103  1  0.84402658  0.31754917  0.24422264  1
  C  C104  1  0.47102230  0.15695264  0.24587573  1
  C  C105  1  0.63225862  0.49019509  0.92275838  1
  C  C106  1  0.85254859  0.35350987  0.92165062  1
  C  C107  1  0.48975135  0.13866386  0.92214806  1
  C  C108  1  0.63806589  0.14414779  0.42248457  1
  C  C109  1  0.50435060  0.35870435  0.42310796  1
  C  C110  1  0.85391099  0.49706119  0.42329009  1
  C  C111  1  0.34722742  0.49745587  0.07756933  1
  C  C112  1  0.13766185  0.64960100  0.07614855  1
  C  C113  1  0.49702549  0.85326925  0.07755340  1
  C  C114  1  0.35702330  0.86398808  0.57839650  1
  C  C115  1  0.51609515  0.65848547  0.57826762  1
  C  C116  1  0.14481129  0.50627670  0.57847354  1
  C  C117  1  0.30707570  0.83578637  0.25381558  1
  C  C118  1  0.52957351  0.69192321  0.25361135  1
  C  C119  1  0.16399476  0.47171470  0.25355477  1
  C  C120  1  0.31010599  0.47056143  0.75530067  1
  C  C121  1  0.17245366  0.69252193  0.75450335  1
  C  C122  1  0.53156494  0.83656450  0.75575567  1
