# generated using pymatgen
data_Cu3NiC
_symmetry_space_group_name_H-M   'P 1'
_cell_length_a   6.58871872
_cell_length_b   6.58871872
_cell_length_c   14.51090600
_cell_angle_alpha   90.00000000
_cell_angle_beta   90.00000000
_cell_angle_gamma   120.00000725
_symmetry_Int_Tables_number   1
_chemical_formula_structural   Cu3NiC
_chemical_formula_sum   'Cu12 Ni4 C4'
_cell_volume   545.54058347
_cell_formula_units_Z   4
loop_
 _symmetry_equiv_pos_site_id
 _symmetry_equiv_pos_as_xyz
  1  'x, y, z'
loop_
 _atom_site_type_symbol
 _atom_site_label
 _atom_site_symmetry_multiplicity
 _atom_site_fract_x
 _atom_site_fract_y
 _atom_site_fract_z
 _atom_site_occupancy
  C  C0  1  0.00000000  0.00000000  0.25000000  1
  C  C1  1  0.00000000  0.00000000  0.75000000  1
  C  C2  1  0.66666700  0.33333300  0.25000000  1
  C  C3  1  0.33333300  0.66666700  0.75000000  1
  Ni  Ni4  1  0.66666700  0.33333300  0.67128600  1
  Ni  Ni5  1  0.66666700  0.33333300  0.82871400  1
  Ni  Ni6  1  0.33333300  0.66666700  0.32871400  1
  Ni  Ni7  1  0.33333300  0.66666700  0.17128600  1
  Cu  Cu8  1  0.98188100  0.32059600  0.87306800  1
  Cu  Cu9  1  0.33871500  0.32059600  0.62693200  1
  Cu  Cu10  1  0.98188100  0.66128500  0.62693200  1
  Cu  Cu11  1  0.67940400  0.01811900  0.62693200  1
  Cu  Cu12  1  0.32059600  0.33871500  0.12693200  1
  Cu  Cu13  1  0.66128500  0.98188100  0.12693200  1
  Cu  Cu14  1  0.01811900  0.67940400  0.12693200  1
  Cu  Cu15  1  0.66128500  0.67940400  0.37306800  1
  Cu  Cu16  1  0.01811900  0.33871500  0.37306800  1
  Cu  Cu17  1  0.32059600  0.98188100  0.37306800  1
  Cu  Cu18  1  0.67940400  0.66128500  0.87306800  1
  Cu  Cu19  1  0.33871500  0.01811900  0.87306800  1
