# generated using pymatgen
data_Cu3NiC37
_symmetry_space_group_name_H-M   'P 1'
_cell_length_a   8.83616636
_cell_length_b   8.79649277
_cell_length_c   21.77753713
_cell_angle_alpha   90.65479916
_cell_angle_beta   90.19078094
_cell_angle_gamma   119.93999365
_symmetry_Int_Tables_number   1
_chemical_formula_structural   Cu3NiC37
_chemical_formula_sum   'Cu9 Ni3 C111'
_cell_volume   1466.63872674
_cell_formula_units_Z   3
loop_
 _symmetry_equiv_pos_site_id
 _symmetry_equiv_pos_as_xyz
  1  'x, y, z'
loop_
 _atom_site_type_symbol
 _atom_site_label
 _atom_site_symmetry_multiplicity
 _atom_site_fract_x
 _atom_site_fract_y
 _atom_site_fract_z
 _atom_site_occupancy
  C  C0  1  0.63810614  0.99680042  0.24061971  1
  C  C1  1  0.37733713  0.37462834  0.24027367  1
  C  C2  1  0.98377026  0.63495214  0.25592903  1
  C  C3  1  0.62445675  0.62708645  0.74101957  1
  C  C4  1  0.99492801  0.35234386  0.75046301  1
  C  C5  1  0.38580283  0.01543545  0.75782172  1
  C  C6  1  0.02001115  0.69434397  0.57490546  1
  C  C7  1  0.66520538  0.96128857  0.58437140  1
  C  C8  1  0.31700573  0.98296335  0.08061436  1
  C  C9  1  0.65239902  0.68660835  0.09019938  1
  C  C10  1  0.69394832  0.03356273  0.91580308  1
  C  C11  1  0.33105587  0.29017409  0.91688353  1
  C  C12  1  0.96638336  0.30206521  0.41282373  1
  C  C13  1  0.33601680  0.02604475  0.41646039  1
  C  C14  1  0.72378296  0.68689267  0.41620046  1
  C  C15  1  0.99409382  0.99326522  0.49970352  1
  C  C16  1  0.00808477  0.00718035  0.00197677  1
  C  C17  1  0.66017338  0.32784053  0.83316197  1
  C  C18  1  0.67491207  0.34620882  0.33189053  1
  C  C19  1  0.33940262  0.65384248  0.16071911  1
  C  C20  1  0.34997726  0.64410336  0.66587118  1
  Ni  Ni21  1  0.99099693  0.98687215  0.35617959  1
  Ni  Ni22  1  0.65430927  0.33281667  0.68771936  1
  Ni  Ni23  1  0.65565842  0.33788869  0.17712870  1
  Cu  Cu24  1  0.01525857  0.00658781  0.85039598  1
  Cu  Cu25  1  0.98402241  0.99825764  0.65108549  1
  Cu  Cu26  1  0.97935298  0.00506513  0.14270562  1
  Cu  Cu27  1  0.63139779  0.29600880  0.98703631  1
  Cu  Cu28  1  0.69193793  0.35518085  0.47866488  1
  Cu  Cu29  1  0.32900118  0.67322021  0.02089736  1
  Cu  Cu30  1  0.35378343  0.67759461  0.51612714  1
  Cu  Cu31  1  0.35009623  0.68863753  0.31769558  1
  Cu  Cu32  1  0.34916080  0.67595823  0.81213310  1
  C  C33  1  0.70301139  0.70545254  0.25120028  1
  C  C34  1  0.28318886  0.29020901  0.75172843  1
  C  C35  1  0.71245102  0.99663294  0.75380698  1
  C  C36  1  0.66403191  0.62819823  0.58319498  1
  C  C37  1  0.66498637  0.03604568  0.08251576  1
  C  C38  1  0.35220672  0.33156621  0.08213087  1
  C  C39  1  0.32015312  0.94697463  0.91668378  1
  C  C40  1  0.62937022  0.97275881  0.41918766  1
  C  C41  1  0.05725863  0.66611404  0.41828867  1
  C  C42  1  0.28687866  0.99483338  0.25129558  1
  C  C43  1  0.00734613  0.29411682  0.25073532  1
  C  C44  1  0.00589477  0.71717122  0.74953060  1
  C  C45  1  0.96432460  0.33447000  0.58385892  1
  C  C46  1  0.36978375  0.04094287  0.58318910  1
  C  C47  1  0.95427654  0.61645451  0.08195383  1
  C  C48  1  0.62731959  0.66488303  0.91680799  1
  C  C49  1  0.04389801  0.38701773  0.91530001  1
  C  C50  1  0.34143202  0.38647517  0.41627722  1
  C  C51  1  0.21027420  0.02192601  0.30775960  1
  C  C52  1  0.81716977  0.78526687  0.31360811  1
  C  C53  1  0.99263223  0.19778419  0.30774175  1
  C  C54  1  0.20053419  0.17369392  0.81362234  1
  C  C55  1  0.97892920  0.80244749  0.80422739  1
  C  C56  1  0.83480633  0.01688083  0.81386096  1
  C  C57  1  0.79118711  0.95912457  0.69065870  1
  C  C58  1  0.15076667  0.18702253  0.69345635  1
  C  C59  1  0.03008119  0.82066313  0.69264848  1
  C  C60  1  0.80442260  0.83673539  0.19202446  1
  C  C61  1  0.02822627  0.20189974  0.19631708  1
  C  C62  1  0.18049661  0.97566867  0.19562711  1
  C  C63  1  0.88260370  0.35843573  0.63933711  1
  C  C64  1  0.47797003  0.11712114  0.63891551  1
  C  C65  1  0.64569834  0.52389797  0.64522434  1
  C  C66  1  0.88764134  0.52543309  0.14064825  1
  C  C67  1  0.62925433  0.11879426  0.14408371  1
  C  C68  1  0.48310021  0.39049997  0.14180422  1
  C  C69  1  0.44952478  0.29259516  0.02379362  1
  C  C70  1  0.83318522  0.52377024  0.02917616  1
  C  C71  1  0.69330965  0.15373798  0.02111859  1
  C  C72  1  0.45555927  0.14489704  0.52746517  1
  C  C73  1  0.70025218  0.53099950  0.52362798  1
  C  C74  1  0.85172746  0.30894877  0.52760715  1
  C  C75  1  0.54017651  0.69121768  0.97098082  1
  C  C76  1  0.15990786  0.47700098  0.96865199  1
  C  C77  1  0.30419363  0.83470058  0.97769946  1
  C  C78  1  0.53714687  0.84166797  0.47676241  1
  C  C79  1  0.31299687  0.46733401  0.47160431  1
  C  C80  1  0.16962387  0.67547323  0.47957647  1
  C  C81  1  0.14481449  0.63169326  0.35627127  1
  C  C82  1  0.50544069  0.88595040  0.35748689  1
  C  C83  1  0.36911120  0.49398403  0.36014568  1
  C  C84  1  0.12705231  0.48083786  0.85715554  1
  C  C85  1  0.35777032  0.85413639  0.85692346  1
  C  C86  1  0.51546356  0.63252085  0.85982994  1
  C  C87  1  0.04229528  0.84363618  0.41821719  1
  C  C88  1  0.82549912  0.00231448  0.41569836  1
  C  C89  1  0.18575169  0.20919950  0.41004984  1
  C  C90  1  0.02234751  0.20373451  0.91467980  1
  C  C91  1  0.15114703  0.97801504  0.91020507  1
  C  C92  1  0.80103312  0.82639635  0.91164463  1
  C  C93  1  0.97432486  0.16969559  0.58562280  1
  C  C94  1  0.19128623  0.01903978  0.58811380  1
  C  C95  1  0.84863075  0.82888707  0.58809409  1
  C  C96  1  0.97539647  0.79766656  0.08595078  1
  C  C97  1  0.83045391  0.00166339  0.08566929  1
  C  C98  1  0.17130283  0.14420415  0.09429535  1
  C  C99  1  0.69555757  0.17249729  0.74853756  1
  C  C100  1  0.47838020  0.31587336  0.74890013  1
  C  C101  1  0.85208291  0.53815722  0.74611015  1
  C  C102  1  0.68129456  0.50883693  0.24555221  1
  C  C103  1  0.84928554  0.31285602  0.24598143  1
  C  C104  1  0.46778245  0.14734313  0.24814783  1
  C  C105  1  0.64493412  0.50556662  0.92258382  1
  C  C106  1  0.86705805  0.36768952  0.91962929  1
  C  C107  1  0.50282653  0.14935579  0.92057719  1
  C  C108  1  0.63681732  0.16375435  0.42861382  1
  C  C109  1  0.50022455  0.36742665  0.42180082  1
  C  C110  1  0.85684225  0.49375059  0.42116205  1
  C  C111  1  0.33416378  0.50224216  0.06655777  1
  C  C112  1  0.13196075  0.63937883  0.07454375  1
  C  C113  1  0.48910753  0.83957144  0.07490378  1
  C  C114  1  0.34762672  0.85803010  0.57835035  1
  C  C115  1  0.49260942  0.65500067  0.57419045  1
  C  C116  1  0.14041793  0.49162185  0.57816635  1
  C  C117  1  0.29498873  0.82676223  0.25352568  1
  C  C118  1  0.50443269  0.68908793  0.25758873  1
  C  C119  1  0.16844039  0.47262880  0.25159524  1
  C  C120  1  0.29707596  0.48580929  0.75912793  1
  C  C121  1  0.16685394  0.70177759  0.75453311  1
  C  C122  1  0.51570739  0.82039834  0.75713750  1
