# generated using pymatgen
data_Cu4NiC40
_symmetry_space_group_name_H-M   'P 1'
_cell_length_a   8.04670442
_cell_length_b   8.98948665
_cell_length_c   8.98948665
_cell_angle_alpha   90.40637318
_cell_angle_beta   89.97728524
_cell_angle_gamma   90.02271476
_symmetry_Int_Tables_number   1
_chemical_formula_structural   Cu4NiC40
_chemical_formula_sum   'Cu4 Ni1 C40'
_cell_volume   650.24473001
_cell_formula_units_Z   1
loop_
 _symmetry_equiv_pos_site_id
 _symmetry_equiv_pos_as_xyz
  1  'x, y, z'
loop_
 _atom_site_type_symbol
 _atom_site_label
 _atom_site_symmetry_multiplicity
 _atom_site_fract_x
 _atom_site_fract_y
 _atom_site_fract_z
 _atom_site_occupancy
  C  C0  1  0.99544800  0.66867200  0.21659500  1
  C  C1  1  0.99678100  0.87210800  0.62789200  1
  C  C2  1  0.99544800  0.28340500  0.83132800  1
  C  C3  1  0.99471000  0.18381700  0.31618300  1
  Ni  Ni4  1  0.99297900  0.66186400  0.83813600  1
  Cu  Cu5  1  0.74460500  0.49941400  0.50235100  1
  Cu  Cu6  1  0.24161600  0.49917800  0.50307700  1
  Cu  Cu7  1  0.74460500  0.99764900  0.00058600  1
  Cu  Cu8  1  0.24161600  0.99692300  0.00082200  1
  C  C9  1  0.69221500  0.37363900  0.12636100  1
  C  C10  1  0.29531300  0.61557800  0.88442200  1
  C  C11  1  0.29755800  0.87876300  0.37498200  1
  C  C12  1  0.29755800  0.12501800  0.62123700  1
  C  C13  1  0.69496000  0.12524000  0.62096800  1
  C  C14  1  0.69496000  0.87903200  0.37476000  1
  C  C15  1  0.69131000  0.61643800  0.88356200  1
  C  C16  1  0.29756200  0.37281000  0.12719000  1
  C  C17  1  0.76221700  0.72062100  0.43661300  1
  C  C18  1  0.19654000  0.76920000  0.92676500  1
  C  C19  1  0.75734600  0.21108800  0.07722900  1
  C  C20  1  0.75734600  0.42277100  0.28891200  1
  C  C21  1  0.22563500  0.28960300  0.58702600  1
  C  C22  1  0.76221700  0.06338700  0.77937900  1
  C  C23  1  0.23302200  0.42169200  0.28998800  1
  C  C24  1  0.49620200  0.12071900  0.61181800  1
  C  C25  1  0.22987600  0.06232700  0.77931500  1
  C  C26  1  0.49481400  0.39221800  0.10778200  1
  C  C27  1  0.76882300  0.49596400  0.00403600  1
  C  C28  1  0.21976200  0.49469000  0.00531000  1
  C  C29  1  0.49620200  0.88818200  0.37928100  1
  C  C30  1  0.76815100  0.01237800  0.48762200  1
  C  C31  1  0.49324000  0.62364800  0.87635200  1
  C  C32  1  0.78970400  0.77036100  0.92574100  1
  C  C33  1  0.23302200  0.21001200  0.07830800  1
  C  C34  1  0.22987600  0.72068500  0.43767300  1
  C  C35  1  0.22563500  0.91297400  0.21039700  1
  C  C36  1  0.22463200  0.01288500  0.48711500  1
  C  C37  1  0.49644200  0.50302300  0.51342400  1
  C  C38  1  0.99564500  0.50346600  0.49534300  1
  C  C39  1  0.19654000  0.57323500  0.73080000  1
  C  C40  1  0.76684000  0.91448900  0.21037500  1
  C  C41  1  0.49644200  0.98657600  0.99697700  1
  C  C42  1  0.78970400  0.57425900  0.72963900  1
  C  C43  1  0.99564500  0.00465700  0.99653400  1
  C  C44  1  0.76684000  0.28962500  0.58551100  1
