# generated using pymatgen
data_Cu2NiC8
_symmetry_space_group_name_H-M   'P 1'
_cell_length_a   5.81528340
_cell_length_b   5.81528357
_cell_length_c   5.81528359
_cell_angle_alpha   52.39343278
_cell_angle_beta   52.39343750
_cell_angle_gamma   52.39343647
_symmetry_Int_Tables_number   1
_chemical_formula_structural   Cu2NiC8
_chemical_formula_sum   'Cu2 Ni1 C8'
_cell_volume   114.21867440
_cell_formula_units_Z   1
loop_
 _symmetry_equiv_pos_site_id
 _symmetry_equiv_pos_as_xyz
  1  'x, y, z'
loop_
 _atom_site_type_symbol
 _atom_site_label
 _atom_site_symmetry_multiplicity
 _atom_site_fract_x
 _atom_site_fract_y
 _atom_site_fract_z
 _atom_site_occupancy
  Ni  Ni0  1  0.00000000  0.00000000  0.00000000  1
  Cu  Cu1  1  0.82707500  0.82707400  0.82707600  1
  Cu  Cu2  1  0.17292500  0.17292400  0.17292500  1
  C  C3  1  0.64432200  0.64432200  0.64432100  1
  C  C4  1  0.35567900  0.35567900  0.35567800  1
  C  C5  1  0.77210900  0.41591100  0.05556100  1
  C  C6  1  0.41591100  0.05556100  0.77211100  1
  C  C7  1  0.05556100  0.77211100  0.41591000  1
  C  C8  1  0.22789000  0.58409000  0.94443900  1
  C  C9  1  0.94443800  0.22789000  0.58409000  1
  C  C10  1  0.58409000  0.94444000  0.22788800  1
