# generated using pymatgen
data_Cu2NiC6
_symmetry_space_group_name_H-M   'P 1'
_cell_length_a   7.07759120
_cell_length_b   7.07759120
_cell_length_c   3.90451300
_cell_angle_alpha   90.00000000
_cell_angle_beta   90.00000000
_cell_angle_gamma   28.33761924
_symmetry_Int_Tables_number   1
_chemical_formula_structural   Cu2NiC6
_chemical_formula_sum   'Cu2 Ni1 C6'
_cell_volume   92.83807766
_cell_formula_units_Z   1
loop_
 _symmetry_equiv_pos_site_id
 _symmetry_equiv_pos_as_xyz
  1  'x, y, z'
loop_
 _atom_site_type_symbol
 _atom_site_label
 _atom_site_symmetry_multiplicity
 _atom_site_fract_x
 _atom_site_fract_y
 _atom_site_fract_z
 _atom_site_occupancy
  Ni  Ni0  1  0.10243700  0.10243700  0.25000000  1
  Cu  Cu1  1  0.35504900  0.35504900  0.25000000  1
  Cu  Cu2  1  0.72116900  0.72116900  0.75000000  1
  C  C3  1  0.98590700  0.98590700  0.54148500  1
  C  C4  1  0.98590700  0.98590700  0.95851500  1
  C  C5  1  0.66943200  0.66943200  0.25000000  1
  C  C6  1  0.29993700  0.29993700  0.75000000  1
  C  C7  1  0.93933000  0.93933000  0.25000000  1
  C  C8  1  0.04499900  0.04499900  0.75000000  1
