# generated using pymatgen
data_Cu9(NiC2)2
_symmetry_space_group_name_H-M   'P 1'
_cell_length_a   8.41444700
_cell_length_b   10.36662500
_cell_length_c   10.77969166
_cell_angle_alpha   62.23495993
_cell_angle_beta   90.00000000
_cell_angle_gamma   90.00000000
_symmetry_Int_Tables_number   1
_chemical_formula_structural   Cu9(NiC2)2
_chemical_formula_sum   'Cu36 Ni8 C16'
_cell_volume   832.04441997
_cell_formula_units_Z   4
loop_
 _symmetry_equiv_pos_site_id
 _symmetry_equiv_pos_as_xyz
  1  'x, y, z'
loop_
 _atom_site_type_symbol
 _atom_site_label
 _atom_site_symmetry_multiplicity
 _atom_site_fract_x
 _atom_site_fract_y
 _atom_site_fract_z
 _atom_site_occupancy
  C  C0  1  0.18799400  0.23251700  0.28274500  1
  C  C1  1  0.68799400  0.76748300  0.21725500  1
  C  C2  1  0.81200600  0.76748300  0.71725500  1
  C  C3  1  0.31200600  0.23251700  0.78274500  1
  C  C4  1  0.64968700  0.25033400  0.47581800  1
  C  C5  1  0.14968700  0.74966600  0.02418200  1
  C  C6  1  0.35031300  0.74966600  0.52418200  1
  C  C7  1  0.85031300  0.25033400  0.97581800  1
  C  C8  1  0.96990600  0.19734800  0.57656400  1
  C  C9  1  0.46990600  0.80265200  0.92343600  1
  C  C10  1  0.03009400  0.80265200  0.42343600  1
  C  C11  1  0.53009400  0.19734800  0.07656400  1
  C  C12  1  0.00600600  0.35886600  0.47331300  1
  C  C13  1  0.50600600  0.64113400  0.02668700  1
  C  C14  1  0.99399400  0.64113400  0.52668700  1
  C  C15  1  0.49399400  0.35886600  0.97331300  1
  Ni  Ni16  1  0.79886700  0.49354400  0.12287000  1
  Ni  Ni17  1  0.29886700  0.50645600  0.37713000  1
  Ni  Ni18  1  0.20113300  0.50645600  0.87713000  1
  Ni  Ni19  1  0.70113300  0.49354400  0.62287000  1
  Ni  Ni20  1  0.64824700  0.04746600  0.33612600  1
  Ni  Ni21  1  0.14824700  0.95253400  0.16387400  1
  Ni  Ni22  1  0.35175300  0.95253400  0.66387400  1
  Ni  Ni23  1  0.85175300  0.04746600  0.83612600  1
  Cu  Cu24  1  0.94170700  0.27376900  0.48316600  1
  Cu  Cu25  1  0.44170700  0.72623100  0.01683400  1
  Cu  Cu26  1  0.05829300  0.72623100  0.51683400  1
  Cu  Cu27  1  0.55829300  0.27376900  0.98316600  1
  Cu  Cu28  1  0.67995700  0.55649700  0.00968200  1
  Cu  Cu29  1  0.17995700  0.44350300  0.49031800  1
  Cu  Cu30  1  0.87843900  0.36599200  0.11915100  1
  Cu  Cu31  1  0.32004300  0.44350300  0.99031800  1
  Cu  Cu32  1  0.96478500  0.17038100  0.80429000  1
  Cu  Cu33  1  0.46478500  0.82961900  0.69571000  1
  Cu  Cu34  1  0.03521500  0.82961900  0.19571000  1
  Cu  Cu35  1  0.53521500  0.17038100  0.30429000  1
  Cu  Cu36  1  0.93680300  0.90526800  0.89408200  1
  Cu  Cu37  1  0.43680300  0.09473200  0.60591800  1
  Cu  Cu38  1  0.06319700  0.09473200  0.10591800  1
  Cu  Cu39  1  0.56319700  0.90526800  0.39408200  1
  Cu  Cu40  1  0.76731700  0.06671300  0.70781500  1
  Cu  Cu41  1  0.26731700  0.93328700  0.79218500  1
  Cu  Cu42  1  0.23268300  0.93328700  0.29218500  1
  Cu  Cu43  1  0.73268300  0.06671300  0.20781500  1
  Cu  Cu44  1  0.73876200  0.04855300  0.94311300  1
  Cu  Cu45  1  0.23876200  0.95144700  0.55688700  1
  Cu  Cu46  1  0.26123800  0.95144700  0.05688700  1
  Cu  Cu47  1  0.76123800  0.04855300  0.44311300  1
  Cu  Cu48  1  0.58112300  0.60500400  0.60819800  1
  Cu  Cu49  1  0.08112300  0.39499600  0.89180200  1
  Cu  Cu50  1  0.41887700  0.39499600  0.39180200  1
  Cu  Cu51  1  0.91887700  0.60500400  0.10819800  1
  Cu  Cu52  1  0.77786000  0.44387000  0.76273600  1
  Cu  Cu53  1  0.27786000  0.55613000  0.73726400  1
  Cu  Cu54  1  0.22214000  0.55613000  0.23726400  1
  Cu  Cu55  1  0.72214000  0.44387000  0.26273600  1
  Cu  Cu56  1  0.62156100  0.36599200  0.61915100  1
  Cu  Cu57  1  0.12156100  0.63400800  0.88084900  1
  Cu  Cu58  1  0.37843900  0.63400800  0.38084900  1
  Cu  Cu59  1  0.82004300  0.55649700  0.50968200  1
