# generated using pymatgen
data_Cu3NiC9
_symmetry_space_group_name_H-M   'P 1'
_cell_length_a   3.87707200
_cell_length_b   3.88593900
_cell_length_c   9.81244800
_cell_angle_alpha   90.00000000
_cell_angle_beta   90.00000000
_cell_angle_gamma   90.00000000
_symmetry_Int_Tables_number   1
_chemical_formula_structural   Cu3NiC9
_chemical_formula_sum   'Cu3 Ni1 C9'
_cell_volume   147.83498223
_cell_formula_units_Z   1
loop_
 _symmetry_equiv_pos_site_id
 _symmetry_equiv_pos_as_xyz
  1  'x, y, z'
loop_
 _atom_site_type_symbol
 _atom_site_label
 _atom_site_symmetry_multiplicity
 _atom_site_fract_x
 _atom_site_fract_y
 _atom_site_fract_z
 _atom_site_occupancy
  Ni  Ni0  1  0.50000000  0.00000000  0.33951700  1
  Cu  Cu1  1  0.00000000  0.00000000  0.98521600  1
  Cu  Cu2  1  0.00000000  0.50000000  0.23832100  1
  Cu  Cu3  1  0.50000000  0.00000000  0.74986300  1
  C  C4  1  0.50000000  0.49999900  0.53674700  1
  C  C5  1  0.00000000  0.00000000  0.21887700  1
  C  C6  1  0.50000000  0.50000000  0.73740900  1
  C  C7  1  0.00000000  0.50000000  0.42963100  1
  C  C8  1  0.50000000  0.00000000  0.96036000  1
  C  C9  1  0.50000000  0.00000000  0.54861300  1
  C  C10  1  0.00000000  0.50000000  0.03290300  1
  C  C11  1  0.50000000  0.50000000  0.25508000  1
  C  C12  1  0.00000000  0.00000000  0.79385500  1
