# generated using pymatgen
data_CuNi3C31
_symmetry_space_group_name_H-M   'P 1'
_cell_length_a   8.63086561
_cell_length_b   8.63086535
_cell_length_c   22.52903463
_cell_angle_alpha   90.00000000
_cell_angle_beta   90.00000000
_cell_angle_gamma   120.00000104
_symmetry_Int_Tables_number   1
_chemical_formula_structural   CuNi3C31
_chemical_formula_sum   'Cu3 Ni9 C93'
_cell_volume   1453.38912152
_cell_formula_units_Z   3
loop_
 _symmetry_equiv_pos_site_id
 _symmetry_equiv_pos_as_xyz
  1  'x, y, z'
loop_
 _atom_site_type_symbol
 _atom_site_label
 _atom_site_symmetry_multiplicity
 _atom_site_fract_x
 _atom_site_fract_y
 _atom_site_fract_z
 _atom_site_occupancy
  C  C0  1  -0.00000000  -0.00000000  0.99673010  1
  C  C1  1  0.66666700  0.33333300  0.83420300  1
  C  C2  1  0.66666700  0.33333300  0.33282471  1
  Ni  Ni3  1  -0.00000000  -0.00000000  0.35777561  1
  Ni  Ni4  1  -0.00000000  -0.00000000  0.85530573  1
  Ni  Ni5  1  0.66666700  0.33333300  0.68956647  1
  Ni  Ni6  1  0.66666700  0.33333300  0.18669247  1
  Ni  Ni7  1  0.66666700  0.33333300  0.97710490  1
  Ni  Ni8  1  0.66666700  0.33333300  0.47691834  1
  Ni  Ni9  1  0.33333300  0.66666700  0.02209584  1
  Ni  Ni10  1  0.33333300  0.66666700  0.30904729  1
  Ni  Ni11  1  0.33333300  0.66666700  0.81122216  1
  Cu  Cu12  1  -0.00000000  -0.00000000  0.64390779  1
  Cu  Cu13  1  -0.00000000  -0.00000000  0.14596154  1
  Cu  Cu14  1  0.33333300  0.66666700  0.52245272  1
  C  C15  1  0.28949268  0.00170781  0.25234413  1
  C  C16  1  0.71221513  0.71050732  0.25234413  1
  C  C17  1  0.99829219  0.28778487  0.25234413  1
  C  C18  1  0.28835800  0.28870286  0.75162829  1
  C  C19  1  0.00034486  0.71164200  0.75162829  1
  C  C20  1  0.71129714  0.99965514  0.75162829  1
  C  C21  1  0.94538117  0.33357657  0.58332264  1
  C  C22  1  0.38819639  0.05461883  0.58332264  1
  C  C23  1  0.66642343  0.61180361  0.58332264  1
  C  C24  1  0.95224640  0.61416611  0.08212055  1
  C  C25  1  0.66192070  0.04775360  0.08212055  1
  C  C26  1  0.38583389  0.33807930  0.08212055  1
  C  C27  1  0.61785399  0.66686054  0.91663338  1
  C  C28  1  0.04900555  0.38214601  0.91663338  1
  C  C29  1  0.33313946  0.95099445  0.91663338  1
  C  C30  1  0.62016754  0.95423761  0.41467459  1
  C  C31  1  0.33406907  0.37983246  0.41467459  1
  C  C32  1  0.04576239  0.66593093  0.41467459  1
  C  C33  1  0.20074827  0.03329643  0.30617555  1
  C  C34  1  0.83254816  0.79925173  0.30617555  1
  C  C35  1  0.96670357  0.16745184  0.30617555  1
  C  C36  1  0.20055178  0.16711744  0.80598036  1
  C  C37  1  0.96656566  0.79944822  0.80598036  1
  C  C38  1  0.83288256  0.03343434  0.80598036  1
  C  C39  1  0.79871433  0.97165906  0.69503611  1
  C  C40  1  0.17294473  0.20128567  0.69503611  1
  C  C41  1  0.02834094  0.82705527  0.69503611  1
  C  C42  1  0.79835579  0.82734521  0.19526809  1
  C  C43  1  0.02898942  0.20164421  0.19526809  1
  C  C44  1  0.17265479  0.97101058  0.19526809  1
  C  C45  1  0.86322794  0.36397839  0.63923789  1
  C  C46  1  0.50075145  0.13677206  0.63923789  1
  C  C47  1  0.63602161  0.49924855  0.63923789  1
  C  C48  1  0.86538066  0.50299111  0.13875979  1
  C  C49  1  0.63761144  0.13461934  0.13875979  1
  C  C50  1  0.49700889  0.36238856  0.13875979  1
  C  C51  1  0.46897083  0.30182931  0.02715697  1
  C  C52  1  0.83285948  0.53102917  0.02715697  1
  C  C53  1  0.69817069  0.16714052  0.02715697  1
  C  C54  1  0.47009333  0.16746058  0.52745045  1
  C  C55  1  0.69736824  0.52990667  0.52745045  1
  C  C56  1  0.83253942  0.30263176  0.52745045  1
  C  C57  1  0.53381513  0.69683360  0.97253364  1
  C  C58  1  0.16301746  0.46618487  0.97253364  1
  C  C59  1  0.30316640  0.83698254  0.97253364  1
  C  C60  1  0.53509326  0.83963934  0.47164269  1
  C  C61  1  0.30454508  0.46490674  0.47164269  1
  C  C62  1  0.16036066  0.69545492  0.47164269  1
  C  C63  1  0.13210897  0.63260969  0.36057335  1
  C  C64  1  0.50049972  0.86789103  0.36057335  1
  C  C65  1  0.36739031  0.49950028  0.36057335  1
  C  C66  1  0.13293935  0.49649074  0.86082353  1
  C  C67  1  0.36355039  0.86706065  0.86082353  1
  C  C68  1  0.50350926  0.63644961  0.86082353  1
  C  C69  1  0.02622196  0.83165571  0.40643682  1
  C  C70  1  0.80543375  0.97377804  0.40643682  1
  C  C71  1  0.16834429  0.19456625  0.40643682  1
  C  C72  1  0.02688091  0.19293983  0.90914135  1
  C  C73  1  0.16605893  0.97311909  0.90914135  1
  C  C74  1  0.80706017  0.83394107  0.90914135  1
  C  C75  1  0.96983538  0.16908335  0.59234067  1
  C  C76  1  0.19924797  0.03016462  0.59234067  1
  C  C77  1  0.83091665  0.80075203  0.59234067  1
  C  C78  1  0.97246801  0.80421653  0.09024712  1
  C  C79  1  0.83174853  0.02753199  0.09024712  1
  C  C80  1  0.19578347  0.16825147  0.09024712  1
  C  C81  1  0.69322378  0.16772850  0.74273586  1
  C  C82  1  0.47450573  0.30677622  0.74273586  1
  C  C83  1  0.83227150  0.52549427  0.74273586  1
  C  C84  1  0.69198817  0.52416697  0.24283326  1
  C  C85  1  0.83217979  0.30801183  0.24283326  1
  C  C86  1  0.47583303  0.16782021  0.24283326  1
  C  C87  1  0.63990831  0.49984770  0.92405804  1
  C  C88  1  0.85994039  0.36009169  0.92405804  1
  C  C89  1  0.50015230  0.14005961  0.92405804  1
  C  C90  1  0.64099179  0.14146941  0.42403051  1
  C  C91  1  0.50047863  0.35900821  0.42403051  1
  C  C92  1  0.85853059  0.49952137  0.42403051  1
  C  C93  1  0.36246637  0.50031042  0.07342357  1
  C  C94  1  0.13784304  0.63753363  0.07342357  1
  C  C95  1  0.49968958  0.86215696  0.07342357  1
  C  C96  1  0.36348509  0.86575157  0.57437877  1
  C  C97  1  0.50226548  0.63651491  0.57437877  1
  C  C98  1  0.13424843  0.49773452  0.57437877  1
  C  C99  1  0.30661704  0.83475328  0.26043224  1
  C  C100  1  0.52813524  0.69338296  0.26043224  1
  C  C101  1  0.16524672  0.47186476  0.26043224  1
  C  C102  1  0.30719723  0.47262066  0.76019891  1
  C  C103  1  0.16542244  0.69280277  0.76019891  1
  C  C104  1  0.52737934  0.83457756  0.76019891  1
