# generated using pymatgen
data_Cu3NiC31
_symmetry_space_group_name_H-M   'P 1'
_cell_length_a   8.62416313
_cell_length_b   8.62416287
_cell_length_c   22.41854977
_cell_angle_alpha   90.00000000
_cell_angle_beta   90.00000000
_cell_angle_gamma   120.00000105
_symmetry_Int_Tables_number   1
_chemical_formula_structural   Cu3NiC31
_chemical_formula_sum   'Cu9 Ni3 C93'
_cell_volume   1444.01616383
_cell_formula_units_Z   3
loop_
 _symmetry_equiv_pos_site_id
 _symmetry_equiv_pos_as_xyz
  1  'x, y, z'
loop_
 _atom_site_type_symbol
 _atom_site_label
 _atom_site_symmetry_multiplicity
 _atom_site_fract_x
 _atom_site_fract_y
 _atom_site_fract_z
 _atom_site_occupancy
  C  C0  1  0.00000000  0.00000000  0.99717018  1
  C  C1  1  0.66666700  0.33333300  0.83393708  1
  C  C2  1  0.66666700  0.33333300  0.33296976  1
  Ni  Ni3  1  0.00000000  0.00000000  0.64438462  1
  Ni  Ni4  1  0.00000000  0.00000000  0.14629468  1
  Ni  Ni5  1  0.33333300  0.66666700  0.52199579  1
  Cu  Cu6  1  0.00000000  0.00000000  0.35717883  1
  Cu  Cu7  1  0.00000000  0.00000000  0.85459957  1
  Cu  Cu8  1  0.66666700  0.33333300  0.68848251  1
  Cu  Cu9  1  0.66666700  0.33333300  0.18660464  1
  Cu  Cu10  1  0.66666700  0.33333300  0.97813399  1
  Cu  Cu11  1  0.66666700  0.33333300  0.47792476  1
  Cu  Cu12  1  0.33333300  0.66666700  0.02199128  1
  Cu  Cu13  1  0.33333300  0.66666700  0.30944921  1
  Cu  Cu14  1  0.33333300  0.66666700  0.81124235  1
  C  C15  1  0.28970916  0.00104633  0.25200934  1
  C  C16  1  0.71133716  0.71029084  0.25200934  1
  C  C17  1  0.99895367  0.28866284  0.25200934  1
  C  C18  1  0.28885971  0.28931553  0.75133007  1
  C  C19  1  0.00045581  0.71114029  0.75133007  1
  C  C20  1  0.71068447  0.99954419  0.75133007  1
  C  C21  1  0.94773979  0.33348895  0.58328372  1
  C  C22  1  0.38575016  0.05226021  0.58328372  1
  C  C23  1  0.66651105  0.61424984  0.58328372  1
  C  C24  1  0.95313166  0.61556056  0.08256409  1
  C  C25  1  0.66242990  0.04686834  0.08256409  1
  C  C26  1  0.38443944  0.33757010  0.08256409  1
  C  C27  1  0.61876857  0.66672368  0.91662018  1
  C  C28  1  0.04795411  0.38123143  0.91662018  1
  C  C29  1  0.33327632  0.95204589  0.91662018  1
  C  C30  1  0.62124177  0.95478042  0.41494358  1
  C  C31  1  0.33353765  0.37875823  0.41494358  1
  C  C32  1  0.04521958  0.66646235  0.41494358  1
  C  C33  1  0.20088622  0.03314798  0.30581375  1
  C  C34  1  0.83226176  0.79911378  0.30581375  1
  C  C35  1  0.96685202  0.16773824  0.30581375  1
  C  C36  1  0.20093790  0.16764628  0.80562628  1
  C  C37  1  0.96670838  0.79906210  0.80562628  1
  C  C38  1  0.83235372  0.03329162  0.80562628  1
  C  C39  1  0.79938249  0.97115665  0.69489655  1
  C  C40  1  0.17177416  0.20061751  0.69489655  1
  C  C41  1  0.02884335  0.82822584  0.69489655  1
  C  C42  1  0.79874713  0.82819468  0.19505103  1
  C  C43  1  0.02944755  0.20125287  0.19505103  1
  C  C44  1  0.17180532  0.97055245  0.19505103  1
  C  C45  1  0.86576540  0.36494881  0.63917850  1
  C  C46  1  0.49918441  0.13423460  0.63917850  1
  C  C47  1  0.63505119  0.50081559  0.63917850  1
  C  C48  1  0.86620796  0.50376252  0.13887343  1
  C  C49  1  0.63755556  0.13379204  0.13887343  1
  C  C50  1  0.49623748  0.36244444  0.13887343  1
  C  C51  1  0.46621236  0.30003950  0.02742422  1
  C  C52  1  0.83382814  0.53378764  0.02742422  1
  C  C53  1  0.69996050  0.16617186  0.02742422  1
  C  C54  1  0.46745840  0.16582951  0.52755224  1
  C  C55  1  0.69837211  0.53254160  0.52755224  1
  C  C56  1  0.83417049  0.30162789  0.52755224  1
  C  C57  1  0.53451338  0.69758369  0.97259539  1
  C  C58  1  0.16306931  0.46548662  0.97259539  1
  C  C59  1  0.30241631  0.83693069  0.97259539  1
  C  C60  1  0.53434648  0.83850327  0.47185270  1
  C  C61  1  0.30415579  0.46565352  0.47185270  1
  C  C62  1  0.16149673  0.69584421  0.47185270  1
  C  C63  1  0.13197085  0.63295362  0.36092329  1
  C  C64  1  0.50098177  0.86802915  0.36092329  1
  C  C65  1  0.36704638  0.49901823  0.36092329  1
  C  C66  1  0.13219570  0.49650728  0.86074832  1
  C  C67  1  0.36431059  0.86780430  0.86074832  1
  C  C68  1  0.50349272  0.63568941  0.86074832  1
  C  C69  1  0.02616278  0.83229004  0.40695913  1
  C  C70  1  0.80612726  0.97383722  0.40695913  1
  C  C71  1  0.16770996  0.19387274  0.40695913  1
  C  C72  1  0.02577452  0.19218032  0.90886403  1
  C  C73  1  0.16640580  0.97422548  0.90886403  1
  C  C74  1  0.80781968  0.83359420  0.90886403  1
  C  C75  1  0.97298834  0.16956953  0.59283249  1
  C  C76  1  0.19658120  0.02701166  0.59283249  1
  C  C77  1  0.83043047  0.80341880  0.59283249  1
  C  C78  1  0.97347328  0.80576060  0.09108020  1
  C  C79  1  0.83228731  0.02652672  0.09108020  1
  C  C80  1  0.19423940  0.16771269  0.09108020  1
  C  C81  1  0.69299969  0.16761314  0.74197889  1
  C  C82  1  0.47461445  0.30700031  0.74197889  1
  C  C83  1  0.83238686  0.52538555  0.74197889  1
  C  C84  1  0.69208834  0.52470132  0.24213568  1
  C  C85  1  0.83261398  0.30791166  0.24213568  1
  C  C86  1  0.47529868  0.16738602  0.24213568  1
  C  C87  1  0.64087329  0.49991366  0.92445406  1
  C  C88  1  0.85904137  0.35912671  0.92445406  1
  C  C89  1  0.50008634  0.14095863  0.92445406  1
  C  C90  1  0.64101581  0.14145310  0.42479923  1
  C  C91  1  0.50043829  0.35898419  0.42479923  1
  C  C92  1  0.85854690  0.49956171  0.42479923  1
  C  C93  1  0.35960907  0.49927812  0.07352812  1
  C  C94  1  0.13966806  0.64039093  0.07352812  1
  C  C95  1  0.50072188  0.86033194  0.07352812  1
  C  C96  1  0.36032496  0.86309981  0.57392057  1
  C  C97  1  0.50277385  0.63967504  0.57392057  1
  C  C98  1  0.13690019  0.49722615  0.57392057  1
  C  C99  1  0.30679430  0.83392990  0.25991187  1
  C  C100  1  0.52713460  0.69320570  0.25991187  1
  C  C101  1  0.16607010  0.47286540  0.25991187  1
  C  C102  1  0.30715793  0.47315256  0.75968463  1
  C  C103  1  0.16599363  0.69284207  0.75968463  1
  C  C104  1  0.52684744  0.83400637  0.75968463  1
