# generated using pymatgen
data_Cu12NiC10
_symmetry_space_group_name_H-M   'P 1'
_cell_length_a   6.02948167
_cell_length_b   6.02948167
_cell_length_c   6.02948078
_cell_angle_alpha   97.22771402
_cell_angle_beta   97.22771402
_cell_angle_gamma   97.22770941
_symmetry_Int_Tables_number   1
_chemical_formula_structural   Cu12NiC10
_chemical_formula_sum   'Cu12 Ni1 C10'
_cell_volume   213.48406481
_cell_formula_units_Z   1
loop_
 _symmetry_equiv_pos_site_id
 _symmetry_equiv_pos_as_xyz
  1  'x, y, z'
loop_
 _atom_site_type_symbol
 _atom_site_label
 _atom_site_symmetry_multiplicity
 _atom_site_fract_x
 _atom_site_fract_y
 _atom_site_fract_z
 _atom_site_occupancy
  C  C0  1  0.99346700  0.99346700  0.99346700  1
  Ni  Ni1  1  0.46173400  0.46173400  0.46173400  1
  Cu  Cu2  1  0.82635900  0.18564800  0.61538600  1
  Cu  Cu3  1  0.18564800  0.61538600  0.82635900  1
  Cu  Cu4  1  0.61538600  0.82635900  0.18564800  1
  Cu  Cu5  1  0.72003300  0.92712600  0.57891200  1
  Cu  Cu6  1  0.92712600  0.57891200  0.72003300  1
  Cu  Cu7  1  0.57891200  0.72003300  0.92712600  1
  Cu  Cu8  1  0.26280100  0.87259800  0.36203200  1
  Cu  Cu9  1  0.87259800  0.36203200  0.26280100  1
  Cu  Cu10  1  0.36203200  0.26280100  0.87259800  1
  Cu  Cu11  1  0.04279700  0.96245600  0.45202400  1
  Cu  Cu12  1  0.96245600  0.45202400  0.04279700  1
  Cu  Cu13  1  0.45202400  0.04279700  0.96245600  1
  C  C14  1  0.85883100  0.03485700  0.65696500  1
  C  C15  1  0.03485700  0.65696500  0.85883100  1
  C  C16  1  0.65696500  0.85883100  0.03485700  1
  C  C17  1  0.12048100  0.93712100  0.31742000  1
  C  C18  1  0.93712100  0.31742000  0.12048100  1
  C  C19  1  0.31742000  0.12048100  0.93712100  1
  C  C20  1  0.50579800  0.76950000  0.41755500  1
  C  C21  1  0.76950000  0.41755500  0.50579800  1
  C  C22  1  0.41755500  0.50579800  0.76950000  1
