# generated using pymatgen
data_Cu5NiC9
_symmetry_space_group_name_H-M   'P 1'
_cell_length_a   6.35302789
_cell_length_b   6.35302718
_cell_length_c   6.34165252
_cell_angle_alpha   60.05914302
_cell_angle_beta   90.00006385
_cell_angle_gamma   120.11856222
_symmetry_Int_Tables_number   1
_chemical_formula_structural   Cu5NiC9
_chemical_formula_sum   'Cu5 Ni1 C9'
_cell_volume   180.82463668
_cell_formula_units_Z   1
loop_
 _symmetry_equiv_pos_site_id
 _symmetry_equiv_pos_as_xyz
  1  'x, y, z'
loop_
 _atom_site_type_symbol
 _atom_site_label
 _atom_site_symmetry_multiplicity
 _atom_site_fract_x
 _atom_site_fract_y
 _atom_site_fract_z
 _atom_site_occupancy
  C  C0  1  0.60444100  0.79111900  0.60444100  1
  Ni  Ni1  1  0.73897900  0.52204100  0.73897900  1
  Cu  Cu2  1  0.60952200  0.20838600  0.18209200  1
  Cu  Cu3  1  0.00190300  0.99619600  0.00190300  1
  Cu  Cu4  1  0.60952200  0.20838600  0.60952200  1
  Cu  Cu5  1  0.24534700  0.50930400  0.24534700  1
  Cu  Cu6  1  0.18209200  0.78095500  0.60952200  1
  C  C7  1  0.87431700  0.27744400  0.36127800  1
  C  C8  1  0.37683700  0.24632400  0.37683700  1
  C  C9  1  0.86691600  0.26617000  0.86691600  1
  C  C10  1  0.88023100  0.74391300  0.37585600  1
  C  C11  1  0.88023100  0.74391300  0.88023200  1
  C  C12  1  0.37585500  0.23953700  0.88023200  1
  C  C13  1  0.36127900  0.76440600  0.36127800  1
  C  C14  1  0.36127900  0.76440600  0.87431600  1
