# generated using pymatgen
data_Cu3Ni7C19
_symmetry_space_group_name_H-M   'P 1'
_cell_length_a   6.28571623
_cell_length_b   6.28571623
_cell_length_c   20.43969900
_cell_angle_alpha   90.00000000
_cell_angle_beta   90.00000000
_cell_angle_gamma   120.00000240
_symmetry_Int_Tables_number   1
_chemical_formula_structural   Cu3Ni7C19
_chemical_formula_sum   'Cu6 Ni14 C38'
_cell_volume   699.38233467
_cell_formula_units_Z   2
loop_
 _symmetry_equiv_pos_site_id
 _symmetry_equiv_pos_as_xyz
  1  'x, y, z'
loop_
 _atom_site_type_symbol
 _atom_site_label
 _atom_site_symmetry_multiplicity
 _atom_site_fract_x
 _atom_site_fract_y
 _atom_site_fract_z
 _atom_site_occupancy
  Ni  Ni0  1  0.69352600  0.02865800  0.34334100  1
  Ni  Ni1  1  0.66486700  0.69352600  0.84334100  1
  Ni  Ni2  1  0.02865800  0.33513300  0.84334100  1
  Ni  Ni3  1  0.97134200  0.66486700  0.34334100  1
  Ni  Ni4  1  0.33513300  0.30647400  0.34334100  1
  Ni  Ni5  1  0.30647400  0.97134200  0.84334100  1
  Ni  Ni6  1  0.30647400  0.97134200  0.65665900  1
  Ni  Ni7  1  0.33513300  0.30647400  0.15665900  1
  Ni  Ni8  1  0.97134200  0.66486700  0.15665900  1
  Ni  Ni9  1  0.02865800  0.33513300  0.65665900  1
  Ni  Ni10  1  0.66486700  0.69352600  0.65665900  1
  Ni  Ni11  1  0.69352600  0.02865800  0.15665900  1
  Ni  Ni12  1  0.00000000  0.00000000  0.50000000  1
  Ni  Ni13  1  0.00000000  0.00000000  0.00000000  1
  Cu  Cu14  1  0.50000000  0.00000000  0.50000000  1
  Cu  Cu15  1  0.50000000  0.50000000  0.00000000  1
  Cu  Cu16  1  0.00000000  0.50000000  0.00000000  1
  Cu  Cu17  1  0.00000000  0.50000000  0.50000000  1
  Cu  Cu18  1  0.50000000  0.50000000  0.50000000  1
  Cu  Cu19  1  0.50000000  0.00000000  0.00000000  1
  C  C20  1  0.29078500  0.93030900  0.75000000  1
  C  C21  1  0.36047600  0.29078500  0.25000000  1
  C  C22  1  0.93030900  0.63952400  0.25000000  1
  C  C23  1  0.06969100  0.36047600  0.75000000  1
  C  C24  1  0.63952400  0.70921500  0.75000000  1
  C  C25  1  0.70921500  0.06969100  0.25000000  1
  C  C26  1  0.00000000  0.00000000  0.33742900  1
  C  C27  1  0.00000000  0.00000000  0.83742900  1
  C  C28  1  0.00000000  0.00000000  0.66257100  1
  C  C29  1  0.00000000  0.00000000  0.16257100  1
  C  C30  1  0.33413300  0.91403400  0.34578400  1
  C  C31  1  0.42010000  0.33413300  0.84578400  1
  C  C32  1  0.91403400  0.57990000  0.84578400  1
  C  C33  1  0.08596600  0.42010000  0.34578400  1
  C  C34  1  0.57990000  0.66586700  0.34578400  1
  C  C35  1  0.66586700  0.08596600  0.84578400  1
  C  C36  1  0.66586700  0.08596600  0.65421600  1
  C  C37  1  0.57990000  0.66586700  0.15421600  1
  C  C38  1  0.08596600  0.42010000  0.15421600  1
  C  C39  1  0.91403400  0.57990000  0.65421600  1
  C  C40  1  0.75122400  0.02801000  0.05649300  1
  C  C41  1  0.72321400  0.75122400  0.55649300  1
  C  C42  1  0.02801000  0.27678600  0.55649300  1
  C  C43  1  0.97199000  0.72321400  0.05649300  1
  C  C44  1  0.27678600  0.24877600  0.05649300  1
  C  C45  1  0.24877600  0.97199000  0.55649300  1
  C  C46  1  0.24877600  0.97199000  0.94350700  1
  C  C47  1  0.27678600  0.24877600  0.44350700  1
  C  C48  1  0.97199000  0.72321400  0.44350700  1
  C  C49  1  0.02801000  0.27678600  0.94350700  1
  C  C50  1  0.72321400  0.75122400  0.94350700  1
  C  C51  1  0.75122400  0.02801000  0.44350700  1
  C  C52  1  0.66666700  0.33333300  0.13864000  1
  C  C53  1  0.33333300  0.66666700  0.63864000  1
  C  C54  1  0.33333300  0.66666700  0.86136000  1
  C  C55  1  0.66666700  0.33333300  0.36136000  1
  C  C56  1  0.33413300  0.91403400  0.15421600  1
  C  C57  1  0.42010000  0.33413300  0.65421600  1
