# generated using pymatgen
data_Cu9NiC
_symmetry_space_group_name_H-M   'P 1'
_cell_length_a   19.74334300
_cell_length_b   12.57725400
_cell_length_c   13.01837111
_cell_angle_alpha   61.12923625
_cell_angle_beta   90.00000000
_cell_angle_gamma   90.00000000
_symmetry_Int_Tables_number   1
_chemical_formula_structural   Cu9NiC
_chemical_formula_sum   'Cu72 Ni8 C8'
_cell_volume   2830.89644575
_cell_formula_units_Z   8
loop_
 _symmetry_equiv_pos_site_id
 _symmetry_equiv_pos_as_xyz
  1  'x, y, z'
loop_
 _atom_site_type_symbol
 _atom_site_label
 _atom_site_symmetry_multiplicity
 _atom_site_fract_x
 _atom_site_fract_y
 _atom_site_fract_z
 _atom_site_occupancy
  C  C0  1  0.33553600  0.41151800  0.17178000  1
  C  C1  1  0.83553600  0.58848200  0.32822000  1
  C  C2  1  0.66446400  0.58848200  0.82822000  1
  C  C3  1  0.16446400  0.41151800  0.67178000  1
  C  C4  1  0.50162800  0.16455800  0.66881700  1
  C  C5  1  0.00162800  0.83544200  0.83118300  1
  C  C6  1  0.49837200  0.83544200  0.33118300  1
  C  C7  1  0.99837200  0.16455800  0.16881700  1
  Ni  Ni8  1  0.34630100  0.59700600  0.81438900  1
  Ni  Ni9  1  0.84630100  0.40299400  0.68561100  1
  Ni  Ni10  1  0.65369900  0.40299400  0.18561100  1
  Ni  Ni11  1  0.15369900  0.59700600  0.31438900  1
  Ni  Ni12  1  0.32853700  0.06301300  0.85767100  1
  Ni  Ni13  1  0.82853700  0.93698700  0.64232900  1
  Ni  Ni14  1  0.67146300  0.93698700  0.14232900  1
  Ni  Ni15  1  0.17146300  0.06301300  0.35767100  1
  Cu  Cu16  1  0.29000700  0.75835000  0.68626200  1
  Cu  Cu17  1  0.79000700  0.24165000  0.81373800  1
  Cu  Cu18  1  0.70999300  0.24165000  0.31373800  1
  Cu  Cu19  1  0.20999300  0.75835000  0.18626200  1
  Cu  Cu20  1  0.43307500  0.69170200  0.83344100  1
  Cu  Cu21  1  0.93307500  0.30829800  0.66655900  1
  Cu  Cu22  1  0.56692500  0.30829800  0.16655900  1
  Cu  Cu23  1  0.06692500  0.69170200  0.33344100  1
  Cu  Cu24  1  0.39116100  0.54255500  0.69254500  1
  Cu  Cu25  1  0.89116100  0.45744500  0.80745500  1
  Cu  Cu26  1  0.60883900  0.45744500  0.30745500  1
  Cu  Cu27  1  0.10883900  0.54255500  0.19254500  1
  Cu  Cu28  1  0.23621300  0.97421700  0.83574900  1
  Cu  Cu29  1  0.73621300  0.02578300  0.66425100  1
  Cu  Cu30  1  0.76378700  0.02578300  0.16425100  1
  Cu  Cu31  1  0.26378700  0.97421700  0.33574900  1
  Cu  Cu32  1  0.28624400  0.10983600  0.98905200  1
  Cu  Cu33  1  0.78624400  0.89016400  0.51094800  1
  Cu  Cu34  1  0.71375600  0.89016400  0.01094800  1
  Cu  Cu35  1  0.21375600  0.10983600  0.48905200  1
  Cu  Cu36  1  0.37954500  0.89678800  0.98244900  1
  Cu  Cu37  1  0.87954500  0.10321200  0.51755100  1
  Cu  Cu38  1  0.62045500  0.10321200  0.01755100  1
  Cu  Cu39  1  0.12045500  0.89678800  0.48244900  1
  Cu  Cu40  1  0.42712900  0.53354300  0.16053900  1
  Cu  Cu41  1  0.92712900  0.46645700  0.33946100  1
  Cu  Cu42  1  0.57287100  0.46645700  0.83946100  1
  Cu  Cu43  1  0.07287100  0.53354300  0.66053900  1
  Cu  Cu44  1  0.23646400  0.30570600  0.16209500  1
  Cu  Cu45  1  0.73646400  0.69429400  0.33790500  1
  Cu  Cu46  1  0.76353600  0.69429400  0.83790500  1
  Cu  Cu47  1  0.26353600  0.30570600  0.66209500  1
  Cu  Cu48  1  0.38564800  0.38305500  0.01243000  1
  Cu  Cu49  1  0.88564800  0.61694500  0.48757000  1
  Cu  Cu50  1  0.61435200  0.61694500  0.98757000  1
  Cu  Cu51  1  0.11435200  0.38305500  0.51243000  1
  Cu  Cu52  1  0.38662100  0.23347100  0.30555600  1
  Cu  Cu53  1  0.88662100  0.76652900  0.19444400  1
  Cu  Cu54  1  0.61337900  0.76652900  0.69444400  1
  Cu  Cu55  1  0.11337900  0.23347100  0.80555600  1
  Cu  Cu56  1  0.28272600  0.44956500  0.31329100  1
  Cu  Cu57  1  0.78272600  0.55043500  0.18670900  1
  Cu  Cu58  1  0.71727400  0.55043500  0.68670900  1
  Cu  Cu59  1  0.21727400  0.44956500  0.81329100  1
  Cu  Cu60  1  0.28224900  0.59427800  0.00874000  1
  Cu  Cu61  1  0.78224900  0.40572200  0.49126000  1
  Cu  Cu62  1  0.71775100  0.40572200  0.99126000  1
  Cu  Cu63  1  0.21775100  0.59427800  0.50874000  1
  Cu  Cu64  1  0.59660300  0.26488300  0.68245600  1
  Cu  Cu65  1  0.09660300  0.73511700  0.81754400  1
  Cu  Cu66  1  0.40339700  0.73511700  0.31754400  1
  Cu  Cu67  1  0.90339700  0.26488300  0.18245600  1
  Cu  Cu68  1  0.44508600  0.19122400  0.82888800  1
  Cu  Cu69  1  0.94508600  0.80877600  0.67111200  1
  Cu  Cu70  1  0.55491400  0.80877600  0.17111200  1
  Cu  Cu71  1  0.05491400  0.19122400  0.32888800  1
  Cu  Cu72  1  0.39159300  0.05826400  0.67450400  1
  Cu  Cu73  1  0.89159300  0.94173600  0.82549600  1
  Cu  Cu74  1  0.60840700  0.94173600  0.32549600  1
  Cu  Cu75  1  0.10840700  0.05826400  0.17450400  1
  Cu  Cu76  1  0.44842300  0.34588100  0.53557400  1
  Cu  Cu77  1  0.94842300  0.65411900  0.96442600  1
  Cu  Cu78  1  0.55157700  0.65411900  0.46442600  1
  Cu  Cu79  1  0.05157700  0.34588100  0.03557400  1
  Cu  Cu80  1  0.53978300  0.12572500  0.52233900  1
  Cu  Cu81  1  0.03978300  0.87427500  0.97766100  1
  Cu  Cu82  1  0.46021700  0.87427500  0.47766100  1
  Cu  Cu83  1  0.96021700  0.12572500  0.02233900  1
  Cu  Cu84  1  0.53988800  0.97555500  0.81732100  1
  Cu  Cu85  1  0.03988800  0.02444500  0.68267900  1
  Cu  Cu86  1  0.46011200  0.02444500  0.18267900  1
  Cu  Cu87  1  0.96011200  0.97555500  0.31732100  1
