# generated using pymatgen
data_Cu2Ni
_symmetry_space_group_name_H-M   'P 1'
_cell_length_a   5.67417200
_cell_length_b   7.07630400
_cell_length_c   10.93848000
_cell_angle_alpha   90.00000000
_cell_angle_beta   90.00000000
_cell_angle_gamma   90.00000000
_symmetry_Int_Tables_number   1
_chemical_formula_structural   Cu2Ni
_chemical_formula_sum   'Cu16 Ni8'
_cell_volume   439.20366497
_cell_formula_units_Z   8
loop_
 _symmetry_equiv_pos_site_id
 _symmetry_equiv_pos_as_xyz
  1  'x, y, z'
loop_
 _atom_site_type_symbol
 _atom_site_label
 _atom_site_symmetry_multiplicity
 _atom_site_fract_x
 _atom_site_fract_y
 _atom_site_fract_z
 _atom_site_occupancy
  Ni  Ni0  1  0.82741500  0.00741700  0.60827500  1
  Ni  Ni1  1  0.32741500  0.99258300  0.89172500  1
  Ni  Ni2  1  0.67258500  0.50741700  0.39172500  1
  Ni  Ni3  1  0.17258500  0.49258300  0.10827500  1
  Ni  Ni4  1  0.17258500  0.99258300  0.39172500  1
  Ni  Ni5  1  0.67258500  0.00741700  0.10827500  1
  Ni  Ni6  1  0.32741500  0.49258300  0.60827500  1
  Ni  Ni7  1  0.82741500  0.50741700  0.89172500  1
  Cu  Cu8  1  0.79207600  0.09422000  0.48430000  1
  Cu  Cu9  1  0.29207600  0.90578000  0.01570000  1
  Cu  Cu10  1  0.70792400  0.59422000  0.51570000  1
  Cu  Cu11  1  0.20792400  0.40578000  0.98430000  1
  Cu  Cu12  1  0.20792400  0.90578000  0.51570000  1
  Cu  Cu13  1  0.70792400  0.09422000  0.98430000  1
  Cu  Cu14  1  0.29207600  0.40578000  0.48430000  1
  Cu  Cu15  1  0.79207600  0.59422000  0.01570000  1
  Cu  Cu16  1  0.90343500  0.63900000  0.79378700  1
  Cu  Cu17  1  0.40343500  0.36100000  0.70621300  1
  Cu  Cu18  1  0.59656500  0.13900000  0.20621300  1
  Cu  Cu19  1  0.09656500  0.86100000  0.29378700  1
  Cu  Cu20  1  0.09656500  0.36100000  0.20621300  1
  Cu  Cu21  1  0.59656500  0.63900000  0.29378700  1
  Cu  Cu22  1  0.40343500  0.86100000  0.79378700  1
  Cu  Cu23  1  0.90343500  0.13900000  0.70621300  1
