# generated using pymatgen
data_Cu9(NiC26)2
_symmetry_space_group_name_H-M   'P 1'
_cell_length_a   9.14439882
_cell_length_b   9.14439850
_cell_length_c   22.41822323
_cell_angle_alpha   90.00000000
_cell_angle_beta   90.00000000
_cell_angle_gamma   120.00000116
_symmetry_Int_Tables_number   1
_chemical_formula_structural   Cu9(NiC26)2
_chemical_formula_sum   'Cu18 Ni4 C104'
_cell_volume   1623.46196619
_cell_formula_units_Z   2
loop_
 _symmetry_equiv_pos_site_id
 _symmetry_equiv_pos_as_xyz
  1  'x, y, z'
loop_
 _atom_site_type_symbol
 _atom_site_label
 _atom_site_symmetry_multiplicity
 _atom_site_fract_x
 _atom_site_fract_y
 _atom_site_fract_z
 _atom_site_occupancy
  C  C0  1  0.64062265  0.01933304  0.24681171  1
  C  C1  1  0.37871039  0.35937735  0.24681171  1
  C  C2  1  0.98066696  0.62128961  0.24681171  1
  C  C3  1  0.64062265  0.62128961  0.74681171  1
  C  C4  1  0.98066696  0.35937735  0.74681171  1
  C  C5  1  0.37871039  0.01933304  0.74681171  1
  C  C6  1  0.30759556  0.33364269  0.58690402  1
  C  C7  1  0.02604813  0.69240444  0.58690402  1
  C  C8  1  0.66635731  0.97395187  0.58690402  1
  C  C9  1  0.30759556  0.97395187  0.08690402  1
  C  C10  1  0.66635731  0.69240444  0.08690402  1
  C  C11  1  0.02604813  0.33364269  0.08690402  1
  C  C12  1  0.96518706  0.68239468  0.90881825  1
  C  C13  1  0.71720662  0.03481294  0.90881825  1
  C  C14  1  0.31760532  0.28279338  0.90881825  1
  C  C15  1  0.96518706  0.28279338  0.40881825  1
  C  C16  1  0.31760532  0.03481294  0.40881825  1
  C  C17  1  0.71720662  0.68239468  0.40881825  1
  C  C18  1  0.00000000  -0.00000000  0.49413647  1
  C  C19  1  0.00000000  -0.00000000  0.99413647  1
  C  C20  1  0.66666700  0.33333300  0.82359260  1
  C  C21  1  0.66666700  0.33333300  0.32359260  1
  C  C22  1  0.33333300  0.66666700  0.16763912  1
  C  C23  1  0.33333300  0.66666700  0.66763912  1
  Ni  Ni24  1  0.00000000  -0.00000000  0.35205473  1
  Ni  Ni25  1  0.00000000  -0.00000000  0.85205473  1
  Ni  Ni26  1  0.66666700  0.33333300  0.68536616  1
  Ni  Ni27  1  0.66666700  0.33333300  0.18536616  1
  C  C28  1  0.00000000  -0.00000000  0.64958975  1
  C  C29  1  0.00000000  -0.00000000  0.14958975  1
  C  C30  1  0.66666700  0.33333300  0.98018028  1
  C  C31  1  0.66666700  0.33333300  0.48018028  1
  C  C32  1  0.33333300  0.66666700  0.01904669  1
  C  C33  1  0.33333300  0.66666700  0.51904669  1
  C  C34  1  0.33333300  0.66666700  0.31106526  1
  C  C35  1  0.33333300  0.66666700  0.81106526  1
  Cu  Cu36  1  0.29369699  0.00331315  0.25403962  1
  Cu  Cu37  1  0.70961617  0.70630301  0.25403962  1
  Cu  Cu38  1  0.99668685  0.29038383  0.25403962  1
  Cu  Cu39  1  0.29369699  0.29038383  0.75403962  1
  Cu  Cu40  1  0.99668685  0.70630301  0.75403962  1
  Cu  Cu41  1  0.70961617  0.00331315  0.75403962  1
  Cu  Cu42  1  0.95815175  0.33326869  0.58547062  1
  Cu  Cu43  1  0.37511795  0.04184825  0.58547062  1
  Cu  Cu44  1  0.66673131  0.62488205  0.58547062  1
  Cu  Cu45  1  0.95815175  0.62488205  0.08547062  1
  Cu  Cu46  1  0.66673131  0.04184825  0.08547062  1
  Cu  Cu47  1  0.37511795  0.33326869  0.08547062  1
  Cu  Cu48  1  0.62572129  0.66602693  0.91627418  1
  Cu  Cu49  1  0.04030464  0.37427871  0.91627418  1
  Cu  Cu50  1  0.33397307  0.95969536  0.91627418  1
  Cu  Cu51  1  0.62572129  0.95969536  0.41627418  1
  Cu  Cu52  1  0.33397307  0.37427871  0.41627418  1
  Cu  Cu53  1  0.04030464  0.66602693  0.41627418  1
  C  C54  1  0.20789805  0.02905014  0.31153798  1
  C  C55  1  0.82115209  0.79210195  0.31153798  1
  C  C56  1  0.97094986  0.17884791  0.31153798  1
  C  C57  1  0.20789805  0.17884791  0.81153798  1
  C  C58  1  0.97094986  0.79210195  0.81153798  1
  C  C59  1  0.82115209  0.02905014  0.81153798  1
  C  C60  1  0.80230923  0.96880296  0.69292925  1
  C  C61  1  0.16649372  0.19769077  0.69292925  1
  C  C62  1  0.03119704  0.83350628  0.69292925  1
  C  C63  1  0.80230923  0.83350628  0.19292925  1
  C  C64  1  0.03119704  0.19769077  0.19292925  1
  C  C65  1  0.16649372  0.96880296  0.19292925  1
  C  C66  1  0.88388157  0.37626760  0.64246373  1
  C  C67  1  0.49238703  0.11611843  0.64246373  1
  C  C68  1  0.62373240  0.50761297  0.64246373  1
  C  C69  1  0.88388157  0.50761297  0.14246373  1
  C  C70  1  0.62373240  0.11611843  0.14246373  1
  C  C71  1  0.49238703  0.37626760  0.14246373  1
  C  C72  1  0.46875466  0.30360755  0.02577895  1
  C  C73  1  0.83485390  0.53124534  0.02577895  1
  C  C74  1  0.69639245  0.16514610  0.02577895  1
  C  C75  1  0.46875466  0.16514610  0.52577895  1
  C  C76  1  0.69639245  0.53124534  0.52577895  1
  C  C77  1  0.83485390  0.30360755  0.52577895  1
  C  C78  1  0.52291930  0.68335005  0.97431831  1
  C  C79  1  0.16042975  0.47708070  0.97431831  1
  C  C80  1  0.31664995  0.83957025  0.97431831  1
  C  C81  1  0.52291930  0.83957025  0.47431831  1
  C  C82  1  0.31664995  0.47708070  0.47431831  1
  C  C83  1  0.16042975  0.68335005  0.47431831  1
  C  C84  1  0.13461474  0.63262274  0.35879736  1
  C  C85  1  0.49800700  0.86538526  0.35879736  1
  C  C86  1  0.36737726  0.50199300  0.35879736  1
  C  C87  1  0.13461474  0.50199300  0.85879736  1
  C  C88  1  0.36737726  0.86538526  0.85879736  1
  C  C89  1  0.49800700  0.63262274  0.85879736  1
  C  C90  1  0.02296803  0.83073093  0.41608123  1
  C  C91  1  0.80776290  0.97703197  0.41608123  1
  C  C92  1  0.16926907  0.19223710  0.41608123  1
  C  C93  1  0.02296803  0.19223710  0.91608123  1
  C  C94  1  0.16926907  0.97703197  0.91608123  1
  C  C95  1  0.80776290  0.83073093  0.91608123  1
  C  C96  1  0.97615032  0.16198098  0.58794190  1
  C  C97  1  0.18583066  0.02384968  0.58794190  1
  C  C98  1  0.83801902  0.81416934  0.58794190  1
  C  C99  1  0.97615032  0.81416934  0.08794190  1
  C  C100  1  0.83801902  0.02384968  0.08794190  1
  C  C101  1  0.18583066  0.16198098  0.08794190  1
  C  C102  1  0.68109843  0.16144259  0.74487212  1
  C  C103  1  0.48034516  0.31890157  0.74487212  1
  C  C104  1  0.83855741  0.51965484  0.74487212  1
  C  C105  1  0.68109843  0.51965484  0.24487212  1
  C  C106  1  0.83855741  0.31890157  0.24487212  1
  C  C107  1  0.48034516  0.16144259  0.24487212  1
  C  C108  1  0.63341276  0.48945515  0.92267250  1
  C  C109  1  0.85604339  0.36658724  0.92267250  1
  C  C110  1  0.51054485  0.14395661  0.92267250  1
  C  C111  1  0.63341276  0.14395661  0.42267250  1
  C  C112  1  0.51054485  0.36658724  0.42267250  1
  C  C113  1  0.85604339  0.48945515  0.42267250  1
  C  C114  1  0.34643457  0.49733574  0.07507775  1
  C  C115  1  0.15090016  0.65356543  0.07507775  1
  C  C116  1  0.50266426  0.84909984  0.07507775  1
  C  C117  1  0.34643457  0.84909984  0.57507775  1
  C  C118  1  0.50266426  0.65356543  0.57507775  1
  C  C119  1  0.15090016  0.49733574  0.57507775  1
  C  C120  1  0.30021371  0.82188030  0.25498681  1
  C  C121  1  0.52166559  0.69978629  0.25498681  1
  C  C122  1  0.17811970  0.47833441  0.25498681  1
  C  C123  1  0.30021371  0.47833441  0.75498681  1
  C  C124  1  0.17811970  0.69978629  0.75498681  1
  C  C125  1  0.52166559  0.82188030  0.75498681  1
