# generated using pymatgen
data_Cu3Ni2C11
_symmetry_space_group_name_H-M   'P 1'
_cell_length_a   8.32659300
_cell_length_b   4.69800300
_cell_length_c   9.33459031
_cell_angle_alpha   76.93493649
_cell_angle_beta   90.00000000
_cell_angle_gamma   90.00000000
_symmetry_Int_Tables_number   1
_chemical_formula_structural   Cu3Ni2C11
_chemical_formula_sum   'Cu6 Ni4 C22'
_cell_volume   355.70147709
_cell_formula_units_Z   2
loop_
 _symmetry_equiv_pos_site_id
 _symmetry_equiv_pos_as_xyz
  1  'x, y, z'
loop_
 _atom_site_type_symbol
 _atom_site_label
 _atom_site_symmetry_multiplicity
 _atom_site_fract_x
 _atom_site_fract_y
 _atom_site_fract_z
 _atom_site_occupancy
  C  C0  1  0.00000000  0.00000000  0.00000000  1
  C  C1  1  0.50000000  0.00000000  0.00000000  1
  Ni  Ni2  1  0.43576700  0.04128700  0.66772500  1
  Ni  Ni3  1  0.93576700  0.95871300  0.33227500  1
  Ni  Ni4  1  0.06423300  0.04128700  0.66772500  1
  Ni  Ni5  1  0.56423300  0.95871300  0.33227500  1
  Cu  Cu6  1  0.25000000  0.59393700  0.45390700  1
  Cu  Cu7  1  0.25000000  0.33678500  0.17824400  1
  Cu  Cu8  1  0.25000000  0.47425900  0.86109600  1
  Cu  Cu9  1  0.75000000  0.40606300  0.54609300  1
  Cu  Cu10  1  0.75000000  0.66321500  0.82175600  1
  Cu  Cu11  1  0.75000000  0.52574100  0.13890400  1
  C  C12  1  0.90291700  0.69320700  0.14756900  1
  C  C13  1  0.25000000  0.57043000  0.02340800  1
  C  C14  1  0.40319900  0.76144200  0.47085900  1
  C  C15  1  0.59615900  0.83841300  0.81234500  1
  C  C16  1  0.09680100  0.76144200  0.47085900  1
  C  C17  1  0.59708300  0.69320700  0.14756900  1
  C  C18  1  0.75000000  0.42957000  0.97659200  1
  C  C19  1  0.09708300  0.30679300  0.85243100  1
  C  C20  1  0.25000000  0.28717400  0.55867000  1
  C  C21  1  0.40384100  0.16158700  0.18765500  1
  C  C22  1  0.59680100  0.23855800  0.52914100  1
  C  C23  1  0.90384100  0.83841300  0.81234500  1
  C  C24  1  0.25000000  0.78359500  0.75527800  1
  C  C25  1  0.75000000  0.21640500  0.24472200  1
  C  C26  1  0.90319900  0.23855800  0.52914100  1
  C  C27  1  0.75000000  0.71282600  0.44133000  1
  C  C28  1  0.09615900  0.16158700  0.18765500  1
  C  C29  1  0.75000000  0.44915500  0.71333000  1
  C  C30  1  0.25000000  0.55084500  0.28667000  1
  C  C31  1  0.40291700  0.30679300  0.85243100  1
