# generated using pymatgen
data_CuNiC3
_symmetry_space_group_name_H-M   'P 1'
_cell_length_a   6.41045100
_cell_length_b   6.49693600
_cell_length_c   9.10700900
_cell_angle_alpha   90.00000000
_cell_angle_beta   90.00000000
_cell_angle_gamma   90.00000000
_symmetry_Int_Tables_number   1
_chemical_formula_structural   CuNiC3
_chemical_formula_sum   'Cu4 Ni4 C12'
_cell_volume   379.29135075
_cell_formula_units_Z   4
loop_
 _symmetry_equiv_pos_site_id
 _symmetry_equiv_pos_as_xyz
  1  'x, y, z'
loop_
 _atom_site_type_symbol
 _atom_site_label
 _atom_site_symmetry_multiplicity
 _atom_site_fract_x
 _atom_site_fract_y
 _atom_site_fract_z
 _atom_site_occupancy
  Ni  Ni0  1  0.98411000  0.03670800  0.25000000  1
  Ni  Ni1  1  0.48411000  0.46329200  0.75000000  1
  Ni  Ni2  1  0.51589000  0.53670800  0.25000000  1
  Ni  Ni3  1  0.01589000  0.96329200  0.75000000  1
  Cu  Cu4  1  0.50000000  0.00000000  0.00000000  1
  Cu  Cu5  1  0.00000000  0.50000000  0.00000000  1
  Cu  Cu6  1  0.00000000  0.50000000  0.50000000  1
  Cu  Cu7  1  0.50000000  0.00000000  0.50000000  1
  C  C8  1  0.71746800  0.28204600  0.44395400  1
  C  C9  1  0.21746800  0.21795400  0.55604600  1
  C  C10  1  0.78253200  0.78204600  0.05604600  1
  C  C11  1  0.28253200  0.71795400  0.94395400  1
  C  C12  1  0.28253200  0.71795400  0.55604600  1
  C  C13  1  0.78253200  0.78204600  0.44395400  1
  C  C14  1  0.21746800  0.21795400  0.94395400  1
  C  C15  1  0.71746800  0.28204600  0.05604600  1
  C  C16  1  0.09891700  0.46305300  0.25000000  1
  C  C17  1  0.59891700  0.03694700  0.75000000  1
  C  C18  1  0.40108300  0.96305300  0.25000000  1
  C  C19  1  0.90108300  0.53694700  0.75000000  1
