# generated using pymatgen
data_CuNiC5
_symmetry_space_group_name_H-M   'P 1'
_cell_length_a   6.05218267
_cell_length_b   5.24392672
_cell_length_c   6.04772251
_cell_angle_alpha   103.56516374
_cell_angle_beta   116.91839274
_cell_angle_gamma   29.95625892
_symmetry_Int_Tables_number   1
_chemical_formula_structural   CuNiC5
_chemical_formula_sum   'Cu1 Ni1 C5'
_cell_volume   79.91842656
_cell_formula_units_Z   1
loop_
 _symmetry_equiv_pos_site_id
 _symmetry_equiv_pos_as_xyz
  1  'x, y, z'
loop_
 _atom_site_type_symbol
 _atom_site_label
 _atom_site_symmetry_multiplicity
 _atom_site_fract_x
 _atom_site_fract_y
 _atom_site_fract_z
 _atom_site_occupancy
  C  C0  1  0.78857828  0.42266960  0.79306987  1
  Ni  Ni1  1  0.57557830  0.35444121  0.08054504  1
  Cu  Cu2  1  0.46744288  0.06822863  0.47381399  1
  C  C3  1  0.14941446  0.20461351  0.65410825  1
  C  C4  1  0.18228202  0.01333926  0.18736273  1
  C  C5  1  0.80979491  0.01088294  0.81492792  1
  C  C6  1  0.82005415  0.86557486  0.32629020  1
