# generated using pymatgen
data_Cu4Ni4C5
_symmetry_space_group_name_H-M   'P 1'
_cell_length_a   3.36296363
_cell_length_b   3.35902204
_cell_length_c   44.07006754
_cell_angle_alpha   89.93768817
_cell_angle_beta   90.01329845
_cell_angle_gamma   119.97018687
_symmetry_Int_Tables_number   1
_chemical_formula_structural   Cu4Ni4C5
_chemical_formula_sum   'Cu4 Ni4 C5'
_cell_volume   431.26029716
_cell_formula_units_Z   1
loop_
 _symmetry_equiv_pos_site_id
 _symmetry_equiv_pos_as_xyz
  1  'x, y, z'
loop_
 _atom_site_type_symbol
 _atom_site_label
 _atom_site_symmetry_multiplicity
 _atom_site_fract_x
 _atom_site_fract_y
 _atom_site_fract_z
 _atom_site_occupancy
  C  C0  1  0.99955100  0.99872200  0.38320600  1
  Ni  Ni1  1  0.33300600  0.66620900  0.70083000  1
  Ni  Ni2  1  0.66702400  0.33400700  0.05066900  1
  Ni  Ni3  1  0.66666000  0.33289500  0.13646600  1
  Ni  Ni4  1  0.33339500  0.66741200  0.61454800  1
  C  C5  1  0.33318600  0.66662600  0.09355200  1
  C  C6  1  0.33358400  0.66764500  0.47480800  1
  C  C7  1  0.66662800  0.33290400  0.27438900  1
  C  C8  1  0.66692200  0.33364300  0.65769500  1
  Cu  Cu9  1  0.33286200  0.66525200  0.30884800  1
  Cu  Cu10  1  0.66740100  0.33506100  0.43981900  1
  Cu  Cu11  1  0.66658200  0.33317800  0.50880300  1
  Cu  Cu12  1  0.33319800  0.66644600  0.24011800  1
