# generated using pymatgen
data_CuNi3C11
_symmetry_space_group_name_H-M   'P 1'
_cell_length_a   6.07916700
_cell_length_b   8.05625300
_cell_length_c   11.45135900
_cell_angle_alpha   90.00000000
_cell_angle_beta   90.00000000
_cell_angle_gamma   90.00000000
_symmetry_Int_Tables_number   1
_chemical_formula_structural   CuNi3C11
_chemical_formula_sum   'Cu4 Ni12 C44'
_cell_volume   560.83382696
_cell_formula_units_Z   4
loop_
 _symmetry_equiv_pos_site_id
 _symmetry_equiv_pos_as_xyz
  1  'x, y, z'
loop_
 _atom_site_type_symbol
 _atom_site_label
 _atom_site_symmetry_multiplicity
 _atom_site_fract_x
 _atom_site_fract_y
 _atom_site_fract_z
 _atom_site_occupancy
  C  C0  1  0.24668200  0.80443300  0.12747000  1
  C  C1  1  0.74668200  0.19556700  0.87253000  1
  C  C2  1  0.74668200  0.69556700  0.62747000  1
  C  C3  1  0.24668200  0.30443300  0.37253000  1
  C  C4  1  0.11204200  0.39712800  0.71515100  1
  C  C5  1  0.61204200  0.60287200  0.28484900  1
  C  C6  1  0.61204200  0.10287200  0.21515100  1
  C  C7  1  0.11204200  0.89712800  0.78484900  1
  C  C8  1  0.28590300  0.33583200  0.60894200  1
  C  C9  1  0.78590300  0.66416800  0.39105800  1
  C  C10  1  0.78590300  0.16416800  0.10894200  1
  C  C11  1  0.28590300  0.83583200  0.89105800  1
  C  C12  1  0.33163800  0.52222600  0.67539800  1
  C  C13  1  0.83163800  0.47777400  0.32460200  1
  C  C14  1  0.83163800  0.97777400  0.17539800  1
  C  C15  1  0.33163800  0.02222600  0.82460200  1
  C  C16  1  0.37040200  0.33939700  0.75004900  1
  C  C17  1  0.87040200  0.66060300  0.24995100  1
  C  C18  1  0.28276200  0.48896500  0.02946400  1
  C  C19  1  0.87040200  0.16060300  0.25004900  1
  C  C20  1  0.30861000  0.32605300  0.12417500  1
  C  C21  1  0.80861000  0.67394700  0.87582500  1
  C  C22  1  0.80861000  0.17394700  0.62417500  1
  C  C23  1  0.30861000  0.82605300  0.37582500  1
  C  C24  1  0.36387200  0.30010400  0.97684500  1
  C  C25  1  0.86387200  0.69989600  0.02315500  1
  C  C26  1  0.86387200  0.19989600  0.47684500  1
  C  C27  1  0.36387200  0.80010400  0.52315500  1
  C  C28  1  0.10146200  0.32767000  0.02068500  1
  C  C29  1  0.60146200  0.67233000  0.97931500  1
  C  C30  1  0.60146200  0.17233000  0.52068500  1
  C  C31  1  0.10146200  0.82767000  0.47931500  1
  C  C32  1  0.28276200  0.98896500  0.47053600  1
  C  C33  1  0.78276200  0.01103500  0.52946400  1
  C  C34  1  0.78276200  0.51103500  0.97053600  1
  C  C35  1  0.37040200  0.83939700  0.74995100  1
  C  C36  1  0.76472100  0.13954400  0.53847300  1
  C  C37  1  0.76472100  0.63954400  0.96152700  1
  C  C38  1  0.26472100  0.36045600  0.03847300  1
  C  C39  1  0.27367800  0.90180400  0.81234000  1
  C  C40  1  0.77367800  0.09819600  0.18766000  1
  C  C41  1  0.77367800  0.59819600  0.31234000  1
  C  C42  1  0.27367800  0.40180400  0.68766000  1
  C  C43  1  0.26472100  0.86045600  0.46152700  1
  Ni  Ni44  1  0.82178500  0.28965100  0.98263000  1
  Ni  Ni45  1  0.32178500  0.21034900  0.48263000  1
  Ni  Ni46  1  0.82178500  0.78965100  0.51737000  1
  Ni  Ni47  1  0.32178500  0.71034900  0.01737000  1
  Ni  Ni48  1  0.99857400  0.78492500  0.14924400  1
  Ni  Ni49  1  0.49857400  0.21507500  0.85075600  1
  Ni  Ni50  1  0.89334100  0.71511300  0.73314300  1
  Ni  Ni51  1  0.49857400  0.71507500  0.64924400  1
  Ni  Ni52  1  0.99857400  0.28492500  0.35075600  1
  Ni  Ni53  1  0.89334100  0.21511300  0.76685700  1
  Ni  Ni54  1  0.39334100  0.78488700  0.23314300  1
  Ni  Ni55  1  0.39334100  0.28488700  0.26685700  1
  Cu  Cu56  1  0.26922800  0.49776100  0.41158900  1
  Cu  Cu57  1  0.76922800  0.00223900  0.91158900  1
  Cu  Cu58  1  0.26922800  0.99776100  0.08841100  1
  Cu  Cu59  1  0.76922800  0.50223900  0.58841100  1
