# generated using pymatgen
data_Cu(NiC2)3
_symmetry_space_group_name_H-M   'P 1'
_cell_length_a   7.76749600
_cell_length_b   7.30558200
_cell_length_c   13.08500817
_cell_angle_alpha   56.65404804
_cell_angle_beta   90.00000000
_cell_angle_gamma   90.00000000
_symmetry_Int_Tables_number   1
_chemical_formula_structural   Cu(NiC2)3
_chemical_formula_sum   'Cu2 Ni6 C12'
_cell_volume   620.27896175
_cell_formula_units_Z   2
loop_
 _symmetry_equiv_pos_site_id
 _symmetry_equiv_pos_as_xyz
  1  'x, y, z'
loop_
 _atom_site_type_symbol
 _atom_site_label
 _atom_site_symmetry_multiplicity
 _atom_site_fract_x
 _atom_site_fract_y
 _atom_site_fract_z
 _atom_site_occupancy
  Ni  Ni0  1  0.50000000  0.50000000  0.00000000  1
  Ni  Ni1  1  0.58510000  0.70713500  0.26483400  1
  Ni  Ni2  1  0.08510000  0.29286500  0.23516600  1
  Ni  Ni3  1  0.00000000  0.50000000  0.50000000  1
  Ni  Ni4  1  0.91490000  0.70713500  0.76483400  1
  Ni  Ni5  1  0.41490000  0.29286500  0.73516600  1
  Cu  Cu6  1  0.50000000  0.00000000  0.50000000  1
  Cu  Cu7  1  0.00000000  0.00000000  0.00000000  1
  C  C8  1  0.67892300  0.61858600  0.56530000  1
  C  C9  1  0.17892300  0.38141400  0.93470000  1
  C  C10  1  0.30611600  0.75144000  0.08019400  1
  C  C11  1  0.80611600  0.24856000  0.41980600  1
  C  C12  1  0.69388400  0.24856000  0.91980600  1
  C  C13  1  0.19388400  0.75144000  0.58019400  1
  C  C14  1  0.06289900  0.09667400  0.76202400  1
  C  C15  1  0.56289900  0.90332600  0.73797600  1
  C  C16  1  0.93710100  0.90332600  0.23797600  1
  C  C17  1  0.43710100  0.09667400  0.26202400  1
  C  C18  1  0.82107700  0.61858600  0.06530000  1
  C  C19  1  0.32107700  0.38141400  0.43470000  1
