# generated using pymatgen
data_Cu2Ni3C35
_symmetry_space_group_name_H-M   'P 1'
_cell_length_a   15.29297489
_cell_length_b   8.88679847
_cell_length_c   8.86946486
_cell_angle_alpha   90.22749190
_cell_angle_beta   124.77209012
_cell_angle_gamma   90.07176932
_symmetry_Int_Tables_number   1
_chemical_formula_structural   Cu2Ni3C35
_chemical_formula_sum   'Cu4 Ni6 C70'
_cell_volume   990.13943030
_cell_formula_units_Z   2
loop_
 _symmetry_equiv_pos_site_id
 _symmetry_equiv_pos_as_xyz
  1  'x, y, z'
loop_
 _atom_site_type_symbol
 _atom_site_label
 _atom_site_symmetry_multiplicity
 _atom_site_fract_x
 _atom_site_fract_y
 _atom_site_fract_z
 _atom_site_occupancy
  C  C0  1  0.25043926  0.74983713  0.99815156  1
  C  C1  1  0.74555863  0.75176645  0.48626615  1
  C  C2  1  0.75043926  0.24983713  0.99815156  1
  C  C3  1  0.24555863  0.25176645  0.48626615  1
  C  C4  1  0.49608204  0.09993827  0.73452818  1
  C  C5  1  0.50515041  0.88517658  0.25688856  1
  C  C6  1  0.99608204  0.59993827  0.73452818  1
  C  C7  1  0.00515041  0.38517658  0.25688856  1
  C  C8  1  0.19046659  0.93059160  0.28358438  1
  C  C9  1  0.80846944  0.07349382  0.71142356  1
  C  C10  1  0.69046659  0.43059160  0.28358438  1
  C  C11  1  0.30846944  0.57349382  0.71142356  1
  C  C12  1  0.89536008  0.74807636  0.93695857  1
  C  C13  1  0.39536008  0.24807636  0.93695857  1
  Ni  Ni14  1  0.10494421  0.75459702  0.56006629  1
  Ni  Ni15  1  0.89508463  0.24425319  0.43886206  1
  Ni  Ni16  1  0.10190965  0.25443182  0.05580458  1
  Ni  Ni17  1  0.60494421  0.25459702  0.56006629  1
  Ni  Ni18  1  0.39508463  0.74425319  0.43886206  1
  Ni  Ni19  1  0.60190965  0.75443182  0.05580458  1
  Cu  Cu20  1  0.35275329  0.88951834  0.75037541  1
  Cu  Cu21  1  0.65295703  0.09849765  0.25478890  1
  Cu  Cu22  1  0.85275329  0.38951834  0.75037541  1
  Cu  Cu23  1  0.15295703  0.59849765  0.25478890  1
  C  C24  1  0.00609945  0.96304459  0.75433073  1
  C  C25  1  0.99964018  0.04429661  0.25544191  1
  C  C26  1  0.50609945  0.46304459  0.75433073  1
  C  C27  1  0.49964018  0.54429661  0.25544191  1
  C  C28  1  0.64073321  0.89294412  0.74067611  1
  C  C29  1  0.35513455  0.10751414  0.26201348  1
  C  C30  1  0.14073321  0.39294412  0.74067611  1
  C  C31  1  0.85513455  0.60751414  0.26201348  1
  C  C32  1  0.14988982  0.56751564  0.74253407  1
  C  C33  1  0.84686918  0.57829807  0.76433835  1
  C  C34  1  0.85123892  0.43388619  0.24878023  1
  C  C35  1  0.15203819  0.41671346  0.23666225  1
  C  C36  1  0.64988982  0.06751564  0.74253407  1
  C  C37  1  0.34686918  0.07829807  0.76433835  1
  C  C38  1  0.35123892  0.93388619  0.24878023  1
  C  C39  1  0.65203819  0.91671346  0.23666225  1
  C  C40  1  0.43413218  0.56271768  0.58652929  1
  C  C41  1  0.57413546  0.55169686  0.93546197  1
  C  C42  1  0.56376365  0.43861939  0.41945348  1
  C  C43  1  0.43197009  0.44746179  0.07437319  1
  C  C44  1  0.93413218  0.06271768  0.58652929  1
  C  C45  1  0.07413546  0.05169686  0.93546197  1
  C  C46  1  0.06376365  0.93861939  0.41945348  1
  C  C47  1  0.93197009  0.94746179  0.07437319  1
  C  C48  1  0.25199620  0.81332053  0.73690457  1
  C  C49  1  0.74186215  0.83130610  0.75516204  1
  C  C50  1  0.74564945  0.19017767  0.25738776  1
  C  C51  1  0.25532770  0.16808337  0.24331742  1
  C  C52  1  0.75199620  0.31332053  0.73690457  1
  C  C53  1  0.24186215  0.33130610  0.75516204  1
  C  C54  1  0.24564945  0.69017767  0.25738776  1
  C  C55  1  0.75532770  0.66808337  0.24331742  1
  C  C56  1  0.35705560  0.87159227  0.57104120  1
  C  C57  1  0.64217983  0.85155330  0.90955647  1
  C  C58  1  0.64536635  0.13345664  0.42756982  1
  C  C59  1  0.35842395  0.15982546  0.09420474  1
  C  C60  1  0.85705560  0.37159227  0.57104120  1
  C  C61  1  0.14217983  0.35155330  0.90955647  1
  C  C62  1  0.14536635  0.63345664  0.42756982  1
  C  C63  1  0.85842395  0.65982546  0.09420474  1
  C  C64  1  0.45883438  0.82540186  0.93714450  1
  C  C65  1  0.54281025  0.83176150  0.55907380  1
  C  C66  1  0.53837191  0.17257313  0.07185071  1
  C  C67  1  0.45597319  0.16716367  0.43939874  1
  C  C68  1  0.95883438  0.32540186  0.93714450  1
  C  C69  1  0.04281025  0.33176150  0.55907380  1
  C  C70  1  0.03837191  0.67257313  0.07185071  1
  C  C71  1  0.95597319  0.66716367  0.43939874  1
  C  C72  1  0.07572732  0.84682534  0.74022084  1
  C  C73  1  0.92063909  0.86305509  0.76139712  1
  C  C74  1  0.92209389  0.15108503  0.26009605  1
  C  C75  1  0.08286858  0.13793226  0.24738098  1
  C  C76  1  0.57572732  0.34682534  0.74022084  1
  C  C77  1  0.42063909  0.36305509  0.76139712  1
  C  C78  1  0.42209389  0.65108503  0.26009605  1
  C  C79  1  0.58286858  0.63793226  0.24738098  1
