# generated using pymatgen
data_Cu5(NiC)7
_symmetry_space_group_name_H-M   'P 1'
_cell_length_a   5.06048181
_cell_length_b   5.01129080
_cell_length_c   8.63267002
_cell_angle_alpha   88.40982004
_cell_angle_beta   92.88188215
_cell_angle_gamma   101.99792616
_symmetry_Int_Tables_number   1
_chemical_formula_structural   Cu5(NiC)7
_chemical_formula_sum   'Cu5 Ni7 C7'
_cell_volume   213.83394670
_cell_formula_units_Z   1
loop_
 _symmetry_equiv_pos_site_id
 _symmetry_equiv_pos_as_xyz
  1  'x, y, z'
loop_
 _atom_site_type_symbol
 _atom_site_label
 _atom_site_symmetry_multiplicity
 _atom_site_fract_x
 _atom_site_fract_y
 _atom_site_fract_z
 _atom_site_occupancy
  C  C0  1  0.04237631  0.50533556  0.01133592  1
  C  C1  1  0.98679278  0.99435941  0.99468428  1
  C  C2  1  0.02101041  0.01803348  0.33982326  1
  C  C3  1  0.98972676  0.00186529  0.64564164  1
  C  C4  1  0.56320579  0.38945182  0.17678557  1
  C  C5  1  0.51142178  0.48384915  0.82129331  1
  C  C6  1  0.42750210  0.55518033  0.49986488  1
  Ni  Ni7  1  0.17133720  0.82534912  0.48065858  1
  Ni  Ni8  1  0.31002819  0.31127099  0.33834897  1
  Ni  Ni9  1  0.31322642  0.28373540  0.98981188  1
  Ni  Ni10  1  0.28876367  0.32061582  0.65929689  1
  Ni  Ni11  1  0.65926748  0.71483967  0.66026515  1
  Ni  Ni12  1  0.71128463  0.66460143  0.99631695  1
  Ni  Ni13  1  0.86147823  0.18016469  0.15701856  1
  Cu  Cu14  1  0.17971129  0.79378928  0.16201034  1
  Cu  Cu15  1  0.15230712  0.80044690  0.84126562  1
  Cu  Cu16  1  0.68118825  0.71644957  0.33004690  1
  Cu  Cu17  1  0.82761435  0.22587767  0.83168562  1
  Cu  Cu18  1  0.81564724  0.20089642  0.47812567  1
