# generated using pymatgen
data_Cu2Ni2C33
_symmetry_space_group_name_H-M   'P 1'
_cell_length_a   8.94305421
_cell_length_b   8.89661798
_cell_length_c   22.97475947
_cell_angle_alpha   90.00012932
_cell_angle_beta   90.06105007
_cell_angle_gamma   119.85250241
_symmetry_Int_Tables_number   1
_chemical_formula_structural   Cu2Ni2C33
_chemical_formula_sum   'Cu6 Ni6 C99'
_cell_volume   1585.38830475
_cell_formula_units_Z   3
loop_
 _symmetry_equiv_pos_site_id
 _symmetry_equiv_pos_as_xyz
  1  'x, y, z'
loop_
 _atom_site_type_symbol
 _atom_site_label
 _atom_site_symmetry_multiplicity
 _atom_site_fract_x
 _atom_site_fract_y
 _atom_site_fract_z
 _atom_site_occupancy
  C  C0  1  0.99955467  0.63448877  0.25063683  1
  C  C1  1  0.66562774  0.96655886  0.58379016  1
  C  C2  1  0.66713725  0.69889912  0.08273957  1
  C  C3  1  0.00730212  0.00015387  0.50012867  1
  C  C4  1  0.00549067  0.00488299  0.99874245  1
  C  C5  1  0.66688283  0.33372466  0.83327940  1
  C  C6  1  0.66256035  0.32970113  0.33377080  1
  C  C7  1  0.33333069  0.66665571  0.16666657  1
  C  C8  1  0.32853231  0.66444497  0.66757656  1
  Ni  Ni9  1  0.00619250  0.99701994  0.64810497  1
  Ni  Ni10  1  0.00124466  0.00106105  0.14664607  1
  Ni  Ni11  1  0.66549055  0.33231199  0.18668691  1
  Ni  Ni12  1  0.32631343  0.66414940  0.01801011  1
  Ni  Ni13  1  0.32935997  0.66854284  0.51878792  1
  Ni  Ni14  1  0.33978255  0.66944198  0.31540192  1
  Cu  Cu15  1  0.99290625  0.99219080  0.35555725  1
  Cu  Cu16  1  0.98977732  0.99433018  0.85397967  1
  Cu  Cu17  1  0.66621447  0.32960024  0.68935165  1
  Cu  Cu18  1  0.67379350  0.34063401  0.97729226  1
  Cu  Cu19  1  0.66331218  0.33124254  0.47763915  1
  Cu  Cu20  1  0.33185101  0.66509903  0.81279595  1
  C  C21  1  0.70505432  0.70951122  0.24907126  1
  C  C22  1  0.00062975  0.70911255  0.75044458  1
  C  C23  1  0.70914570  0.99656255  0.74889286  1
  C  C24  1  0.37436494  0.04498379  0.58316035  1
  C  C25  1  0.96157409  0.62370155  0.08419875  1
  C  C26  1  0.62038663  0.66700621  0.91739443  1
  C  C27  1  0.04525329  0.37545250  0.91617681  1
  C  C28  1  0.62330255  0.95655295  0.41763582  1
  C  C29  1  0.04248165  0.66471348  0.41580946  1
  C  C30  1  0.28886518  0.00158638  0.25110852  1
  C  C31  1  0.00055392  0.28793957  0.25069292  1
  C  C32  1  0.28800876  0.28815240  0.75059147  1
  C  C33  1  0.95438718  0.33563121  0.58332607  1
  C  C34  1  0.66606975  0.61895973  0.58338445  1
  C  C35  1  0.66583797  0.04506733  0.08270505  1
  C  C36  1  0.37794678  0.33202659  0.08225174  1
  C  C37  1  0.33316404  0.95725696  0.91624945  1
  C  C38  1  0.33134000  0.37421680  0.41701832  1
  C  C39  1  0.20156053  0.02851555  0.30461289  1
  C  C40  1  0.83736878  0.80642356  0.30514558  1
  C  C41  1  0.97499856  0.17421872  0.30433282  1
  C  C42  1  0.20548675  0.17439953  0.80466141  1
  C  C43  1  0.97164763  0.80398480  0.80704138  1
  C  C44  1  0.83425024  0.03122623  0.80606447  1
  C  C45  1  0.79232619  0.96920786  0.69031767  1
  C  C46  1  0.17774167  0.20936566  0.69583502  1
  C  C47  1  0.03466816  0.82809879  0.69355931  1
  C  C48  1  0.79810836  0.82672989  0.19159316  1
  C  C49  1  0.02902641  0.20551829  0.19579120  1
  C  C50  1  0.17391441  0.96930552  0.19648054  1
  C  C51  1  0.86595948  0.36156995  0.63808383  1
  C  C52  1  0.50503667  0.14187630  0.63923200  1
  C  C53  1  0.64227986  0.50592191  0.63771923  1
  C  C54  1  0.86847093  0.50656994  0.14162467  1
  C  C55  1  0.63762253  0.12780625  0.13740505  1
  C  C56  1  0.49276967  0.36394812  0.13675025  1
  C  C57  1  0.46592209  0.30494029  0.02843128  1
  C  C58  1  0.82841299  0.52596780  0.02782745  1
  C  C59  1  0.69173599  0.15986508  0.02874686  1
  C  C60  1  0.47725773  0.16905825  0.52712790  1
  C  C61  1  0.69419450  0.53394032  0.52922855  1
  C  C62  1  0.83700965  0.30490660  0.52966771  1
  C  C63  1  0.54409233  0.70082987  0.97631605  1
  C  C64  1  0.16060092  0.46151904  0.97317371  1
  C  C65  1  0.30224759  0.84484636  0.97041465  1
  C  C66  1  0.54502598  0.84174874  0.47623218  1
  C  C67  1  0.30213142  0.45654719  0.47147193  1
  C  C68  1  0.16174544  0.69931599  0.47292444  1
  C  C69  1  0.12099037  0.63160064  0.35660437  1
  C  C70  1  0.50546810  0.87297635  0.36038300  1
  C  C71  1  0.36538201  0.48869211  0.36242170  1
  C  C72  1  0.13512567  0.50045425  0.85947385  1
  C  C73  1  0.36335513  0.87045114  0.86206933  1
  C  C74  1  0.49928432  0.63781481  0.86028881  1
  C  C75  1  0.02414325  0.83955676  0.40756080  1
  C  C76  1  0.81785054  0.98392282  0.40725587  1
  C  C77  1  0.17340456  0.19403663  0.40792962  1
  C  C78  1  0.02452581  0.18443965  0.90706527  1
  C  C79  1  0.17331713  0.97833132  0.90760583  1
  C  C80  1  0.81527512  0.83417537  0.90778921  1
  C  C81  1  0.96400326  0.16752130  0.58944412  1
  C  C82  1  0.18679555  0.02855300  0.58792328  1
  C  C83  1  0.82502094  0.80448986  0.58915559  1
  C  C84  1  0.96715184  0.81037557  0.08837442  1
  C  C85  1  0.82869379  0.02522124  0.08881328  1
  C  C86  1  0.19751161  0.17283242  0.08937699  1
  C  C87  1  0.68961495  0.17106946  0.74201738  1
  C  C88  1  0.47071406  0.31004958  0.74190593  1
  C  C89  1  0.82781961  0.51893144  0.74133912  1
  C  C90  1  0.69928195  0.52279163  0.24491502  1
  C  C91  1  0.83812746  0.30846395  0.24444532  1
  C  C92  1  0.46944825  0.16048148  0.24391086  1
  C  C93  1  0.64034093  0.49306620  0.92454700  1
  C  C94  1  0.85120663  0.35249664  0.92526713  1
  C  C95  1  0.49537774  0.13691226  0.92443860  1
  C  C96  1  0.64749351  0.15104040  0.42619635  1
  C  C97  1  0.49513188  0.35690634  0.42482851  1
  C  C98  1  0.84884705  0.49936195  0.42676609  1
  C  C99  1  0.36765541  0.50003424  0.07657495  1
  C  C100  1  0.15033703  0.64554083  0.07749147  1
  C  C101  1  0.50977650  0.86078170  0.07674225  1
  C  C102  1  0.36909770  0.85907811  0.57821307  1
  C  C103  1  0.50567163  0.64066671  0.57772278  1
  C  C104  1  0.13474716  0.49390517  0.57745600  1
  C  C105  1  0.29929155  0.83303458  0.25668845  1
  C  C106  1  0.51593051  0.68777782  0.25596115  1
  C  C107  1  0.15739589  0.47294530  0.25650578  1
  C  C108  1  0.31044883  0.47168394  0.75821191  1
  C  C109  1  0.16993374  0.68692730  0.75961660  1
  C  C110  1  0.51770803  0.83023350  0.75985858  1
