# generated using pymatgen
data_Cu4Ni3C2
_symmetry_space_group_name_H-M   'P 1'
_cell_length_a   7.41156800
_cell_length_b   12.61855500
_cell_length_c   14.90287800
_cell_angle_alpha   90.00000000
_cell_angle_beta   90.00000000
_cell_angle_gamma   90.00000000
_symmetry_Int_Tables_number   1
_chemical_formula_structural   Cu4Ni3C2
_chemical_formula_sum   'Cu16 Ni12 C8'
_cell_volume   1393.76600881
_cell_formula_units_Z   4
loop_
 _symmetry_equiv_pos_site_id
 _symmetry_equiv_pos_as_xyz
  1  'x, y, z'
loop_
 _atom_site_type_symbol
 _atom_site_label
 _atom_site_symmetry_multiplicity
 _atom_site_fract_x
 _atom_site_fract_y
 _atom_site_fract_z
 _atom_site_occupancy
  C  C0  1  0.83535900  0.63541900  0.95832800  1
  C  C1  1  0.83535900  0.36458100  0.54167200  1
  C  C2  1  0.66464100  0.13541900  0.04167200  1
  C  C3  1  0.66464100  0.86458100  0.45832800  1
  C  C4  1  0.16464100  0.36458100  0.04167200  1
  C  C5  1  0.16464100  0.63541900  0.45832800  1
  C  C6  1  0.33535900  0.86458100  0.95832800  1
  C  C7  1  0.33535900  0.13541900  0.54167200  1
  Ni  Ni8  1  0.10103000  0.00000000  0.75000000  1
  Ni  Ni9  1  0.39897000  0.50000000  0.25000000  1
  Ni  Ni10  1  0.89897000  0.00000000  0.25000000  1
  Ni  Ni11  1  0.60103000  0.50000000  0.75000000  1
  Ni  Ni12  1  0.16044200  0.65893100  0.74574500  1
  Ni  Ni13  1  0.16044200  0.34106900  0.75425500  1
  Ni  Ni14  1  0.33955800  0.15893100  0.25425500  1
  Ni  Ni15  1  0.33955800  0.84106900  0.24574500  1
  Ni  Ni16  1  0.83955800  0.34106900  0.25425500  1
  Ni  Ni17  1  0.83955800  0.65893100  0.24574500  1
  Ni  Ni18  1  0.66044200  0.84106900  0.74574500  1
  Ni  Ni19  1  0.66044200  0.15893100  0.75425500  1
  Cu  Cu20  1  0.35505700  0.57838900  0.88775700  1
  Cu  Cu21  1  0.35505700  0.42161100  0.61224300  1
  Cu  Cu22  1  0.14494300  0.07838900  0.11224300  1
  Cu  Cu23  1  0.14494300  0.92161100  0.38775700  1
  Cu  Cu24  1  0.83041200  0.34641300  0.84188800  1
  Cu  Cu25  1  0.83041200  0.65358700  0.65811200  1
  Cu  Cu26  1  0.66958800  0.84641300  0.15811200  1
  Cu  Cu27  1  0.66958800  0.15358700  0.34188800  1
  Cu  Cu28  1  0.16958800  0.65358700  0.15811200  1
  Cu  Cu29  1  0.16958800  0.34641300  0.34188800  1
  Cu  Cu30  1  0.33041200  0.15358700  0.84188800  1
  Cu  Cu31  1  0.33041200  0.84641300  0.65811200  1
  Cu  Cu32  1  0.85505700  0.07838900  0.61224300  1
  Cu  Cu33  1  0.85505700  0.92161100  0.88775700  1
  Cu  Cu34  1  0.64494300  0.57838900  0.38775700  1
  Cu  Cu35  1  0.64494300  0.42161100  0.11224300  1
