# generated using pymatgen
data_CuNi10C67
_symmetry_space_group_name_H-M   'P 1'
_cell_length_a   18.19425295
_cell_length_b   9.11085301
_cell_length_c   22.65296056
_cell_angle_alpha   89.98130817
_cell_angle_beta   90.00361212
_cell_angle_gamma   120.15822510
_symmetry_Int_Tables_number   1
_chemical_formula_structural   CuNi10C67
_chemical_formula_sum   'Cu3 Ni30 C201'
_cell_volume   3246.79001478
_cell_formula_units_Z   3
loop_
 _symmetry_equiv_pos_site_id
 _symmetry_equiv_pos_as_xyz
  1  'x, y, z'
loop_
 _atom_site_type_symbol
 _atom_site_label
 _atom_site_symmetry_multiplicity
 _atom_site_fract_x
 _atom_site_fract_y
 _atom_site_fract_z
 _atom_site_occupancy
  Ni  Ni0  1  0.81361873  0.00768387  0.24925426  1
  Ni  Ni1  1  0.18645952  0.36903260  0.24833740  1
  Ni  Ni2  1  0.68581042  0.36566994  0.24847096  1
  Ni  Ni3  1  0.99709903  0.62349521  0.24917968  1
  Ni  Ni4  1  0.31465462  0.62034318  0.75059288  1
  Ni  Ni5  1  0.81499010  0.62089192  0.74971885  1
  Ni  Ni6  1  0.99495123  0.36844385  0.74960826  1
  Ni  Ni7  1  0.49485481  0.36755447  0.74977154  1
  Ni  Ni8  1  0.19027134  0.01121205  0.75065475  1
  Ni  Ni9  1  0.69035921  0.01180946  0.74966011  1
  Ni  Ni10  1  0.15563501  0.34001159  0.58292232  1
  Ni  Ni11  1  0.65711649  0.33995963  0.58198932  1
  Ni  Ni12  1  0.33109667  0.97260147  0.58195415  1
  Ni  Ni13  1  0.83159764  0.97430168  0.58151751  1
  Ni  Ni14  1  0.65070313  0.96521884  0.08401217  1
  Ni  Ni15  1  0.82940696  0.68676644  0.08173204  1
  Ni  Ni16  1  0.01898204  0.34229933  0.08091213  1
  Ni  Ni17  1  0.48474953  0.30127694  0.41614551  1
  Ni  Ni18  1  0.99971457  0.98942125  0.49731046  1
  Ni  Ni19  1  0.50177391  0.98135334  0.49822177  1
  Ni  Ni20  1  0.00744646  0.00102970  0.99824374  1
  Ni  Ni21  1  0.49255801  0.99930592  0.00009715  1
  Ni  Ni22  1  0.33268583  0.33272793  0.83636917  1
  Ni  Ni23  1  0.83371921  0.33337262  0.83475243  1
  Ni  Ni24  1  0.33345318  0.33315192  0.33139020  1
  Ni  Ni25  1  0.83263849  0.33197610  0.33375998  1
  Ni  Ni26  1  0.17696403  0.69121029  0.16310620  1
  Ni  Ni27  1  0.65535300  0.65087035  0.16530048  1
  Ni  Ni28  1  0.15901064  0.66584559  0.66469513  1
  Ni  Ni29  1  0.65973710  0.66683839  0.66420042  1
  Cu  Cu30  1  0.33512047  0.33611071  0.67826998  1
  Cu  Cu31  1  0.83545332  0.33678635  0.67710224  1
  Cu  Cu32  1  0.83185499  0.33254474  0.17850574  1
  C  C33  1  0.00312330  0.00317103  0.35745419  1
  C  C34  1  0.49592946  0.99308964  0.35481986  1
  C  C35  1  0.00008222  0.00085117  0.86035207  1
  C  C36  1  0.50010629  0.00000528  0.85978789  1
  C  C37  1  0.99968401  0.99664041  0.64572651  1
  C  C38  1  0.50017845  0.99744695  0.64577678  1
  C  C39  1  0.00372183  0.00174503  0.14520639  1
  C  C40  1  0.49571016  0.99640709  0.14442018  1
  C  C41  1  0.33686930  0.33403370  0.18702971  1
  C  C42  1  0.33272871  0.33269171  0.97761130  1
  C  C43  1  0.83384474  0.33493418  0.97933446  1
  C  C44  1  0.33091556  0.33525208  0.48001112  1
  C  C45  1  0.83419033  0.33351886  0.47896266  1
  C  C46  1  0.17353766  0.67612141  0.01971427  1
  C  C47  1  0.66060741  0.65888302  0.01651989  1
  C  C48  1  0.16461168  0.66611793  0.51388412  1
  C  C49  1  0.66573762  0.66838753  0.51363650  1
  C  C50  1  0.16996309  0.67139035  0.31189090  1
  C  C51  1  0.66368717  0.66554768  0.31186078  1
  C  C52  1  0.16686634  0.66660928  0.81521330  1
  C  C53  1  0.66670874  0.66663292  0.81470803  1
  C  C54  1  0.14588285  0.99952029  0.25115601  1
  C  C55  1  0.63816933  0.98935336  0.25058586  1
  C  C56  1  0.35559435  0.71002560  0.25010889  1
  C  C57  1  0.85596109  0.71996948  0.25188942  1
  C  C58  1  0.00420048  0.29062117  0.25236204  1
  C  C59  1  0.49819961  0.28412571  0.25078086  1
  C  C60  1  0.13969199  0.28928897  0.75275391  1
  C  C61  1  0.64033034  0.28991575  0.75256751  1
  C  C62  1  0.00468307  0.72055266  0.75417001  1
  C  C63  1  0.50489624  0.72054681  0.75387741  1
  C  C64  1  0.35517686  0.99068526  0.75275654  1
  C  C65  1  0.85542524  0.99135500  0.75306973  1
  C  C66  1  0.48642633  0.33721665  0.58247108  1
  C  C67  1  0.98594528  0.33703471  0.58350756  1
  C  C68  1  0.18136975  0.02638180  0.58296846  1
  C  C69  1  0.68232246  0.02829241  0.58266458  1
  C  C70  1  0.33260337  0.63628751  0.58228637  1
  C  C71  1  0.83287345  0.63458937  0.58150291  1
  C  C72  1  0.47613383  0.62122485  0.08206516  1
  C  C73  1  0.98636163  0.63630293  0.08278771  1
  C  C74  1  0.33359598  0.04873027  0.08258918  1
  C  C75  1  0.83227223  0.02948212  0.08237987  1
  C  C76  1  0.19251604  0.33898661  0.08415363  1
  C  C77  1  0.68015649  0.33137302  0.08227919  1
  C  C78  1  0.31238066  0.66219139  0.91626066  1
  C  C79  1  0.81073501  0.66329363  0.91710345  1
  C  C80  1  0.02260800  0.37964427  0.91938700  1
  C  C81  1  0.51699441  0.37365264  0.91421245  1
  C  C82  1  0.16870661  0.95903062  0.91644085  1
  C  C83  1  0.66815527  0.96066910  0.91734296  1
  C  C84  1  0.31155698  0.96122336  0.41603768  1
  C  C85  1  0.81303533  0.96067868  0.41413134  1
  C  C86  1  0.16862284  0.37673018  0.41484610  1
  C  C87  1  0.66918768  0.37482336  0.41361094  1
  C  C88  1  0.01970731  0.66150551  0.41266758  1
  C  C89  1  0.51888954  0.66732702  0.41505638  1
  C  C90  1  0.09982249  0.02615436  0.30860735  1
  C  C91  1  0.58504876  0.00931035  0.30579622  1
  C  C92  1  0.41068867  0.80513141  0.30928418  1
  C  C93  1  0.91870915  0.82693002  0.30650906  1
  C  C94  1  0.48502402  0.17200573  0.31087932  1
  C  C95  1  0.00026850  0.17496108  0.30832525  1
  C  C96  1  0.08780181  0.17099496  0.80874278  1
  C  C97  1  0.58828912  0.17118345  0.80824483  1
  C  C98  1  0.49775073  0.82199638  0.81005968  1
  C  C99  1  0.99749417  0.82264394  0.81029388  1
  C  C100  1  0.41440253  0.00379339  0.80827935  1
  C  C101  1  0.91410415  0.00385796  0.80896788  1
  C  C102  1  0.40194159  0.97457333  0.69109578  1
  C  C103  1  0.90201792  0.97468447  0.69154136  1
  C  C104  1  0.08495847  0.19656457  0.69113031  1
  C  C105  1  0.58510072  0.19730644  0.69094724  1
  C  C106  1  0.01274128  0.83528230  0.69398875  1
  C  C107  1  0.51285136  0.83540979  0.69385817  1
  C  C108  1  0.40393000  0.82980279  0.19300155  1
  C  C109  1  0.90189410  0.83084387  0.19069937  1
  C  C110  1  0.01311704  0.19598340  0.19180545  1
  C  C111  1  0.51449397  0.18863052  0.19497224  1
  C  C112  1  0.08206176  0.96983924  0.19410684  1
  C  C113  1  0.58725438  0.97759962  0.18918899  1
  C  C114  1  0.46339075  0.37867513  0.64652064  1
  C  C115  1  0.96495822  0.37932805  0.64821306  1
  C  C116  1  0.23236148  0.07102401  0.64484603  1
  C  C117  1  0.73211070  0.07021771  0.64519113  1
  C  C118  1  0.30226000  0.53382536  0.64393934  1
  C  C119  1  0.80207806  0.53506369  0.64390722  1
  C  C120  1  0.42980857  0.50216807  0.14061341  1
  C  C121  1  0.96297636  0.53846754  0.14570594  1
  C  C122  1  0.32049478  0.14246828  0.14080173  1
  C  C123  1  0.80425379  0.07143018  0.14509131  1
  C  C124  1  0.24816466  0.36046282  0.14422095  1
  C  C125  1  0.73057096  0.39271838  0.14470552  1
  C  C126  1  0.23823178  0.30944084  0.02713649  1
  C  C127  1  0.73864068  0.30454153  0.03217076  1
  C  C128  1  0.41724277  0.52575072  0.02496995  1
  C  C129  1  0.91370263  0.52571955  0.03216812  1
  C  C130  1  0.34687595  0.16796362  0.02540772  1
  C  C131  1  0.84841704  0.17341168  0.03206162  1
  C  C132  1  0.23876070  0.16999052  0.53152484  1
  C  C133  1  0.73814789  0.17128859  0.53177588  1
  C  C134  1  0.34455379  0.52199716  0.53035124  1
  C  C135  1  0.84478989  0.52078946  0.53024468  1
  C  C136  1  0.41693622  0.30712817  0.52949612  1
  C  C137  1  0.91365383  0.30503418  0.53313151  1
  C  C138  1  0.26435379  0.68849084  0.97261974  1
  C  C139  1  0.76022955  0.68508576  0.97269555  1
  C  C140  1  0.08318909  0.47129711  0.97649594  1
  C  C141  1  0.57887789  0.47818177  0.96930550  1
  C  C142  1  0.15955518  0.83450476  0.97109266  1
  C  C143  1  0.65385154  0.84141875  0.97505151  1
  C  C144  1  0.26591522  0.84562150  0.47368763  1
  C  C145  1  0.76486815  0.83994424  0.47099236  1
  C  C146  1  0.15908335  0.47320383  0.47216200  1
  C  C147  1  0.65294040  0.46936290  0.46949549  1
  C  C148  1  0.08200365  0.68447439  0.46795081  1
  C  C149  1  0.57967733  0.68813903  0.47087049  1
  C  C150  1  0.06650463  0.63746355  0.35380698  1
  C  C151  1  0.56678313  0.63375713  0.35892428  1
  C  C152  1  0.25109142  0.86132671  0.35875020  1
  C  C153  1  0.75136296  0.86328974  0.35640357  1
  C  C154  1  0.18036206  0.49536570  0.35649328  1
  C  C155  1  0.67994841  0.49331363  0.35521432  1
  C  C156  1  0.06886872  0.49799408  0.85952242  1
  C  C157  1  0.56627406  0.49320660  0.85535683  1
  C  C158  1  0.18004552  0.86511899  0.85651888  1
  C  C159  1  0.68015613  0.86304986  0.85880113  1
  C  C160  1  0.25273235  0.64027351  0.85706342  1
  C  C161  1  0.75173857  0.63835832  0.85743308  1
  C  C162  1  0.01135256  0.83153583  0.40839606  1
  C  C163  1  0.50784127  0.83338614  0.41038739  1
  C  C164  1  0.40760531  0.98797676  0.41143121  1
  C  C165  1  0.90772645  0.98161499  0.40877766  1
  C  C166  1  0.08506447  0.18710066  0.41168727  1
  C  C167  1  0.58090984  0.18926359  0.40822324  1
  C  C168  1  0.01049062  0.18932580  0.91190162  1
  C  C169  1  0.50982872  0.18796383  0.91089263  1
  C  C170  1  0.08355691  0.97710656  0.91193913  1
  C  C171  1  0.58484323  0.98264683  0.91096318  1
  C  C172  1  0.40620525  0.83261535  0.91112179  1
  C  C173  1  0.90528812  0.83206825  0.91205956  1
  C  C174  1  0.48868337  0.15730245  0.58577380  1
  C  C175  1  0.98863156  0.15755603  0.58645058  1
  C  C176  1  0.09259449  0.03084257  0.58768028  1
  C  C177  1  0.59242760  0.02926505  0.58796272  1
  C  C178  1  0.41937429  0.82225473  0.58727636  1
  C  C179  1  0.91891351  0.82234941  0.58750202  1
  C  C180  1  0.48802111  0.81184387  0.09042674  1
  C  C181  1  0.98712479  0.81828441  0.08736534  1
  C  C182  1  0.41782087  0.02821624  0.09232254  1
  C  C183  1  0.92185554  0.02462517  0.08697575  1
  C  C184  1  0.09524961  0.17048627  0.09236662  1
  C  C185  1  0.59063298  0.15019265  0.08647410  1
  C  C186  1  0.34470676  0.15617715  0.75340740  1
  C  C187  1  0.84472431  0.15657825  0.75359783  1
  C  C188  1  0.23319227  0.31063533  0.75295342  1
  C  C189  1  0.73380729  0.31095593  0.75261026  1
  C  C190  1  0.42188271  0.53402288  0.75333091  1
  C  C191  1  0.92131746  0.53415469  0.75351005  1
  C  C192  1  0.34226675  0.51815025  0.24471390  1
  C  C193  1  0.84553294  0.53363342  0.25379276  1
  C  C194  1  0.41580544  0.30977453  0.24300991  1
  C  C195  1  0.92014633  0.30696927  0.25401779  1
  C  C196  1  0.23803013  0.17293274  0.24332755  1
  C  C197  1  0.73191627  0.15620962  0.25453184  1
  C  C198  1  0.31938299  0.49199336  0.92237502  1
  C  C199  1  0.81927549  0.49338214  0.92585325  1
  C  C200  1  0.42469543  0.35796394  0.92126669  1
  C  C201  1  0.92877903  0.36381886  0.92705314  1
  C  C202  1  0.25267172  0.14609148  0.92307640  1
  C  C203  1  0.75432039  0.14666229  0.92556306  1
  C  C204  1  0.32399006  0.15222685  0.42392920  1
  C  C205  1  0.82087437  0.14631554  0.42535543  1
  C  C206  1  0.25409701  0.35940860  0.42405567  1
  C  C207  1  0.75251390  0.35522184  0.42448847  1
  C  C208  1  0.42757273  0.49064022  0.42432106  1
  C  C209  1  0.92666472  0.49255451  0.42486178  1
  C  C210  1  0.17644332  0.50140272  0.07783276  1
  C  C211  1  0.66792237  0.49297051  0.06724026  1
  C  C212  1  0.07815716  0.65463726  0.06872349  1
  C  C213  1  0.57419593  0.65406664  0.07646261  1
  C  C214  1  0.25070475  0.85733598  0.07620981  1
  C  C215  1  0.75189828  0.83900596  0.06887972  1
  C  C216  1  0.16838999  0.84097404  0.56746548  1
  C  C217  1  0.67000947  0.84240367  0.56730794  1
  C  C218  1  0.25358632  0.66805665  0.56795555  1
  C  C219  1  0.75363661  0.66637976  0.56649223  1
  C  C220  1  0.08240826  0.49071260  0.56929921  1
  C  C221  1  0.58328945  0.49056754  0.56906512  1
  C  C222  1  0.15109067  0.82446249  0.25563018  1
  C  C223  1  0.64764354  0.81841318  0.25679908  1
  C  C224  1  0.26004919  0.68883571  0.25582555  1
  C  C225  1  0.76131573  0.70590012  0.25565526  1
  C  C226  1  0.09153696  0.47967258  0.25462161  1
  C  C227  1  0.58737429  0.47042805  0.25667840  1
  C  C228  1  0.14471906  0.47611835  0.75571206  1
  C  C229  1  0.64593948  0.47736476  0.75529039  1
  C  C230  1  0.09243178  0.70848458  0.75554342  1
  C  C231  1  0.59332359  0.71064687  0.75535113  1
  C  C232  1  0.26133917  0.81392203  0.75522792  1
  C  C233  1  0.76151071  0.81448041  0.75562817  1
