# generated using pymatgen
data_Cu24Ni6C5
_symmetry_space_group_name_H-M   'P 1'
_cell_length_a   8.61244182
_cell_length_b   8.61244156
_cell_length_c   22.48955956
_cell_angle_alpha   90.00000000
_cell_angle_beta   90.00000000
_cell_angle_gamma   120.00000101
_symmetry_Int_Tables_number   1
_chemical_formula_structural   Cu24Ni6C5
_chemical_formula_sum   'Cu72 Ni18 C15'
_cell_volume   1444.65507108
_cell_formula_units_Z   3
loop_
 _symmetry_equiv_pos_site_id
 _symmetry_equiv_pos_as_xyz
  1  'x, y, z'
loop_
 _atom_site_type_symbol
 _atom_site_label
 _atom_site_symmetry_multiplicity
 _atom_site_fract_x
 _atom_site_fract_y
 _atom_site_fract_z
 _atom_site_occupancy
  C  C0  1  -0.00000000  -0.00000000  0.00047184  1
  C  C1  1  0.66666700  0.33333300  0.83289713  1
  C  C2  1  0.66666700  0.33333300  0.33299277  1
  C  C3  1  -0.00000000  -0.00000000  0.35562032  1
  C  C4  1  -0.00000000  -0.00000000  0.85115722  1
  C  C5  1  0.66666700  0.33333300  0.98199375  1
  C  C6  1  -0.00000000  -0.00000000  0.64784018  1
  C  C7  1  -0.00000000  -0.00000000  0.15370580  1
  C  C8  1  0.66666700  0.33333300  0.68056644  1
  C  C9  1  0.66666700  0.33333300  0.18025991  1
  C  C10  1  0.66666700  0.33333300  0.48341407  1
  C  C11  1  0.33333300  0.66666700  0.02258112  1
  C  C12  1  0.33333300  0.66666700  0.52216886  1
  C  C13  1  0.33333300  0.66666700  0.31351729  1
  C  C14  1  0.33333300  0.66666700  0.81047493  1
  Ni  Ni15  1  0.30254542  0.00100805  0.24831061  1
  Ni  Ni16  1  0.69846262  0.69745458  0.24831061  1
  Ni  Ni17  1  0.99899195  0.30153738  0.24831061  1
  Ni  Ni18  1  0.30201614  0.30071110  0.74665268  1
  Ni  Ni19  1  0.99869496  0.69798386  0.74665268  1
  Ni  Ni20  1  0.69928890  0.00130504  0.74665268  1
  Ni  Ni21  1  0.95787579  0.33181483  0.58312985  1
  Ni  Ni22  1  0.37394004  0.04212421  0.58312985  1
  Ni  Ni23  1  0.66818517  0.62605996  0.58312985  1
  Ni  Ni24  1  0.96875088  0.63729616  0.08582366  1
  Ni  Ni25  1  0.66854629  0.03124912  0.08582366  1
  Ni  Ni26  1  0.36270384  0.33145371  0.08582366  1
  Ni  Ni27  1  0.61081148  0.66672019  0.91662298  1
  Ni  Ni28  1  0.05590770  0.38918852  0.91662298  1
  Ni  Ni29  1  0.33327981  0.94409230  0.91662298  1
  Ni  Ni30  1  0.60958427  0.95575023  0.41965574  1
  Ni  Ni31  1  0.34616496  0.39041573  0.41965574  1
  Ni  Ni32  1  0.04424977  0.65383504  0.41965574  1
  Cu  Cu33  1  0.23356613  0.04143185  0.30159097  1
  Cu  Cu34  1  0.80786571  0.76643387  0.30159097  1
  Cu  Cu35  1  0.95856815  0.19213429  0.30159097  1
  Cu  Cu36  1  0.23552707  0.19368066  0.80059311  1
  Cu  Cu37  1  0.95815359  0.76447293  0.80059311  1
  Cu  Cu38  1  0.80631934  0.04184641  0.80059311  1
  Cu  Cu39  1  0.78583405  0.96879032  0.69413827  1
  Cu  Cu40  1  0.18295627  0.21416595  0.69413827  1
  Cu  Cu41  1  0.03120968  0.81704373  0.69413827  1
  Cu  Cu42  1  0.78292634  0.81477557  0.19538466  1
  Cu  Cu43  1  0.03184923  0.21707366  0.19538466  1
  Cu  Cu44  1  0.18522443  0.96815077  0.19538466  1
  Cu  Cu45  1  0.87859130  0.36919308  0.63615514  1
  Cu  Cu46  1  0.49060278  0.12140870  0.63615514  1
  Cu  Cu47  1  0.63080692  0.50939722  0.63615514  1
  Cu  Cu48  1  0.88239768  0.51815146  0.13821315  1
  Cu  Cu49  1  0.63575479  0.11760232  0.13821315  1
  Cu  Cu50  1  0.48184854  0.36424521  0.13821315  1
  Cu  Cu51  1  0.43006562  0.29116738  0.03207539  1
  Cu  Cu52  1  0.86110277  0.56993438  0.03207539  1
  Cu  Cu53  1  0.70883262  0.13889723  0.03207539  1
  Cu  Cu54  1  0.45346512  0.15811965  0.52971501  1
  Cu  Cu55  1  0.70465553  0.54653488  0.52971501  1
  Cu  Cu56  1  0.84188035  0.29534447  0.52971501  1
  Cu  Cu57  1  0.52515115  0.68252272  0.97209271  1
  Cu  Cu58  1  0.15737056  0.47484885  0.97209271  1
  Cu  Cu59  1  0.31747728  0.84262944  0.97209271  1
  Cu  Cu60  1  0.52472429  0.84595482  0.47315128  1
  Cu  Cu61  1  0.32122954  0.47527571  0.47315128  1
  Cu  Cu62  1  0.15404518  0.67877046  0.47315128  1
  Cu  Cu63  1  0.12186780  0.62288499  0.36412567  1
  Cu  Cu64  1  0.50101619  0.87813220  0.36412567  1
  Cu  Cu65  1  0.37711501  0.49898381  0.36412567  1
  Cu  Cu66  1  0.14157558  0.49077756  0.86114158  1
  Cu  Cu67  1  0.34920098  0.85842442  0.86114158  1
  Cu  Cu68  1  0.50922244  0.65079902  0.86114158  1
  Cu  Cu69  1  0.02438471  0.81020079  0.41494683  1
  Cu  Cu70  1  0.78581608  0.97561529  0.41494683  1
  Cu  Cu71  1  0.18979921  0.21418392  0.41494683  1
  Cu  Cu72  1  0.04051573  0.21177147  0.91623804  1
  Cu  Cu73  1  0.17125574  0.95948427  0.91623804  1
  Cu  Cu74  1  0.78822853  0.82874426  0.91623804  1
  Cu  Cu75  1  0.97507847  0.17071949  0.59245447  1
  Cu  Cu76  1  0.19564102  0.02492153  0.59245447  1
  Cu  Cu77  1  0.82928051  0.80435898  0.59245447  1
  Cu  Cu78  1  0.98996900  0.81888488  0.09597231  1
  Cu  Cu79  1  0.82891588  0.01003100  0.09597231  1
  Cu  Cu80  1  0.18111512  0.17108412  0.09597231  1
  Cu  Cu81  1  0.67770242  0.16188694  0.73691424  1
  Cu  Cu82  1  0.48418551  0.32229758  0.73691424  1
  Cu  Cu83  1  0.83811306  0.51581449  0.73691424  1
  Cu  Cu84  1  0.67644305  0.51527717  0.23807519  1
  Cu  Cu85  1  0.83883512  0.32355695  0.23807519  1
  Cu  Cu86  1  0.48472283  0.16116488  0.23807519  1
  Cu  Cu87  1  0.62620649  0.50466442  0.91702516  1
  Cu  Cu88  1  0.87845893  0.37379351  0.91702516  1
  Cu  Cu89  1  0.49533558  0.12154107  0.91702516  1
  Cu  Cu90  1  0.62357949  0.13699145  0.42522091  1
  Cu  Cu91  1  0.51341296  0.37642051  0.42522091  1
  Cu  Cu92  1  0.86300855  0.48658704  0.42522091  1
  Cu  Cu93  1  0.34739178  0.49427570  0.07890217  1
  Cu  Cu94  1  0.14688292  0.65260822  0.07890217  1
  Cu  Cu95  1  0.50572430  0.85311708  0.07890217  1
  Cu  Cu96  1  0.35582723  0.86327496  0.57481358  1
  Cu  Cu97  1  0.50744673  0.64417277  0.57481358  1
  Cu  Cu98  1  0.13672504  0.49255327  0.57481358  1
  Cu  Cu99  1  0.31746613  0.83755064  0.25598622  1
  Cu  Cu100  1  0.52008351  0.68253387  0.25598622  1
  Cu  Cu101  1  0.16244936  0.47991649  0.25598622  1
  Cu  Cu102  1  0.31818099  0.47927779  0.75387987  1
  Cu  Cu103  1  0.16109579  0.68181900  0.75387987  1
  Cu  Cu104  1  0.52072221  0.83890421  0.75387987  1
