# generated using pymatgen
data_CuNiC16
_symmetry_space_group_name_H-M   'P 1'
_cell_length_a   8.84795048
_cell_length_b   8.84285285
_cell_length_c   23.01861910
_cell_angle_alpha   89.98889824
_cell_angle_beta   90.00000000
_cell_angle_gamma   120.01907126
_symmetry_Int_Tables_number   1
_chemical_formula_structural   CuNiC16
_chemical_formula_sum   'Cu6 Ni6 C96'
_cell_volume   1559.41417103
_cell_formula_units_Z   6
loop_
 _symmetry_equiv_pos_site_id
 _symmetry_equiv_pos_as_xyz
  1  'x, y, z'
loop_
 _atom_site_type_symbol
 _atom_site_label
 _atom_site_symmetry_multiplicity
 _atom_site_fract_x
 _atom_site_fract_y
 _atom_site_fract_z
 _atom_site_occupancy
  C  C0  1  0.00267523  0.00454997  0.49851605  1
  C  C1  1  0.00187474  0.00454997  0.99851605  1
  C  C2  1  0.67019809  0.33679978  0.83195806  1
  C  C3  1  0.66660269  0.33679978  0.33195806  1
  C  C4  1  0.33507741  0.66533774  0.16515669  1
  C  C5  1  0.33025932  0.66533774  0.66515669  1
  Ni  Ni6  1  0.99991335  0.99831305  0.35386155  1
  Ni  Ni7  1  0.99839970  0.99831305  0.85386155  1
  Ni  Ni8  1  0.67355298  0.33693465  0.68728746  1
  Ni  Ni9  1  0.66338267  0.33693465  0.18728746  1
  Ni  Ni10  1  0.33121752  0.66018276  0.02059375  1
  Ni  Ni11  1  0.32896424  0.66018276  0.52059375  1
  Cu  Cu12  1  0.00134545  0.99989910  0.64576150  1
  Cu  Cu13  1  0.99855365  0.99989910  0.14576150  1
  Cu  Cu14  1  0.66462922  0.33214480  0.97911054  1
  Cu  Cu15  1  0.66751658  0.33214480  0.47911054  1
  Cu  Cu16  1  0.33777418  0.66368915  0.31239286  1
  Cu  Cu17  1  0.32591397  0.66368915  0.81239286  1
  C  C18  1  0.71111302  0.71102573  0.25030127  1
  C  C19  1  -0.00008729  0.71102573  0.75030127  1
  C  C20  1  0.95675241  0.33220225  0.58334760  1
  C  C21  1  0.37545084  0.33220225  0.08334760  1
  C  C22  1  0.04107293  0.37499209  0.91717123  1
  C  C23  1  0.33391817  0.37499209  0.41717123  1
  C  C24  1  0.28642609  0.99704403  0.25010710  1
  C  C25  1  0.00065729  0.28860383  0.25026907  1
  C  C26  1  0.28794654  0.28860383  0.75026907  1
  C  C27  1  0.71061794  0.99704403  0.75010710  1
  C  C28  1  0.37871781  0.04669421  0.58371601  1
  C  C29  1  0.66820079  0.62212977  0.58353707  1
  C  C30  1  0.95392998  0.62212977  0.08353707  1
  C  C31  1  0.66797740  0.04669421  0.08371601  1
  C  C32  1  0.62016902  0.66516475  0.91660660  1
  C  C33  1  0.33489058  0.95472591  0.91696279  1
  C  C34  1  0.61983433  0.95472591  0.41696279  1
  C  C35  1  0.04499473  0.66516475  0.41660660  1
  C  C36  1  0.20582415  0.02892730  0.30386093  1
  C  C37  1  0.82676342  0.80003926  0.30696953  1
  C  C38  1  0.97539441  0.17842441  0.30403907  1
  C  C39  1  0.20303000  0.17842441  0.80403907  1
  C  C40  1  0.97327584  0.80003926  0.80696953  1
  C  C41  1  0.82310315  0.02892730  0.80386093  1
  C  C42  1  0.80103954  0.97166156  0.69544696  1
  C  C43  1  0.17036995  0.20235547  0.69539346  1
  C  C44  1  0.03011860  0.83527982  0.69290706  1
  C  C45  1  0.80516123  0.83527982  0.19290706  1
  C  C46  1  0.03198551  0.20235547  0.19539346  1
  C  C47  1  0.17062202  0.97166156  0.19544696  1
  C  C48  1  0.86596733  0.36013154  0.63963156  1
  C  C49  1  0.48700440  0.12993603  0.63774392  1
  C  C50  1  0.63722913  0.51024069  0.63738233  1
  C  C51  1  0.87301256  0.51024069  0.13738233  1
  C  C52  1  0.64293263  0.12993603  0.13774392  1
  C  C53  1  0.49416521  0.36013154  0.13963156  1
  C  C54  1  0.47149953  0.30311347  0.02620792  1
  C  C55  1  0.83758078  0.53363554  0.02889711  1
  C  C56  1  0.69793591  0.16338430  0.02877223  1
  C  C57  1  0.46544939  0.16338430  0.52877223  1
  C  C58  1  0.69605576  0.53363554  0.52889711  1
  C  C59  1  0.83161494  0.30311347  0.52620792  1
  C  C60  1  0.53887733  0.69517046  0.97081312  1
  C  C61  1  0.16096038  0.46725348  0.97308105  1
  C  C62  1  0.30860197  0.84617039  0.97103430  1
  C  C63  1  0.53756743  0.84617039  0.47103430  1
  C  C64  1  0.30629209  0.46725348  0.47308105  1
  C  C65  1  0.15629213  0.69517046  0.47081312  1
  C  C66  1  0.13177495  0.63738222  0.36201758  1
  C  C67  1  0.50331659  0.86843173  0.36214302  1
  C  C68  1  0.36296006  0.50184968  0.35990964  1
  C  C69  1  0.13888862  0.50184968  0.85990964  1
  C  C70  1  0.36511413  0.86843173  0.86214302  1
  C  C71  1  0.50560627  0.63738222  0.86201758  1
  C  C72  1  0.02081523  0.82407542  0.40979753  1
  C  C73  1  0.80229287  0.97859740  0.40904061  1
  C  C74  1  0.16547237  0.18414311  0.40988048  1
  C  C75  1  0.01867074  0.18414311  0.90988048  1
  C  C76  1  0.17630453  0.97859740  0.90904061  1
  C  C77  1  0.80326019  0.82407542  0.90979753  1
  C  C78  1  0.97385652  0.15622863  0.59183018  1
  C  C79  1  0.19508750  0.02979433  0.59071093  1
  C  C80  1  0.83572428  0.80521861  0.59110779  1
  C  C81  1  0.96949433  0.80521861  0.09110779  1
  C  C82  1  0.83470683  0.02979433  0.09071093  1
  C  C83  1  0.18237211  0.15622863  0.09183018  1
  C  C84  1  0.68443261  0.15495541  0.74241862  1
  C  C85  1  0.46805065  0.30885915  0.74222367  1
  C  C86  1  0.83126197  0.51834356  0.74415322  1
  C  C87  1  0.68708259  0.51834356  0.24415322  1
  C  C88  1  0.84080950  0.30885915  0.24222367  1
  C  C89  1  0.47052380  0.15495541  0.24241862  1
  C  C90  1  0.63745193  0.49885913  0.92475459  1
  C  C91  1  0.84933910  0.36041301  0.92514580  1
  C  C92  1  0.50185331  0.13904448  0.92393001  1
  C  C93  1  0.63719217  0.13904448  0.42393001  1
  C  C94  1  0.51107491  0.36041301  0.42514580  1
  C  C95  1  0.86140820  0.49885913  0.42475459  1
  C  C96  1  0.35487888  0.50289726  0.07756943  1
  C  C97  1  0.13791676  0.64981636  0.07579159  1
  C  C98  1  0.50864337  0.86570707  0.07542093  1
  C  C99  1  0.35706270  0.86570707  0.57542093  1
  C  C100  1  0.51189860  0.64981636  0.57579159  1
  C  C101  1  0.14801738  0.50289726  0.57756943  1
  C  C102  1  0.30073780  0.83015524  0.25767071  1
  C  C103  1  0.51744714  0.69599850  0.25785613  1
  C  C104  1  0.16559584  0.47307238  0.25778978  1
  C  C105  1  0.30747554  0.47307238  0.75778978  1
  C  C106  1  0.17855036  0.69599850  0.75785613  1
  C  C107  1  0.52941645  0.83015524  0.75767071  1
