# generated using pymatgen
data_CuNi3C2
_symmetry_space_group_name_H-M   'P 1'
_cell_length_a   7.94373100
_cell_length_b   8.17182400
_cell_length_c   9.13922200
_cell_angle_alpha   90.00000000
_cell_angle_beta   90.00000000
_cell_angle_gamma   90.00000000
_symmetry_Int_Tables_number   1
_chemical_formula_structural   CuNi3C2
_chemical_formula_sum   'Cu4 Ni12 C8'
_cell_volume   593.27050905
_cell_formula_units_Z   4
loop_
 _symmetry_equiv_pos_site_id
 _symmetry_equiv_pos_as_xyz
  1  'x, y, z'
loop_
 _atom_site_type_symbol
 _atom_site_label
 _atom_site_symmetry_multiplicity
 _atom_site_fract_x
 _atom_site_fract_y
 _atom_site_fract_z
 _atom_site_occupancy
  C  C0  1  0.89292700  0.21691600  0.67192700  1
  C  C1  1  0.60707300  0.78308400  0.67192700  1
  C  C2  1  0.10707300  0.71691600  0.82807300  1
  C  C3  1  0.39292700  0.28308400  0.82807300  1
  C  C4  1  0.89292700  0.28308400  0.17192700  1
  C  C5  1  0.39292700  0.21691600  0.32807300  1
  C  C6  1  0.10707300  0.78308400  0.32807300  1
  C  C7  1  0.60707300  0.71691600  0.17192700  1
  Ni  Ni8  1  0.07772200  0.11168300  0.01592900  1
  Ni  Ni9  1  0.57772200  0.38831700  0.48407100  1
  Ni  Ni10  1  0.92227800  0.61168300  0.48407100  1
  Ni  Ni11  1  0.42227800  0.88831700  0.01592900  1
  Ni  Ni12  1  0.92227800  0.88831700  0.98407100  1
  Ni  Ni13  1  0.42227800  0.61168300  0.51592900  1
  Ni  Ni14  1  0.07772200  0.38831700  0.51592900  1
  Ni  Ni15  1  0.25000000  0.00000000  0.17858900  1
  Ni  Ni16  1  0.25000000  0.50000000  0.67858900  1
  Ni  Ni17  1  0.75000000  0.00000000  0.82141100  1
  Ni  Ni18  1  0.75000000  0.50000000  0.32141100  1
  Ni  Ni19  1  0.57772200  0.11168300  0.98407100  1
  Cu  Cu20  1  0.25000000  0.50000000  0.11357000  1
  Cu  Cu21  1  0.75000000  0.50000000  0.88643000  1
  Cu  Cu22  1  0.75000000  0.00000000  0.38643000  1
  Cu  Cu23  1  0.25000000  0.00000000  0.61357000  1
