# generated using pymatgen
data_CuNiC9
_symmetry_space_group_name_H-M   'P 1'
_cell_length_a   6.43256362
_cell_length_b   6.43256301
_cell_length_c   5.81900300
_cell_angle_alpha   63.10811759
_cell_angle_beta   63.10812036
_cell_angle_gamma   51.87432687
_symmetry_Int_Tables_number   1
_chemical_formula_structural   CuNiC9
_chemical_formula_sum   'Cu1 Ni1 C9'
_cell_volume   163.70776546
_cell_formula_units_Z   1
loop_
 _symmetry_equiv_pos_site_id
 _symmetry_equiv_pos_as_xyz
  1  'x, y, z'
loop_
 _atom_site_type_symbol
 _atom_site_label
 _atom_site_symmetry_multiplicity
 _atom_site_fract_x
 _atom_site_fract_y
 _atom_site_fract_z
 _atom_site_occupancy
  C  C0  1  0.32283000  0.32283000  0.17717000  1
  C  C1  1  0.67717000  0.67717000  0.82283000  1
  Ni  Ni2  1  0.00000000  0.00000000  0.50000000  1
  Cu  Cu3  1  0.50000000  0.50000000  0.50000000  1
  C  C4  1  0.00000000  0.00000000  0.00000000  1
  C  C5  1  0.25297300  0.74702700  0.74003800  1
  C  C6  1  0.25297300  0.74702700  0.25996200  1
  C  C7  1  0.74702700  0.25297300  0.74003800  1
  C  C8  1  0.20777700  0.20777700  0.79222300  1
  C  C9  1  0.74702700  0.25297300  0.25996200  1
  C  C10  1  0.79222300  0.79222300  0.20777700  1
