# generated using pymatgen
data_Cu2Ni5C32
_symmetry_space_group_name_H-M   'P 1'
_cell_length_a   9.01946437
_cell_length_b   9.02555427
_cell_length_c   22.61724212
_cell_angle_alpha   90.06919126
_cell_angle_beta   90.09740967
_cell_angle_gamma   120.01331886
_symmetry_Int_Tables_number   1
_chemical_formula_structural   Cu2Ni5C32
_chemical_formula_sum   'Cu6 Ni15 C96'
_cell_volume   1594.28056458
_cell_formula_units_Z   3
loop_
 _symmetry_equiv_pos_site_id
 _symmetry_equiv_pos_as_xyz
  1  'x, y, z'
loop_
 _atom_site_type_symbol
 _atom_site_label
 _atom_site_symmetry_multiplicity
 _atom_site_fract_x
 _atom_site_fract_y
 _atom_site_fract_z
 _atom_site_occupancy
  C  C0  1  0.64029544  0.00357651  0.24971560  1
  C  C1  1  0.36663896  0.36294097  0.24813875  1
  C  C2  1  0.99380872  0.63231497  0.24835002  1
  C  C3  1  0.99684228  0.36302680  0.74946417  1
  C  C4  1  0.03386436  0.69968474  0.57968302  1
  C  C5  1  0.66259822  0.96414698  0.57981576  1
  C  C6  1  0.96960724  0.66787749  0.91969974  1
  C  C7  1  0.70153514  0.03477849  0.91734956  1
  C  C8  1  0.32850862  0.29823064  0.92002093  1
  C  C9  1  0.00492445  0.00509834  0.49294007  1
  C  C10  1  0.00471770  0.00233726  0.00502668  1
  C  C11  1  0.65926893  0.33107230  0.83098197  1
  C  C12  1  0.66802360  0.33456115  0.33443662  1
  C  C13  1  0.32991251  0.66114327  0.16097525  1
  C  C14  1  0.34102227  0.66499559  0.66394289  1
  C  C15  1  0.00296623  0.00334342  0.64541755  1
  C  C16  1  0.00442440  0.99913794  0.14464065  1
  C  C17  1  0.66193569  0.33391223  0.68644360  1
  C  C18  1  0.66907940  0.33154377  0.47626936  1
  C  C19  1  0.33134935  0.66870687  0.31442392  1
  C  C20  1  0.33213160  0.67349839  0.81011197  1
  Ni  Ni21  1  0.29019282  0.00224312  0.25070175  1
  Ni  Ni22  1  0.71121040  0.71011911  0.24964146  1
  Ni  Ni23  1  0.99813539  0.28654778  0.24998731  1
  Ni  Ni24  1  0.29442772  0.29142096  0.75137880  1
  Ni  Ni25  1  0.99619487  0.71012579  0.75054390  1
  Ni  Ni26  1  0.70886756  0.99857996  0.74994933  1
  Ni  Ni27  1  0.95793297  0.33498280  0.58309647  1
  Ni  Ni28  1  0.37788688  0.04652806  0.58160965  1
  Ni  Ni29  1  0.66200735  0.61934050  0.58179744  1
  Ni  Ni30  1  0.96061424  0.62648112  0.08320947  1
  Ni  Ni31  1  0.37395839  0.33620786  0.08262147  1
  Ni  Ni32  1  0.04170658  0.37410895  0.91635127  1
  Ni  Ni33  1  0.33324372  0.95781095  0.91814856  1
  Ni  Ni34  1  0.62887038  0.95779118  0.41830706  1
  Ni  Ni35  1  0.04211352  0.67172421  0.41826440  1
  Cu  Cu36  1  0.99767540  0.99774280  0.35355462  1
  Cu  Cu37  1  0.00377575  0.00173132  0.85033327  1
  Cu  Cu38  1  0.66717913  0.33542476  0.18332643  1
  Cu  Cu39  1  0.66602739  0.33276760  0.98397427  1
  Cu  Cu40  1  0.32635812  0.66163031  0.02226314  1
  Cu  Cu41  1  0.33359464  0.66446072  0.51873756  1
  C  C42  1  0.66660392  0.03758217  0.08301005  1
  C  C43  1  0.62043281  0.66779432  0.91645758  1
  C  C44  1  0.33230204  0.37494998  0.41661241  1
  C  C45  1  0.21256903  0.04870113  0.30718260  1
  C  C46  1  0.83497064  0.78744035  0.30667282  1
  C  C47  1  0.95533274  0.16599115  0.30743114  1
  C  C48  1  0.22057370  0.18330432  0.81201793  1
  C  C49  1  0.96281798  0.78349208  0.81141280  1
  C  C50  1  0.82615799  0.04180298  0.80957277  1
  C  C51  1  0.80239442  0.97159511  0.69196479  1
  C  C52  1  0.16204474  0.19519799  0.69542038  1
  C  C53  1  0.02754756  0.83109355  0.69266153  1
  C  C54  1  0.79972291  0.83903600  0.19339454  1
  C  C55  1  0.03668920  0.19798338  0.19333602  1
  C  C56  1  0.16194785  0.96152346  0.19364612  1
  C  C57  1  0.86956045  0.36490937  0.64207917  1
  C  C58  1  0.50307037  0.13934218  0.63920891  1
  C  C59  1  0.64121003  0.50137095  0.64011015  1
  C  C60  1  0.87885032  0.51274462  0.14273349  1
  C  C61  1  0.63713961  0.11845044  0.13901676  1
  C  C62  1  0.48356729  0.36070287  0.14288915  1
  C  C63  1  0.44831222  0.29551388  0.02153844  1
  C  C64  1  0.84761017  0.54940239  0.02179597  1
  C  C65  1  0.69933160  0.14705743  0.02564336  1
  C  C66  1  0.47145332  0.16900640  0.52554908  1
  C  C67  1  0.70171704  0.53023549  0.52644389  1
  C  C68  1  0.82825234  0.29810972  0.52713506  1
  C  C69  1  0.54530789  0.70549986  0.97114901  1
  C  C70  1  0.17105609  0.45581714  0.97139641  1
  C  C71  1  0.29598983  0.83260936  0.97321798  1
  C  C72  1  0.54624503  0.84672336  0.47832894  1
  C  C73  1  0.30263435  0.45625001  0.47233332  1
  C  C74  1  0.15179856  0.69545584  0.47842395  1
  C  C75  1  0.13681057  0.64010510  0.35974191  1
  C  C76  1  0.50364405  0.85971978  0.35983031  1
  C  C77  1  0.35759579  0.48875971  0.36074563  1
  C  C78  1  0.13265655  0.49688090  0.85753347  1
  C  C79  1  0.36535523  0.86308951  0.86002052  1
  C  C80  1  0.50400060  0.63858265  0.86164047  1
  C  C81  1  0.02736176  0.84168599  0.41233670  1
  C  C82  1  0.81834781  0.98352971  0.41265622  1
  C  C83  1  0.17401756  0.19737222  0.41071374  1
  C  C84  1  0.01532289  0.18009592  0.91138443  1
  C  C85  1  0.16055892  0.97428446  0.91206198  1
  C  C86  1  0.80251977  0.82771963  0.91025495  1
  C  C87  1  0.96559660  0.15746474  0.59001683  1
  C  C88  1  0.18553749  0.02118269  0.59045626  1
  C  C89  1  0.83689750  0.80908528  0.59077096  1
  C  C90  1  0.97172552  0.81415270  0.09007254  1
  C  C91  1  0.83011577  0.02451418  0.08953641  1
  C  C92  1  0.18306109  0.16329920  0.08998408  1
  C  C93  1  0.69541470  0.17125959  0.74179552  1
  C  C94  1  0.48278188  0.31351144  0.74226482  1
  C  C95  1  0.83715538  0.51492747  0.74317454  1
  C  C96  1  0.68448190  0.51699595  0.24452010  1
  C  C97  1  0.83050748  0.31076091  0.24323873  1
  C  C98  1  0.48377864  0.16390890  0.24285267  1
  C  C99  1  0.63663365  0.50409485  0.91974000  1
  C  C100  1  0.85231289  0.36042211  0.92066287  1
  C  C101  1  0.50735745  0.14793033  0.92020162  1
  C  C102  1  0.63557288  0.14402628  0.42226219  1
  C  C103  1  0.49753728  0.36426975  0.42199409  1
  C  C104  1  0.85370428  0.49514905  0.42293266  1
  C  C105  1  0.36218120  0.50967369  0.07899528  1
  C  C106  1  0.15157203  0.65147394  0.08049527  1
  C  C107  1  0.50718875  0.86030209  0.07726499  1
  C  C108  1  0.35897521  0.85663860  0.57991741  1
  C  C109  1  0.49931115  0.64962896  0.57970842  1
  C  C110  1  0.14307995  0.50819999  0.57884761  1
  C  C111  1  0.30537363  0.82698115  0.25708268  1
  C  C112  1  0.51907976  0.69032793  0.25713518  1
  C  C113  1  0.17161161  0.47780996  0.25696869  1
  C  C114  1  0.30279891  0.47729127  0.75660386  1
  C  C115  1  0.16776131  0.68771607  0.75613313  1
  C  C116  1  0.52069323  0.82675509  0.75668504  1
