# generated using pymatgen
data_Cu2NiC16
_symmetry_space_group_name_H-M   'P 1'
_cell_length_a   8.74152609
_cell_length_b   8.70992113
_cell_length_c   22.16238821
_cell_angle_alpha   90.56059010
_cell_angle_beta   89.97280857
_cell_angle_gamma   119.96698827
_symmetry_Int_Tables_number   1
_chemical_formula_structural   Cu2NiC16
_chemical_formula_sum   'Cu12 Ni6 C96'
_cell_volume   1461.72818011
_cell_formula_units_Z   6
loop_
 _symmetry_equiv_pos_site_id
 _symmetry_equiv_pos_as_xyz
  1  'x, y, z'
loop_
 _atom_site_type_symbol
 _atom_site_label
 _atom_site_symmetry_multiplicity
 _atom_site_fract_x
 _atom_site_fract_y
 _atom_site_fract_z
 _atom_site_occupancy
  C  C0  1  0.63487132  0.99839183  0.25423128  1
  C  C1  1  0.36303685  0.36271696  0.25079516  1
  C  C2  1  0.30603917  0.33851837  0.59020700  1
  C  C3  1  0.66654129  0.95816930  0.58275574  1
  C  C4  1  0.97506359  0.67552852  0.91370907  1
  C  C5  1  0.32632352  0.29853594  0.91127549  1
  C  C6  1  0.98834857  0.98289875  0.49695561  1
  C  C7  1  0.99036589  0.00155737  0.99734711  1
  C  C8  1  0.66062212  0.32408590  0.82680888  1
  C  C9  1  0.67664696  0.33758802  0.33736977  1
  C  C10  1  0.32236025  0.66588148  0.16217090  1
  C  C11  1  0.32936596  0.66261573  0.67123572  1
  C  C12  1  0.99407118  0.99748086  0.35534034  1
  C  C13  1  0.99862526  0.00427120  0.84973876  1
  C  C14  1  0.99987632  0.99286656  0.65423983  1
  C  C15  1  0.99959057  0.99757653  0.14523143  1
  C  C16  1  0.66147672  0.34004304  0.68914244  1
  C  C17  1  0.67327780  0.33912776  0.18253948  1
  C  C18  1  0.33533735  0.66787552  0.01738297  1
  C  C19  1  0.33812311  0.67115978  0.51503849  1
  C  C20  1  0.33226107  0.67556718  0.32258120  1
  C  C21  1  0.66774575  0.32812381  0.97772001  1
  C  C22  1  0.67185293  0.33755016  0.48155436  1
  C  C23  1  0.33270687  0.65818024  0.81819806  1
  Ni  Ni24  1  0.29543437  0.30034420  0.75230424  1
  Ni  Ni25  1  0.66943151  0.62158433  0.58212476  1
  Ni  Ni26  1  0.62495195  0.66877226  0.91947335  1
  Ni  Ni27  1  0.04089993  0.37512294  0.91894240  1
  Ni  Ni28  1  0.33767224  0.95403808  0.91780145  1
  Ni  Ni29  1  0.63274666  0.97204889  0.41932315  1
  Cu  Cu30  1  0.28892603  0.99651462  0.24951238  1
  Cu  Cu31  1  0.70882113  0.70646346  0.24977059  1
  Cu  Cu32  1  0.00171266  0.29482272  0.24989434  1
  Cu  Cu33  1  0.00697718  0.70483914  0.75263361  1
  Cu  Cu34  1  0.69918080  0.99533866  0.75071066  1
  Cu  Cu35  1  0.95656263  0.33705571  0.58339240  1
  Cu  Cu36  1  0.37674691  0.04330663  0.58281417  1
  Cu  Cu37  1  0.95741983  0.62291498  0.08216496  1
  Cu  Cu38  1  0.66590015  0.04303265  0.08322586  1
  Cu  Cu39  1  0.37611236  0.33367863  0.08314430  1
  Cu  Cu40  1  0.33669574  0.37012198  0.41743184  1
  Cu  Cu41  1  0.03569432  0.66305016  0.41852057  1
  C  C42  1  0.21010771  0.02924758  0.30331930  1
  C  C43  1  0.81460273  0.78791708  0.30413188  1
  C  C44  1  0.97113093  0.18274596  0.30312629  1
  C  C45  1  0.20836764  0.19252961  0.80859259  1
  C  C46  1  0.98067847  0.78423783  0.80786346  1
  C  C47  1  0.80776480  0.01804475  0.80366767  1
  C  C48  1  0.77126205  0.96327245  0.69387401  1
  C  C49  1  0.18716955  0.22542156  0.69307090  1
  C  C50  1  0.03485316  0.81241312  0.69857590  1
  C  C51  1  0.78705875  0.81698300  0.19589709  1
  C  C52  1  0.03216096  0.21369717  0.19536917  1
  C  C53  1  0.18498063  0.97407918  0.19466342  1
  C  C54  1  0.87279553  0.35973719  0.63640633  1
  C  C55  1  0.49176378  0.12362958  0.63527820  1
  C  C56  1  0.63338522  0.50009420  0.63483055  1
  C  C57  1  0.87157854  0.51403967  0.13502807  1
  C  C58  1  0.64351601  0.12509685  0.13877596  1
  C  C59  1  0.48188427  0.35616070  0.13806937  1
  C  C60  1  0.46093479  0.30396636  0.02669926  1
  C  C61  1  0.84460476  0.54001620  0.02467180  1
  C  C62  1  0.69697454  0.16050961  0.02818838  1
  C  C63  1  0.45740176  0.16019466  0.52708832  1
  C  C64  1  0.70025232  0.53385522  0.52226403  1
  C  C65  1  0.83937233  0.29687975  0.52687889  1
  C  C66  1  0.54389822  0.69469034  0.97528048  1
  C  C67  1  0.15515065  0.45764204  0.97395816  1
  C  C68  1  0.30250102  0.84235088  0.97303342  1
  C  C69  1  0.54558540  0.86279716  0.47536316  1
  C  C70  1  0.31119857  0.45210965  0.47185978  1
  C  C71  1  0.13989024  0.68438834  0.47262679  1
  C  C72  1  0.10879819  0.62864397  0.36347849  1
  C  C73  1  0.52370494  0.89896571  0.36036061  1
  C  C74  1  0.36464851  0.47621658  0.36219562  1
  C  C75  1  0.11876539  0.50183197  0.86221059  1
  C  C76  1  0.37372882  0.87125453  0.85966546  1
  C  C77  1  0.49940285  0.61937642  0.86207904  1
  C  C78  1  0.01436995  0.81932572  0.41211815  1
  C  C79  1  0.81824916  0.99719298  0.41299244  1
  C  C80  1  0.18375883  0.19093630  0.41086576  1
  C  C81  1  0.01614690  0.19122873  0.90950693  1
  C  C82  1  0.17995210  0.98424475  0.90907050  1
  C  C83  1  0.81244182  0.81970047  0.90920923  1
  C  C84  1  0.97526546  0.17540003  0.58606956  1
  C  C85  1  0.20218746  0.03126362  0.58783258  1
  C  C86  1  0.83197676  0.80943897  0.58605280  1
  C  C87  1  0.97149261  0.79893942  0.08614290  1
  C  C88  1  0.82666996  0.02778406  0.08655311  1
  C  C89  1  0.20035787  0.17242026  0.08631350  1
  C  C90  1  0.67949135  0.15305085  0.74442720  1
  C  C91  1  0.48102287  0.32505416  0.74720662  1
  C  C92  1  0.85408556  0.52507504  0.74582718  1
  C  C93  1  0.68212173  0.52386865  0.24348615  1
  C  C94  1  0.84015180  0.31092941  0.24346829  1
  C  C95  1  0.47201483  0.15909483  0.24445311  1
  C  C96  1  0.63975672  0.48907645  0.92438126  1
  C  C97  1  0.85213919  0.36406971  0.92456640  1
  C  C98  1  0.50792658  0.14941765  0.92403964  1
  C  C99  1  0.64651492  0.16438024  0.42662585  1
  C  C100  1  0.50424356  0.35735251  0.42285586  1
  C  C101  1  0.85182581  0.49641640  0.42330538  1
  C  C102  1  0.36123801  0.49389029  0.07799730  1
  C  C103  1  0.13225521  0.63905044  0.07670774  1
  C  C104  1  0.50633097  0.86874701  0.07698028  1
  C  C105  1  0.35662014  0.86551597  0.57460613  1
  C  C106  1  0.50095972  0.63960238  0.57470038  1
  C  C107  1  0.13409230  0.49331044  0.57500962  1
  C  C108  1  0.31431745  0.84003813  0.25467834  1
  C  C109  1  0.52623068  0.68509752  0.25536410  1
  C  C110  1  0.16283243  0.47293390  0.25705929  1
  C  C111  1  0.30939654  0.49312084  0.75915880  1
  C  C112  1  0.17564674  0.69363089  0.75820026  1
  C  C113  1  0.51702519  0.82970321  0.75697081  1
