# generated using pymatgen
data_Cu7(NiC3)2
_symmetry_space_group_name_H-M   'P 1'
_cell_length_a   6.20228600
_cell_length_b   11.66074876
_cell_length_c   13.42646535
_cell_angle_alpha   101.16037972
_cell_angle_beta   94.94722482
_cell_angle_gamma   94.12312014
_symmetry_Int_Tables_number   1
_chemical_formula_structural   Cu7(NiC3)2
_chemical_formula_sum   'Cu14 Ni4 C12'
_cell_volume   945.22721879
_cell_formula_units_Z   2
loop_
 _symmetry_equiv_pos_site_id
 _symmetry_equiv_pos_as_xyz
  1  'x, y, z'
loop_
 _atom_site_type_symbol
 _atom_site_label
 _atom_site_symmetry_multiplicity
 _atom_site_fract_x
 _atom_site_fract_y
 _atom_site_fract_z
 _atom_site_occupancy
  Ni  Ni0  1  0.99741700  0.46026400  0.18504700  1
  Ni  Ni1  1  0.56161300  0.04738800  0.82114400  1
  Ni  Ni2  1  0.43838700  0.95261200  0.17885600  1
  Ni  Ni3  1  0.00258300  0.53973600  0.81495300  1
  Cu  Cu4  1  0.77502300  0.77262700  0.37130600  1
  Cu  Cu5  1  0.15486600  0.23707700  0.37903400  1
  Cu  Cu6  1  0.63876800  0.71271000  0.48846200  1
  Cu  Cu7  1  0.36123200  0.28729000  0.51153800  1
  Cu  Cu8  1  0.92950100  0.50185800  0.67546000  1
  Cu  Cu9  1  0.22497700  0.22737300  0.62869400  1
  Cu  Cu10  1  0.70761000  0.94665200  0.38155100  1
  Cu  Cu11  1  0.29239000  0.05334800  0.61844900  1
  Cu  Cu12  1  0.40251200  0.94916300  0.31353600  1
  Cu  Cu13  1  0.59748800  0.05083700  0.68646400  1
  Cu  Cu14  1  0.93153200  0.36208200  0.37828700  1
  Cu  Cu15  1  0.06846800  0.63791800  0.62171300  1
  Cu  Cu16  1  0.07049900  0.49814200  0.32454000  1
  Cu  Cu17  1  0.84513400  0.76292300  0.62096600  1
  C  C18  1  0.10417600  0.32864800  0.12704900  1
  C  C19  1  0.12240600  0.58293800  0.14376800  1
  C  C20  1  0.28816400  0.55302900  0.84813700  1
  C  C21  1  0.71183600  0.44697100  0.15186300  1
  C  C22  1  0.87759400  0.41706200  0.85623200  1
  C  C23  1  0.89582400  0.67135200  0.87295100  1
  C  C24  1  0.55003300  0.82521400  0.11574800  1
  C  C25  1  0.44996700  0.17478600  0.88425200  1
  C  C26  1  0.60182000  0.07933300  0.16590400  1
  C  C27  1  0.39818000  0.92066700  0.83409600  1
  C  C28  1  0.16624000  0.95705600  0.12552100  1
  C  C29  1  0.83376000  0.04294400  0.87447900  1
