# generated using pymatgen
data_Cu5(Ni3C10)2
_symmetry_space_group_name_H-M   'P 1'
_cell_length_a   15.77201144
_cell_length_b   15.77201091
_cell_length_c   15.77201082
_cell_angle_alpha   60.00000019
_cell_angle_beta   60.00000129
_cell_angle_gamma   60.00000101
_symmetry_Int_Tables_number   1
_chemical_formula_structural   Cu5(Ni3C10)2
_chemical_formula_sum   'Cu40 Ni48 C160'
_cell_volume   2774.25405113
_cell_formula_units_Z   8
loop_
 _symmetry_equiv_pos_site_id
 _symmetry_equiv_pos_as_xyz
  1  'x, y, z'
loop_
 _atom_site_type_symbol
 _atom_site_label
 _atom_site_symmetry_multiplicity
 _atom_site_fract_x
 _atom_site_fract_y
 _atom_site_fract_z
 _atom_site_occupancy
  C  C0  1  0.94264083  0.05464512  0.15533145  1
  C  C1  1  0.44535488  0.34466855  0.15261740  1
  C  C2  1  0.15261740  0.55735917  0.44535488  1
  C  C3  1  0.44535488  0.15261740  0.55735917  1
  C  C4  1  0.34466855  0.55735917  0.15261740  1
  C  C5  1  0.34466855  0.15261740  0.44535488  1
  C  C6  1  0.15261740  0.34466855  0.55735917  1
  C  C7  1  0.15533145  0.94264083  0.05464512  1
  C  C8  1  0.05464512  0.15533145  0.94264083  1
  C  C9  1  0.34738260  0.94264083  0.15533145  1
  C  C10  1  0.05464512  0.34738260  0.15533145  1
  C  C11  1  0.34738260  0.05464512  0.94264083  1
  C  C12  1  0.15533145  0.05464512  0.34738260  1
  C  C13  1  0.94264083  0.15533145  0.34738260  1
  C  C14  1  0.94264083  0.34738260  0.05464512  1
  C  C15  1  0.15261740  0.44535488  0.34466855  1
  C  C16  1  0.55735917  0.15261740  0.34466855  1
  C  C17  1  0.55735917  0.44535488  0.15261740  1
  C  C18  1  0.44535488  0.55735917  0.34466855  1
  C  C19  1  0.34466855  0.44535488  0.55735917  1
  C  C20  1  0.55735917  0.34466855  0.44535488  1
  C  C21  1  0.15533145  0.34738260  0.94264083  1
  C  C22  1  0.34738260  0.15533145  0.05464512  1
  C  C23  1  0.05464512  0.94264083  0.34738260  1
  C  C24  1  0.05735917  0.94535488  0.84466855  1
  C  C25  1  0.55464512  0.65533145  0.84738260  1
  C  C26  1  0.84738260  0.44264083  0.55464512  1
  C  C27  1  0.55464512  0.84738260  0.44264083  1
  C  C28  1  0.65533145  0.44264083  0.84738260  1
  C  C29  1  0.65533145  0.84738260  0.55464512  1
  C  C30  1  0.84738260  0.65533145  0.44264083  1
  C  C31  1  0.84466855  0.05735917  0.94535488  1
  C  C32  1  0.94535488  0.84466855  0.05735917  1
  C  C33  1  0.65261740  0.05735917  0.84466855  1
  C  C34  1  0.94535488  0.65261740  0.84466855  1
  C  C35  1  0.65261740  0.94535488  0.05735917  1
  C  C36  1  0.84466855  0.94535488  0.65261740  1
  C  C37  1  0.05735917  0.84466855  0.65261740  1
  C  C38  1  0.05735917  0.65261740  0.94535488  1
  C  C39  1  0.84738260  0.55464512  0.65533145  1
  C  C40  1  0.44264083  0.84738260  0.65533145  1
  C  C41  1  0.44264083  0.55464512  0.84738260  1
  C  C42  1  0.55464512  0.44264083  0.65533145  1
  C  C43  1  0.65533145  0.55464512  0.44264083  1
  C  C44  1  0.44264083  0.65533145  0.55464512  1
  C  C45  1  0.84466855  0.65261740  0.05735917  1
  C  C46  1  0.65261740  0.84466855  0.94535488  1
  C  C47  1  0.94535488  0.05735917  0.65261740  1
  C  C48  1  0.00175868  0.92684225  0.18368537  1
  C  C49  1  0.57315775  0.31631463  0.11228630  1
  C  C50  1  0.11228630  0.49824132  0.57315775  1
  C  C51  1  0.57315775  0.11228630  0.49824132  1
  C  C52  1  0.31631463  0.49824132  0.11228630  1
  C  C53  1  0.31631463  0.11228630  0.57315775  1
  C  C54  1  0.11228630  0.31631463  0.49824132  1
  C  C55  1  0.18368537  0.00175868  0.92684225  1
  C  C56  1  0.92684225  0.18368537  0.00175868  1
  C  C57  1  0.38771370  0.00175868  0.18368537  1
  C  C58  1  0.92684225  0.38771370  0.18368537  1
  C  C59  1  0.38771370  0.92684225  0.00175868  1
  C  C60  1  0.18368537  0.92684225  0.38771370  1
  C  C61  1  0.00175868  0.18368537  0.38771370  1
  C  C62  1  0.00175868  0.38771370  0.92684225  1
  C  C63  1  0.11228630  0.57315775  0.31631463  1
  C  C64  1  0.49824132  0.11228630  0.31631463  1
  C  C65  1  0.49824132  0.57315775  0.11228630  1
  C  C66  1  0.57315775  0.49824132  0.31631463  1
  C  C67  1  0.31631463  0.57315775  0.49824132  1
  C  C68  1  0.49824132  0.31631463  0.57315775  1
  C  C69  1  0.18368537  0.38771370  0.00175868  1
  C  C70  1  0.38771370  0.18368537  0.92684225  1
  C  C71  1  0.92684225  0.00175868  0.38771370  1
  C  C72  1  0.99824132  0.07315775  0.81631463  1
  C  C73  1  0.42684225  0.68368537  0.88771370  1
  C  C74  1  0.88771370  0.50175868  0.42684225  1
  C  C75  1  0.42684225  0.88771370  0.50175868  1
  C  C76  1  0.68368537  0.50175868  0.88771370  1
  C  C77  1  0.68368537  0.88771370  0.42684225  1
  C  C78  1  0.88771370  0.68368537  0.50175868  1
  C  C79  1  0.81631463  0.99824132  0.07315775  1
  C  C80  1  0.07315775  0.81631463  0.99824132  1
  C  C81  1  0.61228630  0.99824132  0.81631463  1
  C  C82  1  0.07315775  0.61228630  0.81631463  1
  C  C83  1  0.61228630  0.07315775  0.99824132  1
  C  C84  1  0.81631463  0.07315775  0.61228630  1
  C  C85  1  0.99824132  0.81631463  0.61228630  1
  C  C86  1  0.99824132  0.61228630  0.07315775  1
  C  C87  1  0.88771370  0.42684225  0.68368537  1
  C  C88  1  0.50175868  0.88771370  0.68368537  1
  C  C89  1  0.50175868  0.42684225  0.88771370  1
  C  C90  1  0.42684225  0.50175868  0.68368537  1
  C  C91  1  0.68368537  0.42684225  0.50175868  1
  C  C92  1  0.50175868  0.68368537  0.42684225  1
  C  C93  1  0.81631463  0.61228630  0.99824132  1
  C  C94  1  0.61228630  0.81631463  0.07315775  1
  C  C95  1  0.07315775  0.99824132  0.61228630  1
  C  C96  1  0.88066716  0.97760144  0.18683279  1
  C  C97  1  0.52239856  0.31316721  0.04510139  1
  C  C98  1  0.04510139  0.61933284  0.52239856  1
  C  C99  1  0.52239856  0.04510139  0.61933284  1
  C  C100  1  0.31316721  0.61933284  0.04510139  1
  C  C101  1  0.31316721  0.04510139  0.52239856  1
  C  C102  1  0.04510139  0.31316721  0.61933284  1
  C  C103  1  0.18683279  0.88066716  0.97760144  1
  C  C104  1  0.97760144  0.18683279  0.88066716  1
  C  C105  1  0.45489861  0.88066716  0.18683279  1
  C  C106  1  0.97760144  0.45489861  0.18683279  1
  C  C107  1  0.45489861  0.97760144  0.88066716  1
  C  C108  1  0.18683279  0.97760144  0.45489861  1
  C  C109  1  0.88066716  0.18683279  0.45489861  1
  C  C110  1  0.88066716  0.45489861  0.97760144  1
  C  C111  1  0.04510139  0.52239856  0.31316721  1
  C  C112  1  0.61933284  0.04510139  0.31316721  1
  C  C113  1  0.61933284  0.52239856  0.04510139  1
  C  C114  1  0.52239856  0.61933284  0.31316721  1
  C  C115  1  0.31316721  0.52239856  0.61933284  1
  C  C116  1  0.61933284  0.31316721  0.52239856  1
  C  C117  1  0.18683279  0.45489861  0.88066716  1
  C  C118  1  0.45489861  0.18683279  0.97760144  1
  C  C119  1  0.97760144  0.88066716  0.45489861  1
  C  C120  1  0.11933284  0.02239856  0.81316721  1
  C  C121  1  0.47760144  0.68683279  0.95489861  1
  C  C122  1  0.95489861  0.38066716  0.47760144  1
  C  C123  1  0.47760144  0.95489861  0.38066716  1
  C  C124  1  0.68683279  0.38066716  0.95489861  1
  C  C125  1  0.68683279  0.95489861  0.47760144  1
  C  C126  1  0.95489861  0.68683279  0.38066716  1
  C  C127  1  0.81316721  0.11933284  0.02239856  1
  C  C128  1  0.02239856  0.81316721  0.11933284  1
  C  C129  1  0.54510139  0.11933284  0.81316721  1
  C  C130  1  0.02239856  0.54510139  0.81316721  1
  C  C131  1  0.54510139  0.02239856  0.11933284  1
  C  C132  1  0.81316721  0.02239856  0.54510139  1
  C  C133  1  0.11933284  0.81316721  0.54510139  1
  C  C134  1  0.11933284  0.54510139  0.02239856  1
  C  C135  1  0.95489861  0.47760144  0.68683279  1
  C  C136  1  0.38066716  0.95489861  0.68683279  1
  C  C137  1  0.38066716  0.47760144  0.95489861  1
  C  C138  1  0.47760144  0.38066716  0.68683279  1
  C  C139  1  0.68683279  0.47760144  0.38066716  1
  C  C140  1  0.38066716  0.68683279  0.47760144  1
  C  C141  1  0.81316721  0.54510139  0.11933284  1
  C  C142  1  0.54510139  0.81316721  0.02239856  1
  C  C143  1  0.02239856  0.11933284  0.54510139  1
  Ni  Ni144  1  0.95110071  0.99002450  0.14632990  1
  Ni  Ni145  1  0.50997550  0.35367010  0.08745510  1
  Ni  Ni146  1  0.08745510  0.54889929  0.50997550  1
  Ni  Ni147  1  0.50997550  0.08745510  0.54889929  1
  Ni  Ni148  1  0.35367010  0.54889929  0.08745510  1
  Ni  Ni149  1  0.35367010  0.08745510  0.50997550  1
  Ni  Ni150  1  0.08745510  0.35367010  0.54889929  1
  Ni  Ni151  1  0.14632990  0.95110071  0.99002450  1
  Ni  Ni152  1  0.99002450  0.14632990  0.95110071  1
  Ni  Ni153  1  0.41254490  0.95110071  0.14632990  1
  Ni  Ni154  1  0.99002450  0.41254490  0.14632990  1
  Ni  Ni155  1  0.41254490  0.99002450  0.95110071  1
  Ni  Ni156  1  0.14632990  0.99002450  0.41254490  1
  Ni  Ni157  1  0.95110071  0.14632990  0.41254490  1
  Ni  Ni158  1  0.95110071  0.41254490  0.99002450  1
  Ni  Ni159  1  0.08745510  0.50997550  0.35367010  1
  Ni  Ni160  1  0.54889929  0.08745510  0.35367010  1
  Ni  Ni161  1  0.54889929  0.50997550  0.08745510  1
  Ni  Ni162  1  0.50997550  0.54889929  0.35367010  1
  Ni  Ni163  1  0.35367010  0.50997550  0.54889929  1
  Ni  Ni164  1  0.54889929  0.35367010  0.50997550  1
  Ni  Ni165  1  0.14632990  0.41254490  0.95110071  1
  Ni  Ni166  1  0.41254490  0.14632990  0.99002450  1
  Ni  Ni167  1  0.99002450  0.95110071  0.41254490  1
  Ni  Ni168  1  0.04889929  0.00997550  0.85367010  1
  Ni  Ni169  1  0.49002450  0.64632990  0.91254490  1
  Ni  Ni170  1  0.91254490  0.45110071  0.49002450  1
  Ni  Ni171  1  0.49002450  0.91254490  0.45110071  1
  Ni  Ni172  1  0.64632990  0.45110071  0.91254490  1
  Ni  Ni173  1  0.64632990  0.91254490  0.49002450  1
  Ni  Ni174  1  0.91254490  0.64632990  0.45110071  1
  Ni  Ni175  1  0.85367010  0.04889929  0.00997550  1
  Ni  Ni176  1  0.00997550  0.85367010  0.04889929  1
  Ni  Ni177  1  0.58745510  0.04889929  0.85367010  1
  Ni  Ni178  1  0.00997550  0.58745510  0.85367010  1
  Ni  Ni179  1  0.58745510  0.00997550  0.04889929  1
  Ni  Ni180  1  0.85367010  0.00997550  0.58745510  1
  Ni  Ni181  1  0.04889929  0.85367010  0.58745510  1
  Ni  Ni182  1  0.04889929  0.58745510  0.00997550  1
  Ni  Ni183  1  0.91254490  0.49002450  0.64632990  1
  Ni  Ni184  1  0.45110071  0.91254490  0.64632990  1
  Ni  Ni185  1  0.45110071  0.49002450  0.91254490  1
  Ni  Ni186  1  0.49002450  0.45110071  0.64632990  1
  Ni  Ni187  1  0.64632990  0.49002450  0.45110071  1
  Ni  Ni188  1  0.45110071  0.64632990  0.49002450  1
  Ni  Ni189  1  0.85367010  0.58745510  0.04889929  1
  Ni  Ni190  1  0.58745510  0.85367010  0.00997550  1
  Ni  Ni191  1  0.00997550  0.04889929  0.58745510  1
  Cu  Cu192  1  0.19046430  0.19046430  0.19046430  1
  Cu  Cu193  1  0.30953570  0.30953570  0.57139289  1
  Cu  Cu194  1  0.57139289  0.30953570  0.30953570  1
  Cu  Cu195  1  0.30953570  0.57139289  0.30953570  1
  Cu  Cu196  1  0.92860711  0.19046430  0.19046430  1
  Cu  Cu197  1  0.19046430  0.92860711  0.19046430  1
  Cu  Cu198  1  0.19046430  0.19046430  0.92860711  1
  Cu  Cu199  1  0.30953570  0.30953570  0.30953570  1
  Cu  Cu200  1  0.80953570  0.80953570  0.80953570  1
  Cu  Cu201  1  0.69046430  0.69046430  0.42860711  1
  Cu  Cu202  1  0.42860711  0.69046430  0.69046430  1
  Cu  Cu203  1  0.69046430  0.42860711  0.69046430  1
  Cu  Cu204  1  0.07139289  0.80953570  0.80953570  1
  Cu  Cu205  1  0.80953570  0.07139289  0.80953570  1
  Cu  Cu206  1  0.80953570  0.80953570  0.07139289  1
  Cu  Cu207  1  0.69046430  0.69046430  0.69046430  1
  Cu  Cu208  1  0.75000000  0.09541960  0.40458040  1
  Cu  Cu209  1  0.40458040  0.09541960  0.25000000  1
  Cu  Cu210  1  0.25000000  0.75000000  0.40458040  1
  Cu  Cu211  1  0.40458040  0.25000000  0.75000000  1
  Cu  Cu212  1  0.09541960  0.75000000  0.25000000  1
  Cu  Cu213  1  0.09541960  0.25000000  0.40458040  1
  Cu  Cu214  1  0.25000000  0.09541960  0.75000000  1
  Cu  Cu215  1  0.40458040  0.75000000  0.09541960  1
  Cu  Cu216  1  0.09541960  0.40458040  0.75000000  1
  Cu  Cu217  1  0.75000000  0.40458040  0.25000000  1
  Cu  Cu218  1  0.75000000  0.25000000  0.09541960  1
  Cu  Cu219  1  0.25000000  0.40458040  0.09541960  1
  Cu  Cu220  1  0.25000000  0.90458040  0.59541960  1
  Cu  Cu221  1  0.59541960  0.90458040  0.75000000  1
  Cu  Cu222  1  0.75000000  0.25000000  0.59541960  1
  Cu  Cu223  1  0.59541960  0.75000000  0.25000000  1
  Cu  Cu224  1  0.90458040  0.25000000  0.75000000  1
  Cu  Cu225  1  0.90458040  0.75000000  0.59541960  1
  Cu  Cu226  1  0.75000000  0.90458040  0.25000000  1
  Cu  Cu227  1  0.59541960  0.25000000  0.90458040  1
  Cu  Cu228  1  0.90458040  0.59541960  0.25000000  1
  Cu  Cu229  1  0.25000000  0.59541960  0.75000000  1
  Cu  Cu230  1  0.25000000  0.75000000  0.90458040  1
  Cu  Cu231  1  0.75000000  0.59541960  0.90458040  1
  C  C232  1  0.00000000  0.00000000  0.00000000  1
  C  C233  1  0.50000000  0.50000000  0.00000000  1
  C  C234  1  0.00000000  0.50000000  0.50000000  1
  C  C235  1  0.50000000  0.00000000  0.50000000  1
  C  C236  1  0.50000000  0.00000000  0.00000000  1
  C  C237  1  0.00000000  0.50000000  0.00000000  1
  C  C238  1  0.00000000  0.00000000  0.50000000  1
  C  C239  1  0.50000000  0.50000000  0.50000000  1
  C  C240  1  0.25000000  0.25000000  0.25000000  1
  C  C241  1  0.25000000  0.25000000  0.75000000  1
  C  C242  1  0.75000000  0.25000000  0.25000000  1
  C  C243  1  0.25000000  0.75000000  0.25000000  1
  C  C244  1  0.75000000  0.75000000  0.75000000  1
  C  C245  1  0.75000000  0.75000000  0.25000000  1
  C  C246  1  0.25000000  0.75000000  0.75000000  1
  C  C247  1  0.75000000  0.25000000  0.75000000  1
