# generated using pymatgen
data_Cu3Ni8C31
_symmetry_space_group_name_H-M   'P 1'
_cell_length_a   9.20958397
_cell_length_b   9.19494315
_cell_length_c   22.58049686
_cell_angle_alpha   89.91168285
_cell_angle_beta   90.14499695
_cell_angle_gamma   119.99993772
_symmetry_Int_Tables_number   1
_chemical_formula_structural   Cu3Ni8C31
_chemical_formula_sum   'Cu9 Ni24 C93'
_cell_volume   1655.96840382
_cell_formula_units_Z   3
loop_
 _symmetry_equiv_pos_site_id
 _symmetry_equiv_pos_as_xyz
  1  'x, y, z'
loop_
 _atom_site_type_symbol
 _atom_site_label
 _atom_site_symmetry_multiplicity
 _atom_site_fract_x
 _atom_site_fract_y
 _atom_site_fract_z
 _atom_site_occupancy
  Ni  Ni0  1  0.61789846  0.99842685  0.25164287  1
  Ni  Ni1  1  0.36595868  0.35575266  0.25462907  1
  Ni  Ni2  1  0.01199354  0.64428642  0.24910722  1
  Ni  Ni3  1  0.63869835  0.62164857  0.74683660  1
  Ni  Ni4  1  0.99856062  0.36605688  0.74002870  1
  Ni  Ni5  1  0.35665669  0.00719398  0.74358272  1
  Ni  Ni6  1  0.29700392  0.33997362  0.58205748  1
  Ni  Ni7  1  0.04064822  0.70243350  0.58245102  1
  Ni  Ni8  1  0.66322493  0.95962143  0.57872759  1
  Ni  Ni9  1  0.29901522  0.95749500  0.08307651  1
  Ni  Ni10  1  0.66032876  0.70261718  0.07975038  1
  Ni  Ni11  1  0.04056281  0.33831668  0.08028489  1
  Ni  Ni12  1  0.96880976  0.67594507  0.91522240  1
  Ni  Ni13  1  0.70315725  0.02631303  0.91868177  1
  Ni  Ni14  1  0.32389006  0.29490247  0.91446089  1
  Ni  Ni15  1  0.97513949  0.30273649  0.42089356  1
  Ni  Ni16  1  0.33032042  0.02630078  0.41735933  1
  Ni  Ni17  1  0.69677309  0.67333874  0.42060009  1
  Ni  Ni18  1  0.99879204  0.00079477  0.50189283  1
  Ni  Ni19  1  0.99819056  0.99879339  0.99918042  1
  Ni  Ni20  1  0.66492543  0.34271750  0.83043999  1
  Ni  Ni21  1  0.65525259  0.32384360  0.33801790  1
  Ni  Ni22  1  0.33159269  0.67594748  0.16104266  1
  Ni  Ni23  1  0.32763699  0.66212341  0.65666783  1
  Cu  Cu24  1  0.01397873  0.00361173  0.35646340  1
  Cu  Cu25  1  0.00983099  0.99688434  0.85213328  1
  Cu  Cu26  1  0.01668226  0.00497889  0.64410415  1
  Cu  Cu27  1  0.01106395  0.99562038  0.14209496  1
  Cu  Cu28  1  0.66620053  0.34102076  0.68143419  1
  Cu  Cu29  1  0.65691591  0.32497469  0.18032675  1
  Cu  Cu30  1  0.33329641  0.66682236  0.01854408  1
  Cu  Cu31  1  0.33356837  0.66734680  0.51694907  1
  Cu  Cu32  1  0.33117539  0.67573120  0.32300229  1
  C  C33  1  0.66538621  0.33300332  0.98111692  1
  C  C34  1  0.66696159  0.33399433  0.48243344  1
  C  C35  1  0.32145791  0.65631127  0.81758632  1
  C  C36  1  0.29771779  0.99877181  0.24973301  1
  C  C37  1  0.29516095  0.29540054  0.75100390  1
  C  C38  1  0.00021720  0.70447703  0.75075410  1
  C  C39  1  0.95987545  0.33277256  0.58548725  1
  C  C40  1  0.37694260  0.03954145  0.58534881  1
  C  C41  1  0.66599961  0.63009903  0.58436304  1
  C  C42  1  0.95793513  0.62233859  0.08569680  1
  C  C43  1  0.66746375  0.03878204  0.08427613  1
  C  C44  1  0.37374933  0.33647929  0.08415976  1
  C  C45  1  0.62652171  0.66774832  0.91828173  1
  C  C46  1  0.03448918  0.36813894  0.91993606  1
  C  C47  1  0.33613693  0.95984339  0.91816200  1
  C  C48  1  0.63105563  0.96464265  0.41698428  1
  C  C49  1  0.33672402  0.37646715  0.41606325  1
  C  C50  1  0.03496101  0.66280956  0.41717350  1
  C  C51  1  0.70693491  0.70759599  0.24941167  1
  C  C52  1  0.00033901  0.29274047  0.24931804  1
  C  C53  1  0.70459268  0.99606174  0.75111438  1
  C  C54  1  0.20617145  0.02753855  0.30681964  1
  C  C55  1  0.80813174  0.79009396  0.30262680  1
  C  C56  1  0.97541841  0.18926053  0.30256202  1
  C  C57  1  0.20613565  0.18419044  0.80981022  1
  C  C58  1  0.96980665  0.78854844  0.80938397  1
  C  C59  1  0.80612496  0.01912008  0.80449515  1
  C  C60  1  0.78155006  0.97062810  0.69805581  1
  C  C61  1  0.17414719  0.21923266  0.69307678  1
  C  C62  1  0.03966467  0.82532767  0.69301835  1
  C  C63  1  0.78618946  0.81087577  0.19599203  1
  C  C64  1  0.01800553  0.20940229  0.19598542  1
  C  C65  1  0.17826226  0.97143656  0.19132444  1
  C  C66  1  0.87344326  0.36108356  0.64363975  1
  C  C67  1  0.48998756  0.12457705  0.64392116  1
  C  C68  1  0.63488887  0.51435458  0.64277718  1
  C  C69  1  0.87187369  0.50871767  0.14393731  1
  C  C70  1  0.63594357  0.12447123  0.14203375  1
  C  C71  1  0.48972715  0.36729107  0.14209633  1
  C  C72  1  0.47304763  0.30762295  0.02612194  1
  C  C73  1  0.83215630  0.52260068  0.02681801  1
  C  C74  1  0.69309934  0.16557011  0.02572496  1
  C  C75  1  0.47609237  0.16473929  0.52714590  1
  C  C76  1  0.69157480  0.52895299  0.52657302  1
  C  C77  1  0.83542111  0.31044654  0.52700669  1
  C  C78  1  0.54270367  0.69827068  0.97573328  1
  C  C79  1  0.15509844  0.45346078  0.97569523  1
  C  C80  1  0.30229668  0.84340942  0.97524535  1
  C  C81  1  0.54854871  0.84519198  0.47417465  1
  C  C82  1  0.30171161  0.45911616  0.47345364  1
  C  C83  1  0.15585386  0.70187784  0.47387746  1
  C  C84  1  0.11224128  0.62349631  0.35746500  1
  C  C85  1  0.51185287  0.88629871  0.35758685  1
  C  C86  1  0.37232314  0.49118619  0.35592350  1
  C  C87  1  0.13195069  0.49708285  0.86109783  1
  C  C88  1  0.36621270  0.86422282  0.85966939  1
  C  C89  1  0.49916765  0.63698061  0.86005731  1
  C  C90  1  0.00669603  0.82454340  0.40973550  1
  C  C91  1  0.81853307  0.99078962  0.40752204  1
  C  C92  1  0.17085618  0.18743945  0.41092886  1
  C  C93  1  0.00694467  0.18257819  0.90933079  1
  C  C94  1  0.17343354  0.98450888  0.91147338  1
  C  C95  1  0.81132860  0.83098857  0.90997878  1
  C  C96  1  0.96632773  0.15832345  0.58618533  1
  C  C97  1  0.19554036  0.03303798  0.58481816  1
  C  C98  1  0.83777606  0.81198517  0.58700841  1
  C  C99  1  0.96443136  0.80414524  0.08540803  1
  C  C100  1  0.83934136  0.02940532  0.08740424  1
  C  C101  1  0.19130246  0.16400713  0.08562137  1
  C  C102  1  0.68424146  0.14543646  0.74711879  1
  C  C103  1  0.48246627  0.31562825  0.74801139  1
  C  C104  1  0.84104513  0.51213286  0.74786217  1
  C  C105  1  0.69413240  0.53946481  0.24593896  1
  C  C106  1  0.85122460  0.31541192  0.24579193  1
  C  C107  1  0.48701902  0.17042566  0.24743843  1
  C  C108  1  0.63766547  0.49287983  0.92186432  1
  C  C109  1  0.85308984  0.36366595  0.92182809  1
  C  C110  1  0.50922008  0.14598327  0.92154445  1
  C  C111  1  0.64655263  0.15223159  0.42393053  1
  C  C112  1  0.50511288  0.35501044  0.42319576  1
  C  C113  1  0.84719347  0.49298544  0.42356872  1
  C  C114  1  0.35526269  0.50131558  0.07869869  1
  C  C115  1  0.14219880  0.64280764  0.07904577  1
  C  C116  1  0.50053663  0.85585572  0.07844632  1
  C  C117  1  0.35689576  0.85523304  0.57886334  1
  C  C118  1  0.49853266  0.64486646  0.57830651  1
  C  C119  1  0.14330855  0.49966207  0.57866057  1
  C  C120  1  0.31464779  0.82693541  0.25272115  1
  C  C121  1  0.53583160  0.68566160  0.25301240  1
  C  C122  1  0.15531867  0.46031282  0.25317317  1
  C  C123  1  0.31847163  0.49064911  0.75917615  1
  C  C124  1  0.17788490  0.69176137  0.75916407  1
  C  C125  1  0.53444492  0.84266309  0.75620606  1
