# generated using pymatgen
data_CuNi5C33
_symmetry_space_group_name_H-M   'P 1'
_cell_length_a   18.02591680
_cell_length_b   9.03607050
_cell_length_c   22.70500533
_cell_angle_alpha   89.97749023
_cell_angle_beta   90.03761582
_cell_angle_gamma   120.01241312
_symmetry_Int_Tables_number   1
_chemical_formula_structural   CuNi5C33
_chemical_formula_sum   'Cu6 Ni30 C198'
_cell_volume   3202.39413406
_cell_formula_units_Z   6
loop_
 _symmetry_equiv_pos_site_id
 _symmetry_equiv_pos_as_xyz
  1  'x, y, z'
loop_
 _atom_site_type_symbol
 _atom_site_label
 _atom_site_symmetry_multiplicity
 _atom_site_fract_x
 _atom_site_fract_y
 _atom_site_fract_z
 _atom_site_occupancy
  Ni  Ni0  1  0.31725061  0.99177770  0.25190222  1
  Ni  Ni1  1  0.81838813  0.99227383  0.25199718  1
  Ni  Ni2  1  0.81906219  0.64079323  0.74821922  1
  Ni  Ni3  1  0.18247865  0.98757124  0.75004409  1
  Ni  Ni4  1  0.68102672  0.00099798  0.74926516  1
  Ni  Ni5  1  0.01792029  0.70815869  0.58485729  1
  Ni  Ni6  1  0.83594281  0.96507104  0.58495127  1
  Ni  Ni7  1  0.64750707  0.96939861  0.08412010  1
  Ni  Ni8  1  0.33573444  0.70634510  0.08562336  1
  Ni  Ni9  1  0.83762090  0.70774020  0.08701029  1
  Ni  Ni10  1  0.01806905  0.32649348  0.08589476  1
  Ni  Ni11  1  0.51500102  0.32384720  0.08625991  1
  Ni  Ni12  1  0.98717986  0.66262507  0.91476921  1
  Ni  Ni13  1  0.34721304  0.02875850  0.91474391  1
  Ni  Ni14  1  0.48586139  0.31162652  0.41568318  1
  Ni  Ni15  1  0.98720179  0.31264691  0.41546697  1
  Ni  Ni16  1  0.34508240  0.66216234  0.41605487  1
  Ni  Ni17  1  0.84580690  0.66327371  0.41568288  1
  Ni  Ni18  1  0.00842922  0.00888166  0.50458979  1
  Ni  Ni19  1  0.50392732  0.99976793  0.50367289  1
  Ni  Ni20  1  0.00599279  0.00879219  0.00413631  1
  Ni  Ni21  1  0.50192644  0.99861754  0.00024981  1
  Ni  Ni22  1  0.33658225  0.34720586  0.83366237  1
  Ni  Ni23  1  0.83560542  0.32807508  0.83367421  1
  Ni  Ni24  1  0.33179979  0.33646779  0.33352731  1
  Ni  Ni25  1  0.83233367  0.33712166  0.33337108  1
  Ni  Ni26  1  0.16351831  0.65766949  0.17160914  1
  Ni  Ni27  1  0.66420654  0.65122471  0.17375731  1
  Ni  Ni28  1  0.17062708  0.66707393  0.66967501  1
  Ni  Ni29  1  0.65993614  0.65422662  0.66446634  1
  Cu  Cu30  1  0.99967662  0.99625846  0.64510143  1
  Cu  Cu31  1  0.00012165  0.00251857  0.14625716  1
  Cu  Cu32  1  0.49538105  0.00338401  0.14718582  1
  Cu  Cu33  1  0.16435058  0.65264584  0.31565540  1
  Cu  Cu34  1  0.66480421  0.65319401  0.31568310  1
  Cu  Cu35  1  0.16836248  0.66940274  0.81564687  1
  C  C36  1  0.99564331  0.99640966  0.35490427  1
  C  C37  1  0.49493486  0.99640138  0.35472824  1
  C  C38  1  0.99443930  0.99696348  0.85632275  1
  C  C39  1  0.49969186  0.99661461  0.85420888  1
  C  C40  1  0.49833290  0.99974646  0.64511422  1
  C  C41  1  0.33943004  0.33579140  0.68481223  1
  C  C42  1  0.83600374  0.33652925  0.68709001  1
  C  C43  1  0.33785910  0.34354243  0.18632707  1
  C  C44  1  0.83966240  0.34718694  0.18666680  1
  C  C45  1  0.33212292  0.33769565  0.97885298  1
  C  C46  1  0.83155004  0.32695657  0.97793373  1
  C  C47  1  0.33199234  0.33147699  0.48168665  1
  C  C48  1  0.83092105  0.32828934  0.48086635  1
  C  C49  1  0.16686304  0.66856459  0.01950946  1
  C  C50  1  0.66677984  0.66679103  0.01894321  1
  C  C51  1  0.16945033  0.66816327  0.52152355  1
  C  C52  1  0.66280912  0.66219138  0.52072777  1
  C  C53  1  0.66269294  0.66292926  0.81283077  1
  C  C54  1  0.35215571  0.70462224  0.24857265  1
  C  C55  1  0.85304615  0.70750707  0.24818354  1
  C  C56  1  0.00220530  0.29559820  0.24810226  1
  C  C57  1  0.50184254  0.29734682  0.24847267  1
  C  C58  1  0.64209237  0.28800032  0.74953746  1
  C  C59  1  0.00189967  0.70880725  0.74941924  1
  C  C60  1  0.49648273  0.70934275  0.74947694  1
  C  C61  1  0.35474031  0.99886884  0.74989477  1
  C  C62  1  0.85534283  0.00263702  0.74881083  1
  C  C63  1  0.47946369  0.33186897  0.58198519  1
  C  C64  1  0.98046314  0.33470862  0.58268787  1
  C  C65  1  0.18893741  0.04360828  0.58424630  1
  C  C66  1  0.68679703  0.04299893  0.58445865  1
  C  C67  1  0.33338984  0.62160108  0.58406733  1
  C  C68  1  0.83046598  0.61968251  0.58295301  1
  C  C69  1  0.47945713  0.62441156  0.08224636  1
  C  C70  1  0.97994810  0.62607661  0.08063058  1
  C  C71  1  0.33010037  0.04438123  0.08288182  1
  C  C72  1  0.83207030  0.04458022  0.08418645  1
  C  C73  1  0.18813119  0.33035046  0.08311889  1
  C  C74  1  0.68967752  0.33387366  0.08305102  1
  C  C75  1  0.31143480  0.66439187  0.91576250  1
  C  C76  1  0.80916490  0.66321213  0.91591467  1
  C  C77  1  0.02326761  0.37684198  0.91627707  1
  C  C78  1  0.52129994  0.37499102  0.91694358  1
  C  C79  1  0.16697036  0.96030831  0.91554234  1
  C  C80  1  0.66572940  0.95551601  0.91604624  1
  C  C81  1  0.30781449  0.95843743  0.41468819  1
  C  C82  1  0.80754030  0.95567081  0.41549172  1
  C  C83  1  0.16700970  0.37430645  0.41723247  1
  C  C84  1  0.66669627  0.37377732  0.41684213  1
  C  C85  1  0.02345310  0.66955672  0.41743672  1
  C  C86  1  0.52262806  0.66964325  0.41608244  1
  C  C87  1  0.14436019  0.00177178  0.24986755  1
  C  C88  1  0.64499562  0.00183963  0.24945752  1
  C  C89  1  0.14408646  0.28742015  0.74995189  1
  C  C90  1  0.10301973  0.02721536  0.30358781  1
  C  C91  1  0.60225262  0.02638485  0.30227155  1
  C  C92  1  0.41565316  0.80214133  0.30762141  1
  C  C93  1  0.91570955  0.80223650  0.30763796  1
  C  C94  1  0.48568778  0.16591715  0.30653059  1
  C  C95  1  0.98523259  0.16546625  0.30671489  1
  C  C96  1  0.10274380  0.17557295  0.80340480  1
  C  C97  1  0.59827009  0.16295488  0.80669031  1
  C  C98  1  0.48558777  0.80469524  0.80759109  1
  C  C99  1  0.98459879  0.80478706  0.80744476  1
  C  C100  1  0.41584912  0.03030196  0.80863323  1
  C  C101  1  0.91696139  0.02888747  0.80650321  1
  C  C102  1  0.40680325  0.98012581  0.69368473  1
  C  C103  1  0.89192431  0.95907136  0.69115322  1
  C  C104  1  0.09288915  0.20874582  0.69710078  1
  C  C105  1  0.58354106  0.19552740  0.69221800  1
  C  C106  1  0.01537196  0.82532823  0.69200128  1
  C  C107  1  0.51769448  0.83765226  0.69348404  1
  C  C108  1  0.39772297  0.81948951  0.19087281  1
  C  C109  1  0.89784084  0.82152109  0.19056613  1
  C  C110  1  0.01125908  0.20474176  0.18989445  1
  C  C111  1  0.51250421  0.20821505  0.18993914  1
  C  C112  1  0.09393516  0.97861008  0.19714884  1
  C  C113  1  0.59554529  0.97982332  0.19514926  1
  C  C114  1  0.43246936  0.36264052  0.63938021  1
  C  C115  1  0.93057909  0.36680815  0.63914781  1
  C  C116  1  0.24907408  0.13701714  0.64279579  1
  C  C117  1  0.74969124  0.13318450  0.64226832  1
  C  C118  1  0.31955851  0.49647625  0.64050906  1
  C  C119  1  0.81765576  0.50022546  0.64160976  1
  C  C120  1  0.43411517  0.49646542  0.13988107  1
  C  C121  1  0.93270333  0.49511292  0.13850406  1
  C  C122  1  0.31765113  0.13650575  0.14202055  1
  C  C123  1  0.81293845  0.13163261  0.14203438  1
  C  C124  1  0.25371083  0.36701997  0.13968622  1
  C  C125  1  0.75368293  0.36862839  0.13978380  1
  C  C126  1  0.23888243  0.31114794  0.02654953  1
  C  C127  1  0.73802728  0.30786760  0.02632744  1
  C  C128  1  0.41667772  0.52638421  0.02716002  1
  C  C129  1  0.91699449  0.52730342  0.02433661  1
  C  C130  1  0.34737162  0.16786179  0.02565188  1
  C  C131  1  0.84505875  0.16915454  0.02798054  1
  C  C132  1  0.23995214  0.16738625  0.52796901  1
  C  C133  1  0.73642673  0.16491705  0.52764039  1
  C  C134  1  0.34749518  0.53246544  0.52526177  1
  C  C135  1  0.84555488  0.52564447  0.52614426  1
  C  C136  1  0.42090634  0.30757414  0.52415382  1
  C  C137  1  0.91850220  0.30820227  0.52548758  1
  C  C138  1  0.26725527  0.70012577  0.97505736  1
  C  C139  1  0.76570833  0.69502656  0.97466991  1
  C  C140  1  0.08138482  0.46560789  0.97639944  1
  C  C141  1  0.58200477  0.46969385  0.97516177  1
  C  C142  1  0.14887048  0.82907768  0.97232159  1
  C  C143  1  0.65313597  0.83591359  0.97475223  1
  C  C144  1  0.26533818  0.82920139  0.47163633  1
  C  C145  1  0.76689870  0.83211250  0.47407478  1
  C  C146  1  0.14810326  0.46621988  0.47397563  1
  C  C147  1  0.64834570  0.46646249  0.47376865  1
  C  C148  1  0.08163162  0.69690635  0.47683395  1
  C  C149  1  0.58319895  0.69743556  0.47452079  1
  C  C150  1  0.06068197  0.62135153  0.36168769  1
  C  C151  1  0.56081179  0.62199985  0.36090143  1
  C  C152  1  0.25702112  0.88392454  0.35477208  1
  C  C153  1  0.75638884  0.88217816  0.35564666  1
  C  C154  1  0.19097988  0.49709206  0.36120103  1
  C  C155  1  0.69096855  0.49703656  0.36110746  1
  C  C156  1  0.06087306  0.50153095  0.86104123  1
  C  C157  1  0.57024394  0.50076109  0.86084615  1
  C  C158  1  0.18849544  0.88684652  0.85778678  1
  C  C159  1  0.67992943  0.86294048  0.85847654  1
  C  C160  1  0.25346696  0.63129429  0.85931601  1
  C  C161  1  0.75124788  0.63988285  0.85787088  1
  C  C162  1  0.00889823  0.83595731  0.40927086  1
  C  C163  1  0.50927226  0.83734480  0.40915873  1
  C  C164  1  0.40633828  0.97626234  0.40961045  1
  C  C165  1  0.90629754  0.97594203  0.40968867  1
  C  C166  1  0.07980729  0.18592642  0.40817247  1
  C  C167  1  0.57946867  0.18581209  0.40826549  1
  C  C168  1  0.01245488  0.18562141  0.90850341  1
  C  C169  1  0.51026538  0.18536730  0.90966191  1
  C  C170  1  0.07923783  0.97292352  0.90847647  1
  C  C171  1  0.58106728  0.97443189  0.90935332  1
  C  C172  1  0.40589051  0.84267531  0.91091786  1
  C  C173  1  0.90594072  0.83292791  0.90917416  1
  C  C174  1  0.48798832  0.16258141  0.59014011  1
  C  C175  1  0.98360480  0.16159520  0.58776103  1
  C  C176  1  0.09385654  0.01654232  0.58685437  1
  C  C177  1  0.59320023  0.02387658  0.59057513  1
  C  C178  1  0.41797117  0.81042060  0.59195938  1
  C  C179  1  0.91599725  0.80591522  0.58603604  1
  C  C180  1  0.49138942  0.81202878  0.08762500  1
  C  C181  1  0.98425651  0.80579625  0.08680563  1
  C  C182  1  0.41499204  0.02412608  0.08589624  1
  C  C183  1  0.91524498  0.02326522  0.08571102  1
  C  C184  1  0.09323944  0.17064703  0.08630039  1
  C  C185  1  0.59647372  0.16566930  0.08680039  1
  C  C186  1  0.34384656  0.17203955  0.74267720  1
  C  C187  1  0.84054105  0.16802462  0.74432512  1
  C  C188  1  0.23040937  0.29729312  0.74579409  1
  C  C189  1  0.73814637  0.30774663  0.74261372  1
  C  C190  1  0.41263587  0.51920080  0.74268652  1
  C  C191  1  0.91006268  0.52214274  0.74420159  1
  C  C192  1  0.34487268  0.51445207  0.24362514  1
  C  C193  1  0.84496016  0.51561801  0.24339476  1
  C  C194  1  0.40752068  0.29319021  0.24430814  1
  C  C195  1  0.90760438  0.29325434  0.24348723  1
  C  C196  1  0.23257249  0.16009435  0.24561684  1
  C  C197  1  0.73281435  0.16029649  0.24559084  1
  C  C198  1  0.32539835  0.50088051  0.92610726  1
  C  C199  1  0.82522861  0.50150838  0.92300377  1
  C  C200  1  0.42576412  0.35026905  0.92368366  1
  C  C201  1  0.92753769  0.35679657  0.92716344  1
  C  C202  1  0.25242186  0.14643615  0.92668935  1
  C  C203  1  0.75129093  0.14354914  0.92397801  1
  C  C204  1  0.32962248  0.15575214  0.42536504  1
  C  C205  1  0.82896442  0.15350167  0.42560149  1
  C  C206  1  0.25228299  0.35575561  0.42715116  1
  C  C207  1  0.75186569  0.35553578  0.42700432  1
  C  C208  1  0.42566697  0.50289103  0.42640008  1
  C  C209  1  0.92525210  0.50196011  0.42704283  1
  C  C210  1  0.18365897  0.50888687  0.07589644  1
  C  C211  1  0.68242460  0.50842382  0.07588269  1
  C  C212  1  0.07123714  0.62852204  0.07609678  1
  C  C213  1  0.57326505  0.63526904  0.07630199  1
  C  C214  1  0.24652538  0.85158295  0.07584133  1
  C  C215  1  0.74483924  0.85482041  0.07600487  1
  C  C216  1  0.18051332  0.85421415  0.57566613  1
  C  C217  1  0.68383126  0.85894440  0.57597194  1
  C  C218  1  0.24787880  0.63922819  0.57525343  1
  C  C219  1  0.74666454  0.64385358  0.57646378  1
  C  C220  1  0.07171419  0.51295010  0.57681175  1
  C  C221  1  0.57310511  0.50556424  0.57629974  1
  C  C222  1  0.15756906  0.85346046  0.25630806  1
  C  C223  1  0.65744678  0.85357092  0.25558859  1
  C  C224  1  0.26204199  0.69976814  0.25462710  1
  C  C225  1  0.76211469  0.69978776  0.25451825  1
  C  C226  1  0.08136418  0.48522063  0.25411208  1
  C  C227  1  0.58179472  0.48586467  0.25408039  1
  C  C228  1  0.15546227  0.46002752  0.75677986  1
  C  C229  1  0.65785043  0.48302305  0.75731056  1
  C  C230  1  0.08538733  0.69017313  0.75529749  1
  C  C231  1  0.58466038  0.69588861  0.75796367  1
  C  C232  1  0.25967051  0.83603427  0.75218692  1
  C  C233  1  0.75899571  0.83255671  0.75984748  1
