# generated using pymatgen
data_Cu11Ni3C
_symmetry_space_group_name_H-M   'P 1'
_cell_length_a   13.90680400
_cell_length_b   8.54377400
_cell_length_c   15.95361417
_cell_angle_alpha   73.78182126
_cell_angle_beta   90.00000000
_cell_angle_gamma   90.00000000
_symmetry_Int_Tables_number   1
_chemical_formula_structural   Cu11Ni3C
_chemical_formula_sum   'Cu44 Ni12 C4'
_cell_volume   1820.12069424
_cell_formula_units_Z   4
loop_
 _symmetry_equiv_pos_site_id
 _symmetry_equiv_pos_as_xyz
  1  'x, y, z'
loop_
 _atom_site_type_symbol
 _atom_site_label
 _atom_site_symmetry_multiplicity
 _atom_site_fract_x
 _atom_site_fract_y
 _atom_site_fract_z
 _atom_site_occupancy
  C  C0  1  0.59184800  0.89765100  0.80403800  1
  C  C1  1  0.09184800  0.10234900  0.69596200  1
  C  C2  1  0.40815200  0.10234900  0.19596200  1
  C  C3  1  0.90815200  0.89765100  0.30403800  1
  Ni  Ni4  1  0.76154200  0.62596200  0.93598500  1
  Ni  Ni5  1  0.26154200  0.37403800  0.56401500  1
  Ni  Ni6  1  0.23845800  0.37403800  0.06401500  1
  Ni  Ni7  1  0.73845800  0.62596200  0.43598500  1
  Ni  Ni8  1  0.47745600  0.93709300  0.12492100  1
  Ni  Ni9  1  0.97745600  0.06290700  0.37507900  1
  Ni  Ni10  1  0.45837000  0.87259000  0.73130800  1
  Ni  Ni11  1  0.95837000  0.12741000  0.76869200  1
  Ni  Ni12  1  0.54163000  0.12741000  0.26869200  1
  Ni  Ni13  1  0.04163000  0.87259000  0.23130800  1
  Ni  Ni14  1  0.52254400  0.06290700  0.87507900  1
  Ni  Ni15  1  0.02254400  0.93709300  0.62492100  1
  Cu  Cu16  1  0.63778000  0.10174900  0.67699000  1
  Cu  Cu17  1  0.43882700  0.31354200  0.06398400  1
  Cu  Cu18  1  0.06117300  0.31354200  0.56398400  1
  Cu  Cu19  1  0.56117300  0.68645800  0.93601600  1
  Cu  Cu20  1  0.81618300  0.69708300  0.26152000  1
  Cu  Cu21  1  0.31618300  0.30291700  0.23848000  1
  Cu  Cu22  1  0.18381700  0.30291700  0.73848000  1
  Cu  Cu23  1  0.68381700  0.69708300  0.76152000  1
  Cu  Cu24  1  0.11643300  0.66412200  0.29113600  1
  Cu  Cu25  1  0.61643300  0.33587800  0.20886400  1
  Cu  Cu26  1  0.88356700  0.33587800  0.70886400  1
  Cu  Cu27  1  0.38356700  0.66412200  0.79113600  1
  Cu  Cu28  1  0.00837500  0.82403600  0.11555300  1
  Cu  Cu29  1  0.50837500  0.17596400  0.38444700  1
  Cu  Cu30  1  0.99162500  0.17596400  0.88444700  1
  Cu  Cu31  1  0.93882700  0.68645800  0.43601600  1
  Cu  Cu32  1  0.95430300  0.30606900  0.31603300  1
  Cu  Cu33  1  0.45430300  0.69393100  0.18396700  1
  Cu  Cu34  1  0.04569700  0.69393100  0.68396700  1
  Cu  Cu35  1  0.54569700  0.30606900  0.81603300  1
  Cu  Cu36  1  0.12482200  0.05043700  0.36612400  1
  Cu  Cu37  1  0.62482200  0.94956300  0.13387600  1
  Cu  Cu38  1  0.87517800  0.94956300  0.63387600  1
  Cu  Cu39  1  0.37517800  0.05043700  0.86612400  1
  Cu  Cu40  1  0.59637000  0.65317700  0.39447200  1
  Cu  Cu41  1  0.09637000  0.34682300  0.10552800  1
  Cu  Cu42  1  0.40363000  0.34682300  0.60552800  1
  Cu  Cu43  1  0.90363000  0.65317700  0.89447200  1
  Cu  Cu44  1  0.71875100  0.63591300  0.56246800  1
  Cu  Cu45  1  0.21875100  0.36408700  0.93753200  1
  Cu  Cu46  1  0.28124900  0.36408700  0.43753200  1
  Cu  Cu47  1  0.78124900  0.63591300  0.06246800  1
  Cu  Cu48  1  0.75108200  0.37728000  0.45878900  1
  Cu  Cu49  1  0.25108200  0.62272000  0.04121100  1
  Cu  Cu50  1  0.24891800  0.62272000  0.54121100  1
  Cu  Cu51  1  0.74891800  0.37728000  0.95878900  1
  Cu  Cu52  1  0.36222000  0.89825100  0.32301000  1
  Cu  Cu53  1  0.86222000  0.10174900  0.17699000  1
  Cu  Cu54  1  0.73233900  0.96200300  0.87750100  1
  Cu  Cu55  1  0.23233900  0.03799700  0.62249900  1
  Cu  Cu56  1  0.26766100  0.03799700  0.12249900  1
  Cu  Cu57  1  0.76766100  0.96200300  0.37750100  1
  Cu  Cu58  1  0.49162500  0.82403600  0.61555300  1
  Cu  Cu59  1  0.13778000  0.89825100  0.82301000  1
