# generated using pymatgen
data_Cu12Ni7C59
_symmetry_space_group_name_H-M   'P 1'
_cell_length_a   18.08351539
_cell_length_b   9.04912792
_cell_length_c   22.85522826
_cell_angle_alpha   89.98897419
_cell_angle_beta   89.99919570
_cell_angle_gamma   120.09456082
_symmetry_Int_Tables_number   1
_chemical_formula_structural   Cu12Ni7C59
_chemical_formula_sum   'Cu36 Ni21 C177'
_cell_volume   3235.87070844
_cell_formula_units_Z   3
loop_
 _symmetry_equiv_pos_site_id
 _symmetry_equiv_pos_as_xyz
  1  'x, y, z'
loop_
 _atom_site_type_symbol
 _atom_site_label
 _atom_site_symmetry_multiplicity
 _atom_site_fract_x
 _atom_site_fract_y
 _atom_site_fract_z
 _atom_site_occupancy
  C  C0  1  0.31726827  0.99981033  0.25221170  1
  C  C1  1  0.68346049  0.36518490  0.25202276  1
  C  C2  1  0.31487499  0.63136493  0.75277803  1
  C  C3  1  0.81487166  0.63125849  0.75253377  1
  C  C4  1  0.15126182  0.33382619  0.58260239  1
  C  C5  1  0.65107011  0.33407011  0.58257075  1
  C  C6  1  0.01502550  0.69774704  0.58318603  1
  C  C7  1  0.51568609  0.69752209  0.58314800  1
  C  C8  1  0.33276604  0.96817278  0.58249237  1
  C  C9  1  0.83330031  0.96928761  0.58250360  1
  C  C10  1  0.15118437  0.96884923  0.08266485  1
  C  C11  1  0.65200045  0.97003719  0.08353169  1
  C  C12  1  0.33287778  0.69651432  0.08330346  1
  C  C13  1  0.83311628  0.69728621  0.08295651  1
  C  C14  1  0.01508854  0.33339371  0.08287588  1
  C  C15  1  0.51543717  0.33395124  0.08342115  1
  C  C16  1  0.66705967  0.03289469  0.41417337  1
  C  C17  1  0.34849865  0.66614899  0.41361352  1
  C  C18  1  0.00027374  0.99937032  0.49759438  1
  C  C19  1  0.49957013  0.01133064  0.49552860  1
  C  C20  1  0.00002652  0.00014991  0.99942566  1
  C  C21  1  0.50021053  0.99974569  0.99952314  1
  C  C22  1  0.33376162  0.32355042  0.83644426  1
  C  C23  1  0.83376530  0.32365101  0.83647375  1
  C  C24  1  0.33468251  0.33498949  0.33287460  1
  C  C25  1  0.84252603  0.34182477  0.33330459  1
  C  C26  1  0.16228816  0.65461034  0.17132715  1
  C  C27  1  0.66579198  0.67784891  0.17107631  1
  C  C28  1  0.16131888  0.66739707  0.67148258  1
  C  C29  1  0.66126794  0.66657100  0.67149935  1
  C  C30  1  0.00026867  0.99939126  0.35098955  1
  C  C31  1  0.00105491  0.00238013  0.85349143  1
  C  C32  1  0.50107625  0.00245960  0.85345276  1
  Ni  Ni33  1  0.49962459  0.00445901  0.34932677  1
  Ni  Ni34  1  0.00146391  0.00278859  0.65355899  1
  Ni  Ni35  1  0.50140034  0.00225639  0.65308560  1
  Ni  Ni36  1  0.99988017  0.00002801  0.15332499  1
  Ni  Ni37  1  0.50030167  0.99779191  0.15356509  1
  Ni  Ni38  1  0.33369569  0.32698221  0.68815492  1
  Ni  Ni39  1  0.83382953  0.32747546  0.68820830  1
  Ni  Ni40  1  0.33248033  0.34021785  0.18543091  1
  Ni  Ni41  1  0.83755093  0.33158284  0.18709069  1
  Ni  Ni42  1  0.33332788  0.33410962  0.98017438  1
  Ni  Ni43  1  0.83336659  0.33377577  0.98030262  1
  Ni  Ni44  1  0.33281135  0.32485839  0.48133372  1
  Ni  Ni45  1  0.83657827  0.34090591  0.48084259  1
  Ni  Ni46  1  0.16632408  0.66696193  0.01076591  1
  Ni  Ni47  1  0.66642605  0.66672017  0.01080353  1
  Ni  Ni48  1  0.16310200  0.66411646  0.51144738  1
  Ni  Ni49  1  0.66828770  0.66586946  0.51193709  1
  Ni  Ni50  1  0.16388859  0.66091791  0.31629204  1
  Ni  Ni51  1  0.66500890  0.66867817  0.31665995  1
  Ni  Ni52  1  0.16363994  0.66725006  0.81753879  1
  Ni  Ni53  1  0.66363359  0.66724847  0.81757007  1
  Cu  Cu54  1  0.14720131  0.99845773  0.24958618  1
  Cu  Cu55  1  0.65014045  0.00012628  0.24987116  1
  Cu  Cu56  1  0.34975845  0.70108026  0.25091222  1
  Cu  Cu57  1  0.85223425  0.70478958  0.24983416  1
  Cu  Cu58  1  0.00068728  0.29409961  0.24983284  1
  Cu  Cu59  1  0.49983714  0.29907326  0.24830615  1
  Cu  Cu60  1  0.14734372  0.29619924  0.75009041  1
  Cu  Cu61  1  0.64735400  0.29603728  0.75008312  1
  Cu  Cu62  1  0.00110995  0.70770924  0.74973631  1
  Cu  Cu63  1  0.50112086  0.70783208  0.74965285  1
  Cu  Cu64  1  0.35308164  0.99882697  0.75059228  1
  Cu  Cu65  1  0.85304920  0.99894610  0.75060668  1
  Cu  Cu66  1  0.48116611  0.33439576  0.58417572  1
  Cu  Cu67  1  0.98046387  0.33393868  0.58365751  1
  Cu  Cu68  1  0.18577842  0.03786110  0.58385435  1
  Cu  Cu69  1  0.68643518  0.03839096  0.58224087  1
  Cu  Cu70  1  0.33269544  0.62756936  0.58371108  1
  Cu  Cu71  1  0.83330729  0.62872039  0.58555015  1
  Cu  Cu72  1  0.48099261  0.62773442  0.08260391  1
  Cu  Cu73  1  0.98080770  0.62741950  0.08318889  1
  Cu  Cu74  1  0.33282693  0.03800917  0.08438522  1
  Cu  Cu75  1  0.83309136  0.03811808  0.08267899  1
  Cu  Cu76  1  0.18556866  0.33363919  0.08236160  1
  Cu  Cu77  1  0.68649954  0.33433725  0.08451210  1
  Cu  Cu78  1  0.31593252  0.66675370  0.91464682  1
  Cu  Cu79  1  0.81590289  0.66645100  0.91465111  1
  Cu  Cu80  1  0.01703120  0.36786011  0.91624977  1
  Cu  Cu81  1  0.51715049  0.36784115  0.91634979  1
  Cu  Cu82  1  0.16694820  0.96561128  0.91612703  1
  Cu  Cu83  1  0.66690157  0.96564791  0.91612982  1
  Cu  Cu84  1  0.31530980  0.96326431  0.41581940  1
  Cu  Cu85  1  0.81672155  0.96486808  0.41675547  1
  Cu  Cu86  1  0.16562883  0.36726603  0.41692182  1
  Cu  Cu87  1  0.66690050  0.36720588  0.41615250  1
  Cu  Cu88  1  0.01748160  0.66881724  0.41587003  1
  Cu  Cu89  1  0.51731418  0.66626027  0.41754808  1
  C  C90  1  0.09423532  0.01353643  0.30203047  1
  C  C91  1  0.60852318  0.02947704  0.30459197  1
  C  C92  1  0.40305247  0.78415530  0.30646374  1
  C  C93  1  0.91273969  0.81122651  0.30232812  1
  C  C94  1  0.48316824  0.18100862  0.30102413  1
  C  C95  1  0.99395846  0.17227807  0.30202667  1
  C  C96  1  0.09494252  0.17529126  0.80204792  1
  C  C97  1  0.59490211  0.17530050  0.80206512  1
  C  C98  1  0.49169038  0.81251605  0.80136288  1
  C  C99  1  0.99174840  0.81258354  0.80144568  1
  C  C100  1  0.41368118  0.01454514  0.80256666  1
  C  C101  1  0.91368681  0.01482825  0.80257381  1
  C  C102  1  0.38898563  0.96827650  0.69302828  1
  C  C103  1  0.88895328  0.96859343  0.69304944  1
  C  C104  1  0.09934788  0.22494465  0.69200821  1
  C  C105  1  0.59927083  0.22447356  0.69197324  1
  C  C106  1  0.01232316  0.80331644  0.69148113  1
  C  C107  1  0.51245952  0.80360085  0.69131296  1
  C  C108  1  0.38897819  0.80985791  0.19470246  1
  C  C109  1  0.88875049  0.80249536  0.19241987  1
  C  C110  1  0.01194547  0.22118730  0.19175502  1
  C  C111  1  0.51589477  0.22475543  0.19154201  1
  C  C112  1  0.09855433  0.97518951  0.19218766  1
  C  C113  1  0.59890314  0.97577792  0.19287806  1
  C  C114  1  0.44247959  0.37067630  0.63828219  1
  C  C115  1  0.94235133  0.37071082  0.63799715  1
  C  C116  1  0.24257196  0.11494291  0.63806513  1
  C  C117  1  0.74405113  0.11934342  0.63576374  1
  C  C118  1  0.31719961  0.51804414  0.63922154  1
  C  C119  1  0.81698623  0.52104041  0.64164204  1
  C  C120  1  0.44290433  0.51511951  0.13700140  1
  C  C121  1  0.94299318  0.51538921  0.13788306  1
  C  C122  1  0.31598372  0.11086443  0.14097618  1
  C  C123  1  0.81499171  0.11375089  0.13724744  1
  C  C124  1  0.24131377  0.36979714  0.13710866  1
  C  C125  1  0.74014488  0.36813517  0.14089512  1
  C  C126  1  0.22462216  0.29729147  0.02893949  1
  C  C127  1  0.72708637  0.29927669  0.03164788  1
  C  C128  1  0.42393918  0.55107247  0.02885407  1
  C  C129  1  0.92371823  0.55057416  0.02949720  1
  C  C130  1  0.35030467  0.15486641  0.03173886  1
  C  C131  1  0.85147140  0.15212586  0.02901929  1
  C  C132  1  0.22386952  0.15186507  0.52987922  1
  C  C133  1  0.72376055  0.14583179  0.52633510  1
  C  C134  1  0.34861992  0.54861294  0.52879756  1
  C  C135  1  0.85058054  0.54785387  0.53236986  1
  C  C136  1  0.42441720  0.29664933  0.53004984  1
  C  C137  1  0.92374741  0.29647167  0.52959525  1
  C  C138  1  0.28164529  0.70381081  0.97133916  1
  C  C139  1  0.78164895  0.70355206  0.97130020  1
  C  C140  1  0.06846324  0.43263684  0.97371116  1
  C  C141  1  0.56857638  0.43255801  0.97376975  1
  C  C142  1  0.14725686  0.86242670  0.97358196  1
  C  C143  1  0.64721628  0.86231011  0.97345408  1
  C  C144  1  0.27601514  0.85396399  0.47243558  1
  C  C145  1  0.78505210  0.86482292  0.47502980  1
  C  C146  1  0.14647471  0.43094115  0.47477398  1
  C  C147  1  0.65493018  0.44379724  0.47368342  1
  C  C148  1  0.06677188  0.70541701  0.47445849  1
  C  C149  1  0.57050460  0.69898020  0.47467580  1
  C  C150  1  0.06190803  0.64351679  0.36421191  1
  C  C151  1  0.56008436  0.64023092  0.36470609  1
  C  C152  1  0.26255796  0.87909384  0.36072839  1
  C  C153  1  0.75614561  0.87735318  0.36585932  1
  C  C154  1  0.18304513  0.48748703  0.36577542  1
  C  C155  1  0.67793611  0.47345078  0.36130426  1
  C  C156  1  0.06057289  0.47916817  0.86355994  1
  C  C157  1  0.56042223  0.47926248  0.86363822  1
  C  C158  1  0.17995767  0.87939780  0.86353828  1
  C  C159  1  0.68007652  0.87974041  0.86346115  1
  C  C160  1  0.26265780  0.64375270  0.86000692  1
  C  C161  1  0.76265747  0.64346675  0.86000329  1
  C  C162  1  0.00890834  0.83343959  0.40527307  1
  C  C163  1  0.51041789  0.83121599  0.41287050  1
  C  C164  1  0.40314678  0.97088419  0.41311753  1
  C  C165  1  0.90730434  0.98444946  0.40542328  1
  C  C166  1  0.08515721  0.18550688  0.40574810  1
  C  C167  1  0.58727627  0.18447161  0.41307422  1
  C  C168  1  0.00942254  0.18612226  0.90566019  1
  C  C169  1  0.50947489  0.18618526  0.90572242  1
  C  C170  1  0.08404832  0.98181523  0.90524844  1
  C  C171  1  0.58399743  0.98177695  0.90515978  1
  C  C172  1  0.40743426  0.83310072  0.90528530  1
  C  C173  1  0.90744885  0.83288950  0.90524415  1
  C  C174  1  0.49125500  0.17309399  0.58950424  1
  C  C175  1  0.99128013  0.17372780  0.58912984  1
  C  C176  1  0.09497144  0.01734951  0.58899518  1
  C  C177  1  0.59602255  0.01921681  0.58812080  1
  C  C178  1  0.41350805  0.80938704  0.58837925  1
  C  C179  1  0.91368205  0.81101324  0.58927618  1
  C  C180  1  0.49134377  0.80952774  0.08840924  1
  C  C181  1  0.99152647  0.80947854  0.08889230  1
  C  C182  1  0.41322879  0.01659821  0.08888339  1
  C  C183  1  0.91345069  0.01656817  0.08825635  1
  C  C184  1  0.09466606  0.17265729  0.08808800  1
  C  C185  1  0.59524917  0.17308917  0.08871015  1
  C  C186  1  0.34783992  0.16232108  0.75023867  1
  C  C187  1  0.84767532  0.16225325  0.75006742  1
  C  C188  1  0.23668745  0.31194630  0.74996652  1
  C  C189  1  0.73657138  0.31131027  0.75000518  1
  C  C190  1  0.41477167  0.53660797  0.74960558  1
  C  C191  1  0.91491047  0.53638094  0.74982982  1
  C  C192  1  0.34057637  0.52346672  0.24700485  1
  C  C193  1  0.84542586  0.52813456  0.25028821  1
  C  C194  1  0.41696906  0.30838969  0.24432362  1
  C  C195  1  0.91769044  0.30062176  0.25138323  1
  C  C196  1  0.23633027  0.16045649  0.25018940  1
  C  C197  1  0.73696700  0.17045792  0.24645566  1
  C  C198  1  0.32900772  0.51338686  0.91952575  1
  C  C199  1  0.82898629  0.51312148  0.91967655  1
  C  C200  1  0.42689207  0.33973776  0.92060974  1
  C  C201  1  0.92696162  0.34033840  0.92034495  1
  C  C202  1  0.24365125  0.14570363  0.92050427  1
  C  C203  1  0.74335025  0.14610079  0.92055948  1
  C  C204  1  0.32501757  0.14134182  0.42001073  1
  C  C205  1  0.82443272  0.14193085  0.42121409  1
  C  C206  1  0.24708121  0.35376269  0.42183518  1
  C  C207  1  0.74586544  0.34254486  0.41961084  1
  C  C208  1  0.42539757  0.51259186  0.42175011  1
  C  C209  1  0.92744223  0.51369764  0.41964317  1
  C  C210  1  0.17583596  0.49509777  0.07644103  1
  C  C211  1  0.67685137  0.49560631  0.07746902  1
  C  C212  1  0.07139660  0.64742280  0.07708319  1
  C  C213  1  0.57175817  0.64866264  0.07664997  1
  C  C214  1  0.25205477  0.85711448  0.07749020  1
  C  C215  1  0.75241865  0.85647206  0.07658603  1
  C  C216  1  0.17546014  0.85674348  0.57783872  1
  C  C217  1  0.67590302  0.85669001  0.57745113  1
  C  C218  1  0.25191661  0.64672419  0.57795432  1
  C  C219  1  0.75244255  0.64727690  0.57920537  1
  C  C220  1  0.07108519  0.49548620  0.57762866  1
  C  C221  1  0.57182339  0.49476262  0.57809497  1
  C  C222  1  0.15849242  0.84211088  0.25604775  1
  C  C223  1  0.66033659  0.84228810  0.25438055  1
  C  C224  1  0.26244781  0.69477537  0.25426081  1
  C  C225  1  0.76220791  0.68009986  0.25678963  1
  C  C226  1  0.08045936  0.46935112  0.25627628  1
  C  C227  1  0.58272820  0.47336467  0.25421382  1
  C  C228  1  0.15987951  0.47699522  0.75631103  1
  C  C229  1  0.65991141  0.47683465  0.75634330  1
  C  C230  1  0.07915979  0.68642519  0.75576998  1
  C  C231  1  0.57907110  0.68638213  0.75571804  1
  C  C232  1  0.26591555  0.83349932  0.75689721  1
  C  C233  1  0.76589189  0.83357009  0.75689608  1
