# generated using pymatgen
data_Cu29(NiC)4
_symmetry_space_group_name_H-M   'P 1'
_cell_length_a   15.91845200
_cell_length_b   15.91845200
_cell_length_c   14.11829900
_cell_angle_alpha   90.00000000
_cell_angle_beta   90.00000000
_cell_angle_gamma   90.00000000
_symmetry_Int_Tables_number   1
_chemical_formula_structural   Cu29(NiC)4
_chemical_formula_sum   'Cu116 Ni16 C16'
_cell_volume   3577.53622227
_cell_formula_units_Z   4
loop_
 _symmetry_equiv_pos_site_id
 _symmetry_equiv_pos_as_xyz
  1  'x, y, z'
loop_
 _atom_site_type_symbol
 _atom_site_label
 _atom_site_symmetry_multiplicity
 _atom_site_fract_x
 _atom_site_fract_y
 _atom_site_fract_z
 _atom_site_occupancy
  C  C0  1  0.17841600  0.67104400  0.77512700  1
  C  C1  1  0.82895600  0.67841600  0.52512700  1
  C  C2  1  0.17104400  0.32158400  0.02512700  1
  C  C3  1  0.82158400  0.32895600  0.27512700  1
  C  C4  1  0.67841600  0.82895600  0.47487300  1
  C  C5  1  0.32158400  0.17104400  0.97487300  1
  C  C6  1  0.67104400  0.17841600  0.22487300  1
  C  C7  1  0.32895600  0.82158400  0.72487300  1
  C  C8  1  0.17984900  0.66972300  0.27597300  1
  C  C9  1  0.83027700  0.67984900  0.02597300  1
  C  C10  1  0.16972300  0.32015100  0.52597300  1
  C  C11  1  0.82015100  0.33027700  0.77597300  1
  C  C12  1  0.67984900  0.83027700  0.97402700  1
  C  C13  1  0.32015100  0.16972300  0.47402700  1
  C  C14  1  0.66972300  0.17984900  0.72402700  1
  C  C15  1  0.33027700  0.82015100  0.22402700  1
  Ni  Ni16  1  0.18330700  0.50723300  0.92035800  1
  Ni  Ni17  1  0.99276700  0.68330700  0.67035800  1
  Ni  Ni18  1  0.00723300  0.31669300  0.17035800  1
  Ni  Ni19  1  0.81669300  0.49276700  0.42035800  1
  Ni  Ni20  1  0.68330700  0.99276700  0.32964200  1
  Ni  Ni21  1  0.31669300  0.00723300  0.82964200  1
  Ni  Ni22  1  0.50723300  0.18330700  0.07964200  1
  Ni  Ni23  1  0.49276700  0.81669300  0.57964200  1
  Ni  Ni24  1  0.18375100  0.50583300  0.42151700  1
  Ni  Ni25  1  0.99416700  0.68375100  0.17151700  1
  Ni  Ni26  1  0.00583300  0.31624900  0.67151700  1
  Ni  Ni27  1  0.81624900  0.49416700  0.92151700  1
  Ni  Ni28  1  0.68375100  0.99416700  0.82848300  1
  Ni  Ni29  1  0.31624900  0.00583300  0.32848300  1
  Ni  Ni30  1  0.50583300  0.18375100  0.57848300  1
  Ni  Ni31  1  0.49416700  0.81624900  0.07848300  1
  Cu  Cu32  1  0.25742800  0.02346400  0.95793700  1
  Cu  Cu33  1  0.47653600  0.75742800  0.70793700  1
  Cu  Cu34  1  0.52346400  0.24257200  0.20793700  1
  Cu  Cu35  1  0.74257200  0.97653600  0.45793700  1
  Cu  Cu36  1  0.75742800  0.47653600  0.29206300  1
  Cu  Cu37  1  0.24257200  0.52346400  0.79206300  1
  Cu  Cu38  1  0.02346400  0.25742800  0.04206300  1
  Cu  Cu39  1  0.97653600  0.74257200  0.54206300  1
  Cu  Cu40  1  0.25509800  0.02221200  0.45582400  1
  Cu  Cu41  1  0.47778800  0.75509800  0.20582400  1
  Cu  Cu42  1  0.52221200  0.24490200  0.70582400  1
  Cu  Cu43  1  0.74490200  0.97778800  0.95582400  1
  Cu  Cu44  1  0.75509800  0.47778800  0.79417600  1
  Cu  Cu45  1  0.24490200  0.52221200  0.29417600  1
  Cu  Cu46  1  0.02221200  0.25509800  0.54417600  1
  Cu  Cu47  1  0.97778800  0.74490200  0.04417600  1
  Cu  Cu48  1  0.25406500  0.46290300  0.03102700  1
  Cu  Cu49  1  0.03709700  0.75406500  0.78102700  1
  Cu  Cu50  1  0.96290300  0.24593500  0.28102700  1
  Cu  Cu51  1  0.74593500  0.53709700  0.53102700  1
  Cu  Cu52  1  0.75406500  0.03709700  0.21897300  1
  Cu  Cu53  1  0.24593500  0.96290300  0.71897300  1
  Cu  Cu54  1  0.46290300  0.25406500  0.96897300  1
  Cu  Cu55  1  0.53709700  0.74593500  0.46897300  1
  Cu  Cu56  1  0.25236400  0.46140300  0.53393700  1
  Cu  Cu57  1  0.03859700  0.75236400  0.28393700  1
  Cu  Cu58  1  0.96140300  0.24763600  0.78393700  1
  Cu  Cu59  1  0.74763600  0.53859700  0.03393700  1
  Cu  Cu60  1  0.75236400  0.03859700  0.71606300  1
  Cu  Cu61  1  0.24763600  0.96140300  0.21606300  1
  Cu  Cu62  1  0.46140300  0.25236400  0.46606300  1
  Cu  Cu63  1  0.53859700  0.74763600  0.96606300  1
  Cu  Cu64  1  0.12483500  0.36842100  0.18568200  1
  Cu  Cu65  1  0.13157900  0.62483500  0.93568200  1
  Cu  Cu66  1  0.86842100  0.37516500  0.43568200  1
  Cu  Cu67  1  0.87516500  0.63157900  0.68568200  1
  Cu  Cu68  1  0.62483500  0.13157900  0.06431800  1
  Cu  Cu69  1  0.37516500  0.86842100  0.56431800  1
  Cu  Cu70  1  0.36842100  0.12483500  0.81431800  1
  Cu  Cu71  1  0.63157900  0.87516500  0.31431800  1
  Cu  Cu72  1  0.12355700  0.36787000  0.68604000  1
  Cu  Cu73  1  0.13213000  0.62355700  0.43604000  1
  Cu  Cu74  1  0.86787000  0.37644300  0.93604000  1
  Cu  Cu75  1  0.87644300  0.63213000  0.18604000  1
  Cu  Cu76  1  0.62355700  0.13213000  0.56396000  1
  Cu  Cu77  1  0.37644300  0.86787000  0.06396000  1
  Cu  Cu78  1  0.36787000  0.12355700  0.31396000  1
  Cu  Cu79  1  0.63213000  0.87644300  0.81396000  1
  Cu  Cu80  1  0.41614300  0.08949800  0.07734300  1
  Cu  Cu81  1  0.41050200  0.91614300  0.82734300  1
  Cu  Cu82  1  0.58949800  0.08385700  0.32734300  1
  Cu  Cu83  1  0.58385700  0.91050200  0.57734300  1
  Cu  Cu84  1  0.91614300  0.41050200  0.17265700  1
  Cu  Cu85  1  0.08385700  0.58949800  0.67265700  1
  Cu  Cu86  1  0.08949800  0.41614300  0.92265700  1
  Cu  Cu87  1  0.91050200  0.58385700  0.42265700  1
  Cu  Cu88  1  0.41511100  0.08946100  0.57760300  1
  Cu  Cu89  1  0.41053900  0.91511100  0.32760300  1
  Cu  Cu90  1  0.58946100  0.08488900  0.82760300  1
  Cu  Cu91  1  0.58488900  0.91053900  0.07760300  1
  Cu  Cu92  1  0.91511100  0.41053900  0.67239700  1
  Cu  Cu93  1  0.08488900  0.58946100  0.17239700  1
  Cu  Cu94  1  0.08946100  0.41511100  0.42239700  1
  Cu  Cu95  1  0.91053900  0.58488900  0.92239700  1
  Cu  Cu96  1  0.21504100  0.18082000  0.11029900  1
  Cu  Cu97  1  0.31918000  0.71504100  0.86029900  1
  Cu  Cu98  1  0.68082000  0.28495900  0.36029900  1
  Cu  Cu99  1  0.78495900  0.81918000  0.61029900  1
  Cu  Cu100  1  0.71504100  0.31918000  0.13970100  1
  Cu  Cu101  1  0.28495900  0.68082000  0.63970100  1
  Cu  Cu102  1  0.18082000  0.21504100  0.88970100  1
  Cu  Cu103  1  0.81918000  0.78495900  0.38970100  1
  Cu  Cu104  1  0.21425300  0.17931500  0.61029700  1
  Cu  Cu105  1  0.32068500  0.71425300  0.36029700  1
  Cu  Cu106  1  0.67931500  0.28574700  0.86029700  1
  Cu  Cu107  1  0.78574700  0.82068500  0.11029700  1
  Cu  Cu108  1  0.71425300  0.32068500  0.63970300  1
  Cu  Cu109  1  0.28574700  0.67931500  0.13970300  1
  Cu  Cu110  1  0.17931500  0.21425300  0.38970300  1
  Cu  Cu111  1  0.82068500  0.78574700  0.88970300  1
  Cu  Cu112  1  0.30237400  0.27475500  0.11421600  1
  Cu  Cu113  1  0.22524500  0.80237400  0.86421600  1
  Cu  Cu114  1  0.77475500  0.19762600  0.36421600  1
  Cu  Cu115  1  0.69762600  0.72524500  0.61421600  1
  Cu  Cu116  1  0.80237400  0.22524500  0.13578400  1
  Cu  Cu117  1  0.19762600  0.77475500  0.63578400  1
  Cu  Cu118  1  0.27475500  0.30237400  0.88578400  1
  Cu  Cu119  1  0.72524500  0.69762600  0.38578400  1
  Cu  Cu120  1  0.30134800  0.27337900  0.61387300  1
  Cu  Cu121  1  0.22662100  0.80134800  0.36387300  1
  Cu  Cu122  1  0.77337900  0.19865200  0.86387300  1
  Cu  Cu123  1  0.69865200  0.72662100  0.11387300  1
  Cu  Cu124  1  0.80134800  0.22662100  0.63612700  1
  Cu  Cu125  1  0.19865200  0.77337900  0.13612700  1
  Cu  Cu126  1  0.27337900  0.30134800  0.38612700  1
  Cu  Cu127  1  0.72662100  0.69865200  0.88612700  1
  Cu  Cu128  1  0.55368800  0.52907800  0.65200000  1
  Cu  Cu129  1  0.97092200  0.05368800  0.40200000  1
  Cu  Cu130  1  0.02907800  0.94631200  0.90200000  1
  Cu  Cu131  1  0.44631200  0.47092200  0.15200000  1
  Cu  Cu132  1  0.05368800  0.97092200  0.59800000  1
  Cu  Cu133  1  0.94631200  0.02907800  0.09800000  1
  Cu  Cu134  1  0.52907800  0.55368800  0.34800000  1
  Cu  Cu135  1  0.47092200  0.44631200  0.84800000  1
  Cu  Cu136  1  0.44529600  0.51107000  0.44904200  1
  Cu  Cu137  1  0.98893000  0.94529600  0.19904200  1
  Cu  Cu138  1  0.01107000  0.05470400  0.69904200  1
  Cu  Cu139  1  0.55470400  0.48893000  0.94904200  1
  Cu  Cu140  1  0.94529600  0.98893000  0.80095800  1
  Cu  Cu141  1  0.05470400  0.01107000  0.30095800  1
  Cu  Cu142  1  0.51107000  0.44529600  0.55095800  1
  Cu  Cu143  1  0.48893000  0.55470400  0.05095800  1
  Cu  Cu144  1  0.04171400  0.04171400  0.00000000  1
  Cu  Cu145  1  0.45828600  0.54171400  0.75000000  1
  Cu  Cu146  1  0.54171400  0.45828600  0.25000000  1
  Cu  Cu147  1  0.95828600  0.95828600  0.50000000  1
