# generated using pymatgen
data_CuNi11C70
_symmetry_space_group_name_H-M   'P 1'
_cell_length_a   18.18036278
_cell_length_b   9.10328573
_cell_length_c   22.58890472
_cell_angle_alpha   90.09192785
_cell_angle_beta   89.98407536
_cell_angle_gamma   120.01857716
_symmetry_Int_Tables_number   1
_chemical_formula_structural   CuNi11C70
_chemical_formula_sum   'Cu3 Ni33 C210'
_cell_volume   3237.01384724
_cell_formula_units_Z   3
loop_
 _symmetry_equiv_pos_site_id
 _symmetry_equiv_pos_as_xyz
  1  'x, y, z'
loop_
 _atom_site_type_symbol
 _atom_site_label
 _atom_site_symmetry_multiplicity
 _atom_site_fract_x
 _atom_site_fract_y
 _atom_site_fract_z
 _atom_site_occupancy
  C  C0  1  0.31852238  0.99986540  0.24987651  1
  C  C1  1  0.81849491  0.00004844  0.25005685  1
  C  C2  1  0.31866729  0.64123174  0.75142086  1
  C  C3  1  0.81657868  0.63177016  0.74934347  1
  C  C4  1  0.50249279  0.36643328  0.75148452  1
  C  C5  1  0.68475301  0.00253480  0.74935479  1
  C  C6  1  0.15028170  0.33506000  0.58145771  1
  C  C7  1  0.65140055  0.33627018  0.58313072  1
  C  C8  1  0.01534455  0.69499830  0.58337919  1
  C  C9  1  0.51949613  0.70216512  0.58228689  1
  C  C10  1  0.33358204  0.96755742  0.58348767  1
  C  C11  1  0.83032783  0.96357184  0.58251486  1
  C  C12  1  0.15109563  0.96484480  0.08179232  1
  C  C13  1  0.65151893  0.96600086  0.08159669  1
  C  C14  1  0.33128095  0.69792296  0.08297662  1
  C  C15  1  0.83080497  0.69791340  0.08294683  1
  C  C16  1  0.01819728  0.33816833  0.08272398  1
  C  C17  1  0.51855685  0.33738311  0.08281142  1
  C  C18  1  0.48341443  0.66770981  0.91646391  1
  C  C19  1  0.98111564  0.65959470  0.91746356  1
  C  C20  1  0.35069129  0.03383171  0.91672523  1
  C  C21  1  0.84920816  0.03798559  0.91748800  1
  C  C22  1  0.16706871  0.30361805  0.91849761  1
  C  C23  1  0.66859026  0.29855688  0.91722477  1
  C  C24  1  0.48436790  0.30278653  0.41619563  1
  C  C25  1  0.98103012  0.30133006  0.41709508  1
  C  C26  1  0.16626176  0.02955117  0.41737327  1
  C  C27  1  0.66924505  0.03674852  0.41868039  1
  C  C28  1  0.35004151  0.66573540  0.41629042  1
  C  C29  1  0.84918427  0.66154528  0.41740900  1
  C  C30  1  0.00036202  0.00015748  0.49960151  1
  C  C31  1  0.50043771  0.99965243  0.50067855  1
  C  C32  1  0.00079821  0.00155629  0.00054419  1
  C  C33  1  0.50017450  0.99998126  0.99954879  1
  C  C34  1  0.33361551  0.32865286  0.83391395  1
  C  C35  1  0.83659955  0.33410929  0.83145215  1
  C  C36  1  0.33658204  0.34340304  0.32999806  1
  C  C37  1  0.83628672  0.34290589  0.33192715  1
  C  C38  1  0.16479200  0.65710303  0.16816639  1
  C  C39  1  0.66495841  0.65686038  0.16834285  1
  C  C40  1  0.16439770  0.67293266  0.66933092  1
  C  C41  1  0.66712146  0.66716342  0.66671027  1
  C  C42  1  0.99194215  0.99399382  0.35103464  1
  C  C43  1  0.49544412  0.99672429  0.35092629  1
  C  C44  1  0.99335751  0.99006563  0.85283687  1
  C  C45  1  0.50057624  0.00206661  0.85187190  1
  C  C46  1  0.99414398  0.98469838  0.64763727  1
  C  C47  1  0.50111919  0.00124089  0.64989604  1
  C  C48  1  0.99513587  0.00391112  0.14843280  1
  C  C49  1  0.49683890  0.00541485  0.14902987  1
  C  C50  1  0.33604187  0.32870708  0.68354378  1
  C  C51  1  0.33341142  0.33377421  0.98170151  1
  C  C52  1  0.33411883  0.33400339  0.48024038  1
  C  C53  1  0.16556771  0.66622260  0.51772183  1
  C  C54  1  0.83655579  0.33497619  0.68601924  1
  C  C55  1  0.34130016  0.35293799  0.18319103  1
  C  C56  1  0.84129424  0.35319351  0.18282875  1
  C  C57  1  0.83260708  0.33114349  0.98263232  1
  C  C58  1  0.83323795  0.33225864  0.48221908  1
  C  C59  1  0.16713954  0.66421753  0.01821339  1
  C  C60  1  0.66747576  0.66759820  0.01822334  1
  C  C61  1  0.66773952  0.66976854  0.51749903  1
  C  C62  1  0.16386864  0.64772145  0.31596228  1
  C  C63  1  0.66576147  0.64718004  0.31692829  1
  C  C64  1  0.16336348  0.67897686  0.81745627  1
  C  C65  1  0.66841717  0.66920762  0.81541756  1
  Ni  Ni66  1  0.34751094  0.69459529  0.24997031  1
  Ni  Ni67  1  0.84709741  0.69347310  0.24969989  1
  Ni  Ni68  1  0.99996976  0.30544501  0.24989185  1
  Ni  Ni69  1  0.50039090  0.30612960  0.25014298  1
  Ni  Ni70  1  0.65120184  0.30204060  0.75031535  1
  Ni  Ni71  1  0.00182254  0.69759895  0.74992916  1
  Ni  Ni72  1  0.50149376  0.70254092  0.75153697  1
  Ni  Ni73  1  0.34684781  0.99251152  0.75154615  1
  Ni  Ni74  1  0.85021773  0.00382793  0.75019499  1
  Ni  Ni75  1  0.48479298  0.33828275  0.58138189  1
  Ni  Ni76  1  0.97533269  0.33268002  0.58356117  1
  Ni  Ni77  1  0.18511764  0.03837400  0.58270886  1
  Ni  Ni78  1  0.69180969  0.04615745  0.58285798  1
  Ni  Ni79  1  0.33314173  0.62819140  0.58432437  1
  Ni  Ni80  1  0.82984728  0.61353354  0.58263712  1
  Ni  Ni81  1  0.48253790  0.62789568  0.08287552  1
  Ni  Ni82  1  0.97925062  0.62157788  0.08073970  1
  Ni  Ni83  1  0.33012935  0.04074784  0.08515074  1
  Ni  Ni84  1  0.83007859  0.04643346  0.08362171  1
  Ni  Ni85  1  0.18878239  0.33571983  0.08472848  1
  Ni  Ni86  1  0.69189180  0.33682407  0.08296776  1
  Ni  Ni87  1  0.30763539  0.66600084  0.91503589  1
  Ni  Ni88  1  0.80762906  0.65993886  0.91788732  1
  Ni  Ni89  1  0.02306993  0.38318827  0.91730802  1
  Ni  Ni90  1  0.52530060  0.38400278  0.91653441  1
  Ni  Ni91  1  0.16647982  0.95338891  0.91847183  1
  Ni  Ni92  1  0.66883811  0.95496415  0.91790411  1
  Ni  Ni93  1  0.30961645  0.95373815  0.41340242  1
  Ni  Ni94  1  0.80684540  0.95388484  0.41632962  1
  Ni  Ni95  1  0.16596853  0.37221261  0.41568437  1
  Ni  Ni96  1  0.66865676  0.37877293  0.41931746  1
  Ni  Ni97  1  0.02008372  0.66324855  0.41506938  1
  Ni  Ni98  1  0.52647925  0.66875997  0.41578164  1
  Cu  Cu99  1  0.14804055  0.00011601  0.24995459  1
  Cu  Cu100  1  0.64861096  0.00005200  0.24990485  1
  Cu  Cu101  1  0.14608870  0.29686772  0.75058536  1
  C  C102  1  0.10732093  0.02520150  0.30315877  1
  C  C103  1  0.60781188  0.02548375  0.30308574  1
  C  C104  1  0.40927103  0.78470822  0.30801785  1
  C  C105  1  0.90848005  0.78302962  0.30748814  1
  C  C106  1  0.48280285  0.17820669  0.30698710  1
  C  C107  1  0.98249540  0.17860482  0.30694502  1
  C  C108  1  0.10642899  0.18933706  0.80362338  1
  C  C109  1  0.60727018  0.17661564  0.80757890  1
  C  C110  1  0.48222216  0.78907177  0.80853847  1
  C  C111  1  0.98347774  0.78920964  0.80716567  1
  C  C112  1  0.41124447  0.03417556  0.80846868  1
  C  C113  1  0.91053203  0.03344681  0.80812474  1
  C  C114  1  0.39171990  0.96128277  0.69286539  1
  C  C115  1  0.89371926  0.96388293  0.69323774  1
  C  C116  1  0.09476541  0.21449396  0.69681721  1
  C  C117  1  0.58807549  0.21721312  0.69298768  1
  C  C118  1  0.01741655  0.82040386  0.69217030  1
  C  C119  1  0.51945231  0.82226296  0.69291003  1
  C  C120  1  0.39392507  0.82213621  0.19309709  1
  C  C121  1  0.89335385  0.82143978  0.19288208  1
  C  C122  1  0.01640131  0.21440755  0.19220315  1
  C  C123  1  0.51690078  0.21609162  0.19223766  1
  C  C124  1  0.09461208  0.97474723  0.19669962  1
  C  C125  1  0.59501629  0.97476512  0.19693915  1
  C  C126  1  0.44190200  0.37369433  0.63992917  1
  C  C127  1  0.92769848  0.36390898  0.63941953  1
  C  C128  1  0.24780600  0.12759287  0.63886517  1
  C  C129  1  0.75154331  0.13549687  0.64074127  1
  C  C130  1  0.31492480  0.50700823  0.64226227  1
  C  C131  1  0.81602028  0.49768171  0.64100366  1
  C  C132  1  0.43332733  0.49754214  0.13850015  1
  C  C133  1  0.93269389  0.49673648  0.13800954  1
  C  C134  1  0.31527480  0.13349556  0.14207845  1
  C  C135  1  0.81532580  0.13485911  0.14160922  1
  C  C136  1  0.25468009  0.36719629  0.13900069  1
  C  C137  1  0.75541147  0.36718386  0.13858484  1
  C  C138  1  0.22700950  0.29682378  0.02464755  1
  C  C139  1  0.73668522  0.30380558  0.02427051  1
  C  C140  1  0.42127075  0.54723332  0.02512056  1
  C  C141  1  0.91528862  0.52911598  0.02429904  1
  C  C142  1  0.35128639  0.15843093  0.02568957  1
  C  C143  1  0.84825645  0.16941947  0.02520720  1
  C  C144  1  0.22650410  0.15713971  0.52407737  1
  C  C145  1  0.73710072  0.16983553  0.52469170  1
  C  C146  1  0.35067574  0.54326415  0.52586366  1
  C  C147  1  0.84860542  0.52708141  0.52469842  1
  C  C148  1  0.42132104  0.29778659  0.52498443  1
  C  C149  1  0.91551469  0.30134368  0.52469682  1
  C  C150  1  0.26256813  0.69538658  0.97432124  1
  C  C151  1  0.76396071  0.69730557  0.97520659  1
  C  C152  1  0.08461994  0.47264600  0.97567805  1
  C  C153  1  0.58523206  0.47491803  0.97497629  1
  C  C154  1  0.15017554  0.83032350  0.97567881  1
  C  C155  1  0.65239146  0.83015551  0.97525142  1
  C  C156  1  0.27233725  0.84104031  0.47376184  1
  C  C157  1  0.76393048  0.83097953  0.47463723  1
  C  C158  1  0.14709205  0.45119144  0.47473129  1
  C  C159  1  0.65087575  0.47114987  0.47548924  1
  C  C160  1  0.07809250  0.70332243  0.47491323  1
  C  C161  1  0.58480282  0.69699027  0.47542834  1
  C  C162  1  0.07087701  0.63313638  0.36086066  1
  C  C163  1  0.57412761  0.63677477  0.36047643  1
  C  C164  1  0.24793212  0.86166561  0.35695243  1
  C  C165  1  0.74821646  0.86521662  0.35820677  1
  C  C166  1  0.18258889  0.50300083  0.36071860  1
  C  C167  1  0.68444491  0.50305186  0.36189120  1
  C  C168  1  0.07098293  0.50886519  0.86146144  1
  C  C169  1  0.57075008  0.50426388  0.85870414  1
  C  C170  1  0.18243896  0.86187397  0.86126881  1
  C  C171  1  0.68362423  0.86396403  0.85968263  1
  C  C172  1  0.24723435  0.63400341  0.85754878  1
  C  C173  1  0.74933025  0.63423188  0.85933873  1
  C  C174  1  0.01225770  0.83467429  0.40932340  1
  C  C175  1  0.51738190  0.83890720  0.41164421  1
  C  C176  1  0.40540790  0.97547433  0.41075721  1
  C  C177  1  0.90239320  0.97328923  0.41316241  1
  C  C178  1  0.08270304  0.18446830  0.40882063  1
  C  C179  1  0.58446455  0.19159753  0.41107655  1
  C  C180  1  0.01557837  0.19564227  0.91177338  1
  C  C181  1  0.51575384  0.19542080  0.91374141  1
  C  C182  1  0.08270382  0.97451336  0.91143799  1
  C  C183  1  0.58357963  0.97260593  0.91382996  1
  C  C184  1  0.40259344  0.83589745  0.91356645  1
  C  C185  1  0.90249600  0.83240019  0.91338045  1
  C  C186  1  0.49086795  0.16630827  0.58721305  1
  C  C187  1  0.98659323  0.16542808  0.58933172  1
  C  C188  1  0.09272358  0.02652475  0.58849119  1
  C  C189  1  0.59714313  0.02660889  0.58658804  1
  C  C190  1  0.41869877  0.81482009  0.58769333  1
  C  C191  1  0.91569719  0.80430846  0.58668633  1
  C  C192  1  0.49234135  0.81452245  0.09132880  1
  C  C193  1  0.98853798  0.80889828  0.08864726  1
  C  C194  1  0.41575423  0.02097122  0.08896684  1
  C  C195  1  0.91582230  0.02657653  0.08671841  1
  C  C196  1  0.09488640  0.16467124  0.09041126  1
  C  C197  1  0.59793460  0.16550516  0.08805954  1
  C  C198  1  0.34449023  0.16959330  0.74654412  1
  C  C199  1  0.83838292  0.16769260  0.74224058  1
  C  C200  1  0.23253203  0.31512602  0.74585490  1
  C  C201  1  0.74320524  0.31554279  0.74264838  1
  C  C202  1  0.41428123  0.51753023  0.74677215  1
  C  C203  1  0.91261812  0.51899285  0.74137928  1
  C  C204  1  0.34061767  0.50970850  0.24084883  1
  C  C205  1  0.84040372  0.50934808  0.24064533  1
  C  C206  1  0.40990404  0.30399772  0.24139341  1
  C  C207  1  0.90988218  0.30405251  0.24118183  1
  C  C208  1  0.23335208  0.15217784  0.24450822  1
  C  C209  1  0.73359400  0.15249416  0.24446182  1
  C  C210  1  0.31815198  0.49772764  0.92008843  1
  C  C211  1  0.81911549  0.49385883  0.92354723  1
  C  C212  1  0.43073508  0.36388088  0.91989868  1
  C  C213  1  0.92852899  0.36212453  0.92384854  1
  C  C214  1  0.25182917  0.14023466  0.92000017  1
  C  C215  1  0.75360837  0.14363568  0.92397664  1
  C  C216  1  0.32038623  0.14269365  0.41839787  1
  C  C217  1  0.81908085  0.14397817  0.42404733  1
  C  C218  1  0.25267277  0.36130479  0.41818978  1
  C  C219  1  0.75396994  0.36261324  0.42395840  1
  C  C220  1  0.43167233  0.50067737  0.42017739  1
  C  C221  1  0.92645537  0.49304984  0.42212429  1
  C  C222  1  0.17971777  0.50556189  0.07772531  1
  C  C223  1  0.68150871  0.50492430  0.07593702  1
  C  C224  1  0.07243808  0.63718996  0.07601624  1
  C  C225  1  0.57485004  0.63938090  0.07768288  1
  C  C226  1  0.24623437  0.85171564  0.07732893  1
  C  C227  1  0.74737623  0.85597806  0.07572815  1
  C  C228  1  0.17679277  0.85240725  0.57959526  1
  C  C229  1  0.68165745  0.85685847  0.57570819  1
  C  C230  1  0.24778184  0.64359337  0.57983717  1
  C  C231  1  0.74753612  0.63931688  0.57588940  1
  C  C232  1  0.06928573  0.50135672  0.57981543  1
  C  C233  1  0.57710983  0.51008811  0.57588327  1
  C  C234  1  0.15717597  0.84816293  0.25529968  1
  C  C235  1  0.65743272  0.84809646  0.25543237  1
  C  C236  1  0.25795705  0.69574508  0.25829734  1
  C  C237  1  0.75809913  0.69624161  0.25842850  1
  C  C238  1  0.08540695  0.49009145  0.25857759  1
  C  C239  1  0.58576770  0.49055557  0.25912264  1
  C  C240  1  0.15612918  0.46523717  0.75574422  1
  C  C241  1  0.65750029  0.48695041  0.75814979  1
  C  C242  1  0.08642020  0.68198218  0.75891380  1
  C  C243  1  0.58658722  0.68655989  0.75797583  1
  C  C244  1  0.25715258  0.81515637  0.75858981  1
  C  C245  1  0.75806997  0.82919474  0.75809172  1
