# generated using pymatgen
data_Cu3Ni2C13
_symmetry_space_group_name_H-M   'P 1'
_cell_length_a   9.25915500
_cell_length_b   9.17112900
_cell_length_c   15.80345824
_cell_angle_alpha   55.03265367
_cell_angle_beta   90.00000000
_cell_angle_gamma   90.00000000
_symmetry_Int_Tables_number   1
_chemical_formula_structural   Cu3Ni2C13
_chemical_formula_sum   'Cu12 Ni8 C52'
_cell_volume   1099.72478415
_cell_formula_units_Z   4
loop_
 _symmetry_equiv_pos_site_id
 _symmetry_equiv_pos_as_xyz
  1  'x, y, z'
loop_
 _atom_site_type_symbol
 _atom_site_label
 _atom_site_symmetry_multiplicity
 _atom_site_fract_x
 _atom_site_fract_y
 _atom_site_fract_z
 _atom_site_occupancy
  C  C0  1  0.52026600  0.02710400  0.18004500  1
  C  C1  1  0.02199300  0.60866600  0.17997300  1
  C  C2  1  0.47973400  0.02710400  0.68004500  1
  C  C3  1  0.97800700  0.60866600  0.67997300  1
  Ni  Ni4  1  0.78302200  0.36037600  0.88881200  1
  Ni  Ni5  1  0.30596600  0.62750100  0.61157900  1
  Ni  Ni6  1  0.80885600  0.12669400  0.62228100  1
  Ni  Ni7  1  0.27819400  0.87485200  0.88328800  1
  Ni  Ni8  1  0.21697800  0.36037600  0.38881200  1
  Ni  Ni9  1  0.19114400  0.12669400  0.12228100  1
  Ni  Ni10  1  0.72180600  0.87485200  0.38328800  1
  Ni  Ni11  1  0.69403400  0.62750100  0.11157900  1
  Cu  Cu12  1  0.84881200  0.26881300  0.34493900  1
  Cu  Cu13  1  0.49639000  0.43933800  0.00454000  1
  Cu  Cu14  1  0.15118800  0.26881300  0.84493900  1
  Cu  Cu15  1  0.50361000  0.43933800  0.50454000  1
  Cu  Cu16  1  0.65535100  0.74626700  0.65158400  1
  Cu  Cu17  1  0.64659900  0.04454000  0.84867900  1
  Cu  Cu18  1  0.00636400  0.55468700  0.49754100  1
  Cu  Cu19  1  0.84789400  0.94216200  0.15012300  1
  Cu  Cu20  1  0.15210600  0.94216200  0.65012300  1
  Cu  Cu21  1  0.34464900  0.74626700  0.15158400  1
  Cu  Cu22  1  0.99363600  0.55468700  0.99754100  1
  Cu  Cu23  1  0.35340100  0.04454000  0.34867900  1
  C  C24  1  0.89983100  0.40154900  0.56076200  1
  C  C25  1  0.71538500  0.81305000  0.54496100  1
  C  C26  1  0.50570400  0.65431000  0.67809900  1
  C  C27  1  0.80398800  0.19958200  0.45481900  1
  C  C28  1  0.00271900  0.37107000  0.81279100  1
  C  C29  1  0.65741200  0.89693700  0.96652600  1
  C  C30  1  0.49965000  0.03175700  0.30529900  1
  C  C31  1  0.11990000  0.53030500  0.43476800  1
  C  C32  1  0.22684000  0.03626900  0.28909000  1
  C  C33  1  0.61157400  0.44499600  0.07553900  1
  C  C34  1  0.22540500  0.60651200  0.22484400  1
  C  C35  1  0.99728100  0.37107000  0.31279100  1
  C  C36  1  0.88010000  0.53030500  0.93476800  1
  C  C37  1  0.50035000  0.03175700  0.80529900  1
  C  C38  1  0.91786800  0.57329500  0.08020500  1
  C  C39  1  0.15368200  0.76379200  0.65687500  1
  C  C40  1  0.49429600  0.65431000  0.17809900  1
  C  C41  1  0.57766300  0.25734600  0.57941300  1
  C  C42  1  0.64367800  0.22798800  0.83560800  1
  C  C43  1  0.77459500  0.60651200  0.72484400  1
  C  C44  1  0.10016900  0.40154900  0.06076200  1
  C  C45  1  0.72810500  0.40847500  0.27589100  1
  C  C46  1  0.57476200  0.43955100  0.91689400  1
  C  C47  1  0.99655400  0.93676900  0.19504800  1
  C  C48  1  0.35632200  0.22798800  0.33560800  1
  C  C49  1  0.28461500  0.81305000  0.04496100  1
  C  C50  1  0.42233700  0.25734600  0.07941300  1
  C  C51  1  0.60522400  0.59813000  0.45066600  1
  C  C52  1  0.72127800  0.94512700  0.21310900  1
  C  C53  1  0.93060600  0.73122700  0.41717800  1
  C  C54  1  0.39477600  0.59813000  0.95066600  1
  C  C55  1  0.77316000  0.03626900  0.78909000  1
  C  C56  1  0.27189500  0.40847500  0.77589100  1
  C  C57  1  0.84631800  0.76379200  0.15687500  1
  C  C58  1  0.27872200  0.94512700  0.71310900  1
  C  C59  1  0.34258800  0.89693700  0.46652600  1
  C  C60  1  0.35738500  0.89639600  0.16804100  1
  C  C61  1  0.19601200  0.19958200  0.95481900  1
  C  C62  1  0.85881000  0.12151600  0.32658100  1
  C  C63  1  0.14119000  0.12151600  0.82658100  1
  C  C64  1  0.00344600  0.93676900  0.69504800  1
  C  C65  1  0.83507800  0.10346900  0.03670600  1
  C  C66  1  0.42523800  0.43955100  0.41689400  1
  C  C67  1  0.38842600  0.44499600  0.57553900  1
  C  C68  1  0.16492200  0.10346900  0.53670600  1
  C  C69  1  0.08213200  0.57329500  0.58020500  1
  C  C70  1  0.06939400  0.73122700  0.91717800  1
  C  C71  1  0.64261500  0.89639600  0.66804100  1
