# generated using pymatgen
data_Cu3NiC3
_symmetry_space_group_name_H-M   'P 1'
_cell_length_a   6.22669400
_cell_length_b   5.59787426
_cell_length_c   9.68458396
_cell_angle_alpha   106.79868821
_cell_angle_beta   90.00000000
_cell_angle_gamma   90.00000000
_symmetry_Int_Tables_number   1
_chemical_formula_structural   Cu3NiC3
_chemical_formula_sum   'Cu6 Ni2 C6'
_cell_volume   323.16293047
_cell_formula_units_Z   2
loop_
 _symmetry_equiv_pos_site_id
 _symmetry_equiv_pos_as_xyz
  1  'x, y, z'
loop_
 _atom_site_type_symbol
 _atom_site_label
 _atom_site_symmetry_multiplicity
 _atom_site_fract_x
 _atom_site_fract_y
 _atom_site_fract_z
 _atom_site_occupancy
  C  C0  1  0.12194400  0.67022300  0.34044600  1
  C  C1  1  0.12194400  0.32977700  0.65955400  1
  C  C2  1  0.85009300  0.50000000  0.00000000  1
  C  C3  1  0.41542800  0.00000000  0.00000000  1
  C  C4  1  0.59009800  0.80760100  0.61520300  1
  C  C5  1  0.59009800  0.19239900  0.38479700  1
  Ni  Ni6  1  0.43220800  0.50000000  0.00000000  1
  Ni  Ni7  1  0.95138900  0.00000000  0.00000000  1
  Cu  Cu8  1  0.49673400  0.50000000  0.50000000  1
  Cu  Cu9  1  0.45527400  0.89249300  0.78498500  1
  Cu  Cu10  1  0.86009000  0.81117800  0.62235500  1
  Cu  Cu11  1  0.86009000  0.18882200  0.37764500  1
  Cu  Cu12  1  0.49673400  0.00000000  0.50000000  1
  Cu  Cu13  1  0.45527400  0.10750700  0.21501400  1
