# generated using pymatgen
data_Cu5(NiC)7
_symmetry_space_group_name_H-M   'P 1'
_cell_length_a   7.74967972
_cell_length_b   5.79883832
_cell_length_c   5.62911459
_cell_angle_alpha   71.26879696
_cell_angle_beta   71.95227312
_cell_angle_gamma   71.11321341
_symmetry_Int_Tables_number   1
_chemical_formula_structural   Cu5(NiC)7
_chemical_formula_sum   'Cu5 Ni7 C7'
_cell_volume   220.60776491
_cell_formula_units_Z   1
loop_
 _symmetry_equiv_pos_site_id
 _symmetry_equiv_pos_as_xyz
  1  'x, y, z'
loop_
 _atom_site_type_symbol
 _atom_site_label
 _atom_site_symmetry_multiplicity
 _atom_site_fract_x
 _atom_site_fract_y
 _atom_site_fract_z
 _atom_site_occupancy
  C  C0  1  0.84058600  0.16750000  0.68154600  1
  C  C1  1  0.83508500  0.68328400  0.71150300  1
  C  C2  1  0.64202600  0.35395500  0.31487200  1
  C  C3  1  0.27356700  0.69354900  0.60453100  1
  C  C4  1  0.17687900  0.34121700  0.31567300  1
  C  C5  1  0.48294900  0.99407000  0.97437200  1
  C  C6  1  0.01787900  0.96903000  0.09319400  1
  Ni  Ni7  1  0.64642200  0.04990200  0.62729400  1
  Ni  Ni8  1  0.94465000  0.22508900  0.29301900  1
  Ni  Ni9  1  0.00090300  0.81728500  0.80851500  1
  Ni  Ni10  1  0.37335100  0.44934800  0.39240700  1
  Ni  Ni11  1  0.32078900  0.98450300  0.31572700  1
  Ni  Ni12  1  0.66070700  0.66341600  0.04152800  1
  Ni  Ni13  1  0.01420500  0.68036500  0.37350300  1
  Cu  Cu14  1  0.32529200  0.36685200  0.91366800  1
  Cu  Cu15  1  0.29775300  0.87445000  0.86823400  1
  Cu  Cu16  1  0.68418800  0.52107100  0.60493000  1
  Cu  Cu17  1  0.70507300  0.12999400  0.05658100  1
  Cu  Cu18  1  0.01662400  0.28511900  0.77080800  1
