# generated using pymatgen
data_CuNiC5
_symmetry_space_group_name_H-M   'P 1'
_cell_length_a   5.78902927
_cell_length_b   5.80234440
_cell_length_c   5.80230465
_cell_angle_alpha   137.06958287
_cell_angle_beta   140.11206585
_cell_angle_gamma   60.07638504
_symmetry_Int_Tables_number   1
_chemical_formula_structural   CuNiC5
_chemical_formula_sum   'Cu1 Ni1 C5'
_cell_volume   84.24051409
_cell_formula_units_Z   1
loop_
 _symmetry_equiv_pos_site_id
 _symmetry_equiv_pos_as_xyz
  1  'x, y, z'
loop_
 _atom_site_type_symbol
 _atom_site_label
 _atom_site_symmetry_multiplicity
 _atom_site_fract_x
 _atom_site_fract_y
 _atom_site_fract_z
 _atom_site_occupancy
  Ni  Ni0  1  0.18499500  0.71195065  0.47355781  1
  Cu  Cu1  1  0.76562699  0.28952369  0.47659891  1
  C  C2  1  0.96247292  0.98587102  0.97708385  1
  C  C3  1  0.42792942  0.95220028  0.47626337  1
  C  C4  1  0.16849408  0.19440465  0.97457228  1
  C  C5  1  0.98086315  0.50345766  0.47787673  1
  C  C6  1  0.73878543  0.76537005  0.97390806  1
