# generated using pymatgen
data_Cu6NiC30
_symmetry_space_group_name_H-M   'P 1'
_cell_length_a   8.84891725
_cell_length_b   8.83730123
_cell_length_c   22.97343272
_cell_angle_alpha   90.00819633
_cell_angle_beta   89.99770083
_cell_angle_gamma   120.15588948
_symmetry_Int_Tables_number   1
_chemical_formula_structural   Cu6NiC30
_chemical_formula_sum   'Cu18 Ni3 C90'
_cell_volume   1553.39519313
_cell_formula_units_Z   3
loop_
 _symmetry_equiv_pos_site_id
 _symmetry_equiv_pos_as_xyz
  1  'x, y, z'
loop_
 _atom_site_type_symbol
 _atom_site_label
 _atom_site_symmetry_multiplicity
 _atom_site_fract_x
 _atom_site_fract_y
 _atom_site_fract_z
 _atom_site_occupancy
  C  C0  1  0.36636281  0.36342005  0.24712332  1
  C  C1  1  0.63886126  0.63460692  0.74753130  1
  C  C2  1  0.97208466  0.30100199  0.41358758  1
  C  C3  1  0.00080932  0.99049829  0.49695260  1
  C  C4  1  0.99981736  0.99981437  0.00130685  1
  C  C5  1  0.66726328  0.32389275  0.83182390  1
  C  C6  1  0.66762399  0.33353372  0.32756738  1
  C  C7  1  0.33242796  0.67614674  0.16495527  1
  C  C8  1  0.32414109  0.66722154  0.66516217  1
  C  C9  1  0.00104854  0.00240419  0.85151494  1
  C  C10  1  0.00209181  0.00306607  0.64537897  1
  C  C11  1  0.99721407  0.99749394  0.14672058  1
  C  C12  1  0.66627798  0.33399104  0.98131040  1
  C  C13  1  0.66029553  0.33412993  0.48068479  1
  C  C14  1  0.33392762  0.66666705  0.02391775  1
  C  C15  1  0.33438041  0.66895081  0.52081565  1
  C  C16  1  0.33496539  0.67445903  0.31220900  1
  C  C17  1  0.32736282  0.66742593  0.81383633  1
  Ni  Ni18  1  0.99853134  0.99217409  0.34798439  1
  Ni  Ni19  1  0.66771745  0.32788638  0.68395187  1
  Ni  Ni20  1  0.67429292  0.33300922  0.18515697  1
  Cu  Cu21  1  0.29223190  0.00964401  0.25100296  1
  Cu  Cu22  1  0.71792770  0.70539226  0.25169041  1
  Cu  Cu23  1  0.98648745  0.28202862  0.25214060  1
  Cu  Cu24  1  0.30419648  0.29245008  0.74774123  1
  Cu  Cu25  1  0.99085996  0.69705866  0.74701214  1
  Cu  Cu26  1  0.70814701  0.01223070  0.74766423  1
  Cu  Cu27  1  0.94922829  0.33545155  0.58559487  1
  Cu  Cu28  1  0.38482297  0.04941838  0.58714415  1
  Cu  Cu29  1  0.66439351  0.61568124  0.58767239  1
  Cu  Cu30  1  0.94899059  0.61444118  0.08743591  1
  Cu  Cu31  1  0.66613733  0.05230778  0.08751866  1
  Cu  Cu32  1  0.38527125  0.33385994  0.08835296  1
  Cu  Cu33  1  0.62473455  0.66701083  0.91607728  1
  Cu  Cu34  1  0.04112856  0.37427335  0.91762490  1
  Cu  Cu35  1  0.33233796  0.95829172  0.91743553  1
  Cu  Cu36  1  0.63727748  0.95832427  0.41514299  1
  Cu  Cu37  1  0.32397038  0.36440814  0.41335033  1
  Cu  Cu38  1  0.04229102  0.67964970  0.41492750  1
  C  C39  1  0.20129010  0.03737342  0.30415366  1
  C  C40  1  0.83052062  0.79889563  0.30509834  1
  C  C41  1  0.96706573  0.17352694  0.30762238  1
  C  C42  1  0.21664339  0.18122071  0.80259839  1
  C  C43  1  0.95862217  0.78178796  0.80159400  1
  C  C44  1  0.81980299  0.03670280  0.80275056  1
  C  C45  1  0.79233040  0.97108525  0.69582094  1
  C  C46  1  0.18396614  0.20799797  0.69532501  1
  C  C47  1  0.02300584  0.81740456  0.69476473  1
  C  C48  1  0.79424258  0.81845953  0.19696142  1
  C  C49  1  0.02848978  0.20307129  0.19880991  1
  C  C50  1  0.17981786  0.97631884  0.19634036  1
  C  C51  1  0.85596850  0.35651174  0.63831667  1
  C  C52  1  0.49803776  0.14173418  0.64010237  1
  C  C53  1  0.64341557  0.50610976  0.64224516  1
  C  C54  1  0.85749866  0.50125659  0.14036723  1
  C  C55  1  0.64354826  0.14288544  0.14050733  1
  C  C56  1  0.49497151  0.35564008  0.14287334  1
  C  C57  1  0.46558441  0.30926505  0.03199833  1
  C  C58  1  0.84565445  0.53673689  0.03052203  1
  C  C59  1  0.69166750  0.15532758  0.03056277  1
  C  C60  1  0.46323431  0.15420633  0.53060449  1
  C  C61  1  0.69036403  0.53436931  0.53185099  1
  C  C62  1  0.84878082  0.30951514  0.52784214  1
  C  C63  1  0.53514992  0.69085454  0.96969204  1
  C  C64  1  0.15323311  0.46171028  0.97151838  1
  C  C65  1  0.30784233  0.84629933  0.97137569  1
  C  C66  1  0.54837672  0.84663598  0.47006188  1
  C  C67  1  0.29370965  0.45320444  0.46755716  1
  C  C68  1  0.15446731  0.70360061  0.47011879  1
  C  C69  1  0.12624566  0.63805989  0.36281733  1
  C  C70  1  0.51686335  0.87386483  0.36247842  1
  C  C71  1  0.35593374  0.48012113  0.35933455  1
  C  C72  1  0.12749376  0.48527904  0.86252097  1
  C  C73  1  0.35792195  0.87261763  0.86234707  1
  C  C74  1  0.51837976  0.64279359  0.85962619  1
  C  C75  1  0.02293096  0.83958396  0.40457762  1
  C  C76  1  0.82047171  0.98209449  0.40606625  1
  C  C77  1  0.15667394  0.18475214  0.40551801  1
  C  C78  1  0.02350389  0.19247410  0.91097092  1
  C  C79  1  0.16857239  0.97579599  0.91042452  1
  C  C80  1  0.80756034  0.83129836  0.91031753  1
  C  C81  1  0.97111049  0.17275643  0.59076552  1
  C  C82  1  0.20064897  0.02762724  0.59096754  1
  C  C83  1  0.82723214  0.80045747  0.59108374  1
  C  C84  1  0.97166143  0.79950434  0.09110018  1
  C  C85  1  0.82798363  0.02930179  0.09147484  1
  C  C86  1  0.19950290  0.17202714  0.09144845  1
  C  C87  1  0.68850016  0.17269492  0.73845606  1
  C  C88  1  0.48828988  0.31699346  0.73951566  1
  C  C89  1  0.82378495  0.51719699  0.73893915  1
  C  C90  1  0.68997523  0.51868417  0.24323984  1
  C  C91  1  0.82716227  0.30449815  0.24191702  1
  C  C92  1  0.47412313  0.17613289  0.24303079  1
  C  C93  1  0.64269589  0.50335850  0.92127485  1
  C  C94  1  0.85960204  0.35582716  0.92164743  1
  C  C95  1  0.49601871  0.14037317  0.92160083  1
  C  C96  1  0.66104858  0.14463321  0.42213404  1
  C  C97  1  0.48761642  0.34735396  0.42125480  1
  C  C98  1  0.86246474  0.50847125  0.42235855  1
  C  C99  1  0.36623812  0.49878984  0.08161094  1
  C  C100  1  0.13316144  0.63432697  0.08134105  1
  C  C101  1  0.50157581  0.86729845  0.08144119  1
  C  C102  1  0.36520521  0.86546124  0.58054519  1
  C  C103  1  0.49993128  0.63421914  0.58024623  1
  C  C104  1  0.13440315  0.49995104  0.57977439  1
  C  C105  1  0.31331917  0.84645014  0.25728642  1
  C  C106  1  0.52875886  0.67923072  0.25798996  1
  C  C107  1  0.15786370  0.46609591  0.25814557  1
  C  C108  1  0.32764509  0.47885690  0.75482484  1
  C  C109  1  0.15458308  0.67977806  0.75419445  1
  C  C110  1  0.52814071  0.84085661  0.75508052  1
