# generated using pymatgen
data_Cu3Ni6C23
_symmetry_space_group_name_H-M   'P 1'
_cell_length_a   10.44268807
_cell_length_b   10.44268807
_cell_length_c   10.44268860
_cell_angle_alpha   63.07479587
_cell_angle_beta   63.07479587
_cell_angle_gamma   63.07479505
_symmetry_Int_Tables_number   1
_chemical_formula_structural   Cu3Ni6C23
_chemical_formula_sum   'Cu6 Ni12 C46'
_cell_volume   860.16871235
_cell_formula_units_Z   2
loop_
 _symmetry_equiv_pos_site_id
 _symmetry_equiv_pos_as_xyz
  1  'x, y, z'
loop_
 _atom_site_type_symbol
 _atom_site_label
 _atom_site_symmetry_multiplicity
 _atom_site_fract_x
 _atom_site_fract_y
 _atom_site_fract_z
 _atom_site_occupancy
  C  C0  1  0.00000000  0.00000000  0.00000000  1
  C  C1  1  0.03055100  0.66621400  0.82848500  1
  C  C2  1  0.82848500  0.03055100  0.66621400  1
  C  C3  1  0.66621400  0.82848500  0.03055100  1
  C  C4  1  0.96944900  0.33378600  0.17151500  1
  C  C5  1  0.17151500  0.96944900  0.33378600  1
  C  C6  1  0.33378600  0.17151500  0.96944900  1
  C  C7  1  0.22575900  0.55529400  0.76867200  1
  C  C8  1  0.76867200  0.22575900  0.55529400  1
  C  C9  1  0.55529400  0.76867200  0.22575900  1
  C  C10  1  0.77424100  0.44470600  0.23132800  1
  C  C11  1  0.23132800  0.77424100  0.44470600  1
  C  C12  1  0.44470600  0.23132800  0.77424100  1
  C  C13  1  0.12667700  0.52910400  0.96890500  1
  C  C14  1  0.96890500  0.12667700  0.52910400  1
  C  C15  1  0.52910400  0.96890500  0.12667700  1
  C  C16  1  0.00210900  0.65692700  0.45296900  1
  C  C17  1  0.87332300  0.47089600  0.03109500  1
  C  C18  1  0.47089600  0.03109500  0.87332300  1
  C  C19  1  0.34307300  0.54703100  0.99789100  1
  C  C20  1  0.99789100  0.34307300  0.54703100  1
  C  C21  1  0.54703100  0.99789100  0.34307300  1
  C  C22  1  0.65692700  0.45296900  0.00210900  1
  C  C23  1  0.29696000  0.11515800  0.57689500  1
  C  C24  1  0.11515800  0.57689500  0.29696000  1
  C  C25  1  0.57689500  0.29696000  0.11515800  1
  C  C26  1  0.70304000  0.88484200  0.42310500  1
  C  C27  1  0.88484200  0.42310500  0.70304000  1
  C  C28  1  0.42310500  0.70304000  0.88484200  1
  C  C29  1  0.42224000  0.20214700  0.55629200  1
  C  C30  1  0.20214700  0.55629200  0.42224000  1
  C  C31  1  0.55629200  0.42224000  0.20214700  1
  C  C32  1  0.57776000  0.79785300  0.44370800  1
  C  C33  1  0.79785300  0.44370800  0.57776000  1
  C  C34  1  0.44370800  0.57776000  0.79785300  1
  C  C35  1  0.45296900  0.00210900  0.65692700  1
  C  C36  1  0.03109500  0.87332300  0.47089600  1
  Ni  Ni37  1  0.37003500  0.63202800  0.88685900  1
  Ni  Ni38  1  0.88685900  0.37003500  0.63202800  1
  Ni  Ni39  1  0.63202800  0.88685900  0.37003500  1
  Ni  Ni40  1  0.62996500  0.36797200  0.11314100  1
  Ni  Ni41  1  0.38977400  0.14571600  0.86193300  1
  Ni  Ni42  1  0.14571600  0.86193300  0.38977400  1
  Ni  Ni43  1  0.86193300  0.38977400  0.14571600  1
  Ni  Ni44  1  0.61022600  0.85428400  0.13806700  1
  Ni  Ni45  1  0.36797200  0.11314100  0.62996500  1
  Ni  Ni46  1  0.13806700  0.61022600  0.85428400  1
  Ni  Ni47  1  0.11314100  0.62996500  0.36797200  1
  Ni  Ni48  1  0.85428400  0.13806700  0.61022600  1
  Cu  Cu49  1  0.24803700  0.15986700  0.80093100  1
  Cu  Cu50  1  0.75196300  0.84013300  0.19906900  1
  Cu  Cu51  1  0.80093100  0.24803700  0.15986700  1
  Cu  Cu52  1  0.15986700  0.80093100  0.24803700  1
  Cu  Cu53  1  0.84013300  0.19906900  0.75196300  1
  Cu  Cu54  1  0.19906900  0.75196300  0.84013300  1
  C  C55  1  0.24878900  0.24878900  0.24878900  1
  C  C56  1  0.50000000  0.50000000  0.50000000  1
  C  C57  1  0.75121100  0.75121100  0.75121100  1
  C  C58  1  0.08741900  0.80072000  0.98288000  1
  C  C59  1  0.98288000  0.08741900  0.80072000  1
  C  C60  1  0.19928000  0.01712000  0.91258100  1
  C  C61  1  0.91258100  0.19928000  0.01712000  1
  C  C62  1  0.01712000  0.91258100  0.19928000  1
  C  C63  1  0.80072000  0.98288000  0.08741900  1
