# generated using pymatgen
data_CuNiC
_symmetry_space_group_name_H-M   'P 1'
_cell_length_a   6.22308000
_cell_length_b   6.32116800
_cell_length_c   12.63211600
_cell_angle_alpha   90.00000000
_cell_angle_beta   90.00000000
_cell_angle_gamma   90.00000000
_symmetry_Int_Tables_number   1
_chemical_formula_structural   CuNiC
_chemical_formula_sum   'Cu8 Ni8 C8'
_cell_volume   496.91124178
_cell_formula_units_Z   8
loop_
 _symmetry_equiv_pos_site_id
 _symmetry_equiv_pos_as_xyz
  1  'x, y, z'
loop_
 _atom_site_type_symbol
 _atom_site_label
 _atom_site_symmetry_multiplicity
 _atom_site_fract_x
 _atom_site_fract_y
 _atom_site_fract_z
 _atom_site_occupancy
  Ni  Ni0  1  0.87105400  0.33339900  0.43906600  1
  Ni  Ni1  1  0.37105400  0.16660100  0.56093400  1
  Ni  Ni2  1  0.62894600  0.66660100  0.93906600  1
  Ni  Ni3  1  0.37105400  0.33339900  0.06093400  1
  Ni  Ni4  1  0.87105400  0.16660100  0.93906600  1
  Ni  Ni5  1  0.62894600  0.83339900  0.43906600  1
  Ni  Ni6  1  0.12894600  0.66660100  0.56093400  1
  Ni  Ni7  1  0.12894600  0.83339900  0.06093400  1
  C  C8  1  0.61697700  0.08367500  0.17465500  1
  C  C9  1  0.88302300  0.91632500  0.67465500  1
  C  C10  1  0.38302300  0.58367500  0.32534500  1
  C  C11  1  0.88302300  0.58367500  0.17465500  1
  C  C12  1  0.61697700  0.41632500  0.67465500  1
  C  C13  1  0.11697700  0.08367500  0.32534500  1
  C  C14  1  0.11697700  0.41632500  0.82534500  1
  C  C15  1  0.38302300  0.91632500  0.82534500  1
  Cu  Cu16  1  0.52547200  0.31290600  0.88636300  1
  Cu  Cu17  1  0.02547200  0.18709400  0.11363700  1
  Cu  Cu18  1  0.47452800  0.81290600  0.61363700  1
  Cu  Cu19  1  0.97452800  0.68709400  0.38636300  1
  Cu  Cu20  1  0.47452800  0.68709400  0.11363700  1
  Cu  Cu21  1  0.97452800  0.81290600  0.88636300  1
  Cu  Cu22  1  0.52547200  0.18709400  0.38636300  1
  Cu  Cu23  1  0.02547200  0.31290600  0.61363700  1
