# generated using pymatgen
data_Cu12NiC24
_symmetry_space_group_name_H-M   'P 1'
_cell_length_a   4.79296188
_cell_length_b   5.71522861
_cell_length_c   14.99092838
_cell_angle_alpha   92.56735602
_cell_angle_beta   86.95594403
_cell_angle_gamma   91.70751033
_symmetry_Int_Tables_number   1
_chemical_formula_structural   Cu12NiC24
_chemical_formula_sum   'Cu12 Ni1 C24'
_cell_volume   409.49881370
_cell_formula_units_Z   1
loop_
 _symmetry_equiv_pos_site_id
 _symmetry_equiv_pos_as_xyz
  1  'x, y, z'
loop_
 _atom_site_type_symbol
 _atom_site_label
 _atom_site_symmetry_multiplicity
 _atom_site_fract_x
 _atom_site_fract_y
 _atom_site_fract_z
 _atom_site_occupancy
  Ni  Ni0  1  0.46837500  0.07806000  0.07289700  1
  Cu  Cu1  1  0.01709800  0.14991000  0.41665800  1
  Cu  Cu2  1  0.05208600  0.79485900  0.24983400  1
  Cu  Cu3  1  0.99545100  0.33957500  0.08183500  1
  Cu  Cu4  1  0.00684500  0.18223900  0.73736800  1
  Cu  Cu5  1  0.02116500  0.81861900  0.57680900  1
  Cu  Cu6  1  0.98888600  0.85938900  0.90500100  1
  Cu  Cu7  1  0.46278800  0.36837100  0.90630400  1
  Cu  Cu8  1  0.49213800  0.36722300  0.58649500  1
  Cu  Cu9  1  0.51264500  0.31611100  0.26172300  1
  Cu  Cu10  1  0.51205600  0.60844300  0.09388700  1
  Cu  Cu11  1  0.49872500  0.61692700  0.42191800  1
  Cu  Cu12  1  0.47862100  0.65069000  0.75095400  1
  C  C13  1  0.22342500  0.08229600  0.30564600  1
  C  C14  1  0.22386800  0.12216700  0.63157400  1
  C  C15  1  0.19319900  0.14029900  0.97841000  1
  C  C16  1  0.29211500  0.83546700  0.14736500  1
  C  C17  1  0.22814600  0.86473500  0.46844500  1
  C  C18  1  0.22339600  0.90409100  0.79997900  1
  C  C19  1  0.28087500  0.38633700  0.48084100  1
  C  C20  1  0.31274000  0.34086300  0.14991600  1
  C  C21  1  0.31051500  0.57505100  0.31330300  1
  C  C22  1  0.27546200  0.60543300  0.64472000  1
  C  C23  1  0.24364900  0.42000800  0.80751400  1
  C  C24  1  0.67278300  0.36309600  0.01617900  1
  C  C25  1  0.81672600  0.55433300  0.17894900  1
  C  C26  1  0.73220900  0.36160800  0.36250400  1
  C  C27  1  0.72235200  0.60779900  0.52552000  1
  C  C28  1  0.68352500  0.64133900  0.85815000  1
  C  C29  1  0.70555800  0.39716900  0.69129200  1
  C  C30  1  0.20679300  0.61750600  0.99033600  1
  C  C31  1  0.75977500  0.09355200  0.17713500  1
  C  C32  1  0.75244000  0.12381400  0.52716900  1
  C  C33  1  0.76864500  0.84534400  0.35426300  1
  C  C34  1  0.72811700  0.85610300  0.01767300  1
  C  C35  1  0.76490800  0.13937600  0.84792200  1
  C  C36  1  0.76079300  0.87655800  0.68851400  1
