# generated using pymatgen
data_Cu3NiC30
_symmetry_space_group_name_H-M   'P 1'
_cell_length_a   8.82463015
_cell_length_b   8.78140683
_cell_length_c   22.77940999
_cell_angle_alpha   90.17267090
_cell_angle_beta   90.27055609
_cell_angle_gamma   120.07220335
_symmetry_Int_Tables_number   1
_chemical_formula_structural   Cu3NiC30
_chemical_formula_sum   'Cu9 Ni3 C90'
_cell_volume   1527.58026819
_cell_formula_units_Z   3
loop_
 _symmetry_equiv_pos_site_id
 _symmetry_equiv_pos_as_xyz
  1  'x, y, z'
loop_
 _atom_site_type_symbol
 _atom_site_label
 _atom_site_symmetry_multiplicity
 _atom_site_fract_x
 _atom_site_fract_y
 _atom_site_fract_z
 _atom_site_occupancy
  C  C0  1  0.00026749  0.99954316  0.35272966  1
  C  C1  1  0.66457995  0.34349118  0.68773310  1
  C  C2  1  0.66599826  0.33335306  0.18553200  1
  Ni  Ni3  1  0.66881935  0.62303353  0.58583330  1
  Ni  Ni4  1  0.04459301  0.37741295  0.91631934  1
  Ni  Ni5  1  0.33194868  0.95467613  0.91625519  1
  Cu  Cu6  1  0.00743262  0.00659738  0.85670711  1
  Cu  Cu7  1  0.99300888  0.99315387  0.64751929  1
  Cu  Cu8  1  0.00129326  0.00066531  0.14669848  1
  Cu  Cu9  1  0.66863135  0.32765833  0.97542245  1
  Cu  Cu10  1  0.66806760  0.33873246  0.48432958  1
  Cu  Cu11  1  0.32586464  0.66418135  0.01597159  1
  Cu  Cu12  1  0.33738669  0.66527607  0.52328685  1
  Cu  Cu13  1  0.33424485  0.66743780  0.31238582  1
  Cu  Cu14  1  0.32728488  0.66881366  0.81483769  1
  C  C15  1  0.29327154  0.00418300  0.25139498  1
  C  C16  1  0.71094538  0.70741532  0.25130181  1
  C  C17  1  0.99574948  0.28889673  0.25134139  1
  C  C18  1  0.29294587  0.29193694  0.74935807  1
  C  C19  1  0.99855732  0.70758146  0.75055179  1
  C  C20  1  0.70648445  0.00088747  0.75068858  1
  C  C21  1  0.95708210  0.33245482  0.58449162  1
  C  C22  1  0.37546794  0.04343055  0.58453154  1
  C  C23  1  0.95580863  0.62146475  0.08522095  1
  C  C24  1  0.66440212  0.03944760  0.08521677  1
  C  C25  1  0.37894438  0.33718531  0.08448886  1
  C  C26  1  0.62447541  0.66734180  0.91655446  1
  C  C27  1  0.62753770  0.96144902  0.41718059  1
  C  C28  1  0.33049471  0.37134205  0.41608679  1
  C  C29  1  0.04307032  0.66709173  0.41708303  1
  C  C30  1  0.21077397  0.02858116  0.30292550  1
  C  C31  1  0.81821612  0.79044535  0.30324407  1
  C  C32  1  0.97219385  0.18220935  0.30285195  1
  C  C33  1  0.20848994  0.17987793  0.80112605  1
  C  C34  1  0.96814883  0.79152142  0.80257176  1
  C  C35  1  0.81897612  0.02825972  0.80310652  1
  C  C36  1  0.78478112  0.96479988  0.69714887  1
  C  C37  1  0.17604006  0.21351958  0.69521263  1
  C  C38  1  0.03794664  0.82403819  0.69739620  1
  C  C39  1  0.78389214  0.82149802  0.19703409  1
  C  C40  1  0.03677744  0.21576421  0.19679732  1
  C  C41  1  0.17851867  0.96203612  0.19673708  1
  C  C42  1  0.87987454  0.36290733  0.63568529  1
  C  C43  1  0.48705571  0.11693965  0.63553428  1
  C  C44  1  0.63046176  0.49969064  0.64078859  1
  C  C45  1  0.87674211  0.51610105  0.13724495  1
  C  C46  1  0.63623765  0.11765340  0.13744891  1
  C  C47  1  0.48322055  0.36293574  0.13722465  1
  C  C48  1  0.45300272  0.30258360  0.03099368  1
  C  C49  1  0.84609410  0.54873693  0.03135626  1
  C  C50  1  0.70072298  0.14888401  0.03212480  1
  C  C51  1  0.44821824  0.14653666  0.52835639  1
  C  C52  1  0.70777366  0.54986626  0.52327001  1
  C  C53  1  0.84921637  0.29302709  0.52854772  1
  C  C54  1  0.55204448  0.70302210  0.97057139  1
  C  C55  1  0.16359131  0.44831584  0.97615224  1
  C  C56  1  0.29908686  0.84375921  0.97679927  1
  C  C57  1  0.54372303  0.84891457  0.46892753  1
  C  C58  1  0.29936751  0.45402870  0.46818028  1
  C  C59  1  0.15657233  0.69753730  0.46999521  1
  C  C60  1  0.12244020  0.63059508  0.36361458  1
  C  C61  1  0.51127515  0.88413635  0.36334872  1
  C  C62  1  0.37000433  0.48957577  0.36304867  1
  C  C63  1  0.12548039  0.49321357  0.85751566  1
  C  C64  1  0.38143771  0.88117527  0.85821446  1
  C  C65  1  0.51416254  0.63030830  0.86320484  1
  C  C66  1  0.02624030  0.82135689  0.40877324  1
  C  C67  1  0.79754896  0.97826353  0.40827927  1
  C  C68  1  0.17585796  0.20063865  0.40724934  1
  C  C69  1  0.01450737  0.18220578  0.90893638  1
  C  C70  1  0.15614050  0.96475205  0.90836485  1
  C  C71  1  0.79711324  0.82321384  0.90859209  1
  C  C72  1  0.98332052  0.17871825  0.59014821  1
  C  C73  1  0.20082277  0.02807769  0.59036613  1
  C  C74  1  0.84080293  0.82066513  0.59009450  1
  C  C75  1  0.97541219  0.80359254  0.09121325  1
  C  C76  1  0.82661235  0.02155120  0.09173156  1
  C  C77  1  0.19742121  0.17559394  0.09080784  1
  C  C78  1  0.68961285  0.15506303  0.74144699  1
  C  C79  1  0.46110945  0.30396876  0.74247535  1
  C  C80  1  0.84642562  0.53534727  0.74308381  1
  C  C81  1  0.68884162  0.53435794  0.24148319  1
  C  C82  1  0.84557157  0.31082548  0.24128414  1
  C  C83  1  0.46531842  0.15483436  0.24160972  1
  C  C84  1  0.64016079  0.51009036  0.92530767  1
  C  C85  1  0.85952059  0.36941192  0.92545709  1
  C  C86  1  0.49835933  0.14975473  0.92489741  1
  C  C87  1  0.64042896  0.13758019  0.42513976  1
  C  C88  1  0.49042742  0.35653015  0.42302238  1
  C  C89  1  0.87069256  0.50290973  0.42306969  1
  C  C90  1  0.36018256  0.49543170  0.07732169  1
  C  C91  1  0.13268431  0.64370047  0.07879454  1
  C  C92  1  0.51114009  0.85985570  0.07691490  1
  C  C93  1  0.35083670  0.86421053  0.57435304  1
  C  C94  1  0.49572082  0.64370671  0.57495563  1
  C  C95  1  0.13003799  0.49338820  0.57419709  1
  C  C96  1  0.30704997  0.83821019  0.25709622  1
  C  C97  1  0.53163975  0.69300701  0.25722275  1
  C  C98  1  0.16119799  0.46893757  0.25716215  1
  C  C99  1  0.30864543  0.46846618  0.75599264  1
  C  C100  1  0.16172690  0.69730398  0.75514628  1
  C  C101  1  0.53364803  0.83534823  0.75665607  1
