# generated using pymatgen
data_Cu7(Ni2C)2
_symmetry_space_group_name_H-M   'P 1'
_cell_length_a   12.49294300
_cell_length_b   11.59672200
_cell_length_c   12.15637418
_cell_angle_alpha   80.09127049
_cell_angle_beta   90.00000000
_cell_angle_gamma   90.00000000
_symmetry_Int_Tables_number   1
_chemical_formula_structural   Cu7(Ni2C)2
_chemical_formula_sum   'Cu28 Ni16 C8'
_cell_volume   1734.90996373
_cell_formula_units_Z   4
loop_
 _symmetry_equiv_pos_site_id
 _symmetry_equiv_pos_as_xyz
  1  'x, y, z'
loop_
 _atom_site_type_symbol
 _atom_site_label
 _atom_site_symmetry_multiplicity
 _atom_site_fract_x
 _atom_site_fract_y
 _atom_site_fract_z
 _atom_site_occupancy
  C  C0  1  0.92932800  0.98085200  0.67142100  1
  C  C1  1  0.42932800  0.01914800  0.82857900  1
  C  C2  1  0.07067200  0.01914800  0.32857900  1
  C  C3  1  0.57067200  0.98085200  0.17142100  1
  C  C4  1  0.45514900  0.54736100  0.30566600  1
  C  C5  1  0.95514900  0.45263900  0.19433400  1
  C  C6  1  0.54485100  0.45263900  0.69433400  1
  C  C7  1  0.04485100  0.54736100  0.80566600  1
  Ni  Ni8  1  0.34065600  0.63914700  0.92463200  1
  Ni  Ni9  1  0.84065600  0.36085300  0.57536800  1
  Ni  Ni10  1  0.65934400  0.36085300  0.07536800  1
  Ni  Ni11  1  0.15934400  0.63914700  0.42463200  1
  Ni  Ni12  1  0.14300200  0.79950600  0.05157000  1
  Ni  Ni13  1  0.64300200  0.20049400  0.44843000  1
  Ni  Ni14  1  0.85699800  0.20049400  0.94843000  1
  Ni  Ni15  1  0.35699800  0.79950600  0.55157000  1
  Ni  Ni16  1  0.85466800  0.84666500  0.08878900  1
  Ni  Ni17  1  0.35466800  0.15333500  0.41121100  1
  Ni  Ni18  1  0.14533200  0.15333500  0.91121100  1
  Ni  Ni19  1  0.64533200  0.84666500  0.58878900  1
  Ni  Ni20  1  0.64108800  0.70593300  0.94748900  1
  Ni  Ni21  1  0.14108800  0.29406700  0.55251100  1
  Ni  Ni22  1  0.35891200  0.29406700  0.05251100  1
  Ni  Ni23  1  0.85891200  0.70593300  0.44748900  1
  Cu  Cu24  1  0.22852300  0.79882000  0.84036300  1
  Cu  Cu25  1  0.72852300  0.20118000  0.65963700  1
  Cu  Cu26  1  0.77147700  0.20118000  0.15963700  1
  Cu  Cu27  1  0.27147700  0.79882000  0.34036300  1
  Cu  Cu28  1  0.20560000  0.59162300  0.08201200  1
  Cu  Cu29  1  0.70560000  0.40837700  0.41798800  1
  Cu  Cu30  1  0.79440000  0.40837700  0.91798800  1
  Cu  Cu31  1  0.29440000  0.59162300  0.58201200  1
  Cu  Cu32  1  0.97588000  0.80383700  0.93869600  1
  Cu  Cu33  1  0.47588000  0.19616300  0.56130400  1
  Cu  Cu34  1  0.02412000  0.19616300  0.06130400  1
  Cu  Cu35  1  0.52412000  0.80383700  0.43869600  1
  Cu  Cu36  1  0.00512500  0.75478400  0.22200800  1
  Cu  Cu37  1  0.50512500  0.24521600  0.27799200  1
  Cu  Cu38  1  0.99487500  0.24521600  0.77799200  1
  Cu  Cu39  1  0.49487500  0.75478400  0.72200800  1
  Cu  Cu40  1  0.74020300  0.66939800  0.13323700  1
  Cu  Cu41  1  0.24020300  0.33060200  0.36676300  1
  Cu  Cu42  1  0.25979700  0.33060200  0.86676300  1
  Cu  Cu43  1  0.75979700  0.66939800  0.63323700  1
  Cu  Cu44  1  0.70457300  0.90317100  0.90086900  1
  Cu  Cu45  1  0.20457300  0.09682900  0.59913100  1
  Cu  Cu46  1  0.29542700  0.09682900  0.09913100  1
  Cu  Cu47  1  0.79542700  0.90317100  0.40086900  1
  Cu  Cu48  1  0.03431200  0.73848900  0.54003900  1
  Cu  Cu49  1  0.53431200  0.26151100  0.95996100  1
  Cu  Cu50  1  0.96568800  0.26151100  0.45996100  1
  Cu  Cu51  1  0.46568800  0.73848900  0.04003900  1
