# generated using pymatgen
data_Cu6Ni3C32
_symmetry_space_group_name_H-M   'P 1'
_cell_length_a   8.73083946
_cell_length_b   8.72733842
_cell_length_c   21.51583428
_cell_angle_alpha   90.09403030
_cell_angle_beta   90.02712038
_cell_angle_gamma   120.01125869
_symmetry_Int_Tables_number   1
_chemical_formula_structural   Cu6Ni3C32
_chemical_formula_sum   'Cu18 Ni9 C96'
_cell_volume   1419.63366626
_cell_formula_units_Z   3
loop_
 _symmetry_equiv_pos_site_id
 _symmetry_equiv_pos_as_xyz
  1  'x, y, z'
loop_
 _atom_site_type_symbol
 _atom_site_label
 _atom_site_symmetry_multiplicity
 _atom_site_fract_x
 _atom_site_fract_y
 _atom_site_fract_z
 _atom_site_occupancy
  C  C0  1  0.63857507  0.00755244  0.24719572  1
  C  C1  1  0.36837302  0.36073700  0.24723665  1
  C  C2  1  0.99219174  0.63078082  0.24683616  1
  C  C3  1  0.63309400  0.62617217  0.74806885  1
  C  C4  1  0.99378713  0.36725615  0.74844282  1
  C  C5  1  0.37387944  0.00640598  0.74822063  1
  C  C6  1  0.02732518  0.69436717  0.58418850  1
  C  C7  1  0.66414335  0.97120647  0.58383025  1
  C  C8  1  0.30741084  0.97112489  0.08382347  1
  C  C9  1  0.66703667  0.69338342  0.08406643  1
  C  C10  1  0.69806990  0.03317187  0.91838392  1
  C  C11  1  0.33162203  0.30064182  0.91797479  1
  C  C12  1  0.96683384  0.29332266  0.41457316  1
  C  C13  1  0.32675348  0.03403466  0.41466008  1
  C  C14  1  0.70729116  0.67349129  0.41448165  1
  C  C15  1  0.00833475  0.00930625  0.49986298  1
  C  C16  1  0.99992696  0.99947102  0.00060077  1
  C  C17  1  0.67549985  0.34332237  0.83397164  1
  C  C18  1  0.66679546  0.33336837  0.33001362  1
  C  C19  1  0.32291618  0.65556549  0.16370587  1
  C  C20  1  0.33212721  0.65574057  0.66457843  1
  Ni  Ni21  1  0.99953503  0.99518020  0.85372321  1
  Ni  Ni22  1  0.00557734  0.00577218  0.64738897  1
  Ni  Ni23  1  0.00097596  0.00641606  0.14760074  1
  Ni  Ni24  1  0.67385474  0.33960257  0.98262937  1
  Ni  Ni25  1  0.66474830  0.33249181  0.48323976  1
  Ni  Ni26  1  0.32848824  0.66302556  0.01652645  1
  Ni  Ni27  1  0.33269375  0.66266344  0.51861347  1
  Ni  Ni28  1  0.33325941  0.66583513  0.31459445  1
  Ni  Ni29  1  0.33073381  0.66478852  0.81608544  1
  C  C30  1  0.00034537  0.00086689  0.34894040  1
  C  C31  1  0.66537088  0.33404276  0.68005702  1
  C  C32  1  0.66954649  0.33456728  0.17745728  1
  Cu  Cu33  1  0.29109198  0.99561010  0.25064416  1
  Cu  Cu34  1  0.70445163  0.70901777  0.25072046  1
  Cu  Cu35  1  0.00411118  0.29458248  0.25122786  1
  Cu  Cu36  1  0.28168227  0.28744007  0.75249306  1
  Cu  Cu37  1  0.00591254  0.71801637  0.75139507  1
  Cu  Cu38  1  0.71224772  0.99417852  0.75193234  1
  Cu  Cu39  1  0.96606588  0.33439047  0.58254850  1
  Cu  Cu40  1  0.36977750  0.03862352  0.58225149  1
  Cu  Cu41  1  0.66257014  0.62727472  0.58279906  1
  Cu  Cu42  1  0.96501471  0.62751139  0.08240460  1
  Cu  Cu43  1  0.66816526  0.03766775  0.08116884  1
  Cu  Cu44  1  0.36823725  0.33500540  0.08136228  1
  Cu  Cu45  1  0.62491116  0.66618423  0.91643643  1
  Cu  Cu46  1  0.04263076  0.38042480  0.91592820  1
  Cu  Cu47  1  0.33007147  0.95388164  0.91649116  1
  Cu  Cu48  1  0.61586457  0.95581210  0.41870702  1
  Cu  Cu49  1  0.34006068  0.38445338  0.41829276  1
  Cu  Cu50  1  0.04421431  0.66016007  0.41870269  1
  C  C51  1  0.21902860  0.03223312  0.31040652  1
  C  C52  1  0.81379122  0.78157522  0.31039516  1
  C  C53  1  0.96656037  0.18830159  0.31166374  1
  C  C54  1  0.19621789  0.17301885  0.81084112  1
  C  C55  1  0.97561124  0.80946508  0.80692476  1
  C  C56  1  0.82959224  0.02365859  0.80945099  1
  C  C57  1  0.79564745  0.96361960  0.69257618  1
  C  C58  1  0.16313011  0.20082117  0.69495723  1
  C  C59  1  0.03678312  0.82982226  0.69134537  1
  C  C60  1  0.79508626  0.83031552  0.19338041  1
  C  C61  1  0.03692067  0.20094111  0.19580425  1
  C  C62  1  0.16970599  0.96474818  0.19321350  1
  C  C63  1  0.89602777  0.37770967  0.64188241  1
  C  C64  1  0.48311690  0.10557020  0.64157487  1
  C  C65  1  0.62914038  0.52322735  0.64322978  1
  C  C66  1  0.89875184  0.52718433  0.14362892  1
  C  C67  1  0.62223264  0.10401503  0.14047084  1
  C  C68  1  0.48051967  0.37821870  0.14081815  1
  C  C69  1  0.46001512  0.29857963  0.02525591  1
  C  C70  1  0.83265929  0.53435597  0.02843368  1
  C  C71  1  0.69526338  0.15774810  0.02433623  1
  C  C72  1  0.46230908  0.15849110  0.52533073  1
  C  C73  1  0.70008875  0.53724600  0.52664457  1
  C  C74  1  0.83808148  0.29815820  0.52627682  1
  C  C75  1  0.53885226  0.70130049  0.97330385  1
  C  C76  1  0.16855811  0.46759540  0.97080258  1
  C  C77  1  0.30520700  0.84099152  0.97415602  1
  C  C78  1  0.52632974  0.83925322  0.47548458  1
  C  C79  1  0.31012648  0.47645167  0.47309033  1
  C  C80  1  0.16160750  0.68902138  0.47550484  1
  C  C81  1  0.12804031  0.62937055  0.35950843  1
  C  C82  1  0.50119491  0.87155334  0.35947962  1
  C  C83  1  0.37166427  0.49664151  0.35824104  1
  C  C84  1  0.12517053  0.49076172  0.85623136  1
  C  C85  1  0.36679870  0.86993327  0.85855389  1
  C  C86  1  0.50393611  0.63041008  0.85836308  1
  C  C87  1  0.02155480  0.82387299  0.41618726  1
  C  C88  1  0.80199438  0.97805460  0.41638576  1
  C  C89  1  0.17687097  0.19772081  0.41564454  1
  C  C90  1  0.02093492  0.19026693  0.91040725  1
  C  C91  1  0.16750679  0.98026869  0.91010259  1
  C  C92  1  0.80889768  0.83533774  0.90942612  1
  C  C93  1  0.97539711  0.16192905  0.58933677  1
  C  C94  1  0.18290332  0.01700289  0.58878291  1
  C  C95  1  0.83437422  0.81493135  0.58781440  1
  C  C96  1  0.98146486  0.81571325  0.08803006  1
  C  C97  1  0.83345098  0.01579665  0.08844373  1
  C  C98  1  0.18633280  0.16247356  0.08876089  1
  C  C99  1  0.68981123  0.15824801  0.74867547  1
  C  C100  1  0.46803471  0.30973427  0.74888552  1
  C  C101  1  0.84236465  0.53114439  0.74823377  1
  C  C102  1  0.67773299  0.52180930  0.24451471  1
  C  C103  1  0.84336018  0.32042485  0.24434138  1
  C  C104  1  0.47792641  0.15634557  0.24412433  1
  C  C105  1  0.63937865  0.49687477  0.92427267  1
  C  C106  1  0.85413297  0.35424418  0.92399271  1
  C  C107  1  0.49906781  0.14294280  0.92256700  1
  C  C108  1  0.63405965  0.14352743  0.42419276  1
  C  C109  1  0.50957829  0.36634890  0.42451421  1
  C  C110  1  0.85671521  0.49062923  0.42461877  1
  C  C111  1  0.35105661  0.50103914  0.07082709  1
  C  C112  1  0.15315977  0.65639418  0.07198659  1
  C  C113  1  0.50256198  0.84827978  0.07209138  1
  C  C114  1  0.34557734  0.84919578  0.57370259  1
  C  C115  1  0.50397128  0.65736884  0.57353037  1
  C  C116  1  0.14957909  0.49973052  0.57281960  1
  C  C117  1  0.30390337  0.82298864  0.25593503  1
  C  C118  1  0.51917040  0.69651879  0.25584755  1
  C  C119  1  0.17642777  0.48050463  0.25633784  1
  C  C120  1  0.30132307  0.47591950  0.75767062  1
  C  C121  1  0.17548813  0.70005605  0.75736052  1
  C  C122  1  0.52460368  0.82481013  0.75766157  1
