# generated using pymatgen
data_CuNi2C33
_symmetry_space_group_name_H-M   'P 1'
_cell_length_a   8.66878797
_cell_length_b   8.66546004
_cell_length_c   22.57419258
_cell_angle_alpha   89.87368969
_cell_angle_beta   89.91170797
_cell_angle_gamma   119.86116353
_symmetry_Int_Tables_number   1
_chemical_formula_structural   CuNi2C33
_chemical_formula_sum   'Cu3 Ni6 C99'
_cell_volume   1470.60378457
_cell_formula_units_Z   3
loop_
 _symmetry_equiv_pos_site_id
 _symmetry_equiv_pos_as_xyz
  1  'x, y, z'
loop_
 _atom_site_type_symbol
 _atom_site_label
 _atom_site_symmetry_multiplicity
 _atom_site_fract_x
 _atom_site_fract_y
 _atom_site_fract_z
 _atom_site_occupancy
  C  C0  1  0.00450584  0.00238010  0.49832389  1
  C  C1  1  0.99966744  0.99946578  0.99689986  1
  C  C2  1  0.66707356  0.32388945  0.82633907  1
  C  C3  1  0.65897443  0.32895389  0.33702996  1
  C  C4  1  0.32680216  0.66694787  0.16391760  1
  C  C5  1  0.33303942  0.66793046  0.66223919  1
  C  C6  1  0.98377921  0.99504784  0.64747577  1
  C  C7  1  0.01061838  0.98561058  0.14668609  1
  C  C8  1  0.67263668  0.33287912  0.18743413  1
  C  C9  1  0.68002995  0.34915111  0.97928931  1
  C  C10  1  0.33133448  0.67741504  0.31635781  1
  C  C11  1  0.34192898  0.67693952  0.80822642  1
  Ni  Ni12  1  0.01113016  0.00625154  0.35070357  1
  Ni  Ni13  1  0.99804944  0.00225460  0.84832183  1
  Ni  Ni14  1  0.66410622  0.32317361  0.68358494  1
  Ni  Ni15  1  0.66227254  0.33174829  0.48449773  1
  Ni  Ni16  1  0.32381292  0.66706472  0.01921416  1
  Ni  Ni17  1  0.33400235  0.66663417  0.51842271  1
  Cu  Cu18  1  0.29479284  0.00206028  0.25242207  1
  Cu  Cu19  1  0.71506363  0.01224370  0.75267395  1
  Cu  Cu20  1  0.96161764  0.62262997  0.08449658  1
  C  C21  1  0.70837538  0.70846191  0.25018343  1
  C  C22  1  0.00148498  0.28936654  0.24973427  1
  C  C23  1  0.29001060  0.29053616  0.75077381  1
  C  C24  1  0.99883525  0.70978964  0.75078457  1
  C  C25  1  0.96168656  0.33462705  0.58336245  1
  C  C26  1  0.36955247  0.03800462  0.58344606  1
  C  C27  1  0.66695417  0.62466457  0.58424018  1
  C  C28  1  0.67006350  0.04810437  0.08343363  1
  C  C29  1  0.38067646  0.33327592  0.08368708  1
  C  C30  1  0.62079629  0.66669225  0.91812630  1
  C  C31  1  0.04471497  0.37513729  0.91749533  1
  C  C32  1  0.33321922  0.95909710  0.91647939  1
  C  C33  1  0.62739473  0.95880220  0.41689736  1
  C  C34  1  0.33331213  0.37796967  0.41685251  1
  C  C35  1  0.03933472  0.66565338  0.41809779  1
  C  C36  1  0.21583097  0.04337667  0.30868491  1
  C  C37  1  0.81308171  0.78079440  0.30341480  1
  C  C38  1  0.96164269  0.18393904  0.30355430  1
  C  C39  1  0.21915639  0.18692127  0.80525350  1
  C  C40  1  0.97718290  0.78671010  0.80549065  1
  C  C41  1  0.82166181  0.03011026  0.81120298  1
  C  C42  1  0.80502643  0.96788444  0.69333313  1
  C  C43  1  0.17637412  0.20815343  0.69759265  1
  C  C44  1  0.03617675  0.82537223  0.69711980  1
  C  C45  1  0.79131183  0.82207800  0.19602699  1
  C  C46  1  0.02593393  0.20559858  0.19582593  1
  C  C47  1  0.16625262  0.96532588  0.19211500  1
  C  C48  1  0.88319231  0.36261399  0.63690499  1
  C  C49  1  0.47724699  0.11723979  0.63661103  1
  C  C50  1  0.64219352  0.51958523  0.63812326  1
  C  C51  1  0.85025505  0.49771333  0.14037322  1
  C  C52  1  0.64146625  0.13079866  0.13728113  1
  C  C53  1  0.48680504  0.35167802  0.13717670  1
  C  C54  1  0.45863169  0.29928481  0.02944635  1
  C  C55  1  0.82862879  0.52532176  0.02601635  1
  C  C56  1  0.69335006  0.15922927  0.02953390  1
  C  C57  1  0.44319999  0.14586698  0.52900762  1
  C  C58  1  0.70314117  0.55458059  0.52985457  1
  C  C59  1  0.85389357  0.29659978  0.52932986  1
  C  C60  1  0.53990864  0.68947380  0.97202008  1
  C  C61  1  0.14653078  0.45484211  0.97159124  1
  C  C62  1  0.30600493  0.85396978  0.97041394  1
  C  C63  1  0.54671291  0.85140189  0.46998289  1
  C  C64  1  0.31041760  0.46018301  0.47046413  1
  C  C65  1  0.14865807  0.69196121  0.47038312  1
  C  C66  1  0.13467589  0.64589545  0.36300429  1
  C  C67  1  0.50973660  0.86536581  0.36233828  1
  C  C68  1  0.35414279  0.49122430  0.36230768  1
  C  C69  1  0.12133442  0.48632865  0.86405125  1
  C  C70  1  0.36126317  0.87181489  0.86291077  1
  C  C71  1  0.50977259  0.63676099  0.86430604  1
  C  C72  1  0.01967944  0.82341199  0.41107350  1
  C  C73  1  0.80210915  0.97316157  0.40775490  1
  C  C74  1  0.17136972  0.20196289  0.41194473  1
  C  C75  1  0.01892641  0.19475452  0.91295461  1
  C  C76  1  0.17628153  0.98137189  0.90894546  1
  C  C77  1  0.80333783  0.81580585  0.91279476  1
  C  C78  1  0.98180429  0.16911246  0.59147075  1
  C  C79  1  0.18829979  0.02066333  0.59166370  1
  C  C80  1  0.83592242  0.80804347  0.59092618  1
  C  C81  1  0.96359071  0.81499008  0.09069324  1
  C  C82  1  0.83598633  0.03981459  0.09006239  1
  C  C83  1  0.19832286  0.17172452  0.09001225  1
  C  C84  1  0.67536533  0.17088234  0.74361744  1
  C  C85  1  0.47148650  0.32452371  0.74237491  1
  C  C86  1  0.84456928  0.53333555  0.74269519  1
  C  C87  1  0.68705002  0.52743511  0.24094011  1
  C  C88  1  0.84213711  0.31424603  0.24120362  1
  C  C89  1  0.49104495  0.16986057  0.23649257  1
  C  C90  1  0.63060083  0.49445223  0.92319791  1
  C  C91  1  0.85903544  0.35800736  0.92417947  1
  C  C92  1  0.49884852  0.13784178  0.92209928  1
  C  C93  1  0.63680969  0.13367550  0.41837512  1
  C  C94  1  0.49795802  0.36528854  0.41857757  1
  C  C95  1  0.86615203  0.49860206  0.41901234  1
  C  C96  1  0.36635480  0.49354312  0.07850265  1
  C  C97  1  0.15390414  0.64441805  0.08079909  1
  C  C98  1  0.51379657  0.87088272  0.07848873  1
  C  C99  1  0.34817244  0.85745788  0.57764037  1
  C  C100  1  0.51312139  0.65333779  0.57898608  1
  C  C101  1  0.14304914  0.48952184  0.57761408  1
  C  C102  1  0.31420321  0.82130986  0.25919026  1
  C  C103  1  0.52703533  0.68700541  0.25497914  1
  C  C104  1  0.16249882  0.46974080  0.25533002  1
  C  C105  1  0.29790310  0.46994018  0.75772680  1
  C  C106  1  0.16554392  0.69291272  0.75677593  1
  C  C107  1  0.51528431  0.82010899  0.75970669  1
