# generated using pymatgen
data_Cu3NiC22
_symmetry_space_group_name_H-M   'P 1'
_cell_length_a   18.64269977
_cell_length_b   9.34093002
_cell_length_c   23.42865974
_cell_angle_alpha   89.97855215
_cell_angle_beta   90.21123920
_cell_angle_gamma   120.07671477
_symmetry_Int_Tables_number   1
_chemical_formula_structural   Cu3NiC22
_chemical_formula_sum   'Cu27 Ni9 C198'
_cell_volume   3530.50782415
_cell_formula_units_Z   9
loop_
 _symmetry_equiv_pos_site_id
 _symmetry_equiv_pos_as_xyz
  1  'x, y, z'
loop_
 _atom_site_type_symbol
 _atom_site_label
 _atom_site_symmetry_multiplicity
 _atom_site_fract_x
 _atom_site_fract_y
 _atom_site_fract_z
 _atom_site_occupancy
  C  C0  1  0.80734790  0.00530603  0.23471659  1
  C  C1  1  0.00272591  0.63385146  0.23727103  1
  C  C2  1  0.50285610  0.63041653  0.23445381  1
  C  C3  1  0.00207370  0.37088520  0.73271518  1
  C  C4  1  0.50091623  0.37265415  0.73458292  1
  C  C5  1  0.18071506  0.01401836  0.75146975  1
  C  C6  1  0.66049362  0.34670476  0.58522854  1
  C  C7  1  0.66914763  0.97156239  0.08983189  1
  C  C8  1  0.83570660  0.68667324  0.07733760  1
  C  C9  1  0.00570327  0.34290410  0.08402592  1
  C  C10  1  0.48091428  0.65882481  0.92996342  1
  C  C11  1  0.84971963  0.03649140  0.93010660  1
  C  C12  1  0.16427948  0.29550370  0.90740113  1
  C  C13  1  0.66414614  0.30055439  0.90479130  1
  C  C14  1  0.47985917  0.30101349  0.42943846  1
  C  C15  1  0.98616368  0.30648946  0.43130902  1
  C  C16  1  0.16485192  0.03006858  0.40566460  1
  C  C17  1  0.66367548  0.02948243  0.40566201  1
  C  C18  1  0.98933156  0.99300963  0.50305025  1
  C  C19  1  0.47508985  0.96721091  0.50136123  1
  C  C20  1  0.00096636  0.96629505  0.99936313  1
  C  C21  1  0.47596267  0.98463722  0.00359707  1
  C  C22  1  0.32093918  0.33547553  0.82770898  1
  C  C23  1  0.82058381  0.34846165  0.82206277  1
  C  C24  1  0.30867855  0.30400732  0.32341199  1
  C  C25  1  0.81356020  0.32801385  0.32667424  1
  C  C26  1  0.16891560  0.70656555  0.16340568  1
  C  C27  1  0.65652056  0.67058369  0.15951547  1
  C  C28  1  0.16054213  0.62089555  0.65914150  1
  C  C29  1  0.66122554  0.65121816  0.66473434  1
  C  C30  1  0.00408956  0.00040378  0.34963377  1
  C  C31  1  0.49925909  0.99870161  0.34909724  1
  C  C32  1  0.00182994  0.99402508  0.84970752  1
  C  C33  1  0.50074702  0.00389157  0.84768923  1
  C  C34  1  0.33443160  0.34124160  0.67799452  1
  C  C35  1  0.83198012  0.33247324  0.68180134  1
  C  C36  1  0.32950575  0.32613698  0.18117925  1
  C  C37  1  0.83011852  0.32671890  0.18091048  1
  C  C38  1  0.33906514  0.33540495  0.99468622  1
  C  C39  1  0.84480079  0.34550805  0.99249703  1
  C  C40  1  0.33777914  0.33920143  0.49441171  1
  C  C41  1  0.84199148  0.33947419  0.49299302  1
  C  C42  1  0.16786829  0.67796058  0.01750427  1
  C  C43  1  0.66075811  0.66460769  0.02019977  1
  C  C44  1  0.16500421  0.65959935  0.52076672  1
  C  C45  1  0.66521159  0.66693177  0.51916991  1
  C  C46  1  0.17190396  0.67892205  0.30942536  1
  C  C47  1  0.66704488  0.66408284  0.31137193  1
  C  C48  1  0.16924402  0.65742477  0.81120544  1
  C  C49  1  0.66939760  0.66205860  0.80711207  1
  C  C50  1  0.00408146  0.01288863  0.64977388  1
  C  C51  1  0.50242431  0.00831406  0.65157647  1
  C  C52  1  0.00817484  0.00169471  0.15022684  1
  C  C53  1  0.50341723  0.99743662  0.15252895  1
  Ni  Ni54  1  0.15211230  0.00059385  0.25446624  1
  Ni  Ni55  1  0.65038080  0.99935711  0.25472568  1
  Ni  Ni56  1  0.15056050  0.29712623  0.75301139  1
  Ni  Ni57  1  0.65100643  0.30222076  0.75332155  1
  Ni  Ni58  1  0.48995194  0.33409037  0.58658789  1
  Ni  Ni59  1  0.98934219  0.33554479  0.58694143  1
  Ni  Ni60  1  0.48624921  0.64481329  0.08722988  1
  Ni  Ni61  1  0.98708526  0.64107151  0.09138868  1
  Ni  Ni62  1  0.83823309  0.02231387  0.08546231  1
  Cu  Cu63  1  0.35565201  0.71138405  0.24574592  1
  Cu  Cu64  1  0.85689569  0.71661124  0.24536175  1
  Cu  Cu65  1  0.00024479  0.29259576  0.24906827  1
  Cu  Cu66  1  0.49996939  0.29335935  0.24877765  1
  Cu  Cu67  1  0.00143887  0.70889353  0.74678999  1
  Cu  Cu68  1  0.49949454  0.70681724  0.74908745  1
  Cu  Cu69  1  0.35380115  0.99927627  0.74515750  1
  Cu  Cu70  1  0.85729284  0.99934535  0.74761554  1
  Cu  Cu71  1  0.17289764  0.02564493  0.58733183  1
  Cu  Cu72  1  0.67336774  0.02944149  0.58553759  1
  Cu  Cu73  1  0.34078377  0.65543192  0.58695808  1
  Cu  Cu74  1  0.83950633  0.64958295  0.58631524  1
  Cu  Cu75  1  0.34140689  0.02835555  0.08761915  1
  Cu  Cu76  1  0.17573059  0.32365815  0.08398238  1
  Cu  Cu77  1  0.67352682  0.31751411  0.08431092  1
  Cu  Cu78  1  0.31746888  0.65888518  0.91751255  1
  Cu  Cu79  1  0.81380754  0.66233903  0.91840714  1
  Cu  Cu80  1  0.01441025  0.36103012  0.91564731  1
  Cu  Cu81  1  0.51569894  0.36781356  0.91402724  1
  Cu  Cu82  1  0.16938300  0.97830314  0.91434825  1
  Cu  Cu83  1  0.66701225  0.96911700  0.91720785  1
  Cu  Cu84  1  0.31641432  0.97398162  0.41828638  1
  Cu  Cu85  1  0.81627346  0.97374253  0.41500784  1
  Cu  Cu86  1  0.16638290  0.36426934  0.41620953  1
  Cu  Cu87  1  0.66618219  0.36140158  0.41896326  1
  Cu  Cu88  1  0.01668169  0.66277592  0.41486085  1
  Cu  Cu89  1  0.51578366  0.66373719  0.41500419  1
  C  C90  1  0.11246175  0.00269060  0.31574461  1
  C  C91  1  0.60811232  0.00235334  0.31407779  1
  C  C92  1  0.40023326  0.79069670  0.29847618  1
  C  C93  1  0.90389996  0.79694438  0.29708579  1
  C  C94  1  0.49477991  0.21131794  0.30345911  1
  C  C95  1  0.99203267  0.19915999  0.30137000  1
  C  C96  1  0.11074661  0.20227665  0.81248401  1
  C  C97  1  0.61011578  0.21695138  0.81373867  1
  C  C98  1  0.49389666  0.77806736  0.80369555  1
  C  C99  1  0.99101890  0.77907023  0.79992591  1
  C  C100  1  0.39859958  0.01093043  0.79779666  1
  C  C101  1  0.89880141  0.00714551  0.80202139  1
  C  C102  1  0.40224467  0.98528433  0.69504316  1
  C  C103  1  0.90903453  0.98799818  0.69909915  1
  C  C104  1  0.08406960  0.16350550  0.69958639  1
  C  C105  1  0.58310553  0.16186314  0.70031648  1
  C  C106  1  0.00113058  0.80879578  0.69662498  1
  C  C107  1  0.49708089  0.81009067  0.70009567  1
  C  C108  1  0.40692457  0.82490987  0.19586367  1
  C  C109  1  0.90453443  0.82070658  0.19380246  1
  C  C110  1  0.00160085  0.19621504  0.19748278  1
  C  C111  1  0.49866140  0.18520514  0.19997637  1
  C  C112  1  0.08515040  0.00826858  0.20323965  1
  C  C113  1  0.58682563  0.00480332  0.19966368  1
  C  C114  1  0.44531060  0.34809081  0.64298219  1
  C  C115  1  0.94117990  0.34234800  0.64263521  1
  C  C116  1  0.22224939  0.10982503  0.63823181  1
  C  C117  1  0.72547138  0.11862494  0.63397345  1
  C  C118  1  0.32604425  0.54859232  0.63621751  1
  C  C119  1  0.82268245  0.53622763  0.63429602  1
  C  C120  1  0.44122242  0.53898806  0.14286833  1
  C  C121  1  0.94651852  0.53976726  0.14918727  1
  C  C122  1  0.32703196  0.10829031  0.13579989  1
  C  C123  1  0.81342461  0.10275122  0.13777778  1
  C  C124  1  0.22825198  0.34502637  0.13210971  1
  C  C125  1  0.72791172  0.34216295  0.13297026  1
  C  C126  1  0.20451877  0.28677660  0.03006124  1
  C  C127  1  0.70319742  0.27402472  0.03206327  1
  C  C128  1  0.43805167  0.57942352  0.02633640  1
  C  C129  1  0.92042916  0.57901764  0.03883903  1
  C  C130  1  0.35729557  0.12230699  0.03378325  1
  C  C131  1  0.86300210  0.13792607  0.02779441  1
  C  C132  1  0.20483508  0.12818613  0.53550713  1
  C  C133  1  0.70258047  0.13052926  0.53261377  1
  C  C134  1  0.35694869  0.58991402  0.53425413  1
  C  C135  1  0.85579421  0.58528302  0.53340441  1
  C  C136  1  0.44023538  0.30204350  0.52646587  1
  C  C137  1  0.93968052  0.29735829  0.52621996  1
  C  C138  1  0.27684761  0.67207783  0.96927872  1
  C  C139  1  0.77515883  0.67516612  0.97191847  1
  C  C140  1  0.06269498  0.44627570  0.96750320  1
  C  C141  1  0.56889056  0.45475456  0.96370632  1
  C  C142  1  0.16814209  0.88007465  0.96375854  1
  C  C143  1  0.66292642  0.88069492  0.97074844  1
  C  C144  1  0.27655806  0.87914376  0.47005126  1
  C  C145  1  0.77338906  0.87388348  0.46540519  1
  C  C146  1  0.16299552  0.45322659  0.46705449  1
  C  C147  1  0.66435424  0.44588649  0.47202947  1
  C  C148  1  0.07001326  0.67958336  0.46415140  1
  C  C149  1  0.57028172  0.68284739  0.46401660  1
  C  C150  1  0.05489331  0.64733408  0.36130015  1
  C  C151  1  0.55440943  0.64803898  0.36150191  1
  C  C152  1  0.27049313  0.88813052  0.36603262  1
  C  C153  1  0.77196501  0.89009376  0.36137846  1
  C  C154  1  0.17225616  0.45468246  0.36325065  1
  C  C155  1  0.67234006  0.45912114  0.36779811  1
  C  C156  1  0.05721216  0.45350467  0.86355027  1
  C  C157  1  0.55485831  0.46156743  0.86091327  1
  C  C158  1  0.17152452  0.90094106  0.85933706  1
  C  C159  1  0.67453429  0.88178019  0.86719401  1
  C  C160  1  0.27078739  0.65294414  0.86544498  1
  C  C161  1  0.76274658  0.65311965  0.86837787  1
  C  C162  1  0.00768845  0.81304459  0.41490586  1
  C  C163  1  0.50757799  0.81492475  0.41463431  1
  C  C164  1  0.40426143  0.00774403  0.41674890  1
  C  C165  1  0.90373288  0.00817399  0.41487300  1
  C  C166  1  0.08593855  0.19854755  0.41687475  1
  C  C167  1  0.58595493  0.19749538  0.41799014  1
  C  C168  1  0.00620610  0.19156711  0.91557316  1
  C  C169  1  0.50654768  0.19931414  0.91344616  1
  C  C170  1  0.09279496  0.99409074  0.91817335  1
  C  C171  1  0.58897246  0.97878966  0.91487990  1
  C  C172  1  0.40484525  0.80099120  0.91610906  1
  C  C173  1  0.89738084  0.81556613  0.91552601  1
  C  C174  1  0.49736179  0.15462777  0.59916438  1
  C  C175  1  0.99523930  0.15392135  0.59916792  1
  C  C176  1  0.08480250  0.00040600  0.59548260  1
  C  C177  1  0.58671616  0.00828718  0.59531255  1
  C  C178  1  0.42069152  0.82116780  0.59690256  1
  C  C179  1  0.91555776  0.81662719  0.59750123  1
  C  C180  1  0.49609302  0.84131713  0.09938403  1
  C  C181  1  0.00461232  0.83832968  0.10201637  1
  C  C182  1  0.42075530  0.02084647  0.09753056  1
  C  C183  1  0.92575235  0.01793760  0.10136701  1
  C  C184  1  0.08861173  0.17174505  0.09391419  1
  C  C185  1  0.58795061  0.16786484  0.09555480  1
  C  C186  1  0.34943190  0.15249968  0.73953231  1
  C  C187  1  0.85563312  0.15465053  0.74212167  1
  C  C188  1  0.23803840  0.30173004  0.74506884  1
  C  C189  1  0.74131872  0.32382096  0.74572060  1
  C  C190  1  0.42830018  0.53585975  0.74517381  1
  C  C191  1  0.93474919  0.53532885  0.74232883  1
  C  C192  1  0.35319473  0.55267064  0.24009148  1
  C  C193  1  0.84767869  0.55127126  0.24127568  1
  C  C194  1  0.42954210  0.32225713  0.24424163  1
  C  C195  1  0.92557306  0.31121100  0.24528010  1
  C  C196  1  0.24212021  0.16012674  0.24658647  1
  C  C197  1  0.74317746  0.15659468  0.24992757  1
  C  C198  1  0.32070136  0.50043892  0.91819586  1
  C  C199  1  0.81923629  0.50812969  0.91820943  1
  C  C200  1  0.43322002  0.35698609  0.91906332  1
  C  C201  1  0.92907598  0.33685373  0.91668023  1
  C  C202  1  0.24265996  0.15026113  0.91677267  1
  C  C203  1  0.74057015  0.14113871  0.91908082  1
  C  C204  1  0.31975734  0.13921273  0.41953407  1
  C  C205  1  0.81797555  0.13709509  0.41715091  1
  C  C206  1  0.23640556  0.32942818  0.41948476  1
  C  C207  1  0.73655092  0.32772956  0.41979846  1
  C  C208  1  0.43344108  0.51104995  0.42057280  1
  C  C209  1  0.93362570  0.50906779  0.41967759  1
  C  C210  1  0.15897081  0.46192960  0.07865378  1
  C  C211  1  0.66299221  0.46171272  0.07791492  1
  C  C212  1  0.07399120  0.64599247  0.08051186  1
  C  C213  1  0.58373986  0.69738028  0.08489609  1
  C  C214  1  0.27246490  0.85584314  0.08237272  1
  C  C215  1  0.76544797  0.82954986  0.07941369  1
  C  C216  1  0.16180340  0.85999848  0.58197989  1
  C  C217  1  0.66164082  0.86292989  0.58023936  1
  C  C218  1  0.27360125  0.69322041  0.58126311  1
  C  C219  1  0.76761515  0.67525950  0.58045215  1
  C  C220  1  0.08420819  0.48306686  0.58481519  1
  C  C221  1  0.58769169  0.47730640  0.58408488  1
  C  C222  1  0.14396151  0.81973631  0.24223575  1
  C  C223  1  0.64871271  0.82344244  0.24227998  1
  C  C224  1  0.27391107  0.69639241  0.24150689  1
  C  C225  1  0.77618282  0.71138894  0.24330456  1
  C  C226  1  0.07592625  0.45665214  0.24768427  1
  C  C227  1  0.57897685  0.45403389  0.24382626  1
  C  C228  1  0.14477080  0.46436375  0.74434213  1
  C  C229  1  0.64222773  0.46559542  0.74036151  1
  C  C230  1  0.08395762  0.71720201  0.74594537  1
  C  C231  1  0.57790752  0.70310367  0.74414102  1
  C  C232  1  0.26967609  0.85385243  0.74284941  1
  C  C233  1  0.77494290  0.85174512  0.74249067  1
