# generated using pymatgen
data_Cu2NiC16
_symmetry_space_group_name_H-M   'P 1'
_cell_length_a   7.37441826
_cell_length_b   9.44515908
_cell_length_c   8.35621168
_cell_angle_alpha   127.94418603
_cell_angle_beta   81.88943621
_cell_angle_gamma   122.32049070
_symmetry_Int_Tables_number   1
_chemical_formula_structural   Cu2NiC16
_chemical_formula_sum   'Cu2 Ni1 C16'
_cell_volume   372.18622715
_cell_formula_units_Z   1
loop_
 _symmetry_equiv_pos_site_id
 _symmetry_equiv_pos_as_xyz
  1  'x, y, z'
loop_
 _atom_site_type_symbol
 _atom_site_label
 _atom_site_symmetry_multiplicity
 _atom_site_fract_x
 _atom_site_fract_y
 _atom_site_fract_z
 _atom_site_occupancy
  C  C0  1  0.78316605  0.56845451  0.66587290  1
  C  C1  1  0.22587620  0.44120916  0.31224939  1
  C  C2  1  0.31250688  0.02891331  0.13191451  1
  C  C3  1  0.70314490  0.01674706  0.84002953  1
  C  C4  1  0.22037299  0.05238568  0.66433456  1
  C  C5  1  0.77802589  0.93316973  0.29675307  1
  Ni  Ni6  1  0.21482688  0.66643672  0.15333698  1
  Cu  Cu7  1  0.24721853  0.49453925  0.76027645  1
  Cu  Cu8  1  0.76508499  0.51695821  0.22303960  1
  C  C9  1  0.96972567  0.97953040  0.99356931  1
  C  C10  1  0.40682357  0.82849241  0.42555788  1
  C  C11  1  0.50304732  0.26379370  0.00341535  1
  C  C12  1  0.16548321  0.61350910  0.69553616  1
  C  C13  1  0.44870566  0.77960124  0.02998222  1
  C  C14  1  0.99217034  0.73686209  0.19991707  1
  C  C15  1  0.75249639  0.72761797  0.49263738  1
  C  C16  1  0.10129839  0.35397606  0.88971500  1
  C  C17  1  0.30458413  0.29098503  0.53616138  1
  C  C18  1  0.81079503  0.35681936  0.26605725  1
