# generated using pymatgen
data_Cu2NiC17
_symmetry_space_group_name_H-M   'P 1'
_cell_length_a   3.99871416
_cell_length_b   3.79231835
_cell_length_c   21.42550024
_cell_angle_alpha   96.28814425
_cell_angle_beta   105.24912449
_cell_angle_gamma   89.97285532
_symmetry_Int_Tables_number   1
_chemical_formula_structural   Cu2NiC17
_chemical_formula_sum   'Cu2 Ni1 C17'
_cell_volume   311.44338445
_cell_formula_units_Z   1
loop_
 _symmetry_equiv_pos_site_id
 _symmetry_equiv_pos_as_xyz
  1  'x, y, z'
loop_
 _atom_site_type_symbol
 _atom_site_label
 _atom_site_symmetry_multiplicity
 _atom_site_fract_x
 _atom_site_fract_y
 _atom_site_fract_z
 _atom_site_occupancy
  C  C0  1  0.11194727  0.15476878  0.28076727  1
  C  C1  1  0.75043951  0.84447998  0.73035744  1
  Ni  Ni2  1  0.03228641  0.27988367  0.62482974  1
  C  C3  1  0.39477767  0.40335257  0.82935023  1
  C  C4  1  0.47452107  0.59509962  0.18018038  1
  C  C5  1  0.24586652  0.51374578  0.01808892  1
  C  C6  1  0.78139004  0.73231023  0.40600370  1
  C  C7  1  0.32004385  0.30073119  0.50934400  1
  Cu  Cu8  1  0.97715284  0.94207426  0.89464947  1
  Cu  Cu9  1  0.86024369  0.05916350  0.09668552  1
  C  C10  1  0.42760020  0.91557025  0.84930017  1
  C  C11  1  0.25455813  0.33920002  0.72164105  1
  C  C12  1  0.91881099  0.41227529  0.84535006  1
  C  C13  1  0.87663475  0.77298245  0.61265707  1
  C  C14  1  0.78061590  0.52696152  0.04297733  1
  C  C15  1  0.97734611  0.58822766  0.18164320  1
  C  C16  1  0.61577752  0.65679590  0.28223403  1
  C  C17  1  0.41110363  0.06599202  0.13323452  1
  C  C18  1  0.41992132  0.23678429  0.40889402  1
  C  C19  1  0.19147857  0.99423003  0.98610388  1
