# generated using pymatgen
data_CuNi9C50
_symmetry_space_group_name_H-M   'P 1'
_cell_length_a   15.82699764
_cell_length_b   27.36204983
_cell_length_c   9.10729779
_cell_angle_alpha   89.85774164
_cell_angle_beta   125.05449983
_cell_angle_gamma   90.08811113
_symmetry_Int_Tables_number   1
_chemical_formula_structural   CuNi9C50
_chemical_formula_sum   'Cu4 Ni36 C200'
_cell_volume   3228.57092358
_cell_formula_units_Z   4
loop_
 _symmetry_equiv_pos_site_id
 _symmetry_equiv_pos_as_xyz
  1  'x, y, z'
loop_
 _atom_site_type_symbol
 _atom_site_label
 _atom_site_symmetry_multiplicity
 _atom_site_fract_x
 _atom_site_fract_y
 _atom_site_fract_z
 _atom_site_occupancy
  Ni  Ni0  1  0.25366623  0.25418969  0.01086646  1
  Ni  Ni1  1  0.25732702  0.58935426  0.01380914  1
  Ni  Ni2  1  0.24785010  0.91512560  0.99860455  1
  Ni  Ni3  1  0.74540164  0.25632590  0.50251251  1
  Ni  Ni4  1  0.74100179  0.57714051  0.49647844  1
  Ni  Ni5  1  0.75262801  0.91474346  0.50761236  1
  Ni  Ni6  1  0.75732702  0.08935426  0.01380914  1
  Ni  Ni7  1  0.74785010  0.41512560  0.99860455  1
  Ni  Ni8  1  0.75366623  0.75418969  0.01086646  1
  Ni  Ni9  1  0.24100179  0.07714051  0.49647844  1
  Ni  Ni10  1  0.25262801  0.41474346  0.50761236  1
  Ni  Ni11  1  0.24540164  0.75632590  0.50251251  1
  Ni  Ni12  1  0.50381865  0.03512190  0.75676858  1
  Ni  Ni13  1  0.48930522  0.36272986  0.72508984  1
  Ni  Ni14  1  0.48821784  0.69812347  0.72908535  1
  Ni  Ni15  1  0.49789491  0.29171608  0.25744816  1
  Ni  Ni16  1  0.49826845  0.62659845  0.26469414  1
  Ni  Ni17  1  0.49798419  0.96400072  0.25117097  1
  Ni  Ni18  1  0.98821784  0.19812347  0.72908535  1
  Ni  Ni19  1  0.00381865  0.53512190  0.75676858  1
  Ni  Ni20  1  0.98930522  0.86272986  0.72508984  1
  Ni  Ni21  1  0.99826845  0.12659845  0.26469414  1
  Ni  Ni22  1  0.99798419  0.46400072  0.25117097  1
  Ni  Ni23  1  0.99789491  0.79171608  0.25744816  1
  Ni  Ni24  1  0.80876401  0.65101099  0.23947057  1
  Ni  Ni25  1  0.81727491  0.98435485  0.24452717  1
  Ni  Ni26  1  0.19955896  0.30690609  0.28557295  1
  Ni  Ni27  1  0.20408157  0.64413452  0.27994302  1
  Ni  Ni28  1  0.81699781  0.02450231  0.69527061  1
  Ni  Ni29  1  0.81340590  0.69046488  0.69092845  1
  Ni  Ni30  1  0.30876401  0.15101099  0.23947057  1
  Ni  Ni31  1  0.31727491  0.48435485  0.24452717  1
  Ni  Ni32  1  0.70408157  0.14413452  0.27994302  1
  Ni  Ni33  1  0.69955896  0.80690609  0.28557295  1
  Ni  Ni34  1  0.31340590  0.19046488  0.69092845  1
  Ni  Ni35  1  0.31699781  0.52450231  0.69527061  1
  Cu  Cu36  1  0.90151522  0.08319601  0.44271845  1
  Cu  Cu37  1  0.90134881  0.74829661  0.44323424  1
  Cu  Cu38  1  0.40134881  0.24829661  0.44323424  1
  Cu  Cu39  1  0.40151522  0.58319601  0.44271845  1
  C  C40  1  0.10601522  0.25068873  0.57195422  1
  C  C41  1  0.10722425  0.58447871  0.57052879  1
  C  C42  1  0.10773621  0.91745237  0.56889181  1
  C  C43  1  0.89149645  0.25360205  0.93516485  1
  C  C44  1  0.89476683  0.57952693  0.93721393  1
  C  C45  1  0.89788486  0.91699338  0.93887066  1
  C  C46  1  0.89231379  0.41502089  0.43374988  1
  C  C47  1  0.10098311  0.08118814  0.05518299  1
  C  C48  1  0.10625357  0.41564722  0.06799550  1
  C  C49  1  0.10677606  0.75038989  0.05783028  1
  C  C50  1  0.60722425  0.08447871  0.57052879  1
  C  C51  1  0.60773621  0.41745237  0.56889181  1
  C  C52  1  0.60601522  0.75068873  0.57195422  1
  C  C53  1  0.39476683  0.07952693  0.93721393  1
  C  C54  1  0.39788486  0.41699338  0.93887066  1
  C  C55  1  0.39149645  0.75360205  0.93516485  1
  C  C56  1  0.39231379  0.91502089  0.43374988  1
  C  C57  1  0.60677606  0.25038989  0.05783028  1
  C  C58  1  0.60098311  0.58118814  0.05518299  1
  C  C59  1  0.60625357  0.91564722  0.06799550  1
  C  C60  1  0.00138050  0.31999905  0.75247364  1
  C  C61  1  0.00151439  0.64967713  0.75084110  1
  C  C62  1  0.99792106  0.98282890  0.73857297  1
  C  C63  1  0.00445923  0.01292573  0.24203173  1
  C  C64  1  0.00220044  0.34701449  0.25303015  1
  C  C65  1  0.00462840  0.67804822  0.24454659  1
  C  C66  1  0.50151439  0.14967713  0.75084110  1
  C  C67  1  0.49792106  0.48282890  0.73857297  1
  C  C68  1  0.50138050  0.81999905  0.75247364  1
  C  C69  1  0.50462840  0.17804822  0.24454659  1
  C  C70  1  0.50445923  0.51292573  0.24203173  1
  C  C71  1  0.50220044  0.84701449  0.25303015  1
  C  C72  1  0.35181391  0.29862702  0.75693477  1
  C  C73  1  0.34952914  0.63381993  0.75332577  1
  C  C74  1  0.35523151  0.96298898  0.75249754  1
  C  C75  1  0.64681179  0.30066660  0.73740987  1
  C  C76  1  0.65072098  0.63290417  0.74817778  1
  C  C77  1  0.64562321  0.96337910  0.74498923  1
  C  C78  1  0.64220132  0.03232942  0.24651595  1
  C  C79  1  0.64374302  0.36745541  0.24978556  1
  C  C80  1  0.63823394  0.70024731  0.24109779  1
  C  C81  1  0.35329218  0.03559115  0.25477924  1
  C  C82  1  0.35597472  0.37104020  0.25577306  1
  C  C83  1  0.35349906  0.70667423  0.25199170  1
  C  C84  1  0.84952914  0.13381993  0.75332577  1
  C  C85  1  0.85523151  0.46298898  0.75249754  1
  C  C86  1  0.85181391  0.79862702  0.75693477  1
  C  C87  1  0.15072098  0.13290417  0.74817778  1
  C  C88  1  0.14562321  0.46337910  0.74498923  1
  C  C89  1  0.14681179  0.80066660  0.73740987  1
  C  C90  1  0.13823394  0.20024731  0.24109779  1
  C  C91  1  0.14220132  0.53232942  0.24651595  1
  C  C92  1  0.14374302  0.86745541  0.24978556  1
  C  C93  1  0.85349906  0.20667423  0.25199170  1
  C  C94  1  0.85329218  0.53559115  0.25477924  1
  C  C95  1  0.85597472  0.87104020  0.25577306  1
  C  C96  1  0.15302996  0.19386043  0.74832576  1
  C  C97  1  0.14488553  0.52347510  0.73151320  1
  C  C98  1  0.15018149  0.86109128  0.74775933  1
  C  C99  1  0.84492174  0.19242191  0.78464834  1
  C  C100  1  0.84699832  0.52271526  0.75754389  1
  C  C101  1  0.84675897  0.85692238  0.79021305  1
  C  C102  1  0.84118378  0.14871104  0.23570291  1
  C  C103  1  0.85174573  0.47559723  0.26992360  1
  C  C104  1  0.84011003  0.81381307  0.23193030  1
  C  C105  1  0.14156025  0.13979006  0.23190897  1
  C  C106  1  0.15186344  0.47178121  0.24968454  1
  C  C107  1  0.14369500  0.80757618  0.23241417  1
  C  C108  1  0.64488553  0.02347510  0.73151320  1
  C  C109  1  0.65018149  0.36109128  0.74775933  1
  C  C110  1  0.65302996  0.69386043  0.74832576  1
  C  C111  1  0.34699832  0.02271526  0.75754389  1
  C  C112  1  0.34675897  0.35692238  0.79021305  1
  C  C113  1  0.34492174  0.69242191  0.78464834  1
  C  C114  1  0.34011003  0.31381307  0.23193030  1
  C  C115  1  0.34118378  0.64871104  0.23570291  1
  C  C116  1  0.35174573  0.97559723  0.26992360  1
  C  C117  1  0.64369500  0.30757618  0.23241417  1
  C  C118  1  0.64156025  0.63979006  0.23190897  1
  C  C119  1  0.65186344  0.97178121  0.24968454  1
  C  C120  1  0.41241314  0.17553928  0.56875043  1
  C  C121  1  0.41091459  0.50929409  0.55507646  1
  C  C122  1  0.43466153  0.85719830  0.58035835  1
  C  C123  1  0.56731456  0.18881098  0.92056444  1
  C  C124  1  0.55836383  0.52384677  0.90607037  1
  C  C125  1  0.56966180  0.85542556  0.93223430  1
  C  C126  1  0.57181184  0.14261550  0.42770712  1
  C  C127  1  0.56492137  0.47566645  0.41840486  1
  C  C128  1  0.57002489  0.80948655  0.42435473  1
  C  C129  1  0.45364642  0.13646346  0.08580779  1
  C  C130  1  0.44802581  0.47826392  0.06358036  1
  C  C131  1  0.44135758  0.81452749  0.07220896  1
  C  C132  1  0.91091459  0.00929409  0.55507646  1
  C  C133  1  0.93466153  0.35719830  0.58035835  1
  C  C134  1  0.91241314  0.67553928  0.56875043  1
  C  C135  1  0.05836383  0.02384677  0.90607037  1
  C  C136  1  0.06966180  0.35542556  0.93223430  1
  C  C137  1  0.06731456  0.68881098  0.92056444  1
  C  C138  1  0.07002489  0.30948655  0.42435473  1
  C  C139  1  0.07181184  0.64261550  0.42770712  1
  C  C140  1  0.06492137  0.97566645  0.41840486  1
  C  C141  1  0.94135758  0.31452749  0.07220896  1
  C  C142  1  0.95364642  0.63646346  0.08580779  1
  C  C143  1  0.94802581  0.97826392  0.06358036  1
  C  C144  1  0.25669737  0.26905714  0.74304114  1
  C  C145  1  0.25731617  0.60217459  0.74486241  1
  C  C146  1  0.25643356  0.93752104  0.73161785  1
  C  C147  1  0.75338350  0.28025436  0.77059200  1
  C  C148  1  0.76003090  0.61409245  0.78167701  1
  C  C149  1  0.74897911  0.94457528  0.76177813  1
  C  C150  1  0.72449716  0.05923872  0.22568483  1
  C  C151  1  0.74626728  0.39210977  0.27337770  1
  C  C152  1  0.72750781  0.72505674  0.23423947  1
  C  C153  1  0.25622477  0.06413399  0.23386556  1
  C  C154  1  0.25645296  0.39728788  0.24288701  1
  C  C155  1  0.25440194  0.73158311  0.23971285  1
  C  C156  1  0.75731617  0.10217459  0.74486241  1
  C  C157  1  0.75643356  0.43752104  0.73161785  1
  C  C158  1  0.75669737  0.76905714  0.74304114  1
  C  C159  1  0.26003090  0.11409245  0.78167701  1
  C  C160  1  0.24897911  0.44457528  0.76177813  1
  C  C161  1  0.25338350  0.78025436  0.77059200  1
  C  C162  1  0.22750781  0.22505674  0.23423947  1
  C  C163  1  0.22449716  0.55923872  0.22568483  1
  C  C164  1  0.24626728  0.89210977  0.27337770  1
  C  C165  1  0.75440194  0.23158311  0.23971285  1
  C  C166  1  0.75622477  0.56413399  0.23386556  1
  C  C167  1  0.75645296  0.89728788  0.24288701  1
  C  C168  1  0.34641785  0.29513674  0.57635288  1
  C  C169  1  0.34369893  0.62850826  0.57331814  1
  C  C170  1  0.36624995  0.95169805  0.58671452  1
  C  C171  1  0.63414586  0.28423854  0.90346520  1
  C  C172  1  0.64313929  0.61883936  0.91951450  1
  C  C173  1  0.64285100  0.95130101  0.92249618  1
  C  C174  1  0.64597225  0.04667193  0.42797806  1
  C  C175  1  0.63711286  0.38003675  0.41949585  1
  C  C176  1  0.64314154  0.71357299  0.42605961  1
  C  C177  1  0.35312581  0.04746379  0.07840685  1
  C  C178  1  0.36101350  0.39556309  0.09616383  1
  C  C179  1  0.35641432  0.72852074  0.08819971  1
  C  C180  1  0.84369893  0.12850826  0.57331814  1
  C  C181  1  0.86624995  0.45169805  0.58671452  1
  C  C182  1  0.84641785  0.79513674  0.57635288  1
  C  C183  1  0.14313929  0.11883936  0.91951450  1
  C  C184  1  0.14285100  0.45130101  0.92249618  1
  C  C185  1  0.13414586  0.78423854  0.90346520  1
  C  C186  1  0.14314154  0.21357299  0.42605961  1
  C  C187  1  0.14597225  0.54667193  0.42797806  1
  C  C188  1  0.13711286  0.88003675  0.41949585  1
  C  C189  1  0.85641432  0.22852074  0.08819971  1
  C  C190  1  0.85312581  0.54746379  0.07840685  1
  C  C191  1  0.86101350  0.89556309  0.09616383  1
  C  C192  1  0.46124667  0.27400702  0.93008848  1
  C  C193  1  0.46024872  0.60868467  0.92446013  1
  C  C194  1  0.46452119  0.94247647  0.93570929  1
  C  C195  1  0.55238886  0.28157215  0.54801773  1
  C  C196  1  0.55750498  0.61300566  0.55977007  1
  C  C197  1  0.53889120  0.94114588  0.56775810  1
  C  C198  1  0.52488564  0.04335873  0.07451291  1
  C  C199  1  0.53685570  0.38725618  0.06957279  1
  C  C200  1  0.52755301  0.72137608  0.07305544  1
  C  C201  1  0.46260856  0.05745031  0.43172880  1
  C  C202  1  0.46255266  0.39130824  0.44333247  1
  C  C203  1  0.46389915  0.72471793  0.43992377  1
  C  C204  1  0.96024872  0.10868467  0.92446013  1
  C  C205  1  0.96452119  0.44247647  0.93570929  1
  C  C206  1  0.96124667  0.77400702  0.93008848  1
  C  C207  1  0.05750498  0.11300566  0.55977007  1
  C  C208  1  0.03889120  0.44114588  0.56775810  1
  C  C209  1  0.05238886  0.78157215  0.54801773  1
  C  C210  1  0.02755301  0.22137608  0.07305544  1
  C  C211  1  0.02488564  0.54335873  0.07451291  1
  C  C212  1  0.03685570  0.88725618  0.06957279  1
  C  C213  1  0.96389915  0.22471793  0.43992377  1
  C  C214  1  0.96260856  0.55745031  0.43172880  1
  C  C215  1  0.96255266  0.89130824  0.44333247  1
  C  C216  1  0.08107474  0.28633309  0.73529363  1
  C  C217  1  0.08533117  0.61606249  0.74221094  1
  C  C218  1  0.08717852  0.95109847  0.74372740  1
  C  C219  1  0.92521425  0.28201588  0.76257300  1
  C  C220  1  0.93901272  0.60891104  0.79018108  1
  C  C221  1  0.92818031  0.94347178  0.76744787  1
  C  C222  1  0.91707339  0.04639529  0.22876245  1
  C  C223  1  0.92462588  0.38392575  0.26600777  1
  C  C224  1  0.91506984  0.70998051  0.22698677  1
  C  C225  1  0.08956181  0.04698977  0.23843766  1
  C  C226  1  0.08714546  0.38105402  0.24709563  1
  C  C227  1  0.08930792  0.71129726  0.23719501  1
  C  C228  1  0.58533117  0.11606249  0.74221094  1
  C  C229  1  0.58717852  0.45109847  0.74372740  1
  C  C230  1  0.58107474  0.78633309  0.73529363  1
  C  C231  1  0.43901272  0.10891104  0.79018108  1
  C  C232  1  0.42818031  0.44347178  0.76744787  1
  C  C233  1  0.42521425  0.78201588  0.76257300  1
  C  C234  1  0.41506984  0.20998051  0.22698677  1
  C  C235  1  0.41707339  0.54639529  0.22876245  1
  C  C236  1  0.42462588  0.88392575  0.26600777  1
  C  C237  1  0.58930792  0.21129726  0.23719501  1
  C  C238  1  0.58956181  0.54698977  0.23843766  1
  C  C239  1  0.58714546  0.88105402  0.24709563  1
