# generated using pymatgen
data_Cu2NiC16
_symmetry_space_group_name_H-M   'P 1'
_cell_length_a   9.11167516
_cell_length_b   9.14902738
_cell_length_c   22.79195246
_cell_angle_alpha   91.01402533
_cell_angle_beta   90.00000000
_cell_angle_gamma   119.86503888
_symmetry_Int_Tables_number   1
_chemical_formula_structural   Cu2NiC16
_chemical_formula_sum   'Cu12 Ni6 C96'
_cell_volume   1647.34242788
_cell_formula_units_Z   6
loop_
 _symmetry_equiv_pos_site_id
 _symmetry_equiv_pos_as_xyz
  1  'x, y, z'
loop_
 _atom_site_type_symbol
 _atom_site_label
 _atom_site_symmetry_multiplicity
 _atom_site_fract_x
 _atom_site_fract_y
 _atom_site_fract_z
 _atom_site_occupancy
  C  C0  1  0.99642175  0.63156918  0.24282656  1
  C  C1  1  0.63514743  0.63156918  0.74282656  1
  C  C2  1  0.65036449  0.96440627  0.57396023  1
  C  C3  1  0.31404278  0.96440627  0.07396023  1
  C  C4  1  0.69610336  0.02580357  0.91063795  1
  C  C5  1  0.32969921  0.02580357  0.41063795  1
  C  C6  1  0.98506625  0.00087466  0.49620143  1
  C  C7  1  0.01580841  0.00087466  0.99620143  1
  C  C8  1  0.66018566  0.31106756  0.83023183  1
  C  C9  1  0.65088290  0.31106756  0.33023183  1
  C  C10  1  0.32342790  0.64755733  0.16255033  1
  C  C11  1  0.32412843  0.64755733  0.66255033  1
  C  C12  1  0.99412464  0.00925738  0.35231833  1
  C  C13  1  0.01513274  0.00925738  0.85231833  1
  C  C14  1  0.66248817  0.32598623  0.68494544  1
  C  C15  1  0.66349905  0.32598623  0.18494544  1
  C  C16  1  0.32661379  0.66054806  0.01850040  1
  C  C17  1  0.33393326  0.66054806  0.51850040  1
  C  C18  1  0.97790807  0.98109457  0.65084922  1
  C  C19  1  0.00318650  0.98109457  0.15084922  1
  C  C20  1  0.67479753  0.34563110  0.98105995  1
  C  C21  1  0.67083457  0.34563110  0.48105995  1
  C  C22  1  0.35255247  0.69832615  0.31400040  1
  C  C23  1  0.34577268  0.69832615  0.81400040  1
  Ni  Ni24  1  0.29761942  0.99740780  0.25584759  1
  Ni  Ni25  1  0.69978838  0.99740780  0.75584759  1
  Ni  Ni26  1  0.67062984  0.62942592  0.58909490  1
  Ni  Ni27  1  0.95879708  0.62942592  0.08909490  1
  Ni  Ni28  1  0.34549822  0.97952911  0.92382658  1
  Ni  Ni29  1  0.63402989  0.97952911  0.42382658  1
  Cu  Cu30  1  0.69978229  0.71331821  0.24951830  1
  Cu  Cu31  1  0.01500302  0.30185903  0.24865569  1
  Cu  Cu32  1  0.28685601  0.30185903  0.74865569  1
  Cu  Cu33  1  0.01353591  0.71331821  0.74951830  1
  Cu  Cu34  1  0.95223963  0.32035268  0.58249104  1
  Cu  Cu35  1  0.36118972  0.04528101  0.57999860  1
  Cu  Cu36  1  0.68409229  0.04528101  0.07999860  1
  Cu  Cu37  1  0.36811405  0.32035268  0.08249104  1
  Cu  Cu38  1  0.62239146  0.65444504  0.91538078  1
  Cu  Cu39  1  0.02953047  0.37909707  0.91638599  1
  Cu  Cu40  1  0.34956560  0.37909707  0.41638599  1
  Cu  Cu41  1  0.03205258  0.65444504  0.41538078  1
  C  C42  1  0.20835403  0.99831494  0.31501769  1
  C  C43  1  0.79912642  0.78910908  0.30241894  1
  C  C44  1  0.99187538  0.20926964  0.30213815  1
  C  C45  1  0.21739426  0.20926964  0.80213815  1
  C  C46  1  0.98998267  0.78910908  0.80241894  1
  C  C47  1  0.78996091  0.99831494  0.81501769  1
  C  C48  1  0.80665303  0.96568533  0.69697531  1
  C  C49  1  0.18110005  0.20486967  0.69593414  1
  C  C50  1  0.03494955  0.82157308  0.69679804  1
  C  C51  1  0.78662353  0.82157308  0.19679804  1
  C  C52  1  0.02376962  0.20486967  0.19593414  1
  C  C53  1  0.15903230  0.96568533  0.19697531  1
  C  C54  1  0.87956222  0.34234085  0.63622465  1
  C  C55  1  0.47019039  0.11967620  0.63165734  1
  C  C56  1  0.65859036  0.54243808  0.64945664  1
  C  C57  1  0.88384873  0.54243808  0.14945664  1
  C  C58  1  0.64948680  0.11967620  0.13165734  1
  C  C59  1  0.46277963  0.34234085  0.13622465  1
  C  C60  1  0.45914105  0.29831391  0.02971766  1
  C  C61  1  0.82597046  0.51545254  0.03123958  1
  C  C62  1  0.69728476  0.14824809  0.02622380  1
  C  C63  1  0.45096433  0.14824809  0.52622380  1
  C  C64  1  0.68948308  0.51545254  0.53123958  1
  C  C65  1  0.83917386  0.29831391  0.52971766  1
  C  C66  1  0.54272773  0.67734807  0.96714031  1
  C  C67  1  0.12358970  0.44821392  0.97056146  1
  C  C68  1  0.33829335  0.87690771  0.97971679  1
  C  C69  1  0.53861336  0.87690771  0.47971679  1
  C  C70  1  0.32462321  0.44821392  0.47056146  1
  C  C71  1  0.13461934  0.67734807  0.46714031  1
  C  C72  1  0.11459687  0.63148144  0.36063003  1
  C  C73  1  0.49402673  0.86229807  0.36295160  1
  C  C74  1  0.36491693  0.48051204  0.36414770  1
  C  C75  1  0.11559411  0.48051204  0.86414770  1
  C  C76  1  0.36827033  0.86229807  0.86295160  1
  C  C77  1  0.51688357  0.63148144  0.86063003  1
  C  C78  1  0.01005934  0.80312223  0.41083240  1
  C  C79  1  0.81887571  0.00699948  0.41698961  1
  C  C80  1  0.21120497  0.20168905  0.41104716  1
  C  C81  1  0.99048408  0.20168905  0.91104716  1
  C  C82  1  0.18812377  0.00699948  0.91698961  1
  C  C83  1  0.79306289  0.80312223  0.91083240  1
  C  C84  1  0.95474834  0.15520905  0.58497965  1
  C  C85  1  0.19598877  0.04077745  0.58557601  1
  C  C86  1  0.85697990  0.82479162  0.59420187  1
  C  C87  1  0.96781173  0.82479162  0.09420187  1
  C  C88  1  0.84478869  0.04077745  0.08557601  1
  C  C89  1  0.20046070  0.15520905  0.08497965  1
  C  C90  1  0.66331933  0.14765649  0.74800013  1
  C  C91  1  0.46357408  0.33511308  0.74413484  1
  C  C92  1  0.86615366  0.54387040  0.74246268  1
  C  C93  1  0.67771774  0.54387040  0.24246268  1
  C  C94  1  0.87154000  0.33511308  0.24413484  1
  C  C95  1  0.48433816  0.14765649  0.24800013  1
  C  C96  1  0.63582071  0.49640167  0.92041991  1
  C  C97  1  0.85581689  0.36872714  0.92109947  1
  C  C98  1  0.53194162  0.16233473  0.92586183  1
  C  C99  1  0.63039411  0.16233473  0.42586183  1
  C  C100  1  0.51291125  0.36872714  0.42109947  1
  C  C101  1  0.86058197  0.49640167  0.42041991  1
  C  C102  1  0.33946260  0.46247668  0.07576886  1
  C  C103  1  0.15346277  0.67901341  0.08223468  1
  C  C104  1  0.53897959  0.87214720  0.07429422  1
  C  C105  1  0.33316661  0.87214720  0.57429422  1
  C  C106  1  0.52554965  0.67901341  0.58223468  1
  C  C107  1  0.12301308  0.46247668  0.57576886  1
  C  C108  1  0.29867422  0.80770408  0.25862517  1
  C  C109  1  0.52782198  0.70033087  0.25372777  1
  C  C110  1  0.17547118  0.47144480  0.25151237  1
  C  C111  1  0.29597261  0.47144480  0.75151237  1
  C  C112  1  0.17250790  0.70033087  0.75372777  1
  C  C113  1  0.50902887  0.80770408  0.75862517  1
