# generated using pymatgen
data_Cu6Ni2C3
_symmetry_space_group_name_H-M   'P 1'
_cell_length_a   7.01947734
_cell_length_b   7.01947734
_cell_length_c   7.01947742
_cell_angle_alpha   43.90909710
_cell_angle_beta   43.90909713
_cell_angle_gamma   43.90910550
_symmetry_Int_Tables_number   1
_chemical_formula_structural   Cu6Ni2C3
_chemical_formula_sum   'Cu6 Ni2 C3'
_cell_volume   151.06409041
_cell_formula_units_Z   1
loop_
 _symmetry_equiv_pos_site_id
 _symmetry_equiv_pos_as_xyz
  1  'x, y, z'
loop_
 _atom_site_type_symbol
 _atom_site_label
 _atom_site_symmetry_multiplicity
 _atom_site_fract_x
 _atom_site_fract_y
 _atom_site_fract_z
 _atom_site_occupancy
  C  C0  1  0.92400464  0.92400464  0.92400464  1
  C  C1  1  0.07075965  0.07075965  0.07075965  1
  C  C2  1  0.48556489  0.48556489  0.48556489  1
  Ni  Ni3  1  0.23702411  0.23702411  0.23702411  1
  Ni  Ni4  1  0.73512841  0.73512841  0.73512841  1
  Cu  Cu5  1  0.20385464  0.00638661  0.49762815  1
  Cu  Cu6  1  0.00538614  0.52019598  0.67864977  1
  Cu  Cu7  1  0.52019598  0.67864977  0.00538614  1
  Cu  Cu8  1  0.49762815  0.20385464  0.00638661  1
  Cu  Cu9  1  0.00638661  0.49762815  0.20385464  1
  Cu  Cu10  1  0.67864977  0.00538614  0.52019598  1
