# generated using pymatgen
data_Cu9NiC7
_symmetry_space_group_name_H-M   'P 1'
_cell_length_a   6.61706000
_cell_length_b   11.60022900
_cell_length_c   11.68033100
_cell_angle_alpha   90.00000000
_cell_angle_beta   90.00000000
_cell_angle_gamma   90.00000000
_symmetry_Int_Tables_number   1
_chemical_formula_structural   Cu9NiC7
_chemical_formula_sum   'Cu36 Ni4 C28'
_cell_volume   896.57533143
_cell_formula_units_Z   4
loop_
 _symmetry_equiv_pos_site_id
 _symmetry_equiv_pos_as_xyz
  1  'x, y, z'
loop_
 _atom_site_type_symbol
 _atom_site_label
 _atom_site_symmetry_multiplicity
 _atom_site_fract_x
 _atom_site_fract_y
 _atom_site_fract_z
 _atom_site_occupancy
  C  C0  1  0.51797400  0.00580200  0.74938100  1
  C  C1  1  0.51797400  0.99419800  0.25061900  1
  C  C2  1  0.01797400  0.49419800  0.24938100  1
  C  C3  1  0.01797400  0.50580200  0.75061900  1
  C  C4  1  0.18274000  0.26698900  0.95788300  1
  C  C5  1  0.18274000  0.73301100  0.04211700  1
  C  C6  1  0.68274000  0.23301100  0.45788300  1
  C  C7  1  0.68274000  0.76698900  0.54211700  1
  C  C8  1  0.96194100  0.28364400  0.78720500  1
  C  C9  1  0.96194100  0.71635600  0.21279500  1
  C  C10  1  0.46194100  0.21635600  0.28720500  1
  C  C11  1  0.46194100  0.78364400  0.71279500  1
  C  C12  1  0.64598100  0.20151700  0.68103600  1
  C  C13  1  0.64598100  0.79848300  0.31896400  1
  C  C14  1  0.14598100  0.29848300  0.18103600  1
  C  C15  1  0.14598100  0.70151700  0.81896400  1
  C  C16  1  0.29491400  0.17933400  0.77080100  1
  C  C17  1  0.29491400  0.82066600  0.22919900  1
  C  C18  1  0.79491400  0.32066600  0.27080100  1
  C  C19  1  0.79491400  0.67933400  0.72919900  1
  C  C20  1  0.16399100  0.26299000  0.52735600  1
  C  C21  1  0.16399100  0.73701000  0.47264400  1
  C  C22  1  0.66399100  0.23701000  0.02735600  1
  C  C23  1  0.66399100  0.76299000  0.97264400  1
  C  C24  1  0.49777700  0.45751300  0.75648400  1
  C  C25  1  0.49777700  0.54248700  0.24351600  1
  C  C26  1  0.99777700  0.04248700  0.25648400  1
  C  C27  1  0.99777700  0.95751300  0.74351600  1
  Ni  Ni28  1  0.14531100  0.00000000  0.50000000  1
  Ni  Ni29  1  0.64531100  0.50000000  0.00000000  1
  Ni  Ni30  1  0.39550000  0.50000000  0.50000000  1
  Ni  Ni31  1  0.89550000  0.00000000  0.00000000  1
  Cu  Cu32  1  0.05704400  0.39028600  0.73648800  1
  Cu  Cu33  1  0.05704400  0.60971400  0.26351200  1
  Cu  Cu34  1  0.55704400  0.10971400  0.23648800  1
  Cu  Cu35  1  0.55704400  0.89028600  0.76351200  1
  Cu  Cu36  1  0.99119300  0.28745500  0.91593400  1
  Cu  Cu37  1  0.99119300  0.71254500  0.08406600  1
  Cu  Cu38  1  0.49119300  0.21254500  0.41593400  1
  Cu  Cu39  1  0.49119300  0.78745500  0.58406600  1
  Cu  Cu40  1  0.42620900  0.22992500  0.68101900  1
  Cu  Cu41  1  0.42620900  0.77007500  0.31898100  1
  Cu  Cu42  1  0.92620900  0.27007500  0.18101900  1
  Cu  Cu43  1  0.92620900  0.72992500  0.81898100  1
  Cu  Cu44  1  0.33572300  0.23631100  0.88201600  1
  Cu  Cu45  1  0.33572300  0.76368900  0.11798400  1
  Cu  Cu46  1  0.83572300  0.26368900  0.38201600  1
  Cu  Cu47  1  0.83572300  0.73631100  0.61798400  1
  Cu  Cu48  1  0.33516000  0.05261900  0.78130600  1
  Cu  Cu49  1  0.33516000  0.94738100  0.21869400  1
  Cu  Cu50  1  0.83516000  0.44738100  0.28130600  1
  Cu  Cu51  1  0.83516000  0.55261900  0.71869400  1
  Cu  Cu52  1  0.73998100  0.22449500  0.56947500  1
  Cu  Cu53  1  0.73998100  0.77550500  0.43052500  1
  Cu  Cu54  1  0.23998100  0.27550500  0.06947500  1
  Cu  Cu55  1  0.23998100  0.72449500  0.93052500  1
  Cu  Cu56  1  0.74586500  0.27392400  0.76833200  1
  Cu  Cu57  1  0.74586500  0.72607600  0.23166800  1
  Cu  Cu58  1  0.24586500  0.22607600  0.26833200  1
  Cu  Cu59  1  0.24586500  0.77392400  0.73166800  1
  Cu  Cu60  1  0.67054200  0.07543500  0.70864900  1
  Cu  Cu61  1  0.67054200  0.92456500  0.29135100  1
  Cu  Cu62  1  0.17054200  0.42456500  0.20864900  1
  Cu  Cu63  1  0.17054200  0.57543500  0.79135100  1
  Cu  Cu64  1  0.08072900  0.18741900  0.73783800  1
  Cu  Cu65  1  0.08072900  0.81258100  0.26216200  1
  Cu  Cu66  1  0.58072900  0.31258100  0.23783800  1
  Cu  Cu67  1  0.58072900  0.68741900  0.76216200  1
