# generated using pymatgen
data_Cu2NiC6
_symmetry_space_group_name_H-M   'P 1'
_cell_length_a   5.70539300
_cell_length_b   7.23371500
_cell_length_c   12.26568800
_cell_angle_alpha   90.00000000
_cell_angle_beta   90.00000000
_cell_angle_gamma   90.00000000
_symmetry_Int_Tables_number   1
_chemical_formula_structural   Cu2NiC6
_chemical_formula_sum   'Cu8 Ni4 C24'
_cell_volume   506.21950221
_cell_formula_units_Z   4
loop_
 _symmetry_equiv_pos_site_id
 _symmetry_equiv_pos_as_xyz
  1  'x, y, z'
loop_
 _atom_site_type_symbol
 _atom_site_label
 _atom_site_symmetry_multiplicity
 _atom_site_fract_x
 _atom_site_fract_y
 _atom_site_fract_z
 _atom_site_occupancy
  Ni  Ni0  1  0.25000000  0.56654100  0.40392800  1
  Ni  Ni1  1  0.75000000  0.43345900  0.59607200  1
  Ni  Ni2  1  0.75000000  0.06654100  0.09607200  1
  Ni  Ni3  1  0.25000000  0.93345900  0.90392800  1
  Cu  Cu4  1  0.25000000  0.10424900  0.57369400  1
  Cu  Cu5  1  0.75000000  0.89575100  0.42630600  1
  Cu  Cu6  1  0.75000000  0.60424900  0.92630600  1
  Cu  Cu7  1  0.25000000  0.39575100  0.07369400  1
  Cu  Cu8  1  0.25000000  0.38879000  0.78679900  1
  Cu  Cu9  1  0.75000000  0.61121000  0.21320100  1
  Cu  Cu10  1  0.75000000  0.88879000  0.71320100  1
  Cu  Cu11  1  0.25000000  0.11121000  0.28679900  1
  C  C12  1  0.25000000  0.78026900  0.16066200  1
  C  C13  1  0.75000000  0.21973100  0.83933800  1
  C  C14  1  0.75000000  0.28026900  0.33933800  1
  C  C15  1  0.25000000  0.71973100  0.66066200  1
  C  C16  1  0.25000000  0.41698900  0.59941600  1
  C  C17  1  0.75000000  0.58301100  0.40058400  1
  C  C18  1  0.75000000  0.91698900  0.90058400  1
  C  C19  1  0.25000000  0.08301100  0.09941600  1
  C  C20  1  0.00372200  0.85337500  0.27197700  1
  C  C21  1  0.50372200  0.14662500  0.72802300  1
  C  C22  1  0.99627800  0.35337500  0.22802300  1
  C  C23  1  0.49627800  0.64662500  0.77197700  1
  C  C24  1  0.99627800  0.14662500  0.72802300  1
  C  C25  1  0.49627800  0.85337500  0.27197700  1
  C  C26  1  0.00372200  0.64662500  0.77197700  1
  C  C27  1  0.50372200  0.35337500  0.22802300  1
  C  C28  1  0.49459100  0.66052000  0.06834500  1
  C  C29  1  0.99459100  0.33948000  0.93165500  1
  C  C30  1  0.50540900  0.16051900  0.43165500  1
  C  C31  1  0.00540900  0.83948000  0.56834500  1
  C  C32  1  0.99459100  0.16051900  0.43165500  1
  C  C33  1  0.49459100  0.83948000  0.56834500  1
  C  C34  1  0.00540900  0.66052000  0.06834500  1
  C  C35  1  0.50540900  0.33948000  0.93165500  1
