# generated using pymatgen
data_Cu16NiC33
_symmetry_space_group_name_H-M   'P 1'
_cell_length_a   5.89300972
_cell_length_b   9.70949640
_cell_length_c   10.26226020
_cell_angle_alpha   88.61393084
_cell_angle_beta   89.60901479
_cell_angle_gamma   90.18288507
_symmetry_Int_Tables_number   1
_chemical_formula_structural   Cu16NiC33
_chemical_formula_sum   'Cu16 Ni1 C33'
_cell_volume   586.99882386
_cell_formula_units_Z   1
loop_
 _symmetry_equiv_pos_site_id
 _symmetry_equiv_pos_as_xyz
  1  'x, y, z'
loop_
 _atom_site_type_symbol
 _atom_site_label
 _atom_site_symmetry_multiplicity
 _atom_site_fract_x
 _atom_site_fract_y
 _atom_site_fract_z
 _atom_site_occupancy
  C  C0  1  0.01273700  0.49497500  0.50275200  1
  Ni  Ni1  1  0.74654000  0.98062300  0.85699100  1
  Cu  Cu2  1  0.49713900  0.17102200  0.35260500  1
  Cu  Cu3  1  0.99567700  0.16886200  0.34957700  1
  Cu  Cu4  1  0.50674100  0.34204300  0.84003000  1
  Cu  Cu5  1  0.00460700  0.34196900  0.84264400  1
  Cu  Cu6  1  0.00028300  0.65768500  0.16061200  1
  Cu  Cu7  1  0.50056000  0.65570200  0.16276400  1
  Cu  Cu8  1  0.99812800  0.82916400  0.64317400  1
  Cu  Cu9  1  0.49691100  0.82556700  0.64116300  1
  Cu  Cu10  1  0.75016200  0.66660600  0.85036000  1
  Cu  Cu11  1  0.25035900  0.67731200  0.85723400  1
  Cu  Cu12  1  0.74924200  0.84458900  0.33509400  1
  Cu  Cu13  1  0.24969400  0.84572100  0.33472800  1
  Cu  Cu14  1  0.74869300  0.16406700  0.65271600  1
  Cu  Cu15  1  0.24781000  0.14742500  0.66648300  1
  Cu  Cu16  1  0.75058800  0.33123400  0.14711400  1
  Cu  Cu17  1  0.25074600  0.33013500  0.14628700  1
  C  C18  1  0.74581800  0.95796000  0.64804100  1
  C  C19  1  0.24976900  0.95241600  0.64022600  1
  C  C20  1  0.75023200  0.68581000  0.04130300  1
  C  C21  1  0.25259700  0.68574000  0.04490500  1
  C  C22  1  0.75193300  0.31804500  0.96084800  1
  C  C23  1  0.25595300  0.31655700  0.96080500  1
  C  C24  1  0.74595700  0.04195600  0.34857900  1
  C  C25  1  0.24843100  0.04247000  0.34908000  1
  C  C26  1  0.00122800  0.45908500  0.15107500  1
  C  C27  1  0.50064600  0.45873800  0.15043200  1
  C  C28  1  0.99352200  0.18553800  0.53434800  1
  C  C29  1  0.49681200  0.18356400  0.54010200  1
  C  C30  1  0.49801200  0.81512200  0.45413200  1
  C  C31  1  0.99879200  0.81401400  0.45486300  1
  C  C32  1  0.50476900  0.54016600  0.85119600  1
  C  C33  1  0.00219100  0.54703800  0.85169800  1
  C  C34  1  0.51351100  0.81431300  0.83458300  1
  C  C35  1  0.97405200  0.81894700  0.83528400  1
  C  C36  1  0.00017800  0.85225200  0.21002900  1
  C  C37  1  0.50184300  0.85054600  0.20981600  1
  C  C38  1  0.99925800  0.19946700  0.15776500  1
  C  C39  1  0.50069500  0.19875500  0.16213900  1
  C  C40  1  0.52998800  0.13830800  0.79579200  1
  C  C41  1  0.98093600  0.13270300  0.78683100  1
  C  C42  1  0.74962400  0.30270700  0.33730800  1
  C  C43  1  0.24620400  0.30258600  0.33721500  1
  C  C44  1  0.75456500  0.35090900  0.70989700  1
  C  C45  1  0.25316000  0.34106500  0.71644300  1
  C  C46  1  0.75064200  0.69471400  0.65762500  1
  C  C47  1  0.24442000  0.69800800  0.66225900  1
  C  C48  1  0.75055100  0.65057500  0.28843000  1
  C  C49  1  0.24709200  0.65088200  0.28846800  1
