# generated using pymatgen
data_Cu9Ni3C58
_symmetry_space_group_name_H-M   'P 1'
_cell_length_a   18.04563883
_cell_length_b   9.05391525
_cell_length_c   23.53339230
_cell_angle_alpha   89.92372542
_cell_angle_beta   90.03088691
_cell_angle_gamma   120.16882312
_symmetry_Int_Tables_number   1
_chemical_formula_structural   Cu9Ni3C58
_chemical_formula_sum   'Cu27 Ni9 C174'
_cell_volume   3324.16165728
_cell_formula_units_Z   3
loop_
 _symmetry_equiv_pos_site_id
 _symmetry_equiv_pos_as_xyz
  1  'x, y, z'
loop_
 _atom_site_type_symbol
 _atom_site_label
 _atom_site_symmetry_multiplicity
 _atom_site_fract_x
 _atom_site_fract_y
 _atom_site_fract_z
 _atom_site_occupancy
  C  C0  1  0.99853074  0.99783214  0.49985863  1
  C  C1  1  0.49889184  0.00140576  0.99623737  1
  C  C2  1  0.33398652  0.33360728  0.83576581  1
  C  C3  1  0.82876112  0.33300561  0.83312101  1
  C  C4  1  0.33848858  0.34076311  0.33789961  1
  C  C5  1  0.83188521  0.32942699  0.33918520  1
  C  C6  1  0.99903099  0.99846391  0.35464741  1
  C  C7  1  0.50333002  0.00671229  0.85085985  1
  C  C8  1  0.99994955  0.99900040  0.64750493  1
  C  C9  1  0.50004172  0.00180872  0.14791145  1
  C  C10  1  0.32465807  0.32751625  0.98212736  1
  C  C11  1  0.84216518  0.33900039  0.98324644  1
  C  C12  1  0.34070214  0.34866841  0.48396098  1
  C  C13  1  0.82670385  0.32343952  0.48317294  1
  C  C14  1  0.16156042  0.66361504  0.30765241  1
  C  C15  1  0.67065883  0.66802230  0.30747684  1
  C  C16  1  0.17258685  0.67557811  0.80735658  1
  C  C17  1  0.66035721  0.64911686  0.80380591  1
  C  C18  1  0.50022529  0.01016270  0.35420593  1
  C  C19  1  0.00010235  0.98890743  0.85145738  1
  C  C20  1  0.50484978  0.01057659  0.64311316  1
  C  C21  1  0.99928828  0.99885025  0.14230891  1
  C  C22  1  0.33752284  0.33934016  0.67953861  1
  C  C23  1  0.82997432  0.33067826  0.68856111  1
  C  C24  1  0.33691881  0.33636791  0.18402815  1
  C  C25  1  0.83391817  0.33180017  0.17871819  1
  C  C26  1  0.16106578  0.64974272  0.02388737  1
  C  C27  1  0.67215875  0.67454663  0.02066413  1
  C  C28  1  0.17064376  0.66669293  0.52395487  1
  C  C29  1  0.66368453  0.67412369  0.52635518  1
  Ni  Ni30  1  0.49565257  0.28963976  0.24791650  1
  Ni  Ni31  1  0.64282925  0.28171512  0.75004763  1
  Ni  Ni32  1  0.99761195  0.69947804  0.74598206  1
  Ni  Ni33  1  0.47935731  0.32956312  0.58045897  1
  Ni  Ni34  1  0.68912689  0.04601341  0.58487800  1
  Ni  Ni35  1  0.33497729  0.63061707  0.58499258  1
  Ni  Ni36  1  0.97995348  0.62981921  0.08170217  1
  Ni  Ni37  1  0.83157522  0.03691647  0.08345983  1
  Ni  Ni38  1  0.18825927  0.33363848  0.08548001  1
  Cu  Cu39  1  0.14826923  0.01424931  0.24557479  1
  Cu  Cu40  1  0.64940041  0.01874173  0.25191366  1
  Cu  Cu41  1  0.35825220  0.70067230  0.25121348  1
  Cu  Cu42  1  0.85927902  0.70159358  0.24558508  1
  Cu  Cu43  1  0.99123237  0.28243539  0.24573900  1
  Cu  Cu44  1  0.14926571  0.28052041  0.75172650  1
  Cu  Cu45  1  0.49106739  0.70161874  0.74596085  1
  Cu  Cu46  1  0.35773515  0.01555335  0.74473114  1
  Cu  Cu47  1  0.85969859  0.01612106  0.75182115  1
  Cu  Cu48  1  0.98342181  0.34325470  0.58131460  1
  Cu  Cu49  1  0.18869375  0.03696135  0.58015991  1
  Cu  Cu50  1  0.82945300  0.62243954  0.58115297  1
  Cu  Cu51  1  0.48334729  0.61903205  0.08175344  1
  Cu  Cu52  1  0.32865556  0.03619650  0.08110981  1
  Cu  Cu53  1  0.68932090  0.34080529  0.08026795  1
  Cu  Cu54  1  0.31141416  0.67331157  0.92044540  1
  Cu  Cu55  1  0.81395311  0.67799941  0.91514615  1
  Cu  Cu56  1  0.02578088  0.37264802  0.91508262  1
  Cu  Cu57  1  0.52348421  0.37852339  0.92089651  1
  Cu  Cu58  1  0.16175129  0.95181886  0.91500481  1
  Cu  Cu59  1  0.66478687  0.95063059  0.91895327  1
  Cu  Cu60  1  0.31344920  0.95126673  0.41482731  1
  Cu  Cu61  1  0.81117584  0.95042633  0.41981828  1
  Cu  Cu62  1  0.16532752  0.38117734  0.41934024  1
  Cu  Cu63  1  0.66336916  0.37254804  0.41474411  1
  Cu  Cu64  1  0.02415435  0.66930792  0.41983732  1
  Cu  Cu65  1  0.52588761  0.67908406  0.41504760  1
  C  C66  1  0.11903990  0.05215403  0.29864436  1
  C  C67  1  0.60091906  0.03700037  0.30326252  1
  C  C68  1  0.41542937  0.78665036  0.30260534  1
  C  C69  1  0.90835966  0.76120119  0.29847515  1
  C  C70  1  0.48156824  0.15092257  0.30684096  1
  C  C71  1  0.97488543  0.18714466  0.29888371  1
  C  C72  1  0.09913192  0.16299902  0.80358387  1
  C  C73  1  0.61913950  0.17583462  0.80783754  1
  C  C74  1  0.47108982  0.75669380  0.79938089  1
  C  C75  1  0.98164930  0.80997161  0.80659890  1
  C  C76  1  0.40581747  0.05540967  0.79828094  1
  C  C77  1  0.91821016  0.04167853  0.80351198  1
  C  C78  1  0.40508741  0.00155147  0.69644813  1
  C  C79  1  0.89560833  0.99399066  0.70048290  1
  C  C80  1  0.10023503  0.21122289  0.70047397  1
  C  C81  1  0.58040931  0.16261500  0.69790477  1
  C  C82  1  0.00618300  0.81363464  0.69410220  1
  C  C83  1  0.49588211  0.80564404  0.69732457  1
  C  C84  1  0.39448938  0.79534146  0.19949276  1
  C  C85  1  0.90993537  0.81568343  0.19775004  1
  C  C86  1  0.99844345  0.18552781  0.19755090  1
  C  C87  1  0.50292326  0.19718004  0.19426153  1
  C  C88  1  0.09086974  0.99788229  0.19797727  1
  C  C89  1  0.60046966  0.99026507  0.20043543  1
  C  C90  1  0.42859193  0.36379181  0.63612737  1
  C  C91  1  0.94587557  0.37366023  0.63294009  1
  C  C92  1  0.24306917  0.11691203  0.63246105  1
  C  C93  1  0.75857430  0.14306426  0.63761900  1
  C  C94  1  0.31239429  0.48706625  0.63871611  1
  C  C95  1  0.81695925  0.51380847  0.63260763  1
  C  C96  1  0.43993304  0.50724481  0.13477808  1
  C  C97  1  0.92764184  0.49193748  0.13685903  1
  C  C98  1  0.31817511  0.12710238  0.13319699  1
  C  C99  1  0.81241808  0.13509097  0.13868912  1
  C  C100  1  0.25612867  0.36966900  0.13952901  1
  C  C101  1  0.74466910  0.36608547  0.13323753  1
  C  C102  1  0.21631019  0.28248763  0.03000887  1
  C  C103  1  0.72760569  0.31507154  0.03054792  1
  C  C104  1  0.43058241  0.54193675  0.03246956  1
  C  C105  1  0.92304475  0.57234663  0.02779961  1
  C  C106  1  0.34551514  0.14172571  0.03134013  1
  C  C107  1  0.85529725  0.14734761  0.02881724  1
  C  C108  1  0.22677022  0.13714507  0.52953998  1
  C  C109  1  0.71732260  0.14801059  0.52794670  1
  C  C110  1  0.35309422  0.56396960  0.52876257  1
  C  C111  1  0.84501410  0.55090521  0.53051449  1
  C  C112  1  0.42442597  0.28394493  0.52565078  1
  C  C113  1  0.93311065  0.31880252  0.53048582  1
  C  C114  1  0.25743615  0.67763546  0.97133429  1
  C  C115  1  0.77016573  0.69521691  0.96947327  1
  C  C116  1  0.07782895  0.46327795  0.97040316  1
  C  C117  1  0.58051680  0.48462261  0.97224909  1
  C  C118  1  0.14821515  0.84769776  0.96736068  1
  C  C119  1  0.66468206  0.83973391  0.97225018  1
  C  C120  1  0.27181019  0.84736805  0.46767210  1
  C  C121  1  0.75891430  0.83960137  0.47039835  1
  C  C122  1  0.16361001  0.48603486  0.47119290  1
  C  C123  1  0.64877669  0.44675072  0.46655314  1
  C  C124  1  0.07988927  0.67734896  0.47028776  1
  C  C125  1  0.57691761  0.69680237  0.46920325  1
  C  C126  1  0.06392437  0.65814212  0.36693419  1
  C  C127  1  0.56870911  0.65945491  0.36629390  1
  C  C128  1  0.26256660  0.86776901  0.36444910  1
  C  C129  1  0.76664290  0.87190781  0.36712686  1
  C  C130  1  0.17016418  0.47481495  0.36758392  1
  C  C131  1  0.67308345  0.47034894  0.36381184  1
  C  C132  1  0.06976149  0.48055889  0.86723321  1
  C  C133  1  0.56353385  0.47162833  0.86906701  1
  C  C134  1  0.17266097  0.87369091  0.86472641  1
  C  C135  1  0.66991928  0.86549060  0.86840213  1
  C  C136  1  0.26627535  0.66123061  0.86816231  1
  C  C137  1  0.76173214  0.65963498  0.86610808  1
  C  C138  1  0.02051088  0.82925977  0.42203647  1
  C  C139  1  0.52036993  0.84069067  0.40741803  1
  C  C140  1  0.40039573  0.95657726  0.40733777  1
  C  C141  1  0.89555997  0.95918189  0.42319938  1
  C  C142  1  0.08432397  0.21556861  0.42308934  1
  C  C143  1  0.58083579  0.19143540  0.40579309  1
  C  C144  1  0.02160267  0.20327522  0.91025284  1
  C  C145  1  0.52008183  0.21272049  0.92495339  1
  C  C146  1  0.08006246  0.96748430  0.90625705  1
  C  C147  1  0.58330901  0.94882411  0.92585921  1
  C  C148  1  0.39486277  0.83261777  0.92477684  1
  C  C149  1  0.89990612  0.84519246  0.90905773  1
  C  C150  1  0.49850989  0.18115930  0.60120745  1
  C  C151  1  0.00190977  0.20462615  0.58766527  1
  C  C152  1  0.10162396  0.00395071  0.58780036  1
  C  C153  1  0.59202042  0.99681530  0.60341692  1
  C  C154  1  0.40686764  0.81419157  0.60826782  1
  C  C155  1  0.89809254  0.79906308  0.58842842  1
  C  C156  1  0.49843940  0.79104274  0.09120465  1
  C  C157  1  0.00060703  0.81783193  0.10555098  1
  C  C158  1  0.39812377  0.00017569  0.09000360  1
  C  C159  1  0.90683247  0.99900736  0.10614625  1
  C  C160  1  0.09193666  0.18460766  0.10672428  1
  C  C161  1  0.60294635  0.19783811  0.08918165  1
  C  C162  1  0.34460859  0.16920317  0.73332365  1
  C  C163  1  0.85661432  0.18209042  0.74750696  1
  C  C164  1  0.23329172  0.28103828  0.74849586  1
  C  C165  1  0.74023356  0.30121451  0.73159181  1
  C  C166  1  0.41088541  0.51684119  0.73619407  1
  C  C167  1  0.90609544  0.51208577  0.73836117  1
  C  C168  1  0.35325434  0.52524779  0.24480341  1
  C  C169  1  0.84694435  0.52448673  0.23358533  1
  C  C170  1  0.40235458  0.29463455  0.23880299  1
  C  C171  1  0.91124323  0.30065340  0.23553867  1
  C  C172  1  0.23659804  0.16952982  0.23309055  1
  C  C173  1  0.73462572  0.18729813  0.24714263  1
  C  C174  1  0.32122319  0.52233452  0.92525551  1
  C  C175  1  0.82855432  0.53549419  0.92195164  1
  C  C176  1  0.43830562  0.36018511  0.92657890  1
  C  C177  1  0.93962874  0.34704551  0.92083388  1
  C  C178  1  0.23372432  0.12689321  0.92023707  1
  C  C179  1  0.73970933  0.12086738  0.92497918  1
  C  C180  1  0.32954524  0.12512223  0.41995355  1
  C  C181  1  0.82222149  0.12223359  0.42376367  1
  C  C182  1  0.24018084  0.35976669  0.42324992  1
  C  C183  1  0.73469434  0.33974814  0.41926562  1
  C  C184  1  0.43833955  0.53409464  0.41954433  1
  C  C185  1  0.93833883  0.51781032  0.42419802  1
  C  C186  1  0.17824707  0.50676226  0.07225353  1
  C  C187  1  0.68516020  0.50327456  0.07336412  1
  C  C188  1  0.07408781  0.64404292  0.06981524  1
  C  C189  1  0.56919196  0.62809565  0.07470976  1
  C  C190  1  0.24582540  0.86767615  0.07339664  1
  C  C191  1  0.74559444  0.84393690  0.07191413  1
  C  C192  1  0.18342741  0.86342870  0.57152858  1
  C  C193  1  0.68053287  0.85195092  0.57228371  1
  C  C194  1  0.24636630  0.64702051  0.57152450  1
  C  C195  1  0.74628431  0.62756862  0.57131153  1
  C  C196  1  0.07203237  0.50840566  0.57161818  1
  C  C197  1  0.57401739  0.50618271  0.56909896  1
  C  C198  1  0.15812822  0.86475506  0.24771665  1
  C  C199  1  0.66667465  0.88248943  0.26327833  1
  C  C200  1  0.27242619  0.66964047  0.26182876  1
  C  C201  1  0.77589056  0.68769830  0.24678151  1
  C  C202  1  0.06578272  0.45324551  0.24700196  1
  C  C203  1  0.56689932  0.47401126  0.26358329  1
  C  C204  1  0.16494796  0.44952104  0.76398729  1
  C  C205  1  0.65770792  0.46906035  0.74587813  1
  C  C206  1  0.07060891  0.66527189  0.76363770  1
  C  C207  1  0.56543428  0.68016400  0.74810772  1
  C  C208  1  0.27312902  0.86463493  0.74724977  1
  C  C209  1  0.77434125  0.87623744  0.76388296  1
