# generated using pymatgen
data_Cu5(NiC)7
_symmetry_space_group_name_H-M   'P 1'
_cell_length_a   5.18421728
_cell_length_b   7.86871880
_cell_length_c   5.98456289
_cell_angle_alpha   102.05926098
_cell_angle_beta   97.17648758
_cell_angle_gamma   85.08647744
_symmetry_Int_Tables_number   1
_chemical_formula_structural   Cu5(NiC)7
_chemical_formula_sum   'Cu5 Ni7 C7'
_cell_volume   236.42485405
_cell_formula_units_Z   1
loop_
 _symmetry_equiv_pos_site_id
 _symmetry_equiv_pos_as_xyz
  1  'x, y, z'
loop_
 _atom_site_type_symbol
 _atom_site_label
 _atom_site_symmetry_multiplicity
 _atom_site_fract_x
 _atom_site_fract_y
 _atom_site_fract_z
 _atom_site_occupancy
  C  C0  1  0.00849865  0.34657218  0.83862117  1
  C  C1  1  0.55963603  0.66603540  0.09940421  1
  C  C2  1  0.56202560  0.04607169  0.46802087  1
  C  C3  1  0.50849369  0.29875816  0.91185687  1
  C  C4  1  0.91427622  0.69685701  0.62519278  1
  C  C5  1  0.01950910  0.32406135  0.35136023  1
  C  C6  1  0.94550491  0.98354842  0.01242282  1
  Ni  Ni7  1  0.76017556  0.77648765  0.91609017  1
  Ni  Ni8  1  0.77209353  0.12256505  0.26128820  1
  Ni  Ni9  1  0.77597048  0.12790208  0.77742690  1
  Ni  Ni10  1  0.67882523  0.79460293  0.41334767  1
  Ni  Ni11  1  0.77647323  0.44461783  0.09224421  1
  Ni  Ni12  1  0.29273934  0.51920971  0.93829645  1
  Ni  Ni13  1  0.29697654  0.21836325  0.60088796  1
  Cu  Cu14  1  0.78612000  0.45922674  0.61443414  1
  Cu  Cu15  1  0.27418502  0.91001445  0.20269099  1
  Cu  Cu16  1  0.23059565  0.20593209  0.06026955  1
  Cu  Cu17  1  0.17569500  0.56141557  0.44657970  1
  Cu  Cu18  1  0.16220723  0.87275444  0.75051811  1
