# generated using pymatgen
data_Cu3NiC2
_symmetry_space_group_name_H-M   'P 1'
_cell_length_a   11.72750700
_cell_length_b   13.89630800
_cell_length_c   16.75785800
_cell_angle_alpha   90.00000000
_cell_angle_beta   90.00000000
_cell_angle_gamma   90.00000000
_symmetry_Int_Tables_number   1
_chemical_formula_structural   Cu3NiC2
_chemical_formula_sum   'Cu48 Ni16 C32'
_cell_volume   2731.01218730
_cell_formula_units_Z   16
loop_
 _symmetry_equiv_pos_site_id
 _symmetry_equiv_pos_as_xyz
  1  'x, y, z'
loop_
 _atom_site_type_symbol
 _atom_site_label
 _atom_site_symmetry_multiplicity
 _atom_site_fract_x
 _atom_site_fract_y
 _atom_site_fract_z
 _atom_site_occupancy
  C  C0  1  0.61090500  0.93917700  0.43569900  1
  C  C1  1  0.11090500  0.06082300  0.06430100  1
  C  C2  1  0.88909500  0.43917700  0.56430100  1
  C  C3  1  0.38909500  0.56082300  0.93569900  1
  C  C4  1  0.38909500  0.06082300  0.56430100  1
  C  C5  1  0.88909500  0.93917700  0.93569900  1
  C  C6  1  0.11090500  0.56082300  0.43569900  1
  C  C7  1  0.61090500  0.43917700  0.06430100  1
  C  C8  1  0.66407700  0.75055700  0.19685800  1
  C  C9  1  0.16407700  0.24944300  0.30314200  1
  C  C10  1  0.83592300  0.25055700  0.80314200  1
  C  C11  1  0.33592300  0.74944300  0.69685800  1
  C  C12  1  0.33592300  0.24944300  0.80314200  1
  C  C13  1  0.83592300  0.75055700  0.69685800  1
  C  C14  1  0.16407700  0.74944300  0.19685800  1
  C  C15  1  0.66407700  0.25055700  0.30314200  1
  C  C16  1  0.39980800  0.83815500  0.04490400  1
  C  C17  1  0.89980800  0.16184500  0.45509600  1
  C  C18  1  0.10019200  0.33815500  0.95509600  1
  C  C19  1  0.60019200  0.66184500  0.54490400  1
  C  C20  1  0.60019200  0.16184500  0.95509600  1
  C  C21  1  0.10019200  0.83815500  0.54490400  1
  C  C22  1  0.89980800  0.66184500  0.04490400  1
  C  C23  1  0.39980800  0.33815500  0.45509600  1
  C  C24  1  0.57003700  0.93799500  0.80886500  1
  C  C25  1  0.07003700  0.06200500  0.69113500  1
  C  C26  1  0.92996300  0.43799500  0.19113500  1
  C  C27  1  0.42996300  0.56200500  0.30886500  1
  C  C28  1  0.42996300  0.06200500  0.19113500  1
  C  C29  1  0.92996300  0.93799500  0.30886500  1
  C  C30  1  0.07003700  0.56200500  0.80886500  1
  C  C31  1  0.57003700  0.43799500  0.69113500  1
  Ni  Ni32  1  0.29198000  0.85134300  0.37693300  1
  Ni  Ni33  1  0.79198000  0.14865700  0.12306700  1
  Ni  Ni34  1  0.20802000  0.35134300  0.62306700  1
  Ni  Ni35  1  0.70802000  0.64865700  0.87693300  1
  Ni  Ni36  1  0.70802000  0.14865700  0.62306700  1
  Ni  Ni37  1  0.20802000  0.85134300  0.87693300  1
  Ni  Ni38  1  0.79198000  0.64865700  0.37693300  1
  Ni  Ni39  1  0.29198000  0.35134300  0.12306700  1
  Ni  Ni40  1  0.75575700  0.98973500  0.63017100  1
  Ni  Ni41  1  0.25575700  0.01026500  0.86982900  1
  Ni  Ni42  1  0.74424300  0.48973500  0.36982900  1
  Ni  Ni43  1  0.24424300  0.51026500  0.13017100  1
  Ni  Ni44  1  0.24424300  0.01026500  0.36982900  1
  Ni  Ni45  1  0.74424300  0.98973500  0.13017100  1
  Ni  Ni46  1  0.25575700  0.51026500  0.63017100  1
  Ni  Ni47  1  0.75575700  0.48973500  0.86982900  1
  Cu  Cu48  1  0.60805600  0.91136700  0.62540700  1
  Cu  Cu49  1  0.10805600  0.08863300  0.87459300  1
  Cu  Cu50  1  0.89194400  0.41136700  0.37459300  1
  Cu  Cu51  1  0.39194400  0.58863300  0.12540700  1
  Cu  Cu52  1  0.39194400  0.08863300  0.37459300  1
  Cu  Cu53  1  0.89194400  0.91136700  0.12540700  1
  Cu  Cu54  1  0.10805600  0.58863300  0.62540700  1
  Cu  Cu55  1  0.60805600  0.41136700  0.87459300  1
  Cu  Cu56  1  0.36447700  0.78420900  0.87471500  1
  Cu  Cu57  1  0.86447700  0.21579100  0.62528500  1
  Cu  Cu58  1  0.13552300  0.28420900  0.12528500  1
  Cu  Cu59  1  0.63552300  0.71579100  0.37471500  1
  Cu  Cu60  1  0.63552300  0.21579100  0.12528500  1
  Cu  Cu61  1  0.13552300  0.78420900  0.37471500  1
  Cu  Cu62  1  0.86447700  0.71579100  0.87471500  1
  Cu  Cu63  1  0.36447700  0.28420900  0.62528500  1
  Cu  Cu64  1  0.38453500  0.81909400  0.27870600  1
  Cu  Cu65  1  0.88453500  0.18090600  0.22129400  1
  Cu  Cu66  1  0.11546500  0.31909400  0.72129400  1
  Cu  Cu67  1  0.61546500  0.68090600  0.77870600  1
  Cu  Cu68  1  0.61546500  0.18090600  0.72129400  1
  Cu  Cu69  1  0.11546500  0.81909400  0.77870600  1
  Cu  Cu70  1  0.88453500  0.68090600  0.27870600  1
  Cu  Cu71  1  0.38453500  0.31909400  0.22129400  1
  Cu  Cu72  1  0.66412300  0.97107100  0.23717800  1
  Cu  Cu73  1  0.16412300  0.02892900  0.26282200  1
  Cu  Cu74  1  0.83587700  0.47107100  0.76282200  1
  Cu  Cu75  1  0.33587700  0.52892900  0.73717800  1
  Cu  Cu76  1  0.33587700  0.02892900  0.76282200  1
  Cu  Cu77  1  0.83587700  0.97107100  0.73717800  1
  Cu  Cu78  1  0.16412300  0.52892900  0.23717800  1
  Cu  Cu79  1  0.66412300  0.47107100  0.26282200  1
  Cu  Cu80  1  0.37132100  0.83624400  0.48364300  1
  Cu  Cu81  1  0.87132100  0.16375600  0.01635700  1
  Cu  Cu82  1  0.12867900  0.33624400  0.51635700  1
  Cu  Cu83  1  0.62867900  0.66375600  0.98364300  1
  Cu  Cu84  1  0.62867900  0.16375600  0.51635700  1
  Cu  Cu85  1  0.12867900  0.83624400  0.98364300  1
  Cu  Cu86  1  0.87132100  0.66375600  0.48364300  1
  Cu  Cu87  1  0.37132100  0.33624400  0.01635700  1
  Cu  Cu88  1  0.64213800  0.96377300  0.03462400  1
  Cu  Cu89  1  0.14213800  0.03622700  0.46537600  1
  Cu  Cu90  1  0.85786200  0.46377300  0.96537600  1
  Cu  Cu91  1  0.35786200  0.53622700  0.53462400  1
  Cu  Cu92  1  0.35786200  0.03622700  0.96537600  1
  Cu  Cu93  1  0.85786200  0.96377300  0.53462400  1
  Cu  Cu94  1  0.14213800  0.53622700  0.03462400  1
  Cu  Cu95  1  0.64213800  0.46377300  0.46537600  1
