# generated using pymatgen
data_Cu4NiC14
_symmetry_space_group_name_H-M   'P 1'
_cell_length_a   5.58689901
_cell_length_b   5.76424709
_cell_length_c   9.19965615
_cell_angle_alpha   108.24461694
_cell_angle_beta   107.63526709
_cell_angle_gamma   90.11743123
_symmetry_Int_Tables_number   1
_chemical_formula_structural   Cu4NiC14
_chemical_formula_sum   'Cu4 Ni1 C14'
_cell_volume   266.60986175
_cell_formula_units_Z   1
loop_
 _symmetry_equiv_pos_site_id
 _symmetry_equiv_pos_as_xyz
  1  'x, y, z'
loop_
 _atom_site_type_symbol
 _atom_site_label
 _atom_site_symmetry_multiplicity
 _atom_site_fract_x
 _atom_site_fract_y
 _atom_site_fract_z
 _atom_site_occupancy
  C  C0  1  0.62956800  0.12273200  0.27916900  1
  C  C1  1  0.40971400  0.86935000  0.83203700  1
  C  C2  1  0.07729500  0.53744500  0.16812400  1
  C  C3  1  0.85139000  0.34466000  0.72090100  1
  Ni  Ni4  1  0.23483900  0.83531200  0.50017400  1
  Cu  Cu5  1  0.99072300  0.98409300  0.99827900  1
  Cu  Cu6  1  0.49211400  0.48589600  0.00164200  1
  Cu  Cu7  1  0.24395800  0.33818600  0.50006800  1
  Cu  Cu8  1  0.73296600  0.72577000  0.49995200  1
  C  C9  1  0.22090600  0.22924000  0.96933800  1
  C  C10  1  0.26010200  0.75874500  0.02818900  1
  C  C11  1  0.73233600  0.23095500  0.97121000  1
  C  C12  1  0.75133400  0.76104400  0.03118200  1
  C  C13  1  0.11981000  0.17325200  0.25083700  1
  C  C14  1  0.86018500  0.81491400  0.74608200  1
  C  C15  1  0.61425500  0.56955100  0.25398100  1
  C  C16  1  0.36729700  0.42224700  0.74905600  1
  C  C17  1  0.97139200  0.05570900  0.49964000  1
  C  C18  1  0.50591300  0.05042500  0.50013800  1
