# generated using pymatgen
data_Cu3(Ni9C8)2
_symmetry_space_group_name_H-M   'P 1'
_cell_length_a   14.33583201
_cell_length_b   14.33583201
_cell_length_c   14.33583201
_cell_angle_alpha   90.00000000
_cell_angle_beta   90.00000000
_cell_angle_gamma   90.00000000
_symmetry_Int_Tables_number   1
_chemical_formula_structural   Cu3(Ni9C8)2
_chemical_formula_sum   'Cu24 Ni144 C128'
_cell_volume   2946.24398990
_cell_formula_units_Z   8
loop_
 _symmetry_equiv_pos_site_id
 _symmetry_equiv_pos_as_xyz
  1  'x, y, z'
loop_
 _atom_site_type_symbol
 _atom_site_label
 _atom_site_symmetry_multiplicity
 _atom_site_fract_x
 _atom_site_fract_y
 _atom_site_fract_z
 _atom_site_occupancy
  C  C0  1  0.00000000  -0.00000000  0.50000000  1
  C  C1  1  0.00000000  0.50000000  -0.00000000  1
  C  C2  1  0.50000000  -0.00000000  -0.00000000  1
  C  C3  1  0.50000000  0.50000000  0.50000000  1
  C  C4  1  0.50000000  0.50000000  -0.00000000  1
  C  C5  1  0.50000000  -0.00000000  0.50000000  1
  C  C6  1  0.00000000  0.50000000  0.50000000  1
  C  C7  1  0.00000000  -0.00000000  -0.00000000  1
  Ni  Ni8  1  0.46972260  0.75702699  0.39216711  1
  Ni  Ni9  1  0.53027740  0.25702699  0.10783289  1
  Ni  Ni10  1  0.03027740  0.24297301  0.89216711  1
  Ni  Ni11  1  0.96972260  0.74297301  0.60783289  1
  Ni  Ni12  1  0.39216711  0.46972260  0.75702699  1
  Ni  Ni13  1  0.10783289  0.53027740  0.25702699  1
  Ni  Ni14  1  0.89216711  0.03027740  0.24297301  1
  Ni  Ni15  1  0.60783289  0.96972260  0.74297301  1
  Ni  Ni16  1  0.75702699  0.39216711  0.46972260  1
  Ni  Ni17  1  0.25702699  0.10783289  0.53027740  1
  Ni  Ni18  1  0.24297301  0.89216711  0.03027740  1
  Ni  Ni19  1  0.74297301  0.60783289  0.96972260  1
  Ni  Ni20  1  0.53027740  0.24297301  0.60783289  1
  Ni  Ni21  1  0.46972260  0.74297301  0.89216711  1
  Ni  Ni22  1  0.96972260  0.75702699  0.10783289  1
  Ni  Ni23  1  0.03027740  0.25702699  0.39216711  1
  Ni  Ni24  1  0.60783289  0.53027740  0.24297301  1
  Ni  Ni25  1  0.89216711  0.46972260  0.74297301  1
  Ni  Ni26  1  0.10783289  0.96972260  0.75702699  1
  Ni  Ni27  1  0.39216711  0.03027740  0.25702699  1
  Ni  Ni28  1  0.24297301  0.60783289  0.53027740  1
  Ni  Ni29  1  0.74297301  0.89216711  0.46972260  1
  Ni  Ni30  1  0.75702699  0.10783289  0.96972260  1
  Ni  Ni31  1  0.25702699  0.39216711  0.03027740  1
  Ni  Ni32  1  0.47475223  0.64722068  0.33796002  1
  Ni  Ni33  1  0.52524777  0.14722068  0.16203998  1
  Ni  Ni34  1  0.02524777  0.35277932  0.83796002  1
  Ni  Ni35  1  0.97475223  0.85277932  0.66203998  1
  Ni  Ni36  1  0.33796002  0.47475223  0.64722068  1
  Ni  Ni37  1  0.16203998  0.52524777  0.14722068  1
  Ni  Ni38  1  0.83796002  0.02524777  0.35277932  1
  Ni  Ni39  1  0.66203998  0.97475223  0.85277932  1
  Ni  Ni40  1  0.64722068  0.33796002  0.47475223  1
  Ni  Ni41  1  0.14722068  0.16203998  0.52524777  1
  Ni  Ni42  1  0.35277932  0.83796002  0.02524777  1
  Ni  Ni43  1  0.85277932  0.66203998  0.97475223  1
  Ni  Ni44  1  0.52524777  0.35277932  0.66203998  1
  Ni  Ni45  1  0.47475223  0.85277932  0.83796002  1
  Ni  Ni46  1  0.97475223  0.64722068  0.16203998  1
  Ni  Ni47  1  0.02524777  0.14722068  0.33796002  1
  Ni  Ni48  1  0.66203998  0.52524777  0.35277932  1
  Ni  Ni49  1  0.83796002  0.47475223  0.85277932  1
  Ni  Ni50  1  0.16203998  0.97475223  0.64722068  1
  Ni  Ni51  1  0.33796002  0.02524777  0.14722068  1
  Ni  Ni52  1  0.35277932  0.66203998  0.52524777  1
  Ni  Ni53  1  0.85277932  0.83796002  0.47475223  1
  Ni  Ni54  1  0.64722068  0.16203998  0.97475223  1
  Ni  Ni55  1  0.14722068  0.33796002  0.02524777  1
  Ni  Ni56  1  0.49463053  0.64623351  0.16614082  1
  Ni  Ni57  1  0.50536947  0.14623351  0.33385918  1
  Ni  Ni58  1  0.00536947  0.35376649  0.66614082  1
  Ni  Ni59  1  0.99463053  0.85376649  0.83385918  1
  Ni  Ni60  1  0.16614082  0.49463053  0.64623351  1
  Ni  Ni61  1  0.33385918  0.50536947  0.14623351  1
  Ni  Ni62  1  0.66614082  0.00536947  0.35376649  1
  Ni  Ni63  1  0.83385918  0.99463053  0.85376649  1
  Ni  Ni64  1  0.64623351  0.16614082  0.49463053  1
  Ni  Ni65  1  0.14623351  0.33385918  0.50536947  1
  Ni  Ni66  1  0.35376649  0.66614082  0.00536947  1
  Ni  Ni67  1  0.85376649  0.83385918  0.99463053  1
  Ni  Ni68  1  0.50536947  0.35376649  0.83385918  1
  Ni  Ni69  1  0.49463053  0.85376649  0.66614082  1
  Ni  Ni70  1  0.99463053  0.64623351  0.33385918  1
  Ni  Ni71  1  0.00536947  0.14623351  0.16614082  1
  Ni  Ni72  1  0.83385918  0.50536947  0.35376649  1
  Ni  Ni73  1  0.66614082  0.49463053  0.85376649  1
  Ni  Ni74  1  0.33385918  0.99463053  0.64623351  1
  Ni  Ni75  1  0.16614082  0.00536947  0.14623351  1
  Ni  Ni76  1  0.35376649  0.83385918  0.50536947  1
  Ni  Ni77  1  0.85376649  0.66614082  0.49463053  1
  Ni  Ni78  1  0.64623351  0.33385918  0.99463053  1
  Ni  Ni79  1  0.14623351  0.16614082  0.00536947  1
  Ni  Ni80  1  0.50313167  0.75573186  0.11263719  1
  Ni  Ni81  1  0.49686833  0.25573186  0.38736281  1
  Ni  Ni82  1  0.99686833  0.24426814  0.61263719  1
  Ni  Ni83  1  0.00313167  0.74426814  0.88736281  1
  Ni  Ni84  1  0.11263719  0.50313167  0.75573186  1
  Ni  Ni85  1  0.38736281  0.49686833  0.25573186  1
  Ni  Ni86  1  0.61263719  0.99686833  0.24426814  1
  Ni  Ni87  1  0.88736281  0.00313167  0.74426814  1
  Ni  Ni88  1  0.75573186  0.11263719  0.50313167  1
  Ni  Ni89  1  0.25573186  0.38736281  0.49686833  1
  Ni  Ni90  1  0.24426814  0.61263719  0.99686833  1
  Ni  Ni91  1  0.74426814  0.88736281  0.00313167  1
  Ni  Ni92  1  0.49686833  0.24426814  0.88736281  1
  Ni  Ni93  1  0.50313167  0.74426814  0.61263719  1
  Ni  Ni94  1  0.00313167  0.75573186  0.38736281  1
  Ni  Ni95  1  0.99686833  0.25573186  0.11263719  1
  Ni  Ni96  1  0.88736281  0.49686833  0.24426814  1
  Ni  Ni97  1  0.61263719  0.50313167  0.74426814  1
  Ni  Ni98  1  0.38736281  0.00313167  0.75573186  1
  Ni  Ni99  1  0.11263719  0.99686833  0.25573186  1
  Ni  Ni100  1  0.24426814  0.88736281  0.49686833  1
  Ni  Ni101  1  0.74426814  0.61263719  0.50313167  1
  Ni  Ni102  1  0.75573186  0.38736281  0.00313167  1
  Ni  Ni103  1  0.25573186  0.11263719  0.99686833  1
  Ni  Ni104  1  0.48988373  0.89282851  0.18999889  1
  Ni  Ni105  1  0.51011627  0.39282851  0.31000111  1
  Ni  Ni106  1  0.01011627  0.10717149  0.68999889  1
  Ni  Ni107  1  0.98988373  0.60717149  0.81000111  1
  Ni  Ni108  1  0.18999889  0.48988373  0.89282851  1
  Ni  Ni109  1  0.31000111  0.51011627  0.39282851  1
  Ni  Ni110  1  0.68999889  0.01011627  0.10717149  1
  Ni  Ni111  1  0.81000111  0.98988373  0.60717149  1
  Ni  Ni112  1  0.89282851  0.18999889  0.48988373  1
  Ni  Ni113  1  0.39282851  0.31000111  0.51011627  1
  Ni  Ni114  1  0.10717149  0.68999889  0.01011627  1
  Ni  Ni115  1  0.60717149  0.81000111  0.98988373  1
  Ni  Ni116  1  0.51011627  0.10717149  0.81000111  1
  Ni  Ni117  1  0.48988373  0.60717149  0.68999889  1
  Ni  Ni118  1  0.98988373  0.89282851  0.31000111  1
  Ni  Ni119  1  0.01011627  0.39282851  0.18999889  1
  Ni  Ni120  1  0.81000111  0.51011627  0.10717149  1
  Ni  Ni121  1  0.68999889  0.48988373  0.60717149  1
  Ni  Ni122  1  0.31000111  0.98988373  0.89282851  1
  Ni  Ni123  1  0.18999889  0.01011627  0.39282851  1
  Ni  Ni124  1  0.10717149  0.81000111  0.51011627  1
  Ni  Ni125  1  0.60717149  0.68999889  0.48988373  1
  Ni  Ni126  1  0.89282851  0.31000111  0.98988373  1
  Ni  Ni127  1  0.39282851  0.18999889  0.01011627  1
  Ni  Ni128  1  0.48448411  0.89357290  0.31180054  1
  Ni  Ni129  1  0.51551589  0.39357290  0.18819946  1
  Ni  Ni130  1  0.01551589  0.10642710  0.81180054  1
  Ni  Ni131  1  0.98448411  0.60642710  0.68819946  1
  Ni  Ni132  1  0.31180054  0.48448411  0.89357290  1
  Ni  Ni133  1  0.18819946  0.51551589  0.39357290  1
  Ni  Ni134  1  0.81180054  0.01551589  0.10642710  1
  Ni  Ni135  1  0.68819946  0.98448411  0.60642710  1
  Ni  Ni136  1  0.89357290  0.31180054  0.48448411  1
  Ni  Ni137  1  0.39357290  0.18819946  0.51551589  1
  Ni  Ni138  1  0.10642710  0.81180054  0.01551589  1
  Ni  Ni139  1  0.60642710  0.68819946  0.98448411  1
  Ni  Ni140  1  0.51551589  0.10642710  0.68819946  1
  Ni  Ni141  1  0.48448411  0.60642710  0.81180054  1
  Ni  Ni142  1  0.98448411  0.89357290  0.18819946  1
  Ni  Ni143  1  0.01551589  0.39357290  0.31180054  1
  Ni  Ni144  1  0.68819946  0.51551589  0.10642710  1
  Ni  Ni145  1  0.81180054  0.48448411  0.60642710  1
  Ni  Ni146  1  0.18819946  0.98448411  0.89357290  1
  Ni  Ni147  1  0.31180054  0.01551589  0.39357290  1
  Ni  Ni148  1  0.10642710  0.68819946  0.51551589  1
  Ni  Ni149  1  0.60642710  0.81180054  0.48448411  1
  Ni  Ni150  1  0.89357290  0.18819946  0.98448411  1
  Ni  Ni151  1  0.39357290  0.31180054  0.01551589  1
  Cu  Cu152  1  0.48235222  0.76331061  0.25177991  1
  Cu  Cu153  1  0.51764778  0.26331061  0.24822009  1
  Cu  Cu154  1  0.01764778  0.23668939  0.75177991  1
  Cu  Cu155  1  0.98235222  0.73668939  0.74822009  1
  Cu  Cu156  1  0.25177991  0.48235222  0.76331061  1
  Cu  Cu157  1  0.24822009  0.51764778  0.26331061  1
  Cu  Cu158  1  0.75177991  0.01764778  0.23668939  1
  Cu  Cu159  1  0.74822009  0.98235222  0.73668939  1
  Cu  Cu160  1  0.76331061  0.25177991  0.48235222  1
  Cu  Cu161  1  0.26331061  0.24822009  0.51764778  1
  Cu  Cu162  1  0.23668939  0.75177991  0.01764778  1
  Cu  Cu163  1  0.73668939  0.74822009  0.98235222  1
  Cu  Cu164  1  0.51764778  0.23668939  0.74822009  1
  Cu  Cu165  1  0.48235222  0.73668939  0.75177991  1
  Cu  Cu166  1  0.98235222  0.76331061  0.24822009  1
  Cu  Cu167  1  0.01764778  0.26331061  0.25177991  1
  Cu  Cu168  1  0.74822009  0.51764778  0.23668939  1
  Cu  Cu169  1  0.75177991  0.48235222  0.73668939  1
  Cu  Cu170  1  0.24822009  0.98235222  0.76331061  1
  Cu  Cu171  1  0.25177991  0.01764778  0.26331061  1
  Cu  Cu172  1  0.23668939  0.74822009  0.51764778  1
  Cu  Cu173  1  0.73668939  0.75177991  0.48235222  1
  Cu  Cu174  1  0.76331061  0.24822009  0.98235222  1
  Cu  Cu175  1  0.26331061  0.25177991  0.01764778  1
  C  C176  1  0.47056328  0.71837097  0.33247422  1
  C  C177  1  0.52943672  0.21837097  0.16752578  1
  C  C178  1  0.02943672  0.28162903  0.83247422  1
  C  C179  1  0.97056328  0.78162903  0.66752578  1
  C  C180  1  0.33247422  0.47056328  0.71837097  1
  C  C181  1  0.16752578  0.52943672  0.21837097  1
  C  C182  1  0.83247422  0.02943672  0.28162903  1
  C  C183  1  0.66752578  0.97056328  0.78162903  1
  C  C184  1  0.71837097  0.33247422  0.47056328  1
  C  C185  1  0.21837097  0.16752578  0.52943672  1
  C  C186  1  0.28162903  0.83247422  0.02943672  1
  C  C187  1  0.78162903  0.66752578  0.97056328  1
  C  C188  1  0.52943672  0.28162903  0.66752578  1
  C  C189  1  0.47056328  0.78162903  0.83247422  1
  C  C190  1  0.97056328  0.71837097  0.16752578  1
  C  C191  1  0.02943672  0.21837097  0.33247422  1
  C  C192  1  0.66752578  0.52943672  0.28162903  1
  C  C193  1  0.83247422  0.47056328  0.78162903  1
  C  C194  1  0.16752578  0.97056328  0.71837097  1
  C  C195  1  0.33247422  0.02943672  0.21837097  1
  C  C196  1  0.28162903  0.66752578  0.52943672  1
  C  C197  1  0.78162903  0.83247422  0.47056328  1
  C  C198  1  0.71837097  0.16752578  0.97056328  1
  C  C199  1  0.21837097  0.33247422  0.02943672  1
  C  C200  1  0.48430021  0.85673557  0.25103200  1
  C  C201  1  0.51569979  0.35673557  0.24896800  1
  C  C202  1  0.01569979  0.14326443  0.75103200  1
  C  C203  1  0.98430021  0.64326443  0.74896800  1
  C  C204  1  0.25103200  0.48430021  0.85673557  1
  C  C205  1  0.24896800  0.51569979  0.35673557  1
  C  C206  1  0.75103200  0.01569979  0.14326443  1
  C  C207  1  0.74896800  0.98430021  0.64326443  1
  C  C208  1  0.85673557  0.25103200  0.48430021  1
  C  C209  1  0.35673557  0.24896800  0.51569979  1
  C  C210  1  0.14326443  0.75103200  0.01569979  1
  C  C211  1  0.64326443  0.74896800  0.98430021  1
  C  C212  1  0.51569979  0.14326443  0.74896800  1
  C  C213  1  0.48430021  0.64326443  0.75103200  1
  C  C214  1  0.98430021  0.85673557  0.24896800  1
  C  C215  1  0.01569979  0.35673557  0.25103200  1
  C  C216  1  0.74896800  0.51569979  0.14326443  1
  C  C217  1  0.75103200  0.48430021  0.64326443  1
  C  C218  1  0.24896800  0.98430021  0.85673557  1
  C  C219  1  0.25103200  0.01569979  0.35673557  1
  C  C220  1  0.14326443  0.74896800  0.51569979  1
  C  C221  1  0.64326443  0.75103200  0.48430021  1
  C  C222  1  0.85673557  0.24896800  0.98430021  1
  C  C223  1  0.35673557  0.25103200  0.01569979  1
  C  C224  1  0.49077301  0.71739831  0.17101292  1
  C  C225  1  0.50922699  0.21739831  0.32898708  1
  C  C226  1  0.00922699  0.28260169  0.67101292  1
  C  C227  1  0.99077301  0.78260169  0.82898708  1
  C  C228  1  0.17101292  0.49077301  0.71739831  1
  C  C229  1  0.32898708  0.50922699  0.21739831  1
  C  C230  1  0.67101292  0.00922699  0.28260169  1
  C  C231  1  0.82898708  0.99077301  0.78260169  1
  C  C232  1  0.71739831  0.17101292  0.49077301  1
  C  C233  1  0.21739831  0.32898708  0.50922699  1
  C  C234  1  0.28260169  0.67101292  0.00922699  1
  C  C235  1  0.78260169  0.82898708  0.99077301  1
  C  C236  1  0.50922699  0.28260169  0.82898708  1
  C  C237  1  0.49077301  0.78260169  0.67101292  1
  C  C238  1  0.99077301  0.71739831  0.32898708  1
  C  C239  1  0.00922699  0.21739831  0.17101292  1
  C  C240  1  0.82898708  0.50922699  0.28260169  1
  C  C241  1  0.67101292  0.49077301  0.78260169  1
  C  C242  1  0.32898708  0.99077301  0.71739831  1
  C  C243  1  0.17101292  0.00922699  0.21739831  1
  C  C244  1  0.28260169  0.82898708  0.50922699  1
  C  C245  1  0.78260169  0.67101292  0.49077301  1
  C  C246  1  0.71739831  0.32898708  0.99077301  1
  C  C247  1  0.21739831  0.17101292  0.00922699  1
  C  C248  1  0.02017922  0.36654379  0.02714531  1
  C  C249  1  0.97982078  0.86654379  0.47285469  1
  C  C250  1  0.47982078  0.63345621  0.52714531  1
  C  C251  1  0.52017922  0.13345621  0.97285469  1
  C  C252  1  0.02714531  0.02017922  0.36654379  1
  C  C253  1  0.47285469  0.97982078  0.86654379  1
  C  C254  1  0.52714531  0.47982078  0.63345621  1
  C  C255  1  0.97285469  0.52017922  0.13345621  1
  C  C256  1  0.36654379  0.02714531  0.02017922  1
  C  C257  1  0.86654379  0.47285469  0.97982078  1
  C  C258  1  0.63345621  0.52714531  0.47982078  1
  C  C259  1  0.13345621  0.97285469  0.52017922  1
  C  C260  1  0.97982078  0.63345621  0.97285469  1
  C  C261  1  0.02017922  0.13345621  0.52714531  1
  C  C262  1  0.52017922  0.36654379  0.47285469  1
  C  C263  1  0.47982078  0.86654379  0.02714531  1
  C  C264  1  0.97285469  0.97982078  0.63345621  1
  C  C265  1  0.52714531  0.02017922  0.13345621  1
  C  C266  1  0.47285469  0.52017922  0.36654379  1
  C  C267  1  0.02714531  0.47982078  0.86654379  1
  C  C268  1  0.63345621  0.97285469  0.97982078  1
  C  C269  1  0.13345621  0.52714531  0.02017922  1
  C  C270  1  0.36654379  0.47285469  0.52017922  1
  C  C271  1  0.86654379  0.02714531  0.47982078  1
  C  C272  1  0.47486539  0.02675871  0.36744919  1
  C  C273  1  0.52513461  0.52675871  0.13255081  1
  C  C274  1  0.02513461  0.97324129  0.86744919  1
  C  C275  1  0.97486539  0.47324129  0.63255081  1
  C  C276  1  0.36744919  0.47486539  0.02675871  1
  C  C277  1  0.13255081  0.52513461  0.52675871  1
  C  C278  1  0.86744919  0.02513461  0.97324129  1
  C  C279  1  0.63255081  0.97486539  0.47324129  1
  C  C280  1  0.02675871  0.36744919  0.47486539  1
  C  C281  1  0.52675871  0.13255081  0.52513461  1
  C  C282  1  0.97324129  0.86744919  0.02513461  1
  C  C283  1  0.47324129  0.63255081  0.97486539  1
  C  C284  1  0.52513461  0.97324129  0.63255081  1
  C  C285  1  0.47486539  0.47324129  0.86744919  1
  C  C286  1  0.97486539  0.02675871  0.13255081  1
  C  C287  1  0.02513461  0.52675871  0.36744919  1
  C  C288  1  0.63255081  0.52513461  0.97324129  1
  C  C289  1  0.86744919  0.47486539  0.47324129  1
  C  C290  1  0.13255081  0.97486539  0.02675871  1
  C  C291  1  0.36744919  0.02513461  0.52675871  1
  C  C292  1  0.97324129  0.63255081  0.52513461  1
  C  C293  1  0.47324129  0.86744919  0.47486539  1
  C  C294  1  0.02675871  0.13255081  0.97486539  1
  C  C295  1  0.52675871  0.36744919  0.02513461  1
