# generated using pymatgen
data_Cu3Ni3C34
_symmetry_space_group_name_H-M   'P 1'
_cell_length_a   9.23296321
_cell_length_b   9.25567956
_cell_length_c   22.69957587
_cell_angle_alpha   90.39948616
_cell_angle_beta   90.93078255
_cell_angle_gamma   119.54070245
_symmetry_Int_Tables_number   1
_chemical_formula_structural   Cu3Ni3C34
_chemical_formula_sum   'Cu9 Ni9 C102'
_cell_volume   1687.20367138
_cell_formula_units_Z   3
loop_
 _symmetry_equiv_pos_site_id
 _symmetry_equiv_pos_as_xyz
  1  'x, y, z'
loop_
 _atom_site_type_symbol
 _atom_site_label
 _atom_site_symmetry_multiplicity
 _atom_site_fract_x
 _atom_site_fract_y
 _atom_site_fract_z
 _atom_site_occupancy
  C  C0  1  0.36825301  0.34167167  0.24272067  1
  C  C1  1  0.00174832  0.64106934  0.23943207  1
  C  C2  1  0.98448293  0.34649605  0.74628889  1
  C  C3  1  0.37802815  0.03607953  0.74296397  1
  C  C4  1  0.30408718  0.33575689  0.57736854  1
  C  C5  1  0.64964469  0.97945545  0.59374169  1
  C  C6  1  0.31593716  0.96565111  0.06949974  1
  C  C7  1  0.65366373  0.67970451  0.08475229  1
  C  C8  1  0.99471059  0.68175604  0.91797468  1
  C  C9  1  0.32145075  0.28922703  0.90526397  1
  C  C10  1  0.99588472  0.30860776  0.42679452  1
  C  C11  1  0.32381959  0.03798586  0.40946086  1
  C  C12  1  0.00637519  0.98817840  0.50695965  1
  C  C13  1  0.00461118  0.01937093  0.99394218  1
  C  C14  1  0.65378974  0.31201359  0.82678813  1
  C  C15  1  0.64738429  0.31980908  0.33433127  1
  C  C16  1  0.30847049  0.64612268  0.15718988  1
  C  C17  1  0.30319796  0.65932910  0.66035187  1
  C  C18  1  0.99914278  0.00013821  0.34907766  1
  C  C19  1  0.00042045  0.00040609  0.84876131  1
  C  C20  1  0.66775791  0.34355235  0.68464694  1
  C  C21  1  0.66808966  0.32313896  0.18351274  1
  C  C22  1  0.32286905  0.65890058  0.01592529  1
  C  C23  1  0.32198272  0.66207067  0.51875354  1
  C  C24  1  0.00626134  0.04239081  0.64918068  1
  C  C25  1  0.03423174  0.99451757  0.14097918  1
  C  C26  1  0.64796726  0.32160313  0.98719512  1
  C  C27  1  0.64044782  0.32400257  0.49235298  1
  C  C28  1  0.34267885  0.66332182  0.31557728  1
  C  C29  1  0.36329221  0.69979650  0.80700454  1
  Ni  Ni30  1  0.30405108  0.98642071  0.25479063  1
  Ni  Ni31  1  0.30024742  0.31797419  0.75648655  1
  Ni  Ni32  1  0.70622406  -0.00000895  0.74835656  1
  Ni  Ni33  1  0.95662913  0.33027344  0.58536160  1
  Ni  Ni34  1  0.35162508  0.03321351  0.59001704  1
  Ni  Ni35  1  0.95765709  0.62484699  0.08685703  1
  Ni  Ni36  1  0.36867954  0.32915299  0.08850156  1
  Ni  Ni37  1  0.34747633  0.97113957  0.91918292  1
  Ni  Ni38  1  0.34868399  0.37354901  0.41842670  1
  Cu  Cu39  1  0.68996506  0.70443974  0.24904678  1
  Cu  Cu40  1  0.01521009  0.30395638  0.25241627  1
  Cu  Cu41  1  0.01807524  0.71331217  0.75259314  1
  Cu  Cu42  1  0.68047293  0.63804376  0.58100267  1
  Cu  Cu43  1  0.68276596  0.04254960  0.08117184  1
  Cu  Cu44  1  0.62420634  0.65332295  0.91760371  1
  Cu  Cu45  1  0.02179030  0.36995362  0.91499454  1
  Cu  Cu46  1  0.62083380  0.96502257  0.41630171  1
  Cu  Cu47  1  0.03390145  0.65437200  0.41044924  1
  C  C48  1  0.20978725  0.00381056  0.31029579  1
  C  C49  1  0.78801606  0.79185594  0.30142436  1
  C  C50  1  0.99795098  0.22139890  0.30880037  1
  C  C51  1  0.22164178  0.20343590  0.81223171  1
  C  C52  1  0.00210534  0.77597547  0.81025430  1
  C  C53  1  0.81083311  0.01825701  0.80564318  1
  C  C54  1  0.80356714  0.97916372  0.68803106  1
  C  C55  1  0.15995246  0.20998759  0.69610546  1
  C  C56  1  0.03033606  0.82221816  0.70332696  1
  C  C57  1  0.76375490  0.79636890  0.19441574  1
  C  C58  1  0.02536320  0.20640374  0.20205849  1
  C  C59  1  0.16984692  0.96502473  0.19327251  1
  C  C60  1  0.88504145  0.34810582  0.64606560  1
  C  C61  1  0.46164462  0.11971094  0.64704470  1
  C  C62  1  0.65452676  0.54446002  0.63449208  1
  C  C63  1  0.88408129  0.54296380  0.14858923  1
  C  C64  1  0.65214472  0.10834861  0.13536977  1
  C  C65  1  0.45936290  0.34231658  0.14976798  1
  C  C66  1  0.47092627  0.29531211  0.03179707  1
  C  C67  1  0.82328795  0.51768062  0.03047382  1
  C  C68  1  0.69195754  0.15007776  0.02991486  1
  C  C69  1  0.46336880  0.17209080  0.53071926  1
  C  C70  1  0.68389175  0.53228118  0.52873713  1
  C  C71  1  0.82308270  0.30954134  0.52646394  1
  C  C72  1  0.55720977  0.67528912  0.97299860  1
  C  C73  1  0.12760643  0.44860222  0.96781249  1
  C  C74  1  0.32521517  0.87058260  0.97794823  1
  C  C75  1  0.55268124  0.87858623  0.47093715  1
  C  C76  1  0.31812290  0.45273346  0.47563974  1
  C  C77  1  0.13637075  0.68719931  0.46393395  1
  C  C78  1  0.13172155  0.64402143  0.35795365  1
  C  C79  1  0.50960498  0.86373655  0.36399201  1
  C  C80  1  0.35983326  0.50462558  0.35997570  1
  C  C81  1  0.10233675  0.46839679  0.86181764  1
  C  C82  1  0.36304203  0.86133094  0.86023276  1
  C  C83  1  0.51642191  0.64269169  0.86600567  1
  C  C84  1  0.00130831  0.79417045  0.40463749  1
  C  C85  1  0.79344936  0.99950687  0.40938175  1
  C  C86  1  0.18525749  0.18966689  0.41087075  1
  C  C87  1  0.99811492  0.19958268  0.91260495  1
  C  C88  1  0.18643542  0.99864861  0.91520510  1
  C  C89  1  0.79929190  0.78591433  0.91255415  1
  C  C90  1  0.95245992  0.14233171  0.58577292  1
  C  C91  1  0.17323072  0.03463216  0.59064208  1
  C  C92  1  0.83749901  0.79687595  0.58014655  1
  C  C93  1  0.95782508  0.81590327  0.09049864  1
  C  C94  1  0.84053673  0.03554494  0.08434405  1
  C  C95  1  0.18409078  0.14712494  0.08934834  1
  C  C96  1  0.66879958  0.15208409  0.74578231  1
  C  C97  1  0.48062207  0.34128626  0.74647906  1
  C  C98  1  0.88326783  0.54041752  0.74582508  1
  C  C99  1  0.67191509  0.53523025  0.24855193  1
  C  C100  1  0.88048202  0.34497426  0.24701628  1
  C  C101  1  0.48231279  0.15062495  0.25003132  1
  C  C102  1  0.62143605  0.48650990  0.91904049  1
  C  C103  1  0.85861376  0.36920802  0.92110847  1
  C  C104  1  0.51971839  0.16367836  0.92690264  1
  C  C105  1  0.62013843  0.12764534  0.41543836  1
  C  C106  1  0.51929419  0.35277252  0.42254932  1
  C  C107  1  0.87749745  0.49234737  0.41190341  1
  C  C108  1  0.35690180  0.49317582  0.07851163  1
  C  C109  1  0.15163769  0.68297691  0.08101739  1
  C  C110  1  0.54131702  0.87098484  0.07301535  1
  C  C111  1  0.35291438  0.86384364  0.57720848  1
  C  C112  1  0.53727631  0.66629551  0.57275214  1
  C  C113  1  0.14936880  0.46684297  0.57847736  1
  C  C114  1  0.30186851  0.80374555  0.25900837  1
  C  C115  1  0.51515683  0.68294615  0.25373448  1
  C  C116  1  0.18049101  0.46982480  0.25356499  1
  C  C117  1  0.29306330  0.49480495  0.76260706  1
  C  C118  1  0.18401481  0.71104633  0.75292662  1
  C  C119  1  0.51597717  0.82328621  0.75364508  1
