# generated using pymatgen
data_Cu10NiC13
_symmetry_space_group_name_H-M   'P 1'
_cell_length_a   12.40027200
_cell_length_b   12.40027200
_cell_length_c   12.40027200
_cell_angle_alpha   90.00000000
_cell_angle_beta   90.00000000
_cell_angle_gamma   90.00000000
_symmetry_Int_Tables_number   1
_chemical_formula_structural   Cu10NiC13
_chemical_formula_sum   'Cu80 Ni8 C104'
_cell_volume   1906.74947091
_cell_formula_units_Z   8
loop_
 _symmetry_equiv_pos_site_id
 _symmetry_equiv_pos_as_xyz
  1  'x, y, z'
loop_
 _atom_site_type_symbol
 _atom_site_label
 _atom_site_symmetry_multiplicity
 _atom_site_fract_x
 _atom_site_fract_y
 _atom_site_fract_z
 _atom_site_occupancy
  C  C0  1  0.00000000  0.50000000  0.50000000  1
  C  C1  1  0.50000000  0.50000000  0.00000000  1
  C  C2  1  0.50000000  0.00000000  0.50000000  1
  C  C3  1  0.00000000  0.00000000  0.00000000  1
  C  C4  1  0.50000000  0.00000000  0.00000000  1
  C  C5  1  0.00000000  0.00000000  0.50000000  1
  C  C6  1  0.00000000  0.50000000  0.00000000  1
  C  C7  1  0.50000000  0.50000000  0.50000000  1
  C  C8  1  0.78992100  0.47470700  0.05151400  1
  C  C9  1  0.28992100  0.02529300  0.94848500  1
  C  C10  1  0.21007900  0.97470700  0.44848600  1
  C  C11  1  0.02529300  0.94848500  0.28992100  1
  C  C12  1  0.44848600  0.21007900  0.97470700  1
  C  C13  1  0.94848500  0.28992100  0.02529300  1
  C  C14  1  0.47470700  0.05151400  0.78992100  1
  C  C15  1  0.05151400  0.78992100  0.47470700  1
  C  C16  1  0.97470700  0.44848600  0.21007900  1
  C  C17  1  0.52529300  0.55151500  0.71007900  1
  C  C18  1  0.55151500  0.71007900  0.52529300  1
  C  C19  1  0.71007900  0.52529300  0.55151500  1
  C  C20  1  0.21007900  0.52529300  0.94848500  1
  C  C21  1  0.71007900  0.97470700  0.05151400  1
  C  C22  1  0.78992100  0.02529300  0.55151500  1
  C  C23  1  0.97470700  0.05151400  0.71007900  1
  C  C24  1  0.55151500  0.78992100  0.02529300  1
  C  C25  1  0.05151400  0.71007900  0.97470700  1
  C  C26  1  0.52529300  0.94848500  0.21007900  1
  C  C27  1  0.94848500  0.21007900  0.52529300  1
  C  C28  1  0.02529300  0.55151500  0.78992100  1
  C  C29  1  0.47470700  0.44848600  0.28992100  1
  C  C30  1  0.44848600  0.28992100  0.47470700  1
  C  C31  1  0.28992100  0.47470700  0.44848600  1
  C  C32  1  0.80662800  0.46302300  0.92043400  1
  C  C33  1  0.30662800  0.03697700  0.07956600  1
  C  C34  1  0.19337200  0.96302300  0.57956600  1
  C  C35  1  0.03697700  0.07956600  0.30662800  1
  C  C36  1  0.57956600  0.19337200  0.96302300  1
  C  C37  1  0.07956600  0.30662800  0.03697700  1
  C  C38  1  0.46302300  0.92043400  0.80662800  1
  C  C39  1  0.92043400  0.80662800  0.46302300  1
  C  C40  1  0.96302300  0.57956600  0.19337200  1
  C  C41  1  0.53697700  0.42043400  0.69337200  1
  C  C42  1  0.42043400  0.69337200  0.53697700  1
  C  C43  1  0.69337200  0.53697700  0.42043400  1
  C  C44  1  0.19337200  0.53697700  0.07956600  1
  C  C45  1  0.69337200  0.96302300  0.92043400  1
  C  C46  1  0.80662800  0.03697700  0.42043400  1
  C  C47  1  0.96302300  0.92043400  0.69337200  1
  C  C48  1  0.42043400  0.80662800  0.03697700  1
  C  C49  1  0.92043400  0.69337200  0.96302300  1
  C  C50  1  0.53697700  0.07956600  0.19337200  1
  C  C51  1  0.07956600  0.19337200  0.53697700  1
  C  C52  1  0.03697700  0.42043400  0.80662800  1
  C  C53  1  0.46302300  0.57956600  0.30662800  1
  C  C54  1  0.57956600  0.30662800  0.46302300  1
  C  C55  1  0.82583800  0.21463700  0.11880400  1
  C  C56  1  0.29812600  0.21980100  0.50417600  1
  C  C57  1  0.79812600  0.28019900  0.49582400  1
  C  C58  1  0.70187400  0.71980100  0.99582400  1
  C  C59  1  0.28019900  0.49582400  0.79812600  1
  C  C60  1  0.99582400  0.70187400  0.71980100  1
  C  C61  1  0.49582400  0.79812600  0.28019900  1
  C  C62  1  0.21980100  0.50417600  0.29812600  1
  C  C63  1  0.50417600  0.29812600  0.21980100  1
  C  C64  1  0.71980100  0.99582400  0.70187400  1
  C  C65  1  0.78019900  0.00417600  0.20187400  1
  C  C66  1  0.00417600  0.20187400  0.78019900  1
  C  C67  1  0.20187400  0.78019900  0.00417600  1
  C  C68  1  0.70187400  0.78019900  0.49582400  1
  C  C69  1  0.20187400  0.71980100  0.50417600  1
  C  C70  1  0.29812600  0.28019900  0.00417600  1
  C  C71  1  0.71980100  0.50417600  0.20187400  1
  C  C72  1  0.00417600  0.29812600  0.28019900  1
  C  C73  1  0.50417600  0.20187400  0.71980100  1
  C  C74  1  0.78019900  0.49582400  0.70187400  1
  C  C75  1  0.49582400  0.70187400  0.78019900  1
  C  C76  1  0.28019900  0.00417600  0.29812600  1
  C  C77  1  0.21980100  0.99582400  0.79812600  1
  C  C78  1  0.99582400  0.79812600  0.21980100  1
  C  C79  1  0.79812600  0.21980100  0.99582400  1
  C  C80  1  0.32583800  0.21463700  0.38119600  1
  C  C81  1  0.82583800  0.28536300  0.61880400  1
  C  C82  1  0.67416200  0.71463700  0.11880400  1
  C  C83  1  0.28536300  0.61880400  0.82583800  1
  C  C84  1  0.11880400  0.67416200  0.71463700  1
  C  C85  1  0.61880400  0.82583800  0.28536300  1
  C  C86  1  0.21463700  0.38119600  0.32583800  1
  C  C87  1  0.38119600  0.32583800  0.21463700  1
  C  C88  1  0.71463700  0.11880400  0.67416200  1
  C  C89  1  0.78536300  0.88119600  0.17416200  1
  C  C90  1  0.88119600  0.17416200  0.78536300  1
  C  C91  1  0.17416200  0.78536300  0.88119600  1
  C  C92  1  0.67416200  0.78536300  0.61880400  1
  C  C93  1  0.17416200  0.71463700  0.38119600  1
  C  C94  1  0.32583800  0.28536300  0.88119600  1
  C  C95  1  0.71463700  0.38119600  0.17416200  1
  C  C96  1  0.88119600  0.32583800  0.28536300  1
  C  C97  1  0.38119600  0.17416200  0.71463700  1
  C  C98  1  0.78536300  0.61880400  0.67416200  1
  C  C99  1  0.61880400  0.67416200  0.78536300  1
  C  C100  1  0.28536300  0.88119600  0.32583800  1
  C  C101  1  0.21463700  0.11880400  0.82583800  1
  C  C102  1  0.11880400  0.82583800  0.21463700  1
  C  C103  1  0.30662800  0.46302300  0.57956600  1
  Ni  Ni104  1  0.19043600  0.30956400  0.69043600  1
  Ni  Ni105  1  0.30956400  0.69043600  0.19043600  1
  Ni  Ni106  1  0.69043600  0.19043600  0.30956400  1
  Ni  Ni107  1  0.80956400  0.80956400  0.80956400  1
  Ni  Ni108  1  0.80956400  0.69043600  0.30956400  1
  Ni  Ni109  1  0.69043600  0.30956400  0.80956400  1
  Ni  Ni110  1  0.30956400  0.80956400  0.69043600  1
  Ni  Ni111  1  0.19043600  0.19043600  0.19043600  1
  Cu  Cu112  1  0.84017700  0.49159200  0.98814300  1
  Cu  Cu113  1  0.34017700  0.00840800  0.01185700  1
  Cu  Cu114  1  0.15982300  0.99159200  0.51185700  1
  Cu  Cu115  1  0.00840800  0.01185700  0.34017700  1
  Cu  Cu116  1  0.51185700  0.15982300  0.99159200  1
  Cu  Cu117  1  0.01185700  0.34017700  0.00840800  1
  Cu  Cu118  1  0.49159200  0.98814300  0.84017700  1
  Cu  Cu119  1  0.98814300  0.84017700  0.49159200  1
  Cu  Cu120  1  0.99159200  0.51185700  0.15982300  1
  Cu  Cu121  1  0.50840800  0.48814300  0.65982300  1
  Cu  Cu122  1  0.48814300  0.65982300  0.50840800  1
  Cu  Cu123  1  0.65982300  0.50840800  0.48814300  1
  Cu  Cu124  1  0.15982300  0.50840800  0.01185700  1
  Cu  Cu125  1  0.65982300  0.99159200  0.98814300  1
  Cu  Cu126  1  0.84017700  0.00840800  0.48814300  1
  Cu  Cu127  1  0.99159200  0.98814300  0.65982300  1
  Cu  Cu128  1  0.48814300  0.84017700  0.00840800  1
  Cu  Cu129  1  0.98814300  0.65982300  0.99159200  1
  Cu  Cu130  1  0.50840800  0.01185700  0.15982300  1
  Cu  Cu131  1  0.01185700  0.15982300  0.50840800  1
  Cu  Cu132  1  0.00840800  0.48814300  0.84017700  1
  Cu  Cu133  1  0.49159200  0.51185700  0.34017700  1
  Cu  Cu134  1  0.51185700  0.34017700  0.49159200  1
  Cu  Cu135  1  0.34017700  0.49159200  0.51185700  1
  Cu  Cu136  1  0.35814300  0.20383200  0.45348200  1
  Cu  Cu137  1  0.85814300  0.29616800  0.54651800  1
  Cu  Cu138  1  0.64185700  0.70383200  0.04651800  1
  Cu  Cu139  1  0.29616800  0.54651800  0.85814300  1
  Cu  Cu140  1  0.04651800  0.64185700  0.70383200  1
  Cu  Cu141  1  0.54651800  0.85814300  0.29616800  1
  Cu  Cu142  1  0.20383200  0.45348200  0.35814300  1
  Cu  Cu143  1  0.45348200  0.35814300  0.20383200  1
  Cu  Cu144  1  0.70383200  0.04651800  0.64185700  1
  Cu  Cu145  1  0.79616800  0.95348200  0.14185700  1
  Cu  Cu146  1  0.95348200  0.14185700  0.79616800  1
  Cu  Cu147  1  0.14185700  0.79616800  0.95348200  1
  Cu  Cu148  1  0.64185700  0.79616800  0.54651800  1
  Cu  Cu149  1  0.14185700  0.70383200  0.45348200  1
  Cu  Cu150  1  0.35814300  0.29616800  0.95348200  1
  Cu  Cu151  1  0.70383200  0.45348200  0.14185700  1
  Cu  Cu152  1  0.95348200  0.35814300  0.29616800  1
  Cu  Cu153  1  0.45348200  0.14185700  0.70383200  1
  Cu  Cu154  1  0.79616800  0.54651800  0.64185700  1
  Cu  Cu155  1  0.54651800  0.64185700  0.79616800  1
  Cu  Cu156  1  0.29616800  0.95348200  0.35814300  1
  Cu  Cu157  1  0.20383200  0.04651800  0.85814300  1
  Cu  Cu158  1  0.04651800  0.85814300  0.20383200  1
  Cu  Cu159  1  0.85814300  0.20383200  0.04651800  1
  Cu  Cu160  1  0.57935200  0.18614500  0.26366500  1
  Cu  Cu161  1  0.07935200  0.31385500  0.73633500  1
  Cu  Cu162  1  0.42064800  0.68614500  0.23633500  1
  Cu  Cu163  1  0.31385500  0.73633500  0.07935200  1
  Cu  Cu164  1  0.23633500  0.42064800  0.68614500  1
  Cu  Cu165  1  0.73633500  0.07935200  0.31385500  1
  Cu  Cu166  1  0.18614500  0.26366500  0.57935200  1
  Cu  Cu167  1  0.26366500  0.57935200  0.18614500  1
  Cu  Cu168  1  0.68614500  0.23633500  0.42064800  1
  Cu  Cu169  1  0.81385500  0.76366500  0.92064800  1
  Cu  Cu170  1  0.76366500  0.92064800  0.81385500  1
  Cu  Cu171  1  0.92064800  0.81385500  0.76366500  1
  Cu  Cu172  1  0.42064800  0.81385500  0.73633500  1
  Cu  Cu173  1  0.92064800  0.68614500  0.26366500  1
  Cu  Cu174  1  0.57935200  0.31385500  0.76366500  1
  Cu  Cu175  1  0.68614500  0.26366500  0.92064800  1
  Cu  Cu176  1  0.76366500  0.57935200  0.31385500  1
  Cu  Cu177  1  0.26366500  0.92064800  0.68614500  1
  Cu  Cu178  1  0.81385500  0.73633500  0.42064800  1
  Cu  Cu179  1  0.73633500  0.42064800  0.81385500  1
  Cu  Cu180  1  0.31385500  0.76366500  0.57935200  1
  Cu  Cu181  1  0.18614500  0.23633500  0.07935200  1
  Cu  Cu182  1  0.23633500  0.07935200  0.18614500  1
  Cu  Cu183  1  0.07935200  0.18614500  0.23633500  1
  Cu  Cu184  1  0.26043100  0.26043100  0.26043100  1
  Cu  Cu185  1  0.23956900  0.76043100  0.26043100  1
  Cu  Cu186  1  0.76043100  0.26043100  0.23956900  1
  Cu  Cu187  1  0.73956900  0.73956900  0.73956900  1
  Cu  Cu188  1  0.73956900  0.76043100  0.23956900  1
  Cu  Cu189  1  0.76043100  0.23956900  0.73956900  1
  Cu  Cu190  1  0.23956900  0.73956900  0.76043100  1
  Cu  Cu191  1  0.26043100  0.23956900  0.76043100  1
