# generated using pymatgen
data_Cu2(NiC2)5
_symmetry_space_group_name_H-M   'P 1'
_cell_length_a   13.30717500
_cell_length_b   7.41014600
_cell_length_c   8.28320700
_cell_angle_alpha   72.27705275
_cell_angle_beta   90.00000000
_cell_angle_gamma   90.00000000
_symmetry_Int_Tables_number   1
_chemical_formula_structural   Cu2(NiC2)5
_chemical_formula_sum   'Cu8 Ni20 C40'
_cell_volume   778.02616920
_cell_formula_units_Z   4
loop_
 _symmetry_equiv_pos_site_id
 _symmetry_equiv_pos_as_xyz
  1  'x, y, z'
loop_
 _atom_site_type_symbol
 _atom_site_label
 _atom_site_symmetry_multiplicity
 _atom_site_fract_x
 _atom_site_fract_y
 _atom_site_fract_z
 _atom_site_occupancy
  C  C0  1  0.03842900  0.89662700  0.27847500  1
  C  C1  1  0.53842900  0.10337300  0.22152500  1
  C  C2  1  0.96157100  0.10337300  0.72152500  1
  C  C3  1  0.46157100  0.89662700  0.77847500  1
  Ni  Ni4  1  0.77249400  0.31252000  0.45484800  1
  Ni  Ni5  1  0.27249400  0.68748000  0.04515200  1
  Ni  Ni6  1  0.22750600  0.68748000  0.54515200  1
  Ni  Ni7  1  0.72750600  0.31252000  0.95484800  1
  Ni  Ni8  1  0.70138200  0.45435300  0.29545500  1
  Ni  Ni9  1  0.20138200  0.54564700  0.20454500  1
  Ni  Ni10  1  0.29861800  0.54564700  0.70454500  1
  Ni  Ni11  1  0.79861800  0.45435300  0.79545500  1
  Ni  Ni12  1  0.82861800  0.46619000  0.28290100  1
  Ni  Ni13  1  0.32861800  0.53381000  0.21709900  1
  Ni  Ni14  1  0.17138200  0.53381000  0.71709900  1
  Ni  Ni15  1  0.67138200  0.46619000  0.78290100  1
  Ni  Ni16  1  0.77882100  0.85903700  0.45433100  1
  Ni  Ni17  1  0.27882100  0.14096300  0.04566900  1
  Ni  Ni18  1  0.22117900  0.14096300  0.54566900  1
  Ni  Ni19  1  0.72117900  0.85903700  0.95433100  1
  Ni  Ni20  1  0.06795000  0.36477300  0.02291100  1
  Ni  Ni21  1  0.56795000  0.63522700  0.47708900  1
  Ni  Ni22  1  0.93205000  0.63522700  0.97708900  1
  Ni  Ni23  1  0.43205000  0.36477300  0.52291100  1
  Cu  Cu24  1  0.69461400  0.99365400  0.61157900  1
  Cu  Cu25  1  0.19461400  0.00634600  0.88842100  1
  Cu  Cu26  1  0.30538600  0.00634600  0.38842100  1
  Cu  Cu27  1  0.80538600  0.99365400  0.11157900  1
  Cu  Cu28  1  0.01957000  0.39627100  0.26508500  1
  Cu  Cu29  1  0.51957000  0.60372900  0.23491500  1
  Cu  Cu30  1  0.98043000  0.60372900  0.73491500  1
  Cu  Cu31  1  0.48043000  0.39627100  0.76508500  1
  C  C32  1  0.76769800  0.44180400  0.36079100  1
  C  C33  1  0.26769800  0.55819600  0.13920900  1
  C  C34  1  0.23230200  0.55819600  0.63920900  1
  C  C35  1  0.73230200  0.44180400  0.86079100  1
  C  C36  1  0.74181500  0.81945300  0.56801100  1
  C  C37  1  0.24181500  0.18054700  0.93198900  1
  C  C38  1  0.25818500  0.18054700  0.43198900  1
  C  C39  1  0.75818500  0.81945300  0.06801100  1
  C  C40  1  0.77708700  0.13216100  0.60321900  1
  C  C41  1  0.27708700  0.86783900  0.89678100  1
  C  C42  1  0.22291300  0.86783900  0.39678100  1
  C  C43  1  0.72291300  0.13216100  0.10321900  1
  C  C44  1  0.61404700  0.07578200  0.49250500  1
  C  C45  1  0.11404700  0.92421800  0.00749500  1
  C  C46  1  0.38595300  0.92421800  0.50749500  1
  C  C47  1  0.88595300  0.07578200  0.99250500  1
  C  C48  1  0.65638500  0.91043300  0.78564800  1
  C  C49  1  0.15638500  0.08956700  0.71435200  1
  C  C50  1  0.34361500  0.08956700  0.21435200  1
  C  C51  1  0.84361500  0.91043300  0.28564800  1
  C  C52  1  0.06645700  0.28534000  0.14707400  1
  C  C53  1  0.56645700  0.71466000  0.35292600  1
  C  C54  1  0.93354300  0.71466000  0.85292600  1
  C  C55  1  0.43354300  0.28534000  0.64707400  1
  C  C56  1  0.09559600  0.53170100  0.28658800  1
  C  C57  1  0.59559600  0.46829900  0.21341200  1
  C  C58  1  0.90440400  0.46829900  0.71341200  1
  C  C59  1  0.40440400  0.53170100  0.78658800  1
  C  C60  1  0.92963600  0.50001800  0.17342200  1
  C  C61  1  0.42963600  0.49998200  0.32657800  1
  C  C62  1  0.07036400  0.49998200  0.82657800  1
  C  C63  1  0.57036400  0.50001800  0.67342200  1
  C  C64  1  0.99223400  0.24911900  0.41847100  1
  C  C65  1  0.49223400  0.75088100  0.08152900  1
  C  C66  1  0.00776600  0.75088100  0.58152900  1
  C  C67  1  0.50776600  0.24911900  0.91847100  1
