# generated using pymatgen
data_Cu3Ni2
_symmetry_space_group_name_H-M   'P 1'
_cell_length_a   8.24236400
_cell_length_b   9.43030200
_cell_length_c   12.00089961
_cell_angle_alpha   70.84971133
_cell_angle_beta   90.00000000
_cell_angle_gamma   90.00000000
_symmetry_Int_Tables_number   1
_chemical_formula_structural   Cu3Ni2
_chemical_formula_sum   'Cu24 Ni16'
_cell_volume   881.18549490
_cell_formula_units_Z   8
loop_
 _symmetry_equiv_pos_site_id
 _symmetry_equiv_pos_as_xyz
  1  'x, y, z'
loop_
 _atom_site_type_symbol
 _atom_site_label
 _atom_site_symmetry_multiplicity
 _atom_site_fract_x
 _atom_site_fract_y
 _atom_site_fract_z
 _atom_site_occupancy
  Ni  Ni0  1  0.49669700  0.30762200  0.95150200  1
  Ni  Ni1  1  0.99669700  0.19237800  0.04849800  1
  Ni  Ni2  1  0.50330300  0.69237800  0.04849800  1
  Ni  Ni3  1  0.00330300  0.80762200  0.95150200  1
  Ni  Ni4  1  0.78599800  0.46632100  0.78050700  1
  Ni  Ni5  1  0.28599800  0.03367900  0.21949300  1
  Ni  Ni6  1  0.21400200  0.53367900  0.21949300  1
  Ni  Ni7  1  0.71400200  0.96632100  0.78050700  1
  Ni  Ni8  1  0.80322100  0.26012900  0.21894200  1
  Ni  Ni9  1  0.30322100  0.23987100  0.78105800  1
  Ni  Ni10  1  0.19677900  0.73987100  0.78105800  1
  Ni  Ni11  1  0.69677900  0.76012900  0.21894200  1
  Ni  Ni12  1  0.78702500  0.30203900  0.46961700  1
  Ni  Ni13  1  0.28702500  0.19796100  0.53038300  1
  Ni  Ni14  1  0.21297500  0.69796100  0.53038300  1
  Ni  Ni15  1  0.71297500  0.80203900  0.46961700  1
  Cu  Cu16  1  0.90471300  0.42998800  0.89857900  1
  Cu  Cu17  1  0.40471300  0.07001200  0.10142100  1
  Cu  Cu18  1  0.09528700  0.57001200  0.10142100  1
  Cu  Cu19  1  0.59528700  0.92998800  0.89857900  1
  Cu  Cu20  1  0.77018300  0.31508500  0.74215900  1
  Cu  Cu21  1  0.27018300  0.18491500  0.25784100  1
  Cu  Cu22  1  0.22981700  0.68491500  0.25784100  1
  Cu  Cu23  1  0.72981700  0.81508500  0.74215900  1
  Cu  Cu24  1  0.57362300  0.48486800  0.84456300  1
  Cu  Cu25  1  0.07362300  0.01513200  0.15543700  1
  Cu  Cu26  1  0.42637700  0.51513200  0.15543700  1
  Cu  Cu27  1  0.92637700  0.98486800  0.84456300  1
  Cu  Cu28  1  0.83730900  0.12581000  0.54159800  1
  Cu  Cu29  1  0.33730900  0.37419000  0.45840200  1
  Cu  Cu30  1  0.16269100  0.87419000  0.45840200  1
  Cu  Cu31  1  0.66269100  0.62581000  0.54159800  1
  Cu  Cu32  1  0.83115700  0.79299200  0.33720000  1
  Cu  Cu33  1  0.33115700  0.70700800  0.66280000  1
  Cu  Cu34  1  0.16884300  0.20700800  0.66280000  1
  Cu  Cu35  1  0.66884300  0.29299200  0.33720000  1
  Cu  Cu36  1  0.54557000  0.89163900  0.41183600  1
  Cu  Cu37  1  0.04557000  0.60836100  0.58816400  1
  Cu  Cu38  1  0.45443000  0.10836100  0.58816400  1
  Cu  Cu39  1  0.95443000  0.39163900  0.41183600  1
