# generated using pymatgen
data_Cu7NiC12
_symmetry_space_group_name_H-M   'P 1'
_cell_length_a   5.04577009
_cell_length_b   5.04959232
_cell_length_c   9.72882666
_cell_angle_alpha   83.64876831
_cell_angle_beta   95.91534878
_cell_angle_gamma   60.07993253
_symmetry_Int_Tables_number   1
_chemical_formula_structural   Cu7NiC12
_chemical_formula_sum   'Cu7 Ni1 C12'
_cell_volume   209.89224094
_cell_formula_units_Z   1
loop_
 _symmetry_equiv_pos_site_id
 _symmetry_equiv_pos_as_xyz
  1  'x, y, z'
loop_
 _atom_site_type_symbol
 _atom_site_label
 _atom_site_symmetry_multiplicity
 _atom_site_fract_x
 _atom_site_fract_y
 _atom_site_fract_z
 _atom_site_occupancy
  Ni  Ni0  1  0.93336000  0.93419000  0.75037800  1
  Cu  Cu1  1  0.07872000  0.07762000  0.25066000  1
  Cu  Cu2  1  0.99965900  0.51396700  0.98298500  1
  Cu  Cu3  1  0.25262700  0.25345500  0.75020000  1
  Cu  Cu4  1  0.51498400  0.00328200  0.51782900  1
  Cu  Cu5  1  0.41320000  0.41385400  0.24939700  1
  Cu  Cu6  1  0.58184100  0.58306400  0.75004200  1
  Cu  Cu7  1  0.74428500  0.74506200  0.24958700  1
  C  C8  1  0.96364500  0.24044100  0.86002000  1
  C  C9  1  0.23984800  0.96627200  0.64028600  1
  C  C10  1  0.17906500  0.33823800  0.36653200  1
  C  C11  1  0.33872300  0.17959600  0.13343500  1
  C  C12  1  0.29099900  0.52289900  0.85802600  1
  C  C13  1  0.52271300  0.29297400  0.64223500  1
  C  C14  1  0.45885100  0.70778500  0.34979200  1
  C  C15  1  0.71049400  0.45987400  0.14920400  1
  C  C16  1  0.63568500  0.84423300  0.86386400  1
  C  C17  1  0.84457800  0.63771400  0.63619500  1
  C  C18  1  0.76175700  0.03837700  0.35326700  1
  C  C19  1  0.03854800  0.76318400  0.14606500  1
