# generated using pymatgen
data_Cu2NiC13
_symmetry_space_group_name_H-M   'P 1'
_cell_length_a   6.27967953
_cell_length_b   5.90790247
_cell_length_c   7.45105337
_cell_angle_alpha   89.93528194
_cell_angle_beta   85.44442128
_cell_angle_gamma   118.05092669
_symmetry_Int_Tables_number   1
_chemical_formula_structural   Cu2NiC13
_chemical_formula_sum   'Cu2 Ni1 C13'
_cell_volume   242.95613474
_cell_formula_units_Z   1
loop_
 _symmetry_equiv_pos_site_id
 _symmetry_equiv_pos_as_xyz
  1  'x, y, z'
loop_
 _atom_site_type_symbol
 _atom_site_label
 _atom_site_symmetry_multiplicity
 _atom_site_fract_x
 _atom_site_fract_y
 _atom_site_fract_z
 _atom_site_occupancy
  C  C0  1  0.36243000  0.68193300  0.65599400  1
  C  C1  1  0.76588300  0.38466600  0.38483800  1
  C  C2  1  0.88892600  0.94492100  0.99053100  1
  C  C3  1  0.33627500  0.16756800  0.16757700  1
  Ni  Ni4  1  0.06608300  0.03358000  0.53523000  1
  Cu  Cu5  1  0.30671100  0.65272900  0.15612300  1
  Cu  Cu6  1  0.68075800  0.34079800  0.83010000  1
  C  C7  1  0.39954900  0.20002600  0.66009800  1
  C  C8  1  0.85151100  0.17829900  0.68166000  1
  C  C9  1  0.85101600  0.67437800  0.68174800  1
  C  C10  1  0.15859300  0.84299000  0.31430700  1
  C  C11  1  0.58773500  0.79104800  0.30361800  1
  C  C12  1  0.15581200  0.31255300  0.31260700  1
  C  C13  1  0.47345300  0.99718800  0.99363600  1
  C  C14  1  0.97584900  0.48853300  0.00537300  1
  C  C15  1  0.47275100  0.47545600  0.99322900  1
