# generated using pymatgen
data_Cu(NiC4)2
_symmetry_space_group_name_H-M   'P 1'
_cell_length_a   6.17664600
_cell_length_b   6.82626226
_cell_length_c   6.75486538
_cell_angle_alpha   53.02959367
_cell_angle_beta   63.53958208
_cell_angle_gamma   62.35987569
_symmetry_Int_Tables_number   1
_chemical_formula_structural   Cu(NiC4)2
_chemical_formula_sum   'Cu1 Ni2 C8'
_cell_volume   195.91597299
_cell_formula_units_Z   1
loop_
 _symmetry_equiv_pos_site_id
 _symmetry_equiv_pos_as_xyz
  1  'x, y, z'
loop_
 _atom_site_type_symbol
 _atom_site_label
 _atom_site_symmetry_multiplicity
 _atom_site_fract_x
 _atom_site_fract_y
 _atom_site_fract_z
 _atom_site_occupancy
  Ni  Ni0  1  0.24731000  0.32946700  0.30662500  1
  Ni  Ni1  1  0.88340200  0.69337500  0.67053300  1
  Cu  Cu2  1  0.50470500  0.50422300  0.49577700  1
  C  C3  1  0.48400400  0.99361500  0.00638500  1
  C  C4  1  0.00499300  0.98067900  0.01932100  1
  C  C5  1  0.24672600  0.78527500  0.21472500  1
  C  C6  1  0.25588400  0.23545400  0.76454600  1
  C  C7  1  0.15769200  0.80598200  0.80008900  1
  C  C8  1  0.76376300  0.19991100  0.19401800  1
  C  C9  1  0.73233500  0.77396200  0.22603800  1
  C  C10  1  0.71918400  0.20847600  0.79152400  1
