# generated using pymatgen
data_CuNiC8
_symmetry_space_group_name_H-M   'P 1'
_cell_length_a   5.30070295
_cell_length_b   5.30068353
_cell_length_c   5.20091251
_cell_angle_alpha   90.08710763
_cell_angle_beta   90.08656390
_cell_angle_gamma   119.80956545
_symmetry_Int_Tables_number   1
_chemical_formula_structural   CuNiC8
_chemical_formula_sum   'Cu1 Ni1 C8'
_cell_volume   126.79546843
_cell_formula_units_Z   1
loop_
 _symmetry_equiv_pos_site_id
 _symmetry_equiv_pos_as_xyz
  1  'x, y, z'
loop_
 _atom_site_type_symbol
 _atom_site_label
 _atom_site_symmetry_multiplicity
 _atom_site_fract_x
 _atom_site_fract_y
 _atom_site_fract_z
 _atom_site_occupancy
  C  C0  1  0.00116700  0.99881900  0.00002500  1
  Ni  Ni1  1  0.33670700  0.66329500  0.99999300  1
  Cu  Cu2  1  0.33269100  0.66730900  0.50000000  1
  C  C3  1  0.66698700  0.33301500  0.49999800  1
  C  C4  1  0.40321200  0.01567900  0.71813400  1
  C  C5  1  0.98670200  0.38818500  0.71895800  1
  C  C6  1  0.61156600  0.59767900  0.71902300  1
  C  C7  1  0.98432600  0.59676700  0.28186400  1
  C  C8  1  0.61179200  0.01329500  0.28103700  1
  C  C9  1  0.40235000  0.38845700  0.28097100  1
