# generated using pymatgen
data_Cu6Ni6C7
_symmetry_space_group_name_H-M   'P 1'
_cell_length_a   5.10390874
_cell_length_b   14.45300118
_cell_length_c   3.12627827
_cell_angle_alpha   96.15321105
_cell_angle_beta   89.97533352
_cell_angle_gamma   96.60941646
_symmetry_Int_Tables_number   1
_chemical_formula_structural   Cu6Ni6C7
_chemical_formula_sum   'Cu6 Ni6 C7'
_cell_volume   227.74649957
_cell_formula_units_Z   1
loop_
 _symmetry_equiv_pos_site_id
 _symmetry_equiv_pos_as_xyz
  1  'x, y, z'
loop_
 _atom_site_type_symbol
 _atom_site_label
 _atom_site_symmetry_multiplicity
 _atom_site_fract_x
 _atom_site_fract_y
 _atom_site_fract_z
 _atom_site_occupancy
  C  C0  1  0.55319287  0.34477902  0.69177474  1
  C  C1  1  0.05054612  0.98850325  0.01684609  1
  C  C2  1  0.04606365  0.31626856  0.17208624  1
  C  C3  1  0.93735910  0.68375833  0.86289831  1
  C  C4  1  0.53562078  0.14462717  0.58686683  1
  C  C5  1  0.43828531  0.53922849  0.29032717  1
  C  C6  1  0.43123516  0.83266295  0.43870118  1
  Ni  Ni7  1  0.17132882  0.92774764  0.48611341  1
  Ni  Ni8  1  0.27815201  0.76891187  0.90678373  1
  Ni  Ni9  1  0.35130296  0.08735265  0.05965356  1
  Ni  Ni10  1  0.39550190  0.40675692  0.22175336  1
  Ni  Ni11  1  0.61676665  0.58143197  0.81116470  1
  Ni  Ni12  1  0.68385777  0.24096834  0.13070019  1
  Cu  Cu13  1  0.23598788  0.24548873  0.63785318  1
  Cu  Cu14  1  0.11085475  0.59460490  0.31935021  1
  Cu  Cu15  1  0.67067962  0.90993720  0.97728210  1
  Cu  Cu16  1  0.91355884  0.40023272  0.71327566  1
  Cu  Cu17  1  0.74511324  0.75360145  0.39799142  1
  Cu  Cu18  1  0.84848558  0.06646983  0.54941092  1
