# generated using pymatgen
data_Cu4NiC14
_symmetry_space_group_name_H-M   'P 1'
_cell_length_a   5.77710236
_cell_length_b   5.75346475
_cell_length_c   9.51692550
_cell_angle_alpha   94.98256245
_cell_angle_beta   107.16886873
_cell_angle_gamma   89.49921099
_symmetry_Int_Tables_number   1
_chemical_formula_structural   Cu4NiC14
_chemical_formula_sum   'Cu4 Ni1 C14'
_cell_volume   301.04153927
_cell_formula_units_Z   1
loop_
 _symmetry_equiv_pos_site_id
 _symmetry_equiv_pos_as_xyz
  1  'x, y, z'
loop_
 _atom_site_type_symbol
 _atom_site_label
 _atom_site_symmetry_multiplicity
 _atom_site_fract_x
 _atom_site_fract_y
 _atom_site_fract_z
 _atom_site_occupancy
  C  C0  1  0.60202292  0.09924493  0.23212094  1
  C  C1  1  0.36317126  0.86607694  0.75784178  1
  C  C2  1  0.14010460  0.65863183  0.31019842  1
  C  C3  1  0.80095859  0.27406044  0.66637745  1
  Ni  Ni4  1  0.96563766  0.59104295  0.94749557  1
  Cu  Cu5  1  0.01101689  0.08493508  0.04239933  1
  Cu  Cu6  1  0.49622438  0.53364783  0.01191470  1
  Cu  Cu7  1  0.21364527  0.20434733  0.46904797  1
  Cu  Cu8  1  0.75821196  0.75505996  0.53204212  1
  C  C9  1  0.20674595  0.30393963  0.96584483  1
  C  C10  1  0.25692396  0.79714655  0.04558912  1
  C  C11  1  0.74142871  0.30721496  0.96460779  1
  C  C12  1  0.76903773  0.80002942  0.04653615  1
  C  C13  1  0.11143859  0.16455775  0.24999018  1
  C  C14  1  0.86610601  0.72980823  0.74360562  1
  C  C15  1  0.71650198  0.49539198  0.39706721  1
  C  C16  1  0.32659231  0.42854212  0.62637049  1
  C  C17  1  0.98775393  0.95943815  0.49849232  1
  C  C18  1  0.48406129  0.94688491  0.49245704  1
