# generated using pymatgen
data_Cu2Ni
_symmetry_space_group_name_H-M   'P 1'
_cell_length_a   4.79276231
_cell_length_b   4.79276231
_cell_length_c   15.68498000
_cell_angle_alpha   90.00000000
_cell_angle_beta   90.00000000
_cell_angle_gamma   120.00000423
_symmetry_Int_Tables_number   1
_chemical_formula_structural   Cu2Ni
_chemical_formula_sum   'Cu16 Ni8'
_cell_volume   312.02282492
_cell_formula_units_Z   8
loop_
 _symmetry_equiv_pos_site_id
 _symmetry_equiv_pos_as_xyz
  1  'x, y, z'
loop_
 _atom_site_type_symbol
 _atom_site_label
 _atom_site_symmetry_multiplicity
 _atom_site_fract_x
 _atom_site_fract_y
 _atom_site_fract_z
 _atom_site_occupancy
  Ni  Ni0  1  0.00000000  0.00000000  0.40627300  1
  Ni  Ni1  1  0.00000000  0.00000000  0.59372700  1
  Ni  Ni2  1  0.00000000  0.00000000  0.90627300  1
  Ni  Ni3  1  0.00000000  0.00000000  0.09372700  1
  Ni  Ni4  1  0.33333300  0.66666700  0.65598700  1
  Ni  Ni5  1  0.66666700  0.33333300  0.34401300  1
  Ni  Ni6  1  0.66666700  0.33333300  0.15598700  1
  Ni  Ni7  1  0.33333300  0.66666700  0.84401300  1
  Cu  Cu8  1  0.33333300  0.66666700  0.37498900  1
  Cu  Cu9  1  0.66666700  0.33333300  0.62501100  1
  Cu  Cu10  1  0.66666700  0.33333300  0.87498900  1
  Cu  Cu11  1  0.33333300  0.66666700  0.12501100  1
  Cu  Cu12  1  0.50000000  0.50000000  0.50000000  1
  Cu  Cu13  1  0.50000000  0.00000000  0.50000000  1
  Cu  Cu14  1  0.00000000  0.50000000  0.50000000  1
  Cu  Cu15  1  0.50000000  0.50000000  0.00000000  1
  Cu  Cu16  1  0.50000000  0.00000000  0.00000000  1
  Cu  Cu17  1  0.00000000  0.50000000  0.00000000  1
  Cu  Cu18  1  0.16461000  0.83539000  0.25000000  1
  Cu  Cu19  1  0.16461000  0.32921900  0.25000000  1
  Cu  Cu20  1  0.67078100  0.83539000  0.25000000  1
  Cu  Cu21  1  0.83539000  0.16461000  0.75000000  1
  Cu  Cu22  1  0.83539000  0.67078100  0.75000000  1
  Cu  Cu23  1  0.32921900  0.16461000  0.75000000  1
