# generated using pymatgen
data_Cu8NiC16
_symmetry_space_group_name_H-M   'P 1'
_cell_length_a   2.95200303
_cell_length_b   10.69065356
_cell_length_c   10.57848130
_cell_angle_alpha   89.37052319
_cell_angle_beta   89.99289041
_cell_angle_gamma   90.01585855
_symmetry_Int_Tables_number   1
_chemical_formula_structural   Cu8NiC16
_chemical_formula_sum   'Cu8 Ni1 C16'
_cell_volume   333.82445413
_cell_formula_units_Z   1
loop_
 _symmetry_equiv_pos_site_id
 _symmetry_equiv_pos_as_xyz
  1  'x, y, z'
loop_
 _atom_site_type_symbol
 _atom_site_label
 _atom_site_symmetry_multiplicity
 _atom_site_fract_x
 _atom_site_fract_y
 _atom_site_fract_z
 _atom_site_occupancy
  Ni  Ni0  1  0.00995800  0.97453800  0.50334500  1
  Cu  Cu1  1  0.00896100  0.13660600  0.31570100  1
  Cu  Cu2  1  0.00894700  0.63467300  0.14528300  1
  Cu  Cu3  1  0.50907100  0.61668900  0.83944100  1
  Cu  Cu4  1  0.50938200  0.14583000  0.68211500  1
  Cu  Cu5  1  0.00889500  0.81228200  0.69096900  1
  Cu  Cu6  1  0.00918600  0.31432300  0.86156100  1
  Cu  Cu7  1  0.50891900  0.33234600  0.16733700  1
  Cu  Cu8  1  0.50929500  0.80295800  0.32492500  1
  C  C9  1  0.00886900  0.32565200  0.28748100  1
  C  C10  1  0.00878600  0.32730500  0.04878400  1
  C  C11  1  0.00914100  0.68756500  0.33658500  1
  C  C12  1  0.00939700  0.92569900  0.32092300  1
  C  C13  1  0.50883600  0.80377700  0.80821100  1
  C  C14  1  0.50981600  0.84180400  0.55204600  1
  C  C15  1  0.50942100  0.19623600  0.86664500  1
  C  C16  1  0.50908800  0.43094200  0.84277100  1
  C  C17  1  0.00916300  0.62324800  0.71933000  1
  C  C18  1  0.00890400  0.62173600  0.95799700  1
  C  C19  1  0.00919600  0.26122600  0.67036400  1
  C  C20  1  0.00951100  0.02304400  0.68583000  1
  C  C21  1  0.50869100  0.14518500  0.19841700  1
  C  C22  1  0.50975200  0.10711300  0.45453100  1
  C  C23  1  0.50899000  0.75273500  0.14031700  1
  C  C24  1  0.50899100  0.51798800  0.16409300  1
