# generated using pymatgen
data_CuNiC19
_symmetry_space_group_name_H-M   'P 1'
_cell_length_a   9.06649052
_cell_length_b   9.02850389
_cell_length_c   21.84912321
_cell_angle_alpha   89.83032989
_cell_angle_beta   89.95739438
_cell_angle_gamma   120.21797464
_symmetry_Int_Tables_number   1
_chemical_formula_structural   CuNiC19
_chemical_formula_sum   'Cu6 Ni6 C114'
_cell_volume   1545.46148168
_cell_formula_units_Z   6
loop_
 _symmetry_equiv_pos_site_id
 _symmetry_equiv_pos_as_xyz
  1  'x, y, z'
loop_
 _atom_site_type_symbol
 _atom_site_label
 _atom_site_symmetry_multiplicity
 _atom_site_fract_x
 _atom_site_fract_y
 _atom_site_fract_z
 _atom_site_occupancy
  C  C0  1  0.63383017  0.00783451  0.25508354  1
  C  C1  1  0.35403956  0.35281004  0.24630738  1
  C  C2  1  0.00832903  0.63240570  0.24834602  1
  C  C3  1  0.62350132  0.63213871  0.74849081  1
  C  C4  1  0.00060453  0.35612609  0.74699467  1
  C  C5  1  0.37294670  0.00571242  0.75522437  1
  C  C6  1  0.30093045  0.34214925  0.58775431  1
  C  C7  1  0.02404142  0.68805940  0.57948793  1
  C  C8  1  0.67242496  0.96420716  0.58134094  1
  C  C9  1  0.29160889  0.96445105  0.08165478  1
  C  C10  1  0.66441191  0.68824448  0.07962783  1
  C  C11  1  0.04102900  0.34177271  0.08782138  1
  C  C12  1  0.96646511  0.67322442  0.92133654  1
  C  C13  1  0.69177487  0.02443836  0.91349234  1
  C  C14  1  0.33968595  0.29725154  0.91495609  1
  C  C15  1  0.95686966  0.29875110  0.41512493  1
  C  C16  1  0.33381834  0.02281978  0.41343488  1
  C  C17  1  0.70613120  0.67219097  0.42203445  1
  C  C18  1  0.98560672  0.99178609  0.49994998  1
  C  C19  1  0.00621567  0.99260452  0.99934683  1
  C  C20  1  0.65310576  0.32511295  0.83403322  1
  C  C21  1  0.67209946  0.32465553  0.33397451  1
  C  C22  1  0.31911913  0.65885380  0.16600544  1
  C  C23  1  0.33879260  0.65882876  0.66657122  1
  Ni  Ni24  1  0.00114335  0.00194628  0.34823259  1
  Ni  Ni25  1  0.99288567  0.00515100  0.65125466  1
  Ni  Ni26  1  0.01307330  0.00564261  0.15164469  1
  Ni  Ni27  1  0.66730155  0.33486352  0.68201931  1
  Ni  Ni28  1  0.66737900  0.33441153  0.18231112  1
  Ni  Ni29  1  0.32568188  0.67204343  0.31757999  1
  Cu  Cu30  1  0.00041147  0.00178857  0.84489455  1
  Cu  Cu31  1  0.65613963  0.34400516  0.98814329  1
  Cu  Cu32  1  0.68905515  0.34446605  0.48785572  1
  Cu  Cu33  1  0.33363211  0.66759888  0.01247143  1
  Cu  Cu34  1  0.33359260  0.66793166  0.51188571  1
  Cu  Cu35  1  0.35445179  0.67702586  0.82053327  1
  C  C36  1  0.29959683  0.00093281  0.25022163  1
  C  C37  1  0.99973298  0.29646779  0.25000983  1
  C  C38  1  0.29756238  0.29646241  0.74982084  1
  C  C39  1  0.70167341  0.00226167  0.74984741  1
  C  C40  1  0.96733301  0.33331119  0.58410673  1
  C  C41  1  0.66701599  0.63051522  0.58354667  1
  C  C42  1  0.96333641  0.63078114  0.08371599  1
  C  C43  1  0.36624417  0.33337461  0.08419107  1
  C  C44  1  0.63502959  0.66803166  0.91712463  1
  C  C45  1  0.33308625  0.96395931  0.91677716  1
  C  C46  1  0.63065050  0.96286562  0.41647789  1
  C  C47  1  0.03502927  0.66906257  0.41658372  1
  C  C48  1  0.70404499  0.70471369  0.24987621  1
  C  C49  1  0.99871228  0.70244199  0.74889472  1
  C  C50  1  0.36897952  0.03865674  0.58391841  1
  C  C51  1  0.66962698  0.03840560  0.08397983  1
  C  C52  1  0.03517108  0.36953098  0.91627256  1
  C  C53  1  0.33213607  0.36915409  0.41549409  1
  C  C54  1  0.21607239  0.02861016  0.30749062  1
  C  C55  1  0.80968706  0.78545148  0.30486139  1
  C  C56  1  0.97053131  0.18419306  0.30727925  1
  C  C57  1  0.21932714  0.18614923  0.80842987  1
  C  C58  1  0.97187939  0.77778915  0.80531540  1
  C  C59  1  0.80943179  0.03128311  0.80854656  1
  C  C60  1  0.78579658  0.97120515  0.69397631  1
  C  C61  1  0.18665061  0.20831665  0.69319824  1
  C  C62  1  0.02360483  0.81195039  0.69474539  1
  C  C63  1  0.78416044  0.81154391  0.19469816  1
  C  C64  1  0.02329614  0.21116687  0.19251924  1
  C  C65  1  0.18649321  0.96914985  0.19340795  1
  C  C66  1  0.88010013  0.36043157  0.64013863  1
  C  C67  1  0.47654909  0.12325483  0.63813961  1
  C  C68  1  0.63930982  0.51654784  0.63992805  1
  C  C69  1  0.87695779  0.51665213  0.14015003  1
  C  C70  1  0.64646162  0.12290076  0.13820914  1
  C  C71  1  0.48070421  0.36086624  0.14026278  1
  C  C72  1  0.44034266  0.29713334  0.02580078  1
  C  C73  1  0.85793530  0.55010157  0.02467380  1
  C  C74  1  0.69731998  0.14208245  0.02766293  1
  C  C75  1  0.44502006  0.14245300  0.52756047  1
  C  C76  1  0.69190344  0.54971948  0.52446356  1
  C  C77  1  0.85683207  0.29670635  0.52572338  1
  C  C78  1  0.55257901  0.69658415  0.97473622  1
  C  C79  1  0.13941350  0.44875993  0.97199358  1
  C  C80  1  0.30260549  0.85197242  0.97456249  1
  C  C81  1  0.55212407  0.85278828  0.47516558  1
  C  C82  1  0.30540049  0.44459127  0.47194382  1
  C  C83  1  0.14291321  0.69815972  0.47533295  1
  C  C84  1  0.11922137  0.63812972  0.36068630  1
  C  C85  1  0.52005390  0.87457741  0.35972123  1
  C  C86  1  0.35708658  0.47874522  0.36131540  1
  C  C87  1  0.11593849  0.47617235  0.86085510  1
  C  C88  1  0.35686982  0.88031372  0.85846699  1
  C  C89  1  0.52249739  0.63234279  0.85969239  1
  C  C90  1  0.01734332  0.83166627  0.41076732  1
  C  C91  1  0.81274552  0.98561477  0.41173047  1
  C  C92  1  0.17649764  0.19586556  0.41038875  1
  C  C93  1  0.01843851  0.19650014  0.91269500  1
  C  C94  1  0.17267246  0.98487016  0.91291954  1
  C  C95  1  0.81457549  0.83261025  0.91192425  1
  C  C96  1  0.98975887  0.17365458  0.58886337  1
  C  C97  1  0.19500913  0.01683370  0.59010861  1
  C  C98  1  0.83254284  0.81018476  0.58832353  1
  C  C99  1  0.97747924  0.81022923  0.08852244  1
  C  C100  1  0.82169779  0.01670438  0.09013022  1
  C  C101  1  0.18399035  0.17361553  0.08889651  1
  C  C102  1  0.68412827  0.16496022  0.74402453  1
  C  C103  1  0.47979911  0.31958136  0.74508128  1
  C  C104  1  0.84325688  0.52906947  0.74370535  1
  C  C105  1  0.68645164  0.53155511  0.24512715  1
  C  C106  1  0.84008834  0.31925690  0.24554485  1
  C  C107  1  0.48028431  0.16483952  0.24448022  1
  C  C108  1  0.65592803  0.50684085  0.92054978  1
  C  C109  1  0.86202063  0.34936087  0.92107880  1
  C  C110  1  0.49976488  0.14286161  0.92084710  1
  C  C111  1  0.64279727  0.14193666  0.42042034  1
  C  C112  1  0.48550632  0.34989180  0.41976840  1
  C  C113  1  0.85224903  0.50681320  0.41965531  1
  C  C114  1  0.35219120  0.49882646  0.07911952  1
  C  C115  1  0.14523116  0.65182221  0.08015752  1
  C  C116  1  0.51287158  0.86533180  0.08084136  1
  C  C117  1  0.35249804  0.86575909  0.58082597  1
  C  C118  1  0.50621897  0.65135972  0.57998162  1
  C  C119  1  0.14702117  0.49885146  0.57900119  1
  C  C120  1  0.32182942  0.84053229  0.25466122  1
  C  C121  1  0.53043404  0.68364854  0.25555966  1
  C  C122  1  0.16574228  0.47643631  0.25470222  1
  C  C123  1  0.30982915  0.47561862  0.75374936  1
  C  C124  1  0.15215572  0.68326569  0.75315595  1
  C  C125  1  0.51878945  0.84020240  0.75295753  1
