# generated using pymatgen
data_Cu2NiC14
_symmetry_space_group_name_H-M   'P 1'
_cell_length_a   5.55496568
_cell_length_b   7.38597302
_cell_length_c   8.24292962
_cell_angle_alpha   91.01838673
_cell_angle_beta   42.29767148
_cell_angle_gamma   107.32924788
_symmetry_Int_Tables_number   1
_chemical_formula_structural   Cu2NiC14
_chemical_formula_sum   'Cu2 Ni1 C14'
_cell_volume   206.18944513
_cell_formula_units_Z   1
loop_
 _symmetry_equiv_pos_site_id
 _symmetry_equiv_pos_as_xyz
  1  'x, y, z'
loop_
 _atom_site_type_symbol
 _atom_site_label
 _atom_site_symmetry_multiplicity
 _atom_site_fract_x
 _atom_site_fract_y
 _atom_site_fract_z
 _atom_site_occupancy
  Ni  Ni0  1  0.01717600  0.83281700  0.14360800  1
  C  C1  1  0.44732900  0.46860800  0.53413600  1
  C  C2  1  0.45511900  0.99496200  0.52512900  1
  Cu  Cu3  1  0.75697100  0.35327700  0.08445400  1
  Cu  Cu4  1  0.82817200  0.87183100  0.60456600  1
  C  C5  1  0.43812400  0.23230800  0.89535800  1
  C  C6  1  0.47629800  0.72894600  0.14586700  1
  C  C7  1  0.47772000  0.04125200  0.77282800  1
  C  C8  1  0.31692600  0.36502700  0.82815300  1
  C  C9  1  0.38229000  0.88462700  0.31566900  1
  C  C10  1  0.63580200  0.60347200  0.18909100  1
  C  C11  1  0.09173500  0.61238500  0.22274900  1
  C  C12  1  0.84492600  0.85564300  0.83758400  1
  C  C13  1  0.83181800  0.36057700  0.81038900  1
  C  C14  1  0.07100500  0.10641700  0.19974800  1
  C  C15  1  0.53472700  0.74815600  0.54896100  1
  C  C16  1  0.46991300  0.23702600  0.42082100  1
