# generated using pymatgen
data_Cu4NiC13
_symmetry_space_group_name_H-M   'P 1'
_cell_length_a   9.55785200
_cell_length_b   9.55785200
_cell_length_c   9.51758300
_cell_angle_alpha   90.00000000
_cell_angle_beta   90.00000000
_cell_angle_gamma   90.00000000
_symmetry_Int_Tables_number   1
_chemical_formula_structural   Cu4NiC13
_chemical_formula_sum   'Cu16 Ni4 C52'
_cell_volume   869.45533273
_cell_formula_units_Z   4
loop_
 _symmetry_equiv_pos_site_id
 _symmetry_equiv_pos_as_xyz
  1  'x, y, z'
loop_
 _atom_site_type_symbol
 _atom_site_label
 _atom_site_symmetry_multiplicity
 _atom_site_fract_x
 _atom_site_fract_y
 _atom_site_fract_z
 _atom_site_occupancy
  C  C0  1  0.25000000  0.75000000  0.25000000  1
  C  C1  1  0.75000000  0.25000000  0.25000000  1
  C  C2  1  0.25000000  0.25000000  0.75000000  1
  C  C3  1  0.75000000  0.75000000  0.75000000  1
  Ni  Ni4  1  0.00000000  0.50000000  0.25000000  1
  Ni  Ni5  1  0.50000000  0.00000000  0.75000000  1
  Ni  Ni6  1  0.50000000  0.00000000  0.25000000  1
  Ni  Ni7  1  0.00000000  0.50000000  0.75000000  1
  Cu  Cu8  1  0.00000000  0.22303900  0.00000000  1
  Cu  Cu9  1  0.72303900  0.50000000  0.50000000  1
  Cu  Cu10  1  0.78378300  0.00000000  0.50000000  1
  Cu  Cu11  1  0.00000000  0.78378300  0.50000000  1
  Cu  Cu12  1  0.00000000  0.77696100  0.00000000  1
  Cu  Cu13  1  0.71621700  0.50000000  0.00000000  1
  Cu  Cu14  1  0.27696100  0.50000000  0.50000000  1
  Cu  Cu15  1  0.50000000  0.72303900  0.50000000  1
  Cu  Cu16  1  0.21621700  0.00000000  0.50000000  1
  Cu  Cu17  1  0.22303900  0.00000000  0.00000000  1
  Cu  Cu18  1  0.50000000  0.27696100  0.50000000  1
  Cu  Cu19  1  0.50000000  0.28378300  0.00000000  1
  Cu  Cu20  1  0.50000000  0.71621700  0.00000000  1
  Cu  Cu21  1  0.77696100  0.00000000  0.00000000  1
  Cu  Cu22  1  0.00000000  0.21621700  0.50000000  1
  Cu  Cu23  1  0.28378300  0.50000000  0.00000000  1
  C  C24  1  0.79986800  0.56369100  0.37847800  1
  C  C25  1  0.20013200  0.56369100  0.62152200  1
  C  C26  1  0.38401500  0.61598500  0.43344400  1
  C  C27  1  0.61077600  0.38922400  0.92772300  1
  C  C28  1  0.79280800  0.57263400  0.88241100  1
  C  C29  1  0.06369100  0.70013200  0.87847800  1
  C  C30  1  0.57263400  0.79280800  0.88241100  1
  C  C31  1  0.43630900  0.20013200  0.37847800  1
  C  C32  1  0.56369100  0.20013200  0.62152200  1
  C  C33  1  0.11077600  0.88922400  0.57227700  1
  C  C34  1  0.07263400  0.70719200  0.38241100  1
  C  C35  1  0.20013200  0.43630900  0.37847800  1
  C  C36  1  0.43630900  0.79986800  0.62152200  1
  C  C37  1  0.79986800  0.43630900  0.62152200  1
  C  C38  1  0.56369100  0.79986800  0.37847800  1
  C  C39  1  0.29280800  0.92736600  0.38241100  1
  C  C40  1  0.93630900  0.29986800  0.87847800  1
  C  C41  1  0.11598500  0.88401500  0.06655600  1
  C  C42  1  0.11077600  0.11077600  0.42772300  1
  C  C43  1  0.38922400  0.38922400  0.07227700  1
  C  C44  1  0.92736600  0.70719200  0.61758900  1
  C  C45  1  0.20719200  0.42736600  0.88241100  1
  C  C46  1  0.29986800  0.93630900  0.87847800  1
  C  C47  1  0.79280800  0.42736600  0.11758900  1
  C  C48  1  0.29280800  0.07263400  0.61758900  1
  C  C49  1  0.38401500  0.38401500  0.56655600  1
  C  C50  1  0.93630900  0.70013200  0.12152200  1
  C  C51  1  0.06369100  0.29986800  0.12152200  1
  C  C52  1  0.38922400  0.61077600  0.92772300  1
  C  C53  1  0.42736600  0.79280800  0.11758900  1
  C  C54  1  0.88401500  0.88401500  0.93344400  1
  C  C55  1  0.57263400  0.20719200  0.11758900  1
  C  C56  1  0.61598500  0.38401500  0.43344400  1
  C  C57  1  0.70013200  0.06369100  0.87847800  1
  C  C58  1  0.07263400  0.29280800  0.61758900  1
  C  C59  1  0.88922400  0.88922400  0.42772300  1
  C  C60  1  0.20719200  0.57263400  0.11758900  1
  C  C61  1  0.92736600  0.29280800  0.38241100  1
  C  C62  1  0.70719200  0.92736600  0.61758900  1
  C  C63  1  0.61598500  0.61598500  0.56655600  1
  C  C64  1  0.88401500  0.11598500  0.06655600  1
  C  C65  1  0.61077600  0.61077600  0.07227700  1
  C  C66  1  0.29986800  0.06369100  0.12152200  1
  C  C67  1  0.11598500  0.11598500  0.93344400  1
  C  C68  1  0.70719200  0.07263400  0.38241100  1
  C  C69  1  0.88922400  0.11077600  0.57227700  1
  C  C70  1  0.70013200  0.93630900  0.12152200  1
  C  C71  1  0.42736600  0.20719200  0.88241100  1
