# generated using pymatgen
data_CuNiC18
_symmetry_space_group_name_H-M   'P 1'
_cell_length_a   16.49856908
_cell_length_b   9.44115390
_cell_length_c   9.61057867
_cell_angle_alpha   90.10362327
_cell_angle_beta   124.91326366
_cell_angle_gamma   89.82046616
_symmetry_Int_Tables_number   1
_chemical_formula_structural   CuNiC18
_chemical_formula_sum   'Cu4 Ni4 C72'
_cell_volume   1227.56046243
_cell_formula_units_Z   4
loop_
 _symmetry_equiv_pos_site_id
 _symmetry_equiv_pos_as_xyz
  1  'x, y, z'
loop_
 _atom_site_type_symbol
 _atom_site_label
 _atom_site_symmetry_multiplicity
 _atom_site_fract_x
 _atom_site_fract_y
 _atom_site_fract_z
 _atom_site_occupancy
  C  C0  1  0.24356035  0.76724322  0.99728082  1
  C  C1  1  0.74681834  0.73196452  0.50500254  1
  C  C2  1  0.74745013  0.26538018  0.00465103  1
  C  C3  1  0.24344092  0.23078464  0.49968032  1
  C  C4  1  0.50457708  0.08728097  0.75061364  1
  C  C5  1  0.50168117  0.92247025  0.23877951  1
  C  C6  1  0.00490414  0.58091785  0.75008505  1
  C  C7  1  0.00134152  0.41054748  0.24032418  1
  C  C8  1  0.81643860  0.92239456  0.19283715  1
  C  C9  1  0.81696096  0.08015371  0.69722547  1
  C  C10  1  0.30961757  0.42255580  0.18379977  1
  C  C11  1  0.31572249  0.57545436  0.69952361  1
  Ni  Ni12  1  0.10382745  0.76499329  0.55151597  1
  Ni  Ni13  1  0.60223765  0.26535606  0.55080023  1
  Ni  Ni14  1  0.39800777  0.74841396  0.44270983  1
  Ni  Ni15  1  0.60449456  0.73483274  0.05217104  1
  Cu  Cu16  1  0.89905408  0.75090785  0.94512458  1
  Cu  Cu17  1  0.89997204  0.24812959  0.44531718  1
  Cu  Cu18  1  0.10290622  0.23874147  0.05185827  1
  Cu  Cu19  1  0.39918978  0.25135494  0.94550095  1
  C  C20  1  0.99388990  0.94734568  0.74620718  1
  C  C21  1  0.99272508  0.06035523  0.23806591  1
  C  C22  1  0.49063096  0.43294656  0.74282882  1
  C  C23  1  0.49053495  0.55958698  0.23565586  1
  C  C24  1  0.35539108  0.90524487  0.76646567  1
  C  C25  1  0.65918633  0.90508564  0.75264657  1
  C  C26  1  0.65603238  0.09935940  0.25033121  1
  C  C27  1  0.35234171  0.10220470  0.25378816  1
  C  C28  1  0.85976138  0.40169298  0.75980919  1
  C  C29  1  0.15265659  0.39856251  0.75230412  1
  C  C30  1  0.15184299  0.59128732  0.24505227  1
  C  C31  1  0.85793445  0.59563949  0.26039763  1
  C  C32  1  0.15707970  0.56439032  0.75231986  1
  C  C33  1  0.85081982  0.56657503  0.75051075  1
  C  C34  1  0.84868006  0.43141481  0.24679762  1
  C  C35  1  0.15435339  0.42584383  0.24075077  1
  C  C36  1  0.66593308  0.07019235  0.75523959  1
  C  C37  1  0.34368175  0.06911849  0.74970371  1
  C  C38  1  0.34217375  0.93860006  0.23118931  1
  C  C39  1  0.66191987  0.93393094  0.25023360  1
  C  C40  1  0.43508341  0.52576289  0.58064846  1
  C  C41  1  0.54326874  0.53126623  0.89902898  1
  C  C42  1  0.54051721  0.46948823  0.39889100  1
  C  C43  1  0.44201593  0.46093719  0.07908442  1
  C  C44  1  0.93538196  0.03895586  0.58214827  1
  C  C45  1  0.04753744  0.04671803  0.90144965  1
  C  C46  1  0.05327393  0.97071640  0.40104652  1
  C  C47  1  0.93298845  0.95939543  0.08313660  1
  C  C48  1  0.27169475  0.83043725  0.76598745  1
  C  C49  1  0.74380055  0.84148283  0.74626576  1
  C  C50  1  0.74164295  0.16114990  0.24613531  1
  C  C51  1  0.26381412  0.17245757  0.24328902  1
  C  C52  1  0.77436091  0.32969334  0.75694576  1
  C  C53  1  0.24084628  0.33969786  0.75304541  1
  C  C54  1  0.23462716  0.64946422  0.23080973  1
  C  C55  1  0.77269713  0.66826462  0.25828891  1
  C  C56  1  0.35639642  0.85041859  0.61464571  1
  C  C57  1  0.66815703  0.86353895  0.91806442  1
  C  C58  1  0.66572479  0.13847074  0.41729248  1
  C  C59  1  0.36115776  0.16310226  0.11256258  1
  C  C60  1  0.86016278  0.35078390  0.60618043  1
  C  C61  1  0.15894939  0.35787954  0.91591467  1
  C  C62  1  0.16837601  0.63036726  0.41774817  1
  C  C63  1  0.86012303  0.65058274  0.10995829  1
  C  C64  1  0.45508380  0.86631653  0.93340067  1
  C  C65  1  0.55774631  0.85517544  0.59576278  1
  C  C66  1  0.55410067  0.15172423  0.09518876  1
  C  C67  1  0.44863315  0.13914326  0.42820526  1
  C  C68  1  0.95894315  0.35756899  0.92488318  1
  C  C69  1  0.05301276  0.34507146  0.59372945  1
  C  C70  1  0.04974188  0.64865313  0.09651838  1
  C  C71  1  0.95593940  0.63705489  0.42904828  1
  C  C72  1  0.06912281  0.84409926  0.75182425  1
  C  C73  1  0.91549959  0.85756619  0.74929852  1
  C  C74  1  0.91452553  0.15054888  0.24224371  1
  C  C75  1  0.06378243  0.16261234  0.23143930  1
  C  C76  1  0.56783711  0.32920774  0.75535364  1
  C  C77  1  0.40977641  0.34427325  0.73879002  1
  C  C78  1  0.40518973  0.64768557  0.21886997  1
  C  C79  1  0.56869508  0.66301234  0.25177693  1
