# generated using pymatgen
data_CuNi2C17
_symmetry_space_group_name_H-M   'P 1'
_cell_length_a   15.43652169
_cell_length_b   26.58644432
_cell_length_c   8.92035977
_cell_angle_alpha   90.00000000
_cell_angle_beta   124.99387871
_cell_angle_gamma   90.00000000
_symmetry_Int_Tables_number   1
_chemical_formula_structural   CuNi2C17
_chemical_formula_sum   'Cu12 Ni24 C204'
_cell_volume   2999.08711218
_cell_formula_units_Z   12
loop_
 _symmetry_equiv_pos_site_id
 _symmetry_equiv_pos_as_xyz
  1  'x, y, z'
loop_
 _atom_site_type_symbol
 _atom_site_label
 _atom_site_symmetry_multiplicity
 _atom_site_fract_x
 _atom_site_fract_y
 _atom_site_fract_z
 _atom_site_occupancy
  C  C0  1  0.25713439  0.25391534  0.00607386  1
  C  C1  1  0.24992432  0.58695630  0.01675412  1
  C  C2  1  0.25102930  0.91755540  0.01825235  1
  C  C3  1  0.75713439  0.24608466  0.50607386  1
  C  C4  1  0.75102930  0.58244460  0.51825235  1
  C  C5  1  0.74992432  0.91304370  0.51675412  1
  C  C6  1  0.74992432  0.08695630  0.01675412  1
  C  C7  1  0.75102930  0.41755540  0.01825235  1
  C  C8  1  0.75713439  0.75391534  0.00607386  1
  C  C9  1  0.25102930  0.08244460  0.51825235  1
  C  C10  1  0.24992432  0.41304370  0.51675412  1
  C  C11  1  0.25713439  0.74608466  0.50607386  1
  C  C12  1  0.49717214  0.03829784  0.75234155  1
  C  C13  1  0.49939852  0.37230249  0.75759341  1
  C  C14  1  0.49708225  0.70472052  0.74707670  1
  C  C15  1  0.49708225  0.29527948  0.24707670  1
  C  C16  1  0.49939852  0.62769751  0.25759341  1
  C  C17  1  0.49717214  0.96170216  0.25234155  1
  C  C18  1  0.99708225  0.20472052  0.74707670  1
  C  C19  1  0.99717214  0.53829784  0.75234155  1
  C  C20  1  0.99939852  0.87230249  0.75759341  1
  C  C21  1  0.99939852  0.12769751  0.25759341  1
  C  C22  1  0.99717214  0.46170216  0.25234155  1
  C  C23  1  0.99708225  0.79527948  0.24707670  1
  C  C24  1  0.81239006  0.64480347  0.21242147  1
  C  C25  1  0.81348844  0.97911463  0.22446760  1
  C  C26  1  0.19699046  0.31000295  0.28451977  1
  C  C27  1  0.19699046  0.68999705  0.78451977  1
  C  C28  1  0.81348844  0.02088537  0.72446760  1
  C  C29  1  0.81239006  0.35519653  0.71242147  1
  C  C30  1  0.31239006  0.14480347  0.21242147  1
  C  C31  1  0.31348844  0.47911463  0.22446760  1
  C  C32  1  0.69699046  0.81000295  0.28451977  1
  C  C33  1  0.69699046  0.18999705  0.78451977  1
  C  C34  1  0.31348844  0.52088537  0.72446760  1
  C  C35  1  0.31239006  0.85519653  0.71242147  1
  C  C36  1  0.11040884  0.24727415  0.57089066  1
  C  C37  1  0.10421943  0.58261755  0.56742043  1
  C  C38  1  0.10649397  0.91763362  0.56634535  1
  C  C39  1  0.10649397  0.08236638  0.06634535  1
  C  C40  1  0.10421943  0.41738245  0.06742043  1
  C  C41  1  0.11040884  0.75272585  0.07089066  1
  C  C42  1  0.60421943  0.08261755  0.56742043  1
  C  C43  1  0.60649397  0.41763362  0.56634535  1
  C  C44  1  0.61040884  0.74727415  0.57089066  1
  C  C45  1  0.61040884  0.25272585  0.07089066  1
  C  C46  1  0.60649397  0.58236638  0.06634535  1
  C  C47  1  0.60421943  0.91738245  0.06742043  1
  C  C48  1  0.89673385  0.24918203  0.93937527  1
  C  C49  1  0.89262283  0.58153793  0.93476595  1
  C  C50  1  0.89278156  0.91247186  0.93613594  1
  C  C51  1  0.89278156  0.08752814  0.43613594  1
  C  C52  1  0.89262283  0.41846207  0.43476595  1
  C  C53  1  0.89673385  0.75081797  0.43937527  1
  C  C54  1  0.39262283  0.08153793  0.93476595  1
  C  C55  1  0.39278156  0.41247186  0.93613594  1
  C  C56  1  0.39673385  0.74918203  0.93937527  1
  C  C57  1  0.39673385  0.25081797  0.43937527  1
  C  C58  1  0.39278156  0.58752814  0.43613594  1
  C  C59  1  0.39262283  0.91846207  0.43476595  1
  Ni  Ni60  1  0.35618744  0.29938464  0.74820968  1
  Ni  Ni61  1  0.35651907  0.63342911  0.75118708  1
  Ni  Ni62  1  0.35505247  0.96774930  0.74647336  1
  Ni  Ni63  1  0.64452024  0.29610424  0.73515574  1
  Ni  Ni64  1  0.64572500  0.62663321  0.73671089  1
  Ni  Ni65  1  0.64578730  0.96018137  0.73814521  1
  Ni  Ni66  1  0.64578730  0.03981863  0.23814521  1
  Ni  Ni67  1  0.64572500  0.37336679  0.23671089  1
  Ni  Ni68  1  0.64452024  0.70389576  0.23515574  1
  Ni  Ni69  1  0.35505247  0.03225070  0.24647336  1
  Ni  Ni70  1  0.35651907  0.36657089  0.25118708  1
  Ni  Ni71  1  0.35618744  0.70061536  0.24820968  1
  Ni  Ni72  1  0.85651907  0.13342911  0.75118708  1
  Ni  Ni73  1  0.85505247  0.46774930  0.74647336  1
  Ni  Ni74  1  0.85618744  0.79938464  0.74820968  1
  Ni  Ni75  1  0.14572500  0.12663321  0.73671089  1
  Ni  Ni76  1  0.14578730  0.46018137  0.73814521  1
  Ni  Ni77  1  0.14452024  0.79610424  0.73515574  1
  Ni  Ni78  1  0.14452024  0.20389576  0.23515574  1
  Ni  Ni79  1  0.14578730  0.53981863  0.23814521  1
  Ni  Ni80  1  0.14572500  0.87336679  0.23671089  1
  Ni  Ni81  1  0.85618744  0.20061536  0.24820968  1
  Ni  Ni82  1  0.85505247  0.53225070  0.24647336  1
  Ni  Ni83  1  0.85651907  0.86657089  0.25118708  1
  Cu  Cu84  1  0.99829077  0.32086952  0.74490408  1
  Cu  Cu85  1  0.99022585  0.65582882  0.74114741  1
  Cu  Cu86  1  0.99471722  0.98774856  0.73749555  1
  Cu  Cu87  1  0.99471722  0.01225144  0.23749555  1
  Cu  Cu88  1  0.99022585  0.34417118  0.24114741  1
  Cu  Cu89  1  0.99829077  0.67913048  0.24490408  1
  Cu  Cu90  1  0.49022585  0.15582882  0.74114741  1
  Cu  Cu91  1  0.49471722  0.48774856  0.73749555  1
  Cu  Cu92  1  0.49829077  0.82086952  0.74490408  1
  Cu  Cu93  1  0.49829077  0.17913048  0.24490408  1
  Cu  Cu94  1  0.49471722  0.51225144  0.23749555  1
  Cu  Cu95  1  0.49022585  0.84417118  0.24114741  1
  C  C96  1  0.14920421  0.19004768  0.74129726  1
  C  C97  1  0.15116829  0.52424932  0.74256189  1
  C  C98  1  0.15029032  0.85859650  0.73883746  1
  C  C99  1  0.85177622  0.19432519  0.76442248  1
  C  C100  1  0.85516933  0.52765169  0.76573674  1
  C  C101  1  0.85291467  0.86034121  0.76277837  1
  C  C102  1  0.85291467  0.13965879  0.26277837  1
  C  C103  1  0.85516933  0.47234831  0.26573674  1
  C  C104  1  0.85177622  0.80567481  0.26442248  1
  C  C105  1  0.15029032  0.14140350  0.23883746  1
  C  C106  1  0.15116829  0.47575068  0.24256189  1
  C  C107  1  0.14920421  0.80995232  0.24129726  1
  C  C108  1  0.65116829  0.02424932  0.74256189  1
  C  C109  1  0.65029032  0.35859650  0.73883746  1
  C  C110  1  0.64920421  0.69004768  0.74129726  1
  C  C111  1  0.35516933  0.02765169  0.76573674  1
  C  C112  1  0.35291467  0.36034121  0.76277837  1
  C  C113  1  0.35177622  0.69432519  0.76442248  1
  C  C114  1  0.35177622  0.30567481  0.26442248  1
  C  C115  1  0.35291467  0.63965879  0.26277837  1
  C  C116  1  0.35516933  0.97234831  0.26573674  1
  C  C117  1  0.64920421  0.30995232  0.24129726  1
  C  C118  1  0.65029032  0.64140350  0.23883746  1
  C  C119  1  0.65116829  0.97575068  0.24256189  1
  C  C120  1  0.43026879  0.18711615  0.56575883  1
  C  C121  1  0.43207568  0.52075644  0.56732533  1
  C  C122  1  0.43662057  0.85613592  0.58304425  1
  C  C123  1  0.56022808  0.18964054  0.91216900  1
  C  C124  1  0.55750761  0.52143506  0.91296586  1
  C  C125  1  0.56617560  0.85232011  0.92806198  1
  C  C126  1  0.56617560  0.14767989  0.42806198  1
  C  C127  1  0.55750761  0.47856494  0.41296586  1
  C  C128  1  0.56022808  0.81035946  0.41216900  1
  C  C129  1  0.43662057  0.14386408  0.08304425  1
  C  C130  1  0.43207568  0.47924356  0.06732533  1
  C  C131  1  0.43026879  0.81288385  0.06575883  1
  C  C132  1  0.93207568  0.02075644  0.56732533  1
  C  C133  1  0.93662057  0.35613592  0.58304425  1
  C  C134  1  0.93026879  0.68711615  0.56575883  1
  C  C135  1  0.05750761  0.02143506  0.91296586  1
  C  C136  1  0.06617560  0.35232011  0.92806198  1
  C  C137  1  0.06022808  0.68964054  0.91216900  1
  C  C138  1  0.06022808  0.31035946  0.41216900  1
  C  C139  1  0.06617560  0.64767989  0.42806198  1
  C  C140  1  0.05750761  0.97856494  0.41296586  1
  C  C141  1  0.93026879  0.31288385  0.06575883  1
  C  C142  1  0.93662057  0.64386408  0.08304425  1
  C  C143  1  0.93207568  0.97924356  0.06732533  1
  C  C144  1  0.25395873  0.27476694  0.73591054  1
  C  C145  1  0.25494473  0.60915925  0.74546729  1
  C  C146  1  0.25614211  0.93997476  0.73783844  1
  C  C147  1  0.75018135  0.27414711  0.76057106  1
  C  C148  1  0.75244366  0.60550169  0.77219397  1
  C  C149  1  0.75460303  0.94245254  0.76837548  1
  C  C150  1  0.75460303  0.05754746  0.26837548  1
  C  C151  1  0.75244366  0.39449831  0.27219397  1
  C  C152  1  0.75018135  0.72585289  0.26057106  1
  C  C153  1  0.25614211  0.06002524  0.23783844  1
  C  C154  1  0.25494473  0.39084075  0.24546729  1
  C  C155  1  0.25395873  0.72523306  0.23591054  1
  C  C156  1  0.75494473  0.10915925  0.74546729  1
  C  C157  1  0.75614211  0.43997476  0.73783844  1
  C  C158  1  0.75395873  0.77476694  0.73591054  1
  C  C159  1  0.25244366  0.10550169  0.77219397  1
  C  C160  1  0.25460303  0.44245254  0.76837548  1
  C  C161  1  0.25018135  0.77414711  0.76057106  1
  C  C162  1  0.25018135  0.22585289  0.26057106  1
  C  C163  1  0.25460303  0.55754746  0.26837548  1
  C  C164  1  0.25244366  0.89449831  0.27219397  1
  C  C165  1  0.75395873  0.22523306  0.23591054  1
  C  C166  1  0.75614211  0.56002524  0.23783844  1
  C  C167  1  0.75494473  0.89084075  0.24546729  1
  C  C168  1  0.35735904  0.28558666  0.57229249  1
  C  C169  1  0.36053852  0.61675293  0.58337085  1
  C  C170  1  0.36549746  0.95087183  0.58566713  1
  C  C171  1  0.64148459  0.28402911  0.91541288  1
  C  C172  1  0.64053190  0.61696281  0.91879240  1
  C  C173  1  0.64419319  0.94956349  0.92282459  1
  C  C174  1  0.64419319  0.05043651  0.42282459  1
  C  C175  1  0.64053190  0.38303719  0.41879240  1
  C  C176  1  0.64148459  0.71597089  0.41541288  1
  C  C177  1  0.36549746  0.04912817  0.08566713  1
  C  C178  1  0.36053852  0.38324707  0.08337085  1
  C  C179  1  0.35735904  0.71441334  0.07229249  1
  C  C180  1  0.86053852  0.11675293  0.58337085  1
  C  C181  1  0.86549746  0.45087183  0.58566713  1
  C  C182  1  0.85735904  0.78558666  0.57229249  1
  C  C183  1  0.14053190  0.11696281  0.91879240  1
  C  C184  1  0.14419319  0.44956349  0.92282459  1
  C  C185  1  0.14148459  0.78402911  0.91541288  1
  C  C186  1  0.14148459  0.21597089  0.41541288  1
  C  C187  1  0.14419319  0.55043651  0.42282459  1
  C  C188  1  0.14053190  0.88303719  0.41879240  1
  C  C189  1  0.85735904  0.21441334  0.07229249  1
  C  C190  1  0.86549746  0.54912817  0.08566713  1
  C  C191  1  0.86053852  0.88324707  0.08337085  1
  C  C192  1  0.46272520  0.27695573  0.93743665  1
  C  C193  1  0.46088244  0.60883289  0.94150146  1
  C  C194  1  0.46166810  0.94214997  0.93908584  1
  C  C195  1  0.53831037  0.27304203  0.55804267  1
  C  C196  1  0.53593451  0.60713215  0.55689459  1
  C  C197  1  0.53820341  0.94047053  0.55722855  1
  C  C198  1  0.53820341  0.05952947  0.05722855  1
  C  C199  1  0.53593451  0.39286785  0.05689459  1
  C  C200  1  0.53831037  0.72695797  0.05804267  1
  C  C201  1  0.46166810  0.05785003  0.43908584  1
  C  C202  1  0.46088244  0.39116711  0.44150146  1
  C  C203  1  0.46272520  0.72304427  0.43743665  1
  C  C204  1  0.96088244  0.10883289  0.94150146  1
  C  C205  1  0.96166810  0.44214997  0.93908584  1
  C  C206  1  0.96272520  0.77695573  0.93743665  1
  C  C207  1  0.03593451  0.10713215  0.55689459  1
  C  C208  1  0.03820341  0.44047053  0.55722855  1
  C  C209  1  0.03831037  0.77304203  0.55804267  1
  C  C210  1  0.03831037  0.22695797  0.05804267  1
  C  C211  1  0.03820341  0.55952947  0.05722855  1
  C  C212  1  0.03593451  0.89286785  0.05689459  1
  C  C213  1  0.96272520  0.22304427  0.43743665  1
  C  C214  1  0.96166810  0.55785003  0.43908584  1
  C  C215  1  0.96088244  0.89116711  0.44150146  1
  C  C216  1  0.07893545  0.28591961  0.74493168  1
  C  C217  1  0.07702908  0.62220608  0.74234670  1
  C  C218  1  0.08005254  0.95423335  0.74550684  1
  C  C219  1  0.91977937  0.28742153  0.75568482  1
  C  C220  1  0.91827004  0.62010927  0.75582517  1
  C  C221  1  0.91803608  0.95373863  0.74797501  1
  C  C222  1  0.91803608  0.04626137  0.24797501  1
  C  C223  1  0.91827004  0.37989073  0.25582517  1
  C  C224  1  0.91977937  0.71257847  0.25568482  1
  C  C225  1  0.08005254  0.04576665  0.24550684  1
  C  C226  1  0.07702908  0.37779392  0.24234670  1
  C  C227  1  0.07893545  0.71408039  0.24493168  1
  C  C228  1  0.57702908  0.12220608  0.74234670  1
  C  C229  1  0.58005254  0.45423335  0.74550684  1
  C  C230  1  0.57893545  0.78591961  0.74493168  1
  C  C231  1  0.41827004  0.12010927  0.75582517  1
  C  C232  1  0.41803608  0.45373863  0.74797501  1
  C  C233  1  0.41977937  0.78742153  0.75568482  1
  C  C234  1  0.41977937  0.21257847  0.25568482  1
  C  C235  1  0.41803608  0.54626137  0.24797501  1
  C  C236  1  0.41827004  0.87989073  0.25582517  1
  C  C237  1  0.57893545  0.21408039  0.24493168  1
  C  C238  1  0.58005254  0.54576665  0.24550684  1
  C  C239  1  0.57702908  0.87779392  0.24234670  1
