# generated using pymatgen
data_Cu2NiC12
_symmetry_space_group_name_H-M   'P 1'
_cell_length_a   6.07187115
_cell_length_b   6.18900475
_cell_length_c   5.60416202
_cell_angle_alpha   116.92379399
_cell_angle_beta   90.00512364
_cell_angle_gamma   56.40869652
_symmetry_Int_Tables_number   1
_chemical_formula_structural   Cu2NiC12
_chemical_formula_sum   'Cu2 Ni1 C12'
_cell_volume   147.25449460
_cell_formula_units_Z   1
loop_
 _symmetry_equiv_pos_site_id
 _symmetry_equiv_pos_as_xyz
  1  'x, y, z'
loop_
 _atom_site_type_symbol
 _atom_site_label
 _atom_site_symmetry_multiplicity
 _atom_site_fract_x
 _atom_site_fract_y
 _atom_site_fract_z
 _atom_site_occupancy
  Ni  Ni0  1  0.12500000  0.25000000  0.12500000  1
  C  C1  1  0.98610900  0.91142300  0.95570100  1
  C  C2  1  0.26389100  0.58857700  0.29429900  1
  C  C3  1  0.12500000  0.25000000  0.62500000  1
  C  C4  1  0.62500000  0.25000000  0.62500000  1
  Cu  Cu5  1  0.62500000  0.75000000  0.12500000  1
  Cu  Cu6  1  0.62500000  0.75000000  0.62500000  1
  C  C7  1  0.36509000  0.82670500  0.41335300  1
  C  C8  1  0.89326200  0.81028100  0.40512600  1
  C  C9  1  0.35673800  0.68971900  0.84487400  1
  C  C10  1  0.35301100  0.29668900  0.39390300  1
  C  C11  1  0.35299800  0.29668700  0.90279900  1
  C  C12  1  0.88491000  0.67329500  0.83664700  1
  C  C13  1  0.89700200  0.20331300  0.34720100  1
  C  C14  1  0.89698900  0.20331100  0.85609700  1
