# generated using pymatgen
data_Cu4NiC10
_symmetry_space_group_name_H-M   'P 1'
_cell_length_a   8.40250564
_cell_length_b   6.59626029
_cell_length_c   6.96010773
_cell_angle_alpha   76.31137357
_cell_angle_beta   46.58684845
_cell_angle_gamma   53.52493315
_symmetry_Int_Tables_number   1
_chemical_formula_structural   Cu4NiC10
_chemical_formula_sum   'Cu4 Ni1 C10'
_cell_volume   215.35464696
_cell_formula_units_Z   1
loop_
 _symmetry_equiv_pos_site_id
 _symmetry_equiv_pos_as_xyz
  1  'x, y, z'
loop_
 _atom_site_type_symbol
 _atom_site_label
 _atom_site_symmetry_multiplicity
 _atom_site_fract_x
 _atom_site_fract_y
 _atom_site_fract_z
 _atom_site_occupancy
  Ni  Ni0  1  0.51343200  0.73904400  0.50191700  1
  Cu  Cu1  1  0.18437700  0.27897500  0.54122200  1
  Cu  Cu2  1  0.53424800  0.49235800  0.19304100  1
  Cu  Cu3  1  0.80459300  0.86270600  0.46083400  1
  Cu  Cu4  1  0.45270800  0.38214900  0.81299800  1
  C  C5  1  0.13487700  0.11439500  0.13111200  1
  C  C6  1  0.87512100  0.87773800  0.87310300  1
  C  C7  1  0.20443500  0.28179900  0.19775900  1
  C  C8  1  0.77145000  0.34867900  0.32548100  1
  C  C9  1  0.19455500  0.81153900  0.20698700  1
  C  C10  1  0.33510000  0.04348800  0.76638100  1
  C  C11  1  0.68955700  0.89958700  0.22882000  1
  C  C12  1  0.76754400  0.19726400  0.82707300  1
  C  C13  1  0.23443600  0.68330200  0.67888200  1
  C  C14  1  0.82439900  0.71614600  0.76938800  1
