# generated using pymatgen
data_Cu2Ni4C9
_symmetry_space_group_name_H-M   'P 1'
_cell_length_a   6.26588028
_cell_length_b   6.00451479
_cell_length_c   5.97052582
_cell_angle_alpha   59.81149471
_cell_angle_beta   64.02970908
_cell_angle_gamma   61.37050950
_symmetry_Int_Tables_number   1
_chemical_formula_structural   Cu2Ni4C9
_chemical_formula_sum   'Cu2 Ni4 C9'
_cell_volume   164.58371350
_cell_formula_units_Z   1
loop_
 _symmetry_equiv_pos_site_id
 _symmetry_equiv_pos_as_xyz
  1  'x, y, z'
loop_
 _atom_site_type_symbol
 _atom_site_label
 _atom_site_symmetry_multiplicity
 _atom_site_fract_x
 _atom_site_fract_y
 _atom_site_fract_z
 _atom_site_occupancy
  C  C0  1  0.62500000  0.12500000  0.12500000  1
  Ni  Ni1  1  0.10496300  0.93625200  0.02253400  1
  Ni  Ni2  1  0.14503700  0.31374800  0.22746600  1
  Ni  Ni3  1  0.12500000  0.62500000  0.62500000  1
  Ni  Ni4  1  0.62500000  0.62500000  0.12500000  1
  Cu  Cu5  1  0.62500000  0.12500000  0.62500000  1
  Cu  Cu6  1  0.62500000  0.62500000  0.62500000  1
  C  C7  1  0.37569900  0.39962900  0.34710100  1
  C  C8  1  0.37700500  0.38452600  0.85394400  1
  C  C9  1  0.37569900  0.87757100  0.34710100  1
  C  C10  1  0.79922300  0.39331400  0.41415000  1
  C  C11  1  0.45077700  0.85668600  0.83585000  1
  C  C12  1  0.87430100  0.37242900  0.90289900  1
  C  C13  1  0.87299500  0.86547400  0.39605600  1
  C  C14  1  0.87430100  0.85037100  0.90289900  1
