# generated using pymatgen
data_Cu10NiC9
_symmetry_space_group_name_H-M   'P 1'
_cell_length_a   6.62621122
_cell_length_b   6.62621122
_cell_length_c   6.62621159
_cell_angle_alpha   100.86405373
_cell_angle_beta   100.86405373
_cell_angle_gamma   100.86406361
_symmetry_Int_Tables_number   1
_chemical_formula_structural   Cu10NiC9
_chemical_formula_sum   'Cu10 Ni1 C9'
_cell_volume   272.92661677
_cell_formula_units_Z   1
loop_
 _symmetry_equiv_pos_site_id
 _symmetry_equiv_pos_as_xyz
  1  'x, y, z'
loop_
 _atom_site_type_symbol
 _atom_site_label
 _atom_site_symmetry_multiplicity
 _atom_site_fract_x
 _atom_site_fract_y
 _atom_site_fract_z
 _atom_site_occupancy
  C  C0  1  0.92996100  0.92996100  0.47183200  1
  C  C1  1  0.92996100  0.47183200  0.92996100  1
  C  C2  1  0.47183200  0.92996100  0.92996100  1
  C  C3  1  0.35882200  0.35882200  0.62117800  1
  C  C4  1  0.35882200  0.62117800  0.35882200  1
  C  C5  1  0.62117800  0.35882200  0.35882200  1
  C  C6  1  0.47831800  0.03120900  0.47831800  1
  C  C7  1  0.47831800  0.47831800  0.03120900  1
  C  C8  1  0.03120900  0.47831800  0.47831800  1
  Ni  Ni9  1  0.99464800  0.99464800  0.99464800  1
  Cu  Cu10  1  0.82582600  0.48676000  0.48676000  1
  Cu  Cu11  1  0.44321500  0.44321500  0.44321500  1
  Cu  Cu12  1  0.48676000  0.82582600  0.48676000  1
  Cu  Cu13  1  0.48676000  0.48676000  0.82582600  1
  Cu  Cu14  1  0.13511300  0.36626100  0.60001200  1
  Cu  Cu15  1  0.60001200  0.13511300  0.36626100  1
  Cu  Cu16  1  0.36626100  0.60001200  0.13511300  1
  Cu  Cu17  1  0.36626100  0.13511300  0.60001200  1
  Cu  Cu18  1  0.60001200  0.36626100  0.13511300  1
  Cu  Cu19  1  0.13511300  0.60001200  0.36626100  1
