# generated using pymatgen
data_Cu6NiC12
_symmetry_space_group_name_H-M   'P 1'
_cell_length_a   6.82629589
_cell_length_b   5.58755041
_cell_length_c   5.76999317
_cell_angle_alpha   83.19443687
_cell_angle_beta   74.02375141
_cell_angle_gamma   74.26377924
_symmetry_Int_Tables_number   1
_chemical_formula_structural   Cu6NiC12
_chemical_formula_sum   'Cu6 Ni1 C12'
_cell_volume   203.42148500
_cell_formula_units_Z   1
loop_
 _symmetry_equiv_pos_site_id
 _symmetry_equiv_pos_as_xyz
  1  'x, y, z'
loop_
 _atom_site_type_symbol
 _atom_site_label
 _atom_site_symmetry_multiplicity
 _atom_site_fract_x
 _atom_site_fract_y
 _atom_site_fract_z
 _atom_site_occupancy
  Ni  Ni0  1  0.65889664  0.32496139  0.82730585  1
  Cu  Cu1  1  0.83405252  0.70157346  0.65431789  1
  Cu  Cu2  1  0.32192938  0.74870249  0.61029746  1
  Cu  Cu3  1  0.66838284  0.34910023  0.31654191  1
  Cu  Cu4  1  0.16335022  0.34460772  0.33458455  1
  Cu  Cu5  1  0.48969736  0.92151891  0.07315605  1
  Cu  Cu6  1  0.00259528  0.92675444  0.07371026  1
  C  C7  1  0.62451283  0.58983450  0.55433323  1
  C  C8  1  0.29029047  0.88008996  0.91935865  1
  C  C9  1  0.96572214  0.22589812  0.22570772  1
  C  C10  1  0.36652107  0.46687397  0.42233665  1
  C  C11  1  0.03410517  0.78036403  0.77677044  1
  C  C12  1  0.70846139  0.08097941  0.10652528  1
  C  C13  1  0.31757042  0.00737999  0.37620211  1
  C  C14  1  0.67543397  0.62446901  0.99332302  1
  C  C15  1  0.00150660  0.68656521  0.32063231  1
  C  C16  1  0.36284694  0.32601806  0.98603087  1
  C  C17  1  0.66674138  0.06819450  0.62144339  1
  C  C18  1  0.96738337  0.32111459  0.68241936  1
