# generated using pymatgen
data_Cu7NiC3
_symmetry_space_group_name_H-M   'P 1'
_cell_length_a   7.68760146
_cell_length_b   7.68760146
_cell_length_c   15.07368300
_cell_angle_alpha   90.00000000
_cell_angle_beta   90.00000000
_cell_angle_gamma   119.99999533
_symmetry_Int_Tables_number   1
_chemical_formula_structural   Cu7NiC3
_chemical_formula_sum   'Cu14 Ni2 C6'
_cell_volume   771.49257528
_cell_formula_units_Z   2
loop_
 _symmetry_equiv_pos_site_id
 _symmetry_equiv_pos_as_xyz
  1  'x, y, z'
loop_
 _atom_site_type_symbol
 _atom_site_label
 _atom_site_symmetry_multiplicity
 _atom_site_fract_x
 _atom_site_fract_y
 _atom_site_fract_z
 _atom_site_occupancy
  C  C0  1  0.13068100  0.86931900  0.75051100  1
  C  C1  1  0.26136200  0.13068100  0.25051100  1
  C  C2  1  0.86931900  0.73863800  0.25051100  1
  C  C3  1  0.13068100  0.26136200  0.75051100  1
  C  C4  1  0.73863800  0.86931900  0.75051100  1
  C  C5  1  0.86931900  0.13068100  0.25051100  1
  Ni  Ni6  1  0.00000000  0.00000000  0.89084800  1
  Ni  Ni7  1  0.00000000  0.00000000  0.39084800  1
  Cu  Cu8  1  0.49849700  0.99699500  0.35113500  1
  Cu  Cu9  1  0.50150300  0.00300500  0.85113500  1
  Cu  Cu10  1  0.99699500  0.49849700  0.85113500  1
  Cu  Cu11  1  0.49849700  0.50150300  0.35113500  1
  Cu  Cu12  1  0.00300500  0.50150300  0.35113500  1
  Cu  Cu13  1  0.50150300  0.49849700  0.85113500  1
  Cu  Cu14  1  0.33333300  0.66666700  0.65409900  1
  Cu  Cu15  1  0.66666700  0.33333300  0.15409900  1
  Cu  Cu16  1  0.83277700  0.16722300  0.62627100  1
  Cu  Cu17  1  0.66555400  0.83277700  0.12627200  1
  Cu  Cu18  1  0.16722300  0.33444600  0.12627200  1
  Cu  Cu19  1  0.83277700  0.66555400  0.62627100  1
  Cu  Cu20  1  0.33444600  0.16722300  0.62627100  1
  Cu  Cu21  1  0.16722300  0.83277700  0.12627200  1
