# generated using pymatgen
data_Cu4NiC48
_symmetry_space_group_name_H-M   'P 1'
_cell_length_a   8.48782129
_cell_length_b   8.57691623
_cell_length_c   8.73214668
_cell_angle_alpha   88.85508652
_cell_angle_beta   89.51704718
_cell_angle_gamma   90.11302747
_symmetry_Int_Tables_number   1
_chemical_formula_structural   Cu4NiC48
_chemical_formula_sum   'Cu4 Ni1 C48'
_cell_volume   635.54349922
_cell_formula_units_Z   1
loop_
 _symmetry_equiv_pos_site_id
 _symmetry_equiv_pos_as_xyz
  1  'x, y, z'
loop_
 _atom_site_type_symbol
 _atom_site_label
 _atom_site_symmetry_multiplicity
 _atom_site_fract_x
 _atom_site_fract_y
 _atom_site_fract_z
 _atom_site_occupancy
  Ni  Ni0  1  0.15115300  0.13218800  0.38613000  1
  Cu  Cu1  1  0.85778700  0.36743000  0.34650600  1
  Cu  Cu2  1  0.62852600  0.64167900  0.85113400  1
  Cu  Cu3  1  0.37859600  0.14579500  0.66172600  1
  Cu  Cu4  1  0.12863500  0.84952600  0.14432300  1
  C  C5  1  0.68560900  0.01168500  0.80646100  1
  C  C6  1  0.70192200  0.69215000  0.44907300  1
  C  C7  1  0.79698600  0.30537200  0.94376400  1
  C  C8  1  0.81708000  0.98433500  0.31056200  1
  C  C9  1  0.03059200  0.32574400  0.68092300  1
  C  C10  1  0.18611900  0.47738100  0.19476800  1
  C  C11  1  0.20674100  0.81696800  0.56418700  1
  C  C12  1  0.29801700  0.19539800  0.05238700  1
  C  C13  1  0.32098700  0.51489600  0.68232600  1
  C  C14  1  0.46601300  0.67573500  0.19049300  1
  C  C15  1  0.53130000  0.18231700  0.30712000  1
  C  C16  1  0.96595200  0.81763300  0.81495200  1
  C  C17  1  0.62932100  0.31405400  0.36030000  1
  C  C18  1  0.95663900  0.27558500  0.84356900  1
  C  C19  1  0.90548800  0.38323600  0.57548100  1
  C  C20  1  0.90756700  0.12151300  0.37454100  1
  C  C21  1  0.04577500  0.77487500  0.65470400  1
  C  C22  1  0.09160100  0.87061300  0.92181200  1
  C  C23  1  0.09229700  0.61544700  0.14491900  1
  C  C24  1  0.11554100  0.37181100  0.32011400  1
  C  C25  1  0.13239600  0.19365900  0.61944500  1
  C  C26  1  0.14553300  0.46388000  0.73739700  1
  C  C27  1  0.15912200  0.87904900  0.40702500  1
  C  C28  1  0.19198500  0.09106100  0.15247200  1
  C  C29  1  0.22454200  0.36883200  0.05073900  1
  C  C30  1  0.28013300  0.64461600  0.54963200  1
  C  C31  1  0.31317900  0.91918700  0.65352400  1
  C  C32  1  0.33356500  0.15503600  0.89219200  1
  C  C33  1  0.35922400  0.52748900  0.24806900  1
  C  C34  1  0.35826700  0.80727800  0.14360300  1
  C  C35  1  0.40015200  0.59360400  0.81503800  1
  C  C36  1  0.40148300  0.37907100  0.61151400  1
  C  C37  1  0.39526100  0.13021300  0.40954700  1
  C  C38  1  0.46136200  0.22196100  0.14086400  1
  C  C39  1  0.54374200  0.72105100  0.34964900  1
  C  C40  1  0.85992200  0.68541300  0.86518100  1
  C  C41  1  0.60311200  0.86956100  0.87466500  1
  C  C42  1  0.60969800  0.09377800  0.67321300  1
  C  C43  1  0.89649800  0.90270800  0.18047900  1
  C  C44  1  0.64316200  0.03766100  0.26207300  1
  C  C45  1  0.65362400  0.65772500  0.61084300  1
  C  C46  1  0.68883100  0.41685200  0.86025500  1
  C  C47  1  0.71804200  0.13266100  0.94106400  1
  C  C48  1  0.77723300  0.86638800  0.44910600  1
  C  C49  1  0.81280500  0.59153000  0.36098200  1
  C  C50  1  0.84572500  0.33230000  0.10487100  1
  C  C51  1  0.86171000  0.96466400  0.75743100  1
  C  C52  1  0.58970500  0.62221300  0.07965900  1
