# generated using pymatgen
data_Cu2Ni10C7
_symmetry_space_group_name_H-M   'P 1'
_cell_length_a   7.94805205
_cell_length_b   5.70351929
_cell_length_c   5.87140836
_cell_angle_alpha   69.20643123
_cell_angle_beta   65.00566187
_cell_angle_gamma   66.93554547
_symmetry_Int_Tables_number   1
_chemical_formula_structural   Cu2Ni10C7
_chemical_formula_sum   'Cu2 Ni10 C7'
_cell_volume   216.14754950
_cell_formula_units_Z   1
loop_
 _symmetry_equiv_pos_site_id
 _symmetry_equiv_pos_as_xyz
  1  'x, y, z'
loop_
 _atom_site_type_symbol
 _atom_site_label
 _atom_site_symmetry_multiplicity
 _atom_site_fract_x
 _atom_site_fract_y
 _atom_site_fract_z
 _atom_site_occupancy
  C  C0  1  0.82370000  0.65497600  0.20414400  1
  C  C1  1  0.86932000  0.69889400  0.68178400  1
  C  C2  1  0.64067800  0.28390300  0.33127900  1
  C  C3  1  0.31734500  0.65970300  0.66387100  1
  C  C4  1  0.19658400  0.34739500  0.34730900  1
  C  C5  1  0.49709500  0.00644700  0.00523600  1
  C  C6  1  0.99865100  0.04516600  0.99090600  1
  Ni  Ni7  1  0.66051000  0.02518700  0.65306900  1
  Ni  Ni8  1  0.33732800  0.35985000  0.97629000  1
  Ni  Ni9  1  0.91492700  0.26543200  0.22111200  1
  Ni  Ni10  1  0.03072800  0.76601100  0.81633900  1
  Ni  Ni11  1  0.36750800  0.42829700  0.44986300  1
  Ni  Ni12  1  0.70693700  0.05378600  0.11707100  1
  Ni  Ni13  1  0.32356200  0.97156400  0.35619800  1
  Ni  Ni14  1  0.65621100  0.64522000  0.02779600  1
  Ni  Ni15  1  0.00098700  0.32561800  0.68857100  1
  Ni  Ni16  1  0.00829800  0.70836500  0.31212500  1
  Cu  Cu17  1  0.29360300  0.90498400  0.87993200  1
  Cu  Cu18  1  0.61495600  0.57539100  0.53900900  1
