# generated using pymatgen
data_Cu12NiC20
_symmetry_space_group_name_H-M   'P 1'
_cell_length_a   8.91855131
_cell_length_b   8.91855131
_cell_length_c   8.91855131
_cell_angle_alpha   109.47122063
_cell_angle_beta   109.47122063
_cell_angle_gamma   109.47122063
_symmetry_Int_Tables_number   1
_chemical_formula_structural   Cu12NiC20
_chemical_formula_sum   'Cu12 Ni1 C20'
_cell_volume   546.08601555
_cell_formula_units_Z   1
loop_
 _symmetry_equiv_pos_site_id
 _symmetry_equiv_pos_as_xyz
  1  'x, y, z'
loop_
 _atom_site_type_symbol
 _atom_site_label
 _atom_site_symmetry_multiplicity
 _atom_site_fract_x
 _atom_site_fract_y
 _atom_site_fract_z
 _atom_site_occupancy
  Ni  Ni0  1  0.00000000  0.00000000  0.00000000  1
  Cu  Cu1  1  0.19245100  0.69698900  0.85855100  1
  Cu  Cu2  1  0.83843800  0.33390000  0.14144900  1
  Cu  Cu3  1  0.80754900  0.66610000  0.50453800  1
  Cu  Cu4  1  0.14144900  0.83843800  0.33390000  1
  Cu  Cu5  1  0.69698900  0.85855100  0.19245100  1
  Cu  Cu6  1  0.30301100  0.49546200  0.16156200  1
  Cu  Cu7  1  0.49546200  0.16156200  0.30301100  1
  Cu  Cu8  1  0.33390000  0.14144900  0.83843800  1
  Cu  Cu9  1  0.50453800  0.80754900  0.66610000  1
  Cu  Cu10  1  0.66610000  0.50453800  0.80754900  1
  Cu  Cu11  1  0.85855100  0.19245100  0.69698900  1
  Cu  Cu12  1  0.16156200  0.30301100  0.49546200  1
  C  C13  1  0.79847000  0.00000000  0.00000000  1
  C  C14  1  0.20153000  0.20153000  0.20153000  1
  C  C15  1  0.00000000  0.79847000  0.00000000  1
  C  C16  1  0.00000000  0.00000000  0.79847000  1
  C  C17  1  0.38909000  0.00000000  0.00000000  1
  C  C18  1  0.61091000  0.61091000  0.61091000  1
  C  C19  1  0.00000000  0.38909000  0.00000000  1
  C  C20  1  0.00000000  0.00000000  0.38909000  1
  C  C21  1  0.62005800  0.23719500  0.88052400  1
  C  C22  1  0.35667100  0.73953400  0.11947600  1
  C  C23  1  0.37994200  0.26046600  0.61713800  1
  C  C24  1  0.11947600  0.35667100  0.73953400  1
  C  C25  1  0.23719500  0.88052400  0.62005800  1
  C  C26  1  0.64332900  0.76280500  0.38286200  1
  C  C27  1  0.88052400  0.62005800  0.23719500  1
  C  C28  1  0.26046600  0.61713800  0.37994200  1
  C  C29  1  0.61713800  0.37994200  0.26046600  1
  C  C30  1  0.73953400  0.11947600  0.35667100  1
  C  C31  1  0.38286200  0.64332900  0.76280500  1
  C  C32  1  0.76280500  0.38286200  0.64332900  1
