# generated using pymatgen
data_CuNiC9
_symmetry_space_group_name_H-M   'P 1'
_cell_length_a   5.82187292
_cell_length_b   5.67428017
_cell_length_c   5.36131978
_cell_angle_alpha   92.90769846
_cell_angle_beta   108.41111739
_cell_angle_gamma   77.71204364
_symmetry_Int_Tables_number   1
_chemical_formula_structural   CuNiC9
_chemical_formula_sum   'Cu1 Ni1 C9'
_cell_volume   164.16956169
_cell_formula_units_Z   1
loop_
 _symmetry_equiv_pos_site_id
 _symmetry_equiv_pos_as_xyz
  1  'x, y, z'
loop_
 _atom_site_type_symbol
 _atom_site_label
 _atom_site_symmetry_multiplicity
 _atom_site_fract_x
 _atom_site_fract_y
 _atom_site_fract_z
 _atom_site_occupancy
  Ni  Ni0  1  0.50958067  0.16780321  0.89361558  1
  Cu  Cu1  1  0.09051227  0.04395943  0.05247008  1
  C  C2  1  0.66048078  0.28513010  0.42218551  1
  C  C3  1  0.28545737  0.68035163  0.57533958  1
  C  C4  1  0.77891146  0.12060695  0.71192121  1
  C  C5  1  0.81010960  0.27933270  0.19600179  1
  C  C6  1  0.40168632  0.18805982  0.23138439  1
  C  C7  1  0.08045123  0.78464930  0.28304944  1
  C  C8  1  0.32790336  0.89955972  0.80918685  1
  C  C9  1  0.24253077  0.43188012  0.69805074  1
  C  C10  1  0.58482617  0.59111601  0.51568382  1
