# generated using pymatgen
data_CuNi5C29
_symmetry_space_group_name_H-M   'P 1'
_cell_length_a   8.94575508
_cell_length_b   8.95478287
_cell_length_c   23.32752074
_cell_angle_alpha   90.01972211
_cell_angle_beta   89.94214806
_cell_angle_gamma   120.03248802
_symmetry_Int_Tables_number   1
_chemical_formula_structural   CuNi5C29
_chemical_formula_sum   'Cu3 Ni15 C87'
_cell_volume   1617.81471657
_cell_formula_units_Z   3
loop_
 _symmetry_equiv_pos_site_id
 _symmetry_equiv_pos_as_xyz
  1  'x, y, z'
loop_
 _atom_site_type_symbol
 _atom_site_label
 _atom_site_symmetry_multiplicity
 _atom_site_fract_x
 _atom_site_fract_y
 _atom_site_fract_z
 _atom_site_occupancy
  C  C0  1  0.67035600  0.33760748  0.83466347  1
  C  C1  1  0.66717433  0.33397187  0.33093831  1
  C  C2  1  0.33349189  0.66736051  0.16740243  1
  C  C3  1  0.00083650  0.00009991  0.35481118  1
  C  C4  1  0.99358361  0.99968147  0.85566488  1
  C  C5  1  0.00542156  0.99914676  0.64748581  1
  C  C6  1  0.99913079  0.00010722  0.14452493  1
  C  C7  1  0.66203125  0.32639854  0.68882366  1
  C  C8  1  0.66671314  0.33266865  0.18697213  1
  C  C9  1  0.67265468  0.33926094  0.98281547  1
  C  C10  1  0.65891370  0.32777926  0.47698018  1
  C  C11  1  0.33541892  0.66029308  0.02125480  1
  C  C12  1  0.33328489  0.67233100  0.51842013  1
  C  C13  1  0.33272105  0.66607865  0.31229030  1
  C  C14  1  0.33126316  0.65931044  0.80972411  1
  Ni  Ni15  1  0.28820881  -0.00006718  0.24983526  1
  Ni  Ni16  1  0.71193594  0.71143014  0.25002274  1
  Ni  Ni17  1  -0.00040526  0.28788133  0.25002333  1
  Ni  Ni18  1  0.28689914  0.28536604  0.75065161  1
  Ni  Ni19  1  0.99904705  0.71117529  0.75076643  1
  Ni  Ni20  1  0.71210994  -0.00096370  0.74990379  1
  Ni  Ni21  1  0.37774085  0.04383661  0.58326796  1
  Ni  Ni22  1  0.95870434  0.62443233  0.08421885  1
  Ni  Ni23  1  0.66544935  0.04324633  0.08346101  1
  Ni  Ni24  1  0.37767143  0.33186791  0.08380994  1
  Ni  Ni25  1  0.62034409  0.66373014  0.91596323  1
  Ni  Ni26  1  0.04374300  0.37892156  0.91610812  1
  Ni  Ni27  1  0.62291416  0.95455987  0.41609411  1
  Ni  Ni28  1  0.33149042  0.37889414  0.41673525  1
  Ni  Ni29  1  0.04308828  0.66606611  0.41639522  1
  Cu  Cu30  1  0.95586063  0.33304952  0.58322490  1
  Cu  Cu31  1  0.66629180  0.62229095  0.58333249  1
  Cu  Cu32  1  0.33395967  0.95597240  0.91616362  1
  C  C33  1  0.20512632  0.02683728  0.30380162  1
  C  C34  1  0.82196153  0.79507582  0.30385110  1
  C  C35  1  0.97293749  0.17797383  0.30387363  1
  C  C36  1  0.20567772  0.17294810  0.80361077  1
  C  C37  1  0.96885921  0.79528876  0.80348229  1
  C  C38  1  0.82620091  0.03182209  0.80316705  1
  C  C39  1  0.79707395  0.97453628  0.69609556  1
  C  C40  1  0.17733320  0.20306838  0.69640608  1
  C  C41  1  0.02517063  0.82204450  0.69653188  1
  C  C42  1  0.79483921  0.82181417  0.19640082  1
  C  C43  1  0.02721439  0.20528618  0.19638427  1
  C  C44  1  0.17790654  0.97278382  0.19632749  1
  C  C45  1  0.87526221  0.36171478  0.63467372  1
  C  C46  1  0.49316041  0.13242259  0.63627979  1
  C  C47  1  0.64037463  0.51414142  0.63469243  1
  C  C48  1  0.87314585  0.50783948  0.13665185  1
  C  C49  1  0.63529170  0.12791684  0.13651007  1
  C  C50  1  0.49286523  0.36441536  0.13668929  1
  C  C51  1  0.46324142  0.30794198  0.02964318  1
  C  C52  1  0.84622231  0.53888013  0.03013017  1
  C  C53  1  0.69128833  0.15533025  0.02965058  1
  C  C54  1  0.46558211  0.15990852  0.53065413  1
  C  C55  1  0.69583004  0.54251173  0.53223090  1
  C  C56  1  0.84745850  0.30652577  0.53223622  1
  C  C57  1  0.53707812  0.69276683  0.96951872  1
  C  C58  1  0.15499770  0.46484674  0.96955306  1
  C  C59  1  0.30794012  0.85124995  0.96788208  1
  C  C60  1  0.53707000  0.84478210  0.47037198  1
  C  C61  1  0.30903302  0.46505589  0.47087753  1
  C  C62  1  0.15494307  0.69133936  0.47041888  1
  C  C63  1  0.12660592  0.63396872  0.36371706  1
  C  C64  1  0.50704373  0.87289781  0.36354702  1
  C  C65  1  0.36511680  0.49333998  0.36367153  1
  C  C66  1  0.12921725  0.49318685  0.86293035  1
  C  C67  1  0.36208276  0.87656484  0.86479583  1
  C  C68  1  0.50726796  0.63840669  0.86287702  1
  C  C69  1  0.02413298  0.82452563  0.40812562  1
  C  C70  1  0.80117968  0.97567266  0.40815350  1
  C  C71  1  0.17531930  0.19978775  0.40821368  1
  C  C72  1  0.02651914  0.20084528  0.90686508  1
  C  C73  1  0.18054068  0.97468809  0.90820388  1
  C  C74  1  0.80012958  0.82327832  0.90701703  1
  C  C75  1  0.97282296  0.17897473  0.59187220  1
  C  C76  1  0.19919143  0.02545285  0.59306243  1
  C  C77  1  0.81948367  0.79475881  0.59177238  1
  C  C78  1  0.97570054  0.80096008  0.09236947  1
  C  C79  1  0.82422492  0.02440185  0.09221851  1
  C  C80  1  0.19935604  0.17470265  0.09222135  1
  C  C81  1  0.69323874  0.16216433  0.74218258  1
  C  C82  1  0.47041043  0.30933391  0.74202917  1
  C  C83  1  0.83841715  0.52974291  0.74107633  1
  C  C84  1  0.69053372  0.52926216  0.24328251  1
  C  C85  1  0.83877311  0.30945784  0.24339312  1
  C  C86  1  0.47063094  0.16107467  0.24331340  1
  C  C87  1  0.64028270  0.50243630  0.92310146  1
  C  C88  1  0.86080180  0.35598291  0.92307356  1
  C  C89  1  0.48897017  0.13084359  0.92271098  1
  C  C90  1  0.64260764  0.13651335  0.42497191  1
  C  C91  1  0.49515477  0.36010776  0.42479948  1
  C  C92  1  0.86253848  0.50429382  0.42614231  1
  C  C93  1  0.35862021  0.49456169  0.07635823  1
  C  C94  1  0.13876366  0.64345034  0.07515814  1
  C  C95  1  0.50322748  0.86290706  0.07515643  1
  C  C96  1  0.35867924  0.86548287  0.57403351  1
  C  C97  1  0.51241390  0.63953822  0.57530157  1
  C  C98  1  0.12820470  0.48596561  0.57531206  1
  C  C99  1  0.30944720  0.83901023  0.25710822  1
  C  C100  1  0.52962294  0.69052094  0.25717005  1
  C  C101  1  0.16083971  0.47023939  0.25708131  1
  C  C102  1  0.30828970  0.46534809  0.75822747  1
  C  C103  1  0.15867184  0.69263912  0.75959683  1
  C  C104  1  0.53245645  0.84318782  0.75977167  1
