# generated using pymatgen
data_Cu2Ni3C35
_symmetry_space_group_name_H-M   'P 1'
_cell_length_a   9.16131999
_cell_length_b   9.23290216
_cell_length_c   22.40590908
_cell_angle_alpha   90.77746923
_cell_angle_beta   91.16159103
_cell_angle_gamma   119.61384780
_symmetry_Int_Tables_number   1
_chemical_formula_structural   Cu2Ni3C35
_chemical_formula_sum   'Cu6 Ni9 C105'
_cell_volume   1646.70971758
_cell_formula_units_Z   3
loop_
 _symmetry_equiv_pos_site_id
 _symmetry_equiv_pos_as_xyz
  1  'x, y, z'
loop_
 _atom_site_type_symbol
 _atom_site_label
 _atom_site_symmetry_multiplicity
 _atom_site_fract_x
 _atom_site_fract_y
 _atom_site_fract_z
 _atom_site_occupancy
  C  C0  1  0.36854072  0.34788635  0.24685005  1
  C  C1  1  0.00455918  0.63971020  0.24078091  1
  C  C2  1  0.98982088  0.35601544  0.74740830  1
  C  C3  1  0.37620416  0.02415365  0.74618865  1
  C  C4  1  0.30384340  0.34166454  0.57523628  1
  C  C5  1  0.65233585  0.97094069  0.58911130  1
  C  C6  1  0.31265752  0.96219702  0.07192483  1
  C  C7  1  0.65576940  0.68462630  0.08848342  1
  C  C8  1  0.98849177  0.67571671  0.92032494  1
  C  C9  1  0.32650547  0.28908765  0.91118027  1
  C  C10  1  0.98786173  0.30996146  0.42436675  1
  C  C11  1  0.32695475  0.03502834  0.41090151  1
  C  C12  1  0.00380978  0.98794571  0.50327768  1
  C  C13  1  0.00299626  0.01783453  0.99954319  1
  C  C14  1  0.65714909  0.31737397  0.83143409  1
  C  C15  1  0.65079546  0.32303531  0.33512983  1
  C  C16  1  0.31023617  0.64875093  0.16111414  1
  C  C17  1  0.30880321  0.66359858  0.66263106  1
  C  C18  1  0.00222506  0.00111751  0.35000145  1
  C  C19  1  0.00185657  0.00209623  0.84949285  1
  C  C20  1  0.67308580  0.35193763  0.68746551  1
  C  C21  1  0.66659398  0.32431126  0.18524388  1
  C  C22  1  0.32249948  0.65656055  0.01731708  1
  C  C23  1  0.32211475  0.66451761  0.51830771  1
  Ni  Ni24  1  0.30811608  0.98447227  0.25577481  1
  Ni  Ni25  1  0.30072284  0.32260409  0.75781302  1
  Ni  Ni26  1  0.70990971  0.99470495  0.74542980  1
  Ni  Ni27  1  0.94845587  0.32913103  0.58416127  1
  Ni  Ni28  1  0.34442127  0.03646744  0.58975639  1
  Ni  Ni29  1  0.95015940  0.62181636  0.08488115  1
  Ni  Ni30  1  0.36490880  0.32592240  0.08833370  1
  Ni  Ni31  1  0.35670052  0.97143893  0.91850085  1
  Ni  Ni32  1  0.35294153  0.37604428  0.42000106  1
  Cu  Cu33  1  0.01558724  0.06642090  0.64805954  1
  Cu  Cu34  1  0.04715670  0.98545576  0.14129618  1
  Cu  Cu35  1  0.63977446  0.30591348  0.99410170  1
  Cu  Cu36  1  0.62672265  0.32078093  0.49796130  1
  Cu  Cu37  1  0.35081835  0.66214417  0.31490126  1
  Cu  Cu38  1  0.38081391  0.70571533  0.80727707  1
  C  C39  1  0.68963657  0.70186844  0.24875252  1
  C  C40  1  0.01339717  0.30438948  0.25229741  1
  C  C41  1  0.01972496  0.71340602  0.75218514  1
  C  C42  1  0.68108920  0.63752521  0.58058038  1
  C  C43  1  0.68027306  0.04213384  0.08011757  1
  C  C44  1  0.62466874  0.65733984  0.91516209  1
  C  C45  1  0.02254060  0.36908549  0.91364955  1
  C  C46  1  0.62612625  0.96989269  0.41775541  1
  C  C47  1  0.02464934  0.65416801  0.41261329  1
  C  C48  1  0.21324594  0.00382604  0.31125065  1
  C  C49  1  0.78927024  0.79607749  0.30084203  1
  C  C50  1  0.99795980  0.21791641  0.30810413  1
  C  C51  1  0.22178853  0.20734076  0.81323448  1
  C  C52  1  0.00281343  0.78002684  0.80973166  1
  C  C53  1  0.81625460  0.02644899  0.80378978  1
  C  C54  1  0.81017487  0.97411069  0.68407357  1
  C  C55  1  0.16606075  0.23728305  0.69526365  1
  C  C56  1  0.03230428  0.81808282  0.70157723  1
  C  C57  1  0.75598386  0.78833162  0.19277057  1
  C  C58  1  0.02510491  0.21397533  0.19992665  1
  C  C59  1  0.18613795  0.94379833  0.19150796  1
  C  C60  1  0.88228195  0.34825025  0.64655311  1
  C  C61  1  0.46205196  0.12090653  0.65107429  1
  C  C62  1  0.65435485  0.53896066  0.63316534  1
  C  C63  1  0.87938876  0.53916597  0.14675998  1
  C  C64  1  0.65386554  0.11543228  0.13355708  1
  C  C65  1  0.45920136  0.34266097  0.15003165  1
  C  C66  1  0.45254848  0.28197876  0.02859775  1
  C  C67  1  0.80822855  0.50848734  0.02584459  1
  C  C68  1  0.69542407  0.14940534  0.02629562  1
  C  C69  1  0.43458226  0.16517421  0.53073227  1
  C  C70  1  0.69190534  0.53863715  0.52589358  1
  C  C71  1  0.80524792  0.29844624  0.52480565  1
  C  C72  1  0.55173688  0.67669359  0.96993530  1
  C  C73  1  0.13022209  0.45058021  0.96683075  1
  C  C74  1  0.32592208  0.86727830  0.97700056  1
  C  C75  1  0.55337656  0.88014308  0.47226261  1
  C  C76  1  0.32107632  0.45527262  0.47751411  1
  C  C77  1  0.13601466  0.68954537  0.46532440  1
  C  C78  1  0.10823624  0.63291705  0.35737543  1
  C  C79  1  0.51501552  0.87824894  0.36253535  1
  C  C80  1  0.37742841  0.49246771  0.35591922  1
  C  C81  1  0.10074166  0.46552533  0.85960086  1
  C  C82  1  0.37698930  0.86835916  0.85550225  1
  C  C83  1  0.51418240  0.64117665  0.86060814  1
  C  C84  1  0.99593470  0.79814824  0.40908876  1
  C  C85  1  0.79971283  0.00112801  0.41293544  1
  C  C86  1  0.19083585  0.18954294  0.41348015  1
  C  C87  1  0.00183134  0.19946055  0.91218122  1
  C  C88  1  0.19498065  0.99776602  0.91172399  1
  C  C89  1  0.79782340  0.79704651  0.91143540  1
  C  C90  1  0.94857868  0.14171515  0.58298131  1
  C  C91  1  0.16248092  0.03717102  0.59731300  1
  C  C92  1  0.83561237  0.79775079  0.58036791  1
  C  C93  1  0.95276345  0.80909133  0.08307306  1
  C  C94  1  0.83408772  0.03085930  0.08088411  1
  C  C95  1  0.18347571  0.14161610  0.08648824  1
  C  C96  1  0.67580343  0.14827328  0.74373051  1
  C  C97  1  0.48082924  0.33879615  0.74922200  1
  C  C98  1  0.88055790  0.54065241  0.74669640  1
  C  C99  1  0.67755301  0.53582331  0.24955305  1
  C  C100  1  0.87575881  0.34219001  0.24829034  1
  C  C101  1  0.48315754  0.15388369  0.25155952  1
  C  C102  1  0.62672259  0.49652778  0.91404989  1
  C  C103  1  0.85824536  0.36715282  0.91906444  1
  C  C104  1  0.52901563  0.17156180  0.92721367  1
  C  C105  1  0.63072458  0.13456425  0.41840909  1
  C  C106  1  0.52548885  0.34653014  0.42948655  1
  C  C107  1  0.86570680  0.49472576  0.41700723  1
  C  C108  1  0.35651794  0.49259044  0.07963665  1
  C  C109  1  0.14354364  0.67553913  0.07839592  1
  C  C110  1  0.53353515  0.87380339  0.07258314  1
  C  C111  1  0.34782297  0.86374794  0.58143995  1
  C  C112  1  0.53366039  0.66176061  0.57376604  1
  C  C113  1  0.14097080  0.46718798  0.57650147  1
  C  C114  1  0.30756210  0.79778685  0.25914896  1
  C  C115  1  0.51058966  0.67705502  0.25187793  1
  C  C116  1  0.18079558  0.47215769  0.25378746  1
  C  C117  1  0.29977810  0.50560157  0.76510018  1
  C  C118  1  0.18530474  0.70753420  0.75292552  1
  C  C119  1  0.51948955  0.82011622  0.74773109  1
