# generated using pymatgen
data_CuNi2C15
_symmetry_space_group_name_H-M   'P 1'
_cell_length_a   8.72466920
_cell_length_b   8.72466893
_cell_length_c   22.57795189
_cell_angle_alpha   90.03471434
_cell_angle_beta   89.96528566
_cell_angle_gamma   120.13822964
_symmetry_Int_Tables_number   1
_chemical_formula_structural   CuNi2C15
_chemical_formula_sum   'Cu6 Ni12 C90'
_cell_volume   1486.29966955
_cell_formula_units_Z   6
loop_
 _symmetry_equiv_pos_site_id
 _symmetry_equiv_pos_as_xyz
  1  'x, y, z'
loop_
 _atom_site_type_symbol
 _atom_site_label
 _atom_site_symmetry_multiplicity
 _atom_site_fract_x
 _atom_site_fract_y
 _atom_site_fract_z
 _atom_site_occupancy
  C  C0  1  0.98976516  0.98312735  0.49136030  1
  C  C1  1  0.01687265  0.01023484  0.99136030  1
  C  C2  1  0.65643216  0.31646035  0.82469330  1
  C  C3  1  0.68353965  0.34356784  0.32469330  1
  C  C4  1  0.32309816  0.64979435  0.15802730  1
  C  C5  1  0.35020565  0.67690184  0.65802730  1
  C  C6  1  0.98787156  0.99313377  0.35336081  1
  C  C7  1  0.00686623  0.01212844  0.85336081  1
  C  C8  1  0.65453856  0.32646677  0.68669381  1
  C  C9  1  0.67353323  0.34546144  0.18669381  1
  C  C10  1  0.32120456  0.65980077  0.02002781  1
  C  C11  1  0.34019923  0.67879544  0.52002781  1
  C  C12  1  0.99894993  0.00332127  0.64567419  1
  C  C13  1  0.99667873  0.00105007  0.14567419  1
  C  C14  1  0.66561693  0.33665427  0.97900719  1
  C  C15  1  0.66334573  0.33438307  0.47900719  1
  C  C16  1  0.33228293  0.66998827  0.31234119  1
  C  C17  1  0.33001173  0.66771707  0.81234119  1
  Ni  Ni18  1  0.71020293  0.70690845  0.25253798  1
  Ni  Ni19  1  0.99506065  0.28648715  0.25293115  1
  Ni  Ni20  1  0.29309155  0.28979707  0.75253798  1
  Ni  Ni21  1  0.71351285  0.00493935  0.75293115  1
  Ni  Ni22  1  0.37686993  0.04024145  0.58587098  1
  Ni  Ni23  1  0.66172765  0.61982015  0.58626415  1
  Ni  Ni24  1  0.95975855  0.62313007  0.08587098  1
  Ni  Ni25  1  0.38017985  0.33827235  0.08626415  1
  Ni  Ni26  1  0.04353593  0.37357545  0.91920498  1
  Ni  Ni27  1  0.32839365  0.95315415  0.91959815  1
  Ni  Ni28  1  0.62642455  0.95646407  0.41920498  1
  Ni  Ni29  1  0.04684585  0.67160635  0.41959815  1
  Cu  Cu30  1  0.28971037  0.00320598  0.25110809  1
  Cu  Cu31  1  0.99679402  0.71028963  0.75110809  1
  Cu  Cu32  1  0.95637737  0.33653898  0.58444109  1
  Cu  Cu33  1  0.66346102  0.04362263  0.08444109  1
  Cu  Cu34  1  0.62304337  0.66987298  0.91777509  1
  Cu  Cu35  1  0.33012702  0.37695663  0.41777509  1
  C  C36  1  0.20827016  0.02381564  0.30380256  1
  C  C37  1  0.82092299  0.79407083  0.30584061  1
  C  C38  1  0.98405768  0.18216080  0.30659621  1
  C  C39  1  0.20592917  0.17907701  0.80584061  1
  C  C40  1  0.97618436  0.79172984  0.80380256  1
  C  C41  1  0.81783920  0.01594232  0.80659621  1
  C  C42  1  0.80138116  0.97175260  0.69513107  1
  C  C43  1  0.17128131  0.19818091  0.69525848  1
  C  C44  1  0.02891867  0.82386633  0.69645046  1
  C  C45  1  0.80181909  0.82871869  0.19525848  1
  C  C46  1  0.02824740  0.19861884  0.19513107  1
  C  C47  1  0.17613367  0.97108133  0.19645046  1
  C  C48  1  0.87493716  0.35714864  0.63713556  1
  C  C49  1  0.48758999  0.12740383  0.63917361  1
  C  C50  1  0.65072468  0.51549380  0.63992921  1
  C  C51  1  0.87259617  0.51241001  0.13917361  1
  C  C52  1  0.64285136  0.12506284  0.13713556  1
  C  C53  1  0.48450620  0.34927532  0.13992921  1
  C  C54  1  0.46804816  0.30508560  0.02846407  1
  C  C55  1  0.83794831  0.53151391  0.02859148  1
  C  C56  1  0.69558567  0.15719933  0.02978346  1
  C  C57  1  0.46848609  0.16205169  0.52859148  1
  C  C58  1  0.69491440  0.53195184  0.52846407  1
  C  C59  1  0.84280067  0.30441433  0.52978346  1
  C  C60  1  0.54160316  0.69048264  0.97046956  1
  C  C61  1  0.15425599  0.46073783  0.97250761  1
  C  C62  1  0.31739068  0.84882780  0.97326321  1
  C  C63  1  0.53926217  0.84574401  0.47250761  1
  C  C64  1  0.30951736  0.45839684  0.47046956  1
  C  C65  1  0.15117220  0.68260932  0.47326321  1
  C  C66  1  0.13471416  0.63841960  0.36179807  1
  C  C67  1  0.50461431  0.86484791  0.36192548  1
  C  C68  1  0.36225167  0.49053333  0.36311746  1
  C  C69  1  0.13515209  0.49538569  0.86192548  1
  C  C70  1  0.36158040  0.86528584  0.86179807  1
  C  C71  1  0.50946667  0.63774833  0.86311746  1
  C  C72  1  0.02285917  0.82924116  0.41001786  1
  C  C73  1  0.81290553  0.99282563  0.41092081  1
  C  C74  1  0.18373770  0.19872660  0.40898220  1
  C  C75  1  0.00717437  0.18709447  0.91092081  1
  C  C76  1  0.17075884  0.97714083  0.91001786  1
  C  C77  1  0.80127340  0.81626230  0.90898220  1
  C  C78  1  0.96515171  0.16559332  0.58820928  1
  C  C79  1  0.19121401  0.03449527  0.59089513  1
  C  C80  1  0.83852264  0.80987026  0.59092283  1
  C  C81  1  0.96550473  0.80878599  0.09089513  1
  C  C82  1  0.83440668  0.03484829  0.08820928  1
  C  C83  1  0.19012974  0.16147736  0.09092283  1
  C  C84  1  0.68952617  0.16257416  0.74335086  1
  C  C85  1  0.47957253  0.32615863  0.74425381  1
  C  C86  1  0.85040470  0.53205960  0.74231520  1
  C  C87  1  0.67384137  0.52042747  0.24425381  1
  C  C88  1  0.83742584  0.31047383  0.24335086  1
  C  C89  1  0.46794040  0.14959530  0.24231520  1
  C  C90  1  0.63181871  0.49892632  0.92154228  1
  C  C91  1  0.85788101  0.36782827  0.92422813  1
  C  C92  1  0.50518964  0.14320326  0.92425583  1
  C  C93  1  0.63217173  0.14211899  0.42422813  1
  C  C94  1  0.50107368  0.36818129  0.42154228  1
  C  C95  1  0.85679674  0.49481036  0.42425583  1
  C  C96  1  0.35619217  0.49590816  0.07668486  1
  C  C97  1  0.14623853  0.65949263  0.07758781  1
  C  C98  1  0.51707070  0.86539360  0.07564920  1
  C  C99  1  0.34050737  0.85376147  0.57758781  1
  C  C100  1  0.50409184  0.64380783  0.57668486  1
  C  C101  1  0.13460640  0.48292930  0.57564920  1
  C  C102  1  0.29848471  0.83226032  0.25487628  1
  C  C103  1  0.52454701  0.70116227  0.25756213  1
  C  C104  1  0.17185564  0.47653726  0.25758983  1
  C  C105  1  0.29883773  0.47545299  0.75756213  1
  C  C106  1  0.16773968  0.70151529  0.75487628  1
  C  C107  1  0.52346274  0.82814436  0.75758983  1
