# generated using pymatgen
data_CuNi5C2
_symmetry_space_group_name_H-M   'P 1'
_cell_length_a   12.62576400
_cell_length_b   4.26466800
_cell_length_c   6.97744498
_cell_angle_alpha   79.07216055
_cell_angle_beta   90.00000000
_cell_angle_gamma   90.00000000
_symmetry_Int_Tables_number   1
_chemical_formula_structural   CuNi5C2
_chemical_formula_sum   'Cu4 Ni20 C8'
_cell_volume   368.88572915
_cell_formula_units_Z   4
loop_
 _symmetry_equiv_pos_site_id
 _symmetry_equiv_pos_as_xyz
  1  'x, y, z'
loop_
 _atom_site_type_symbol
 _atom_site_label
 _atom_site_symmetry_multiplicity
 _atom_site_fract_x
 _atom_site_fract_y
 _atom_site_fract_z
 _atom_site_occupancy
  Ni  Ni0  1  0.60238400  0.22761800  0.09942100  1
  Ni  Ni1  1  0.10238400  0.77238200  0.40057900  1
  Ni  Ni2  1  0.39761600  0.77238200  0.90057900  1
  Ni  Ni3  1  0.89761600  0.22761800  0.59942100  1
  Ni  Ni4  1  0.48688200  0.21983200  0.19968300  1
  Ni  Ni5  1  0.98688200  0.78016800  0.30031700  1
  Ni  Ni6  1  0.51311800  0.78016800  0.80031700  1
  Ni  Ni7  1  0.01311800  0.21983200  0.69968300  1
  Ni  Ni8  1  0.64714700  0.38878900  0.57798300  1
  Ni  Ni9  1  0.14714700  0.61121100  0.92201700  1
  Ni  Ni10  1  0.35285300  0.61121100  0.42201700  1
  Ni  Ni11  1  0.85285300  0.38878900  0.07798300  1
  Ni  Ni12  1  0.90198400  0.42945600  0.83404100  1
  Ni  Ni13  1  0.40198400  0.57054400  0.66595900  1
  Ni  Ni14  1  0.09801600  0.57054400  0.16595900  1
  Ni  Ni15  1  0.59801600  0.42945600  0.33404100  1
  Ni  Ni16  1  0.80876400  0.69180200  0.91977300  1
  Ni  Ni17  1  0.30876400  0.30819800  0.58022700  1
  Ni  Ni18  1  0.19123600  0.30819800  0.08022700  1
  Ni  Ni19  1  0.69123600  0.69180200  0.41977300  1
  Cu  Cu20  1  0.83166400  0.02201800  0.34212300  1
  Cu  Cu21  1  0.33166400  0.97798200  0.15787700  1
  Cu  Cu22  1  0.16833600  0.97798200  0.65787700  1
  Cu  Cu23  1  0.66833600  0.02201800  0.84212300  1
  C  C24  1  0.55892000  0.31575700  0.19536800  1
  C  C25  1  0.05892000  0.68424300  0.30463200  1
  C  C26  1  0.44108000  0.68424300  0.80463200  1
  C  C27  1  0.94108000  0.31575700  0.69536800  1
  C  C28  1  0.62796900  0.55195200  0.45869000  1
  C  C29  1  0.12796900  0.44804800  0.04131000  1
  C  C30  1  0.37203100  0.44804800  0.54131000  1
  C  C31  1  0.87203100  0.55195200  0.95869000  1
