# generated using pymatgen
data_Cu(NiC9)2
_symmetry_space_group_name_H-M   'P 1'
_cell_length_a   8.84682736
_cell_length_b   8.84682707
_cell_length_c   21.66188685
_cell_angle_alpha   90.73212946
_cell_angle_beta   89.26787055
_cell_angle_gamma   120.00804154
_symmetry_Int_Tables_number   1
_chemical_formula_structural   Cu(NiC9)2
_chemical_formula_sum   'Cu6 Ni12 C108'
_cell_volume   1467.97795844
_cell_formula_units_Z   6
loop_
 _symmetry_equiv_pos_site_id
 _symmetry_equiv_pos_as_xyz
  1  'x, y, z'
loop_
 _atom_site_type_symbol
 _atom_site_label
 _atom_site_symmetry_multiplicity
 _atom_site_fract_x
 _atom_site_fract_y
 _atom_site_fract_z
 _atom_site_occupancy
  C  C0  1  0.63605558  0.00481688  0.25035548  1
  C  C1  1  0.37133769  0.36771019  0.24656272  1
  C  C2  1  0.99156737  0.62490034  0.25022894  1
  C  C3  1  0.63228981  0.62866231  0.74656272  1
  C  C4  1  0.99518312  0.36394442  0.75035548  1
  C  C5  1  0.37509966  0.00843263  0.75022894  1
  C  C6  1  0.30272258  0.33814988  0.58368848  1
  C  C7  1  0.03800469  0.70104319  0.57989572  1
  C  C8  1  0.65823437  0.95823334  0.58356194  1
  C  C9  1  0.29895681  0.96199531  0.07989572  1
  C  C10  1  0.66185012  0.69727742  0.08368848  1
  C  C11  1  0.04176666  0.34176563  0.08356194  1
  C  C12  1  0.96938858  0.67148388  0.91702248  1
  C  C13  1  0.70467069  0.03437719  0.91322972  1
  C  C14  1  0.32490037  0.29156734  0.91689594  1
  C  C15  1  0.96562281  0.29532931  0.41322972  1
  C  C16  1  0.32851612  0.03061142  0.41702248  1
  C  C17  1  0.70843266  0.67509963  0.41689594  1
  C  C18  1  0.99651958  0.99497019  0.49796615  1
  C  C19  1  0.00502981  0.00348042  0.99796615  1
  C  C20  1  0.66318658  0.32830319  0.83129915  1
  C  C21  1  0.67169681  0.33681342  0.33129915  1
  C  C22  1  0.32985258  0.66163719  0.16463315  1
  C  C23  1  0.33836281  0.67014742  0.66463315  1
  C  C24  1  0.98964122  0.99287940  0.35159105  1
  C  C25  1  0.00712060  0.01035878  0.85159105  1
  C  C26  1  0.65630822  0.32621240  0.68492405  1
  C  C27  1  0.67378760  0.34369178  0.18492405  1
  C  C28  1  0.32297422  0.65954640  0.01825805  1
  C  C29  1  0.34045360  0.67702578  0.51825805  1
  Ni  Ni30  1  0.70811752  0.71087046  0.25061639  1
  Ni  Ni31  1  0.00123805  0.28947240  0.25125161  1
  Ni  Ni32  1  0.28912954  0.29188248  0.75061639  1
  Ni  Ni33  1  0.71052760  0.99876195  0.75125161  1
  Ni  Ni34  1  0.37478452  0.04420346  0.58394939  1
  Ni  Ni35  1  0.66790505  0.62280540  0.58458461  1
  Ni  Ni36  1  0.95579654  0.62521548  0.08394939  1
  Ni  Ni37  1  0.37719460  0.33209495  0.08458461  1
  Ni  Ni38  1  0.04145052  0.37753746  0.91728339  1
  Ni  Ni39  1  0.33457105  0.95613940  0.91791861  1
  Ni  Ni40  1  0.62246254  0.95854948  0.41728339  1
  Ni  Ni41  1  0.04386060  0.66542895  0.41791861  1
  Cu  Cu42  1  0.99843532  0.99757337  0.64802875  1
  Cu  Cu43  1  0.00242663  0.00156468  0.14802875  1
  Cu  Cu44  1  0.66510232  0.33090637  0.98136175  1
  Cu  Cu45  1  0.66909363  0.33489768  0.48136175  1
  Cu  Cu46  1  0.33176832  0.66424037  0.31469575  1
  Cu  Cu47  1  0.33575963  0.66823168  0.81469575  1
  C  C48  1  0.28663372  0.99747999  0.25053749  1
  C  C49  1  0.00252001  0.71336628  0.75053749  1
  C  C50  1  0.95330072  0.33081299  0.58387049  1
  C  C51  1  0.66918701  0.04669928  0.08387049  1
  C  C52  1  0.61996672  0.66414699  0.91720449  1
  C  C53  1  0.33585301  0.38003328  0.41720449  1
  C  C54  1  0.20813171  0.03408049  0.30824567  1
  C  C55  1  0.83035905  0.78718538  0.31056881  1
  C  C56  1  0.96774530  0.17153687  0.31152362  1
  C  C57  1  0.21281462  0.16964095  0.81056881  1
  C  C58  1  0.96591951  0.79186829  0.80824567  1
  C  C59  1  0.82846313  0.03225470  0.81152362  1
  C  C60  1  0.79561300  0.95520797  0.68930178  1
  C  C61  1  0.15942807  0.20460825  0.68982166  1
  C  C62  1  0.03957618  0.83063404  0.69203253  1
  C  C63  1  0.79539175  0.84057193  0.18982166  1
  C  C64  1  0.04479203  0.20438700  0.18930178  1
  C  C65  1  0.16936596  0.96042382  0.19203253  1
  C  C66  1  0.87479871  0.36741349  0.64157867  1
  C  C67  1  0.49702605  0.12051838  0.64390181  1
  C  C68  1  0.63441230  0.50486987  0.64485662  1
  C  C69  1  0.87948162  0.50297395  0.14390181  1
  C  C70  1  0.63258651  0.12520129  0.14157867  1
  C  C71  1  0.49513013  0.36558770  0.14485662  1
  C  C72  1  0.46228000  0.28854097  0.02263478  1
  C  C73  1  0.82609507  0.53794125  0.02315466  1
  C  C74  1  0.70624318  0.16396704  0.02536553  1
  C  C75  1  0.46205875  0.17390493  0.52315466  1
  C  C76  1  0.71145903  0.53772000  0.52263478  1
  C  C77  1  0.83603296  0.29375682  0.52536553  1
  C  C78  1  0.54146471  0.70074749  0.97491267  1
  C  C79  1  0.16369205  0.45385238  0.97723581  1
  C  C80  1  0.30107830  0.83820387  0.97819062  1
  C  C81  1  0.54614762  0.83630795  0.47723581  1
  C  C82  1  0.29925251  0.45853529  0.47491267  1
  C  C83  1  0.16179613  0.69892170  0.47819062  1
  C  C84  1  0.12894600  0.62187497  0.35596878  1
  C  C85  1  0.49276107  0.87127525  0.35648866  1
  C  C86  1  0.37290918  0.49730104  0.35869953  1
  C  C87  1  0.12872475  0.50723893  0.85648866  1
  C  C88  1  0.37812503  0.87105400  0.85596878  1
  C  C89  1  0.50269896  0.62709082  0.85869953  1
  C  C90  1  0.02624569  0.83988458  0.41187423  1
  C  C91  1  0.81876725  0.98593037  0.41233439  1
  C  C92  1  0.17568780  0.19511226  0.41084435  1
  C  C93  1  0.01406963  0.18123275  0.91233439  1
  C  C94  1  0.16011542  0.97375431  0.91187423  1
  C  C95  1  0.80488774  0.82431220  0.91084435  1
  C  C96  1  0.96705391  0.16119296  0.58722428  1
  C  C97  1  0.17990778  0.03037307  0.59015105  1
  C  C98  1  0.84777887  0.81942121  0.58893907  1
  C  C99  1  0.96962693  0.82009222  0.09015105  1
  C  C100  1  0.83880704  0.03294609  0.08722428  1
  C  C101  1  0.18057879  0.15222113  0.08893907  1
  C  C102  1  0.69291269  0.17321758  0.74520723  1
  C  C103  1  0.48543425  0.31926337  0.74566739  1
  C  C104  1  0.84235480  0.52844526  0.74417735  1
  C  C105  1  0.68073663  0.51456575  0.24566739  1
  C  C106  1  0.82678242  0.30708731  0.24520723  1
  C  C107  1  0.47155474  0.15764520  0.24417735  1
  C  C108  1  0.63372091  0.49452596  0.92055728  1
  C  C109  1  0.84657478  0.36370607  0.92348405  1
  C  C110  1  0.51444587  0.15275421  0.92227207  1
  C  C111  1  0.63629393  0.15342522  0.42348405  1
  C  C112  1  0.50547404  0.36627909  0.42055728  1
  C  C113  1  0.84724579  0.48555413  0.42227207  1
  C  C114  1  0.35957869  0.50655158  0.07854123  1
  C  C115  1  0.15210025  0.65259737  0.07900139  1
  C  C116  1  0.50902080  0.86177926  0.07751135  1
  C  C117  1  0.34740263  0.84789975  0.57900139  1
  C  C118  1  0.49344842  0.64042131  0.57854123  1
  C  C119  1  0.13822074  0.49097920  0.57751135  1
  C  C120  1  0.30038691  0.82785996  0.25389128  1
  C  C121  1  0.51324078  0.69704007  0.25681805  1
  C  C122  1  0.18111187  0.48608821  0.25560607  1
  C  C123  1  0.30295993  0.48675922  0.75681805  1
  C  C124  1  0.17214004  0.69961309  0.75389128  1
  C  C125  1  0.51391179  0.81888813  0.75560607  1
