# generated using pymatgen
data_Cu2NiC10
_symmetry_space_group_name_H-M   'P 1'
_cell_length_a   6.20215627
_cell_length_b   6.20215627
_cell_length_c   6.11593844
_cell_angle_alpha   106.42750125
_cell_angle_beta   106.42750125
_cell_angle_gamma   113.62889974
_symmetry_Int_Tables_number   1
_chemical_formula_structural   Cu2NiC10
_chemical_formula_sum   'Cu2 Ni1 C10'
_cell_volume   184.53841449
_cell_formula_units_Z   1
loop_
 _symmetry_equiv_pos_site_id
 _symmetry_equiv_pos_as_xyz
  1  'x, y, z'
loop_
 _atom_site_type_symbol
 _atom_site_label
 _atom_site_symmetry_multiplicity
 _atom_site_fract_x
 _atom_site_fract_y
 _atom_site_fract_z
 _atom_site_occupancy
  C  C0  1  0.66482000  0.33518000  0.25000000  1
  C  C1  1  0.36684600  0.63315400  0.75000000  1
  Ni  Ni2  1  0.37431600  0.62568400  0.25000000  1
  Cu  Cu3  1  0.89795400  0.10204600  0.75000000  1
  Cu  Cu4  1  0.08677700  0.91322300  0.25000000  1
  C  C5  1  0.64894100  0.09201500  0.88405400  1
  C  C6  1  0.28128400  0.31681800  0.94348000  1
  C  C7  1  0.90798500  0.35105900  0.61594600  1
  C  C8  1  0.68318200  0.71871600  0.55652000  1
  C  C9  1  0.27021500  0.28274400  0.39812800  1
  C  C10  1  0.71725600  0.72978500  0.10187200  1
  C  C11  1  0.10933700  0.64433100  0.37063900  1
  C  C12  1  0.35566900  0.89066300  0.12936100  1
