# generated using pymatgen
data_Cu4NiC2
_symmetry_space_group_name_H-M   'P 1'
_cell_length_a   4.90626500
_cell_length_b   8.71075300
_cell_length_c   21.47996000
_cell_angle_alpha   90.00000000
_cell_angle_beta   90.00000000
_cell_angle_gamma   90.00000000
_symmetry_Int_Tables_number   1
_chemical_formula_structural   Cu4NiC2
_chemical_formula_sum   'Cu16 Ni4 C8'
_cell_volume   917.99469046
_cell_formula_units_Z   4
loop_
 _symmetry_equiv_pos_site_id
 _symmetry_equiv_pos_as_xyz
  1  'x, y, z'
loop_
 _atom_site_type_symbol
 _atom_site_label
 _atom_site_symmetry_multiplicity
 _atom_site_fract_x
 _atom_site_fract_y
 _atom_site_fract_z
 _atom_site_occupancy
  Ni  Ni0  1  0.58087800  0.24668500  0.87807500  1
  Ni  Ni1  1  0.41912200  0.74668500  0.12192500  1
  Ni  Ni2  1  0.91912200  0.24668500  0.37807500  1
  Ni  Ni3  1  0.08087800  0.74668500  0.62192500  1
  Cu  Cu4  1  0.40682300  0.23757800  0.80105500  1
  Cu  Cu5  1  0.59317700  0.73757800  0.19894500  1
  Cu  Cu6  1  0.09317700  0.23757800  0.30105500  1
  Cu  Cu7  1  0.90682300  0.73757800  0.69894500  1
  Cu  Cu8  1  0.37498500  0.51269700  0.81178700  1
  Cu  Cu9  1  0.62501500  0.01269700  0.18821300  1
  Cu  Cu10  1  0.12501500  0.51269700  0.31178700  1
  Cu  Cu11  1  0.87498500  0.01269700  0.68821300  1
  Cu  Cu12  1  0.60489700  0.44602600  0.90784600  1
  Cu  Cu13  1  0.39510300  0.94602600  0.09215400  1
  Cu  Cu14  1  0.89510300  0.44602600  0.40784600  1
  Cu  Cu15  1  0.10489700  0.94602600  0.59215400  1
  Cu  Cu16  1  0.71454100  0.07504000  0.92064800  1
  Cu  Cu17  1  0.28545900  0.57504000  0.07935200  1
  Cu  Cu18  1  0.78545900  0.07504000  0.42064800  1
  Cu  Cu19  1  0.21454100  0.57504000  0.57935200  1
  C  C20  1  0.86664100  0.25391200  0.00776600  1
  C  C21  1  0.13335900  0.75391200  0.99223400  1
  C  C22  1  0.63335900  0.25391200  0.50776600  1
  C  C23  1  0.36664100  0.75391200  0.49223400  1
  C  C24  1  0.53754800  0.91046200  0.82686200  1
  C  C25  1  0.46245200  0.41046200  0.17313800  1
  C  C26  1  0.96245200  0.91046200  0.32686200  1
  C  C27  1  0.03754800  0.41046200  0.67313800  1
