# generated using pymatgen
data_Cu2NiC9
_symmetry_space_group_name_H-M   'P 1'
_cell_length_a   6.48660125
_cell_length_b   6.50122704
_cell_length_c   6.00566404
_cell_angle_alpha   90.37867242
_cell_angle_beta   89.68908722
_cell_angle_gamma   121.50016832
_symmetry_Int_Tables_number   1
_chemical_formula_structural   Cu2NiC9
_chemical_formula_sum   'Cu2 Ni1 C9'
_cell_volume   215.93742848
_cell_formula_units_Z   1
loop_
 _symmetry_equiv_pos_site_id
 _symmetry_equiv_pos_as_xyz
  1  'x, y, z'
loop_
 _atom_site_type_symbol
 _atom_site_label
 _atom_site_symmetry_multiplicity
 _atom_site_fract_x
 _atom_site_fract_y
 _atom_site_fract_z
 _atom_site_occupancy
  C  C0  1  0.99498800  0.00482500  0.97936700  1
  Ni  Ni1  1  0.55697900  0.44347300  0.11076600  1
  Cu  Cu2  1  0.31882200  0.68043700  0.32041100  1
  Cu  Cu3  1  0.68255100  0.31824600  0.67415400  1
  C  C4  1  0.17546800  0.82770400  0.21502800  1
  C  C5  1  0.21753700  0.37501500  0.19455600  1
  C  C6  1  0.32596400  0.66962900  0.60764100  1
  C  C7  1  0.40300900  0.19413400  0.85501900  1
  C  C8  1  0.62519900  0.78201200  0.19569000  1
  C  C9  1  0.66087500  0.34334200  0.37859100  1
  C  C10  1  0.80619900  0.59748700  0.85492200  1
  C  C11  1  0.83637600  0.15952800  0.73385600  1
