# generated using pymatgen
data_CuNiC17
_symmetry_space_group_name_H-M   'P 1'
_cell_length_a   9.39551898
_cell_length_b   9.40107621
_cell_length_c   23.89450534
_cell_angle_alpha   90.18077425
_cell_angle_beta   89.66145959
_cell_angle_gamma   119.85006873
_symmetry_Int_Tables_number   1
_chemical_formula_structural   CuNiC17
_chemical_formula_sum   'Cu6 Ni6 C102'
_cell_volume   1830.51622895
_cell_formula_units_Z   6
loop_
 _symmetry_equiv_pos_site_id
 _symmetry_equiv_pos_as_xyz
  1  'x, y, z'
loop_
 _atom_site_type_symbol
 _atom_site_label
 _atom_site_symmetry_multiplicity
 _atom_site_fract_x
 _atom_site_fract_y
 _atom_site_fract_z
 _atom_site_occupancy
  C  C0  1  0.98674463  0.64339135  0.25244529  1
  C  C1  1  0.98884505  0.34994106  0.74082056  1
  C  C2  1  0.65632695  0.97808258  0.59044667  1
  C  C3  1  0.67049366  0.69844739  0.07957329  1
  C  C4  1  0.33633452  0.30763829  0.90275675  1
  C  C5  1  0.31581793  0.01652911  0.42009898  1
  C  C6  1  0.01183641  0.99205112  0.50746669  1
  C  C7  1  0.98080175  0.97595277  0.99762716  1
  C  C8  1  0.64850932  0.31807639  0.82021171  1
  C  C9  1  0.65844413  0.34665662  0.33604966  1
  C  C10  1  0.32609747  0.67419785  0.17359674  1
  C  C11  1  0.31800682  0.66651198  0.66163165  1
  Ni  Ni12  1  0.99263798  0.99020932  0.35093758  1
  Ni  Ni13  1  0.98389355  0.98424163  0.84773126  1
  Ni  Ni14  1  0.64827296  0.32567078  0.68336674  1
  Ni  Ni15  1  0.65769534  0.32592558  0.18685836  1
  Ni  Ni16  1  0.32596854  0.67465939  0.01659267  1
  Ni  Ni17  1  0.30693376  0.65023038  0.51972419  1
  Cu  Cu18  1  0.01805652  0.02632386  0.64820251  1
  Cu  Cu19  1  0.99625986  0.97735484  0.15414873  1
  Cu  Cu20  1  0.68130563  0.35570810  0.98163453  1
  Cu  Cu21  1  0.68185833  0.33911876  0.48754123  1
  Cu  Cu22  1  0.32978959  0.67057922  0.31387165  1
  Cu  Cu23  1  0.36584579  0.67414332  0.80878001  1
  C  C24  1  0.29366720  0.98711642  0.25400388  1
  C  C25  1  0.69016486  0.70235625  0.24940907  1
  C  C26  1  0.29391337  0.30176994  0.75670106  1
  C  C27  1  0.70683704  0.99909526  0.74652015  1
  C  C28  1  0.95999850  0.32246085  0.58936958  1
  C  C29  1  0.36512259  0.04089144  0.57911180  1
  C  C30  1  0.96200488  0.63830454  0.08720822  1
  C  C31  1  0.62839650  0.66112272  0.92154865  1
  C  C32  1  0.02495703  0.65291649  0.41437665  1
  C  C33  1  0.01632544  0.30423050  0.24844665  1
  C  C34  1  0.01670713  0.70354505  0.74903933  1
  C  C35  1  0.68325488  0.64262116  0.58126625  1
  C  C36  1  0.68316437  0.04272684  0.08087654  1
  C  C37  1  0.36275037  0.32098539  0.07986947  1
  C  C38  1  0.02810469  0.37230113  0.91615108  1
  C  C39  1  0.34843188  0.97921186  0.91548636  1
  C  C40  1  0.61642745  0.96757693  0.41714877  1
  C  C41  1  0.34919921  0.37602304  0.41394106  1
  C  C42  1  0.22171214  0.01359944  0.31148060  1
  C  C43  1  0.81127154  0.79116055  0.30060255  1
  C  C44  1  0.99447524  0.21434382  0.30011130  1
  C  C45  1  0.21694938  0.21072230  0.81561784  1
  C  C46  1  0.99340573  0.77105715  0.80179352  1
  C  C47  1  0.80785134  0.01639754  0.80278200  1
  C  C48  1  0.80076473  0.97534890  0.69121180  1
  C  C49  1  0.16968840  0.19839829  0.70261478  1
  C  C50  1  0.03222720  0.80763224  0.70051405  1
  C  C51  1  0.78791467  0.82041696  0.19151891  1
  C  C52  1  0.02712568  0.21280491  0.19859225  1
  C  C53  1  0.16203455  0.96373352  0.20036783  1
  C  C54  1  0.88602354  0.34504677  0.64702026  1
  C  C55  1  0.47838851  0.12263474  0.63297692  1
  C  C56  1  0.65696901  0.55204079  0.63314058  1
  C  C57  1  0.87879910  0.53959615  0.14339634  1
  C  C58  1  0.65833368  0.11043607  0.13254560  1
  C  C59  1  0.46342830  0.34514398  0.12960863  1
  C  C60  1  0.44976732  0.30305206  0.02902791  1
  C  C61  1  0.83370686  0.53076102  0.03222234  1
  C  C62  1  0.68828838  0.14242248  0.03143409  1
  C  C63  1  0.46251781  0.15941531  0.52223689  1
  C  C64  1  0.69308313  0.54507197  0.53222224  1
  C  C65  1  0.83492765  0.30876819  0.53516828  1
  C  C66  1  0.54459229  0.66897764  0.97996860  1
  C  C67  1  0.12755681  0.45324959  0.96615626  1
  C  C68  1  0.32283384  0.88483732  0.96731606  1
  C  C69  1  0.55027819  0.87561054  0.46889988  1
  C  C70  1  0.33634536  0.45082307  0.46587227  1
  C  C71  1  0.14753504  0.69002737  0.46581876  1
  C  C72  1  0.12575118  0.63555156  0.35731714  1
  C  C73  1  0.50875766  0.87149600  0.36804707  1
  C  C74  1  0.35762510  0.47855909  0.36456555  1
  C  C75  1  0.10254107  0.47132761  0.86560900  1
  C  C76  1  0.35960003  0.88913679  0.86639589  1
  C  C77  1  0.50214929  0.63748536  0.86767619  1
  C  C78  1  0.01224402  0.82030524  0.41283494  1
  C  C79  1  0.78547815  0.00289687  0.40977414  1
  C  C80  1  0.20363222  0.20892229  0.41076860  1
  C  C81  1  0.01398608  0.20878391  0.91414224  1
  C  C82  1  0.20982725  0.01220314  0.91241701  1
  C  C83  1  0.81340277  0.81157434  0.91845853  1
  C  C84  1  0.95373226  0.14108409  0.58858670  1
  C  C85  1  0.18161127  0.02287004  0.58855912  1
  C  C86  1  0.83804291  0.80301820  0.58282455  1
  C  C87  1  0.96122490  0.81748500  0.08859291  1
  C  C88  1  0.83766840  0.03355227  0.08296117  1
  C  C89  1  0.19870095  0.17306305  0.08472543  1
  C  C90  1  0.69189456  0.16339755  0.74681589  1
  C  C91  1  0.48058079  0.34180242  0.75209696  1
  C  C92  1  0.87666640  0.53501294  0.74452042  1
  C  C93  1  0.68257492  0.52604954  0.24503101  1
  C  C94  1  0.87802844  0.33683133  0.24342476  1
  C  C95  1  0.47776540  0.13288306  0.24462960  1
  C  C96  1  0.62904789  0.47916530  0.92551927  1
  C  C97  1  0.85958267  0.35294683  0.92472284  1
  C  C98  1  0.50319123  0.14268074  0.92060312  1
  C  C99  1  0.61341885  0.12639631  0.41878590  1
  C  C100  1  0.49933029  0.35909238  0.41454972  1
  C  C101  1  0.84356622  0.48413391  0.42359384  1
  C  C102  1  0.35049922  0.47194058  0.07541381  1
  C  C103  1  0.14541431  0.66856552  0.08004638  1
  C  C104  1  0.54381853  0.87063621  0.07679739  1
  C  C105  1  0.36274131  0.86610891  0.57559101  1
  C  C106  1  0.54500595  0.67354872  0.57358950  1
  C  C107  1  0.14692893  0.46778115  0.58351051  1
  C  C108  1  0.28685116  0.80523539  0.25575978  1
  C  C109  1  0.50941806  0.68786283  0.25744458  1
  C  C110  1  0.17119911  0.46849432  0.25082903  1
  C  C111  1  0.28915672  0.47982628  0.75887657  1
  C  C112  1  0.17026974  0.69134331  0.75403969  1
  C  C113  1  0.52207452  0.82852145  0.75472371  1
