# generated using pymatgen
data_Cu24Ni6C5
_symmetry_space_group_name_H-M   'P 1'
_cell_length_a   8.70373010
_cell_length_b   8.70372982
_cell_length_c   22.61884670
_cell_angle_alpha   90.00000000
_cell_angle_beta   90.00000000
_cell_angle_gamma   120.00000107
_symmetry_Int_Tables_number   1
_chemical_formula_structural   Cu24Ni6C5
_chemical_formula_sum   'Cu72 Ni18 C15'
_cell_volume   1483.92482597
_cell_formula_units_Z   3
loop_
 _symmetry_equiv_pos_site_id
 _symmetry_equiv_pos_as_xyz
  1  'x, y, z'
loop_
 _atom_site_type_symbol
 _atom_site_label
 _atom_site_symmetry_multiplicity
 _atom_site_fract_x
 _atom_site_fract_y
 _atom_site_fract_z
 _atom_site_occupancy
  C  C0  1  -0.00000000  0.00000000  0.00291858  1
  C  C1  1  0.66666700  0.33333300  0.83615114  1
  C  C2  1  0.66666700  0.33333300  0.32457288  1
  C  C3  1  -0.00000000  0.00000000  0.34684525  1
  C  C4  1  -0.00000000  0.00000000  0.85616471  1
  C  C5  1  -0.00000000  0.00000000  0.15688700  1
  C  C6  1  0.66666700  0.33333300  0.68548487  1
  C  C7  1  0.66666700  0.33333300  0.19011772  1
  C  C8  1  0.66666700  0.33333300  0.98226619  1
  C  C9  1  0.66666700  0.33333300  0.47939576  1
  C  C10  1  0.33333300  0.66666700  0.30292450  1
  C  C11  1  0.33333300  0.66666700  0.81246256  1
  C  C12  1  -0.00000000  0.00000000  0.64722260  1
  C  C13  1  0.33333300  0.66666700  0.02501505  1
  C  C14  1  0.33333300  0.66666700  0.51469553  1
  Ni  Ni15  1  0.29453490  0.00346229  0.25100601  1
  Ni  Ni16  1  0.70892739  0.70546510  0.25100601  1
  Ni  Ni17  1  0.99653771  0.29107261  0.25100601  1
  Ni  Ni18  1  0.29406893  0.29130250  0.75237959  1
  Ni  Ni19  1  0.99723357  0.70593107  0.75237959  1
  Ni  Ni20  1  0.70869750  0.00276643  0.75237959  1
  Ni  Ni21  1  0.95561214  0.33569759  0.58367385  1
  Ni  Ni22  1  0.38008644  0.04438786  0.58367385  1
  Ni  Ni23  1  0.66430241  0.61991356  0.58367385  1
  Ni  Ni24  1  0.94961687  0.62624653  0.08252329  1
  Ni  Ni25  1  0.67663066  0.05038313  0.08252329  1
  Ni  Ni26  1  0.37375347  0.32336934  0.08252329  1
  Ni  Ni27  1  0.62328192  0.66481805  0.91542503  1
  Ni  Ni28  1  0.04153512  0.37671808  0.91542503  1
  Ni  Ni29  1  0.33518195  0.95846488  0.91542503  1
  Ni  Ni30  1  0.62823927  0.96314006  0.41274934  1
  Ni  Ni31  1  0.33489979  0.37176073  0.41274934  1
  Ni  Ni32  1  0.03685994  0.66510021  0.41274934  1
  Cu  Cu33  1  0.21384421  0.03320461  0.30436808  1
  Cu  Cu34  1  0.81936040  0.78615579  0.30436808  1
  Cu  Cu35  1  0.96679539  0.18063960  0.30436808  1
  Cu  Cu36  1  0.20792727  0.17653481  0.80308022  1
  Cu  Cu37  1  0.96860753  0.79207273  0.80308022  1
  Cu  Cu38  1  0.82346519  0.03139247  0.80308022  1
  Cu  Cu39  1  0.80455075  0.98256664  0.69651830  1
  Cu  Cu40  1  0.17801588  0.19544925  0.69651830  1
  Cu  Cu41  1  0.01743336  0.82198412  0.69651830  1
  Cu  Cu42  1  0.78944494  0.81050011  0.19699206  1
  Cu  Cu43  1  0.02105517  0.21055506  0.19699206  1
  Cu  Cu44  1  0.18949989  0.97894483  0.19699206  1
  Cu  Cu45  1  0.87979592  0.36438456  0.63697623  1
  Cu  Cu46  1  0.48458964  0.12020408  0.63697623  1
  Cu  Cu47  1  0.63561544  0.51541036  0.63697623  1
  Cu  Cu48  1  0.88037027  0.51700664  0.13456715  1
  Cu  Cu49  1  0.63663737  0.11962973  0.13456715  1
  Cu  Cu50  1  0.48299336  0.36336263  0.13456715  1
  Cu  Cu51  1  0.45396606  0.30392479  0.02826568  1
  Cu  Cu52  1  0.84995973  0.54603394  0.02826568  1
  Cu  Cu53  1  0.69607521  0.15004027  0.02826568  1
  Cu  Cu54  1  0.45194129  0.15225397  0.53105322  1
  Cu  Cu55  1  0.70031369  0.54805871  0.53105322  1
  Cu  Cu56  1  0.84774603  0.29968631  0.53105322  1
  Cu  Cu57  1  0.53200758  0.68634980  0.96970178  1
  Cu  Cu58  1  0.15434122  0.46799242  0.96970178  1
  Cu  Cu59  1  0.31365020  0.84565878  0.96970178  1
  Cu  Cu60  1  0.52841241  0.84358343  0.47098408  1
  Cu  Cu61  1  0.31517002  0.47158759  0.47098408  1
  Cu  Cu62  1  0.15641657  0.68482998  0.47098408  1
  Cu  Cu63  1  0.12719516  0.63632968  0.36441359  1
  Cu  Cu64  1  0.50913352  0.87280484  0.36441359  1
  Cu  Cu65  1  0.36367032  0.49086648  0.36441359  1
  Cu  Cu66  1  0.12536029  0.48337347  0.86270234  1
  Cu  Cu67  1  0.35801218  0.87463971  0.86270234  1
  Cu  Cu68  1  0.51662653  0.64198782  0.86270234  1
  Cu  Cu69  1  0.03046817  0.82786264  0.41272795  1
  Cu  Cu70  1  0.79739447  0.96953183  0.41272795  1
  Cu  Cu71  1  0.17213736  0.20260553  0.41272795  1
  Cu  Cu72  1  0.02998345  0.20139142  0.91333391  1
  Cu  Cu73  1  0.17140798  0.97001655  0.91333391  1
  Cu  Cu74  1  0.79860858  0.82859202  0.91333391  1
  Cu  Cu75  1  0.98085369  0.17566839  0.59370361  1
  Cu  Cu76  1  0.19481470  0.01914631  0.59370361  1
  Cu  Cu77  1  0.82433161  0.80518530  0.59370361  1
  Cu  Cu78  1  0.98450720  0.80844546  0.08802898  1
  Cu  Cu79  1  0.82393826  0.01549280  0.08802898  1
  Cu  Cu80  1  0.19155454  0.17606174  0.08802898  1
  Cu  Cu81  1  0.69376783  0.16161617  0.74234077  1
  Cu  Cu82  1  0.46784933  0.30623217  0.74234077  1
  Cu  Cu83  1  0.83838383  0.53215067  0.74234077  1
  Cu  Cu84  1  0.68984347  0.52629885  0.24516272  1
  Cu  Cu85  1  0.83645638  0.31015653  0.24516272  1
  Cu  Cu86  1  0.47370115  0.16354362  0.24516272  1
  Cu  Cu87  1  0.64097880  0.50630496  0.92302232  1
  Cu  Cu88  1  0.86532716  0.35902120  0.92302232  1
  Cu  Cu89  1  0.49369504  0.13467284  0.92302232  1
  Cu  Cu90  1  0.63978833  0.13359297  0.42542679  1
  Cu  Cu91  1  0.49380564  0.36021167  0.42542679  1
  Cu  Cu92  1  0.86640703  0.50619436  0.42542679  1
  Cu  Cu93  1  0.35508468  0.49274189  0.07182251  1
  Cu  Cu94  1  0.13765621  0.64491532  0.07182251  1
  Cu  Cu95  1  0.50725811  0.86234379  0.07182251  1
  Cu  Cu96  1  0.35092051  0.86147841  0.57529331  1
  Cu  Cu97  1  0.51055690  0.64907949  0.57529331  1
  Cu  Cu98  1  0.13852159  0.48944310  0.57529331  1
  Cu  Cu99  1  0.31099763  0.84513842  0.25819258  1
  Cu  Cu100  1  0.53413979  0.68900237  0.25819258  1
  Cu  Cu101  1  0.15486158  0.46586021  0.25819258  1
  Cu  Cu102  1  0.30254288  0.46203392  0.75474523  1
  Cu  Cu103  1  0.15949004  0.69745712  0.75474523  1
  Cu  Cu104  1  0.53796608  0.84050996  0.75474523  1
