# generated using pymatgen
data_CuNiC6
_symmetry_space_group_name_H-M   'P 1'
_cell_length_a   5.88201644
_cell_length_b   5.88201644
_cell_length_c   7.37088606
_cell_angle_alpha   73.54334389
_cell_angle_beta   73.54334389
_cell_angle_gamma   75.78371497
_symmetry_Int_Tables_number   1
_chemical_formula_structural   CuNiC6
_chemical_formula_sum   'Cu2 Ni2 C12'
_cell_volume   230.73214979
_cell_formula_units_Z   2
loop_
 _symmetry_equiv_pos_site_id
 _symmetry_equiv_pos_as_xyz
  1  'x, y, z'
loop_
 _atom_site_type_symbol
 _atom_site_label
 _atom_site_symmetry_multiplicity
 _atom_site_fract_x
 _atom_site_fract_y
 _atom_site_fract_z
 _atom_site_occupancy
  Ni  Ni0  1  0.16645800  0.83354200  0.25000000  1
  Ni  Ni1  1  0.83354200  0.16645800  0.75000000  1
  Cu  Cu2  1  0.31925500  0.68074500  0.75000000  1
  Cu  Cu3  1  0.68074500  0.31925500  0.25000000  1
  C  C4  1  0.70276800  0.03531900  0.79311100  1
  C  C5  1  0.96468100  0.29723200  0.70688900  1
  C  C6  1  0.75196500  0.14884800  0.12255600  1
  C  C7  1  0.85115200  0.24803500  0.37744400  1
  C  C8  1  0.24803500  0.85115200  0.87744400  1
  C  C9  1  0.14884800  0.75196500  0.62255600  1
  C  C10  1  0.43707300  0.30620700  0.36637200  1
  C  C11  1  0.69379300  0.56292700  0.13362800  1
  C  C12  1  0.56292700  0.69379300  0.63362800  1
  C  C13  1  0.30620700  0.43707300  0.86637200  1
  C  C14  1  0.03531900  0.70276800  0.29311100  1
  C  C15  1  0.29723200  0.96468100  0.20688900  1
