# generated using pymatgen
data_CuNi3C16
_symmetry_space_group_name_H-M   'P 1'
_cell_length_a   15.95156040
_cell_length_b   9.21245140
_cell_length_c   9.10470113
_cell_angle_alpha   90.00000000
_cell_angle_beta   125.33153633
_cell_angle_gamma   90.00000000
_symmetry_Int_Tables_number   1
_chemical_formula_structural   CuNi3C16
_chemical_formula_sum   'Cu4 Ni12 C64'
_cell_volume   1091.53611258
_cell_formula_units_Z   4
loop_
 _symmetry_equiv_pos_site_id
 _symmetry_equiv_pos_as_xyz
  1  'x, y, z'
loop_
 _atom_site_type_symbol
 _atom_site_label
 _atom_site_symmetry_multiplicity
 _atom_site_fract_x
 _atom_site_fract_y
 _atom_site_fract_z
 _atom_site_occupancy
  Ni  Ni0  1  0.25629005  0.72172168  0.99442800  1
  Ni  Ni1  1  0.75629005  0.77827832  0.49442800  1
  Ni  Ni2  1  0.75629005  0.22172168  0.99442800  1
  Ni  Ni3  1  0.25629005  0.27827832  0.49442800  1
  Ni  Ni4  1  0.50374891  0.11269216  0.74559129  1
  Ni  Ni5  1  0.50374891  0.88730784  0.24559129  1
  Ni  Ni6  1  0.00374891  0.61269216  0.74559129  1
  Ni  Ni7  1  0.00374891  0.38730784  0.24559129  1
  Ni  Ni8  1  0.17923506  0.94017410  0.28985450  1
  Ni  Ni9  1  0.17923506  0.05982590  0.78985450  1
  Ni  Ni10  1  0.67923506  0.44017410  0.28985450  1
  Ni  Ni11  1  0.67923506  0.55982590  0.78985450  1
  Cu  Cu12  1  0.10514006  0.74808465  0.56658287  1
  Cu  Cu13  1  0.10514006  0.25191535  0.06658287  1
  Cu  Cu14  1  0.60514006  0.24808465  0.56658287  1
  Cu  Cu15  1  0.60514006  0.75191535  0.06658287  1
  C  C16  1  0.89607893  0.75660311  0.94396712  1
  C  C17  1  0.89607893  0.24339689  0.44396712  1
  C  C18  1  0.39607893  0.25660311  0.94396712  1
  C  C19  1  0.39607893  0.74339689  0.44396712  1
  C  C20  1  0.99393077  0.95363669  0.76063418  1
  C  C21  1  0.99393077  0.04636331  0.26063418  1
  C  C22  1  0.49393077  0.45363669  0.76063418  1
  C  C23  1  0.49393077  0.54636331  0.26063418  1
  C  C24  1  0.35600992  0.91410787  0.76056301  1
  C  C25  1  0.64858083  0.87966727  0.74278749  1
  C  C26  1  0.64858083  0.12033273  0.24278749  1
  C  C27  1  0.35600992  0.08589213  0.26056301  1
  C  C28  1  0.85600992  0.41410787  0.76056301  1
  C  C29  1  0.14858083  0.37966727  0.74278749  1
  C  C30  1  0.14858083  0.62033273  0.24278749  1
  C  C31  1  0.85600992  0.58589213  0.26056301  1
  C  C32  1  0.15567530  0.54541871  0.75283776  1
  C  C33  1  0.85200685  0.58746083  0.74784703  1
  C  C34  1  0.85200685  0.41253917  0.24784703  1
  C  C35  1  0.15567530  0.45458129  0.25283776  1
  C  C36  1  0.65567530  0.04541871  0.75283776  1
  C  C37  1  0.35200685  0.08746083  0.74784703  1
  C  C38  1  0.35200685  0.91253917  0.24784703  1
  C  C39  1  0.65567530  0.95458129  0.25283776  1
  C  C40  1  0.43412650  0.55474678  0.58901199  1
  C  C41  1  0.55795755  0.53745188  0.93451970  1
  C  C42  1  0.55795755  0.46254812  0.43451970  1
  C  C43  1  0.43412650  0.44525322  0.08901199  1
  C  C44  1  0.93412650  0.05474678  0.58901199  1
  C  C45  1  0.05795755  0.03745188  0.93451970  1
  C  C46  1  0.05795755  0.96254812  0.43451970  1
  C  C47  1  0.93412650  0.94525322  0.08901199  1
  C  C48  1  0.26314634  0.86120870  0.75398168  1
  C  C49  1  0.73813711  0.80616385  0.74147997  1
  C  C50  1  0.73813711  0.19383615  0.24147997  1
  C  C51  1  0.26314634  0.13879130  0.25398168  1
  C  C52  1  0.76314634  0.36120870  0.75398168  1
  C  C53  1  0.23813711  0.30616385  0.74147997  1
  C  C54  1  0.23813711  0.69383615  0.24147997  1
  C  C55  1  0.76314634  0.63879130  0.25398168  1
  C  C56  1  0.35206473  0.87120196  0.58576709  1
  C  C57  1  0.65241627  0.81698582  0.89910383  1
  C  C58  1  0.65241627  0.18301418  0.39910383  1
  C  C59  1  0.35206473  0.12879804  0.08576709  1
  C  C60  1  0.85206473  0.37120196  0.58576709  1
  C  C61  1  0.15241627  0.31698582  0.89910383  1
  C  C62  1  0.15241627  0.68301418  0.39910383  1
  C  C63  1  0.85206473  0.62879804  0.08576709  1
  C  C64  1  0.45569511  0.86953652  0.93335296  1
  C  C65  1  0.54680452  0.82624024  0.55822902  1
  C  C66  1  0.54680452  0.17375976  0.05822902  1
  C  C67  1  0.45569511  0.13046348  0.43335296  1
  C  C68  1  0.95569511  0.36953652  0.93335296  1
  C  C69  1  0.04680452  0.32624024  0.55822902  1
  C  C70  1  0.04680452  0.67375976  0.05822902  1
  C  C71  1  0.95569511  0.63046348  0.43335296  1
  C  C72  1  0.06501877  0.84941490  0.74814132  1
  C  C73  1  0.90793644  0.86085852  0.75131920  1
  C  C74  1  0.90793644  0.13914148  0.25131920  1
  C  C75  1  0.06501877  0.15058510  0.24814132  1
  C  C76  1  0.56501877  0.34941490  0.74814132  1
  C  C77  1  0.40793644  0.36085852  0.75131920  1
  C  C78  1  0.40793644  0.63914148  0.25131920  1
  C  C79  1  0.56501877  0.65058510  0.24814132  1
