# generated using pymatgen
data_Cu8Ni8C25
_symmetry_space_group_name_H-M   'P 1'
_cell_length_a   5.66222325
_cell_length_b   11.20016579
_cell_length_c   11.14339012
_cell_angle_alpha   54.32146194
_cell_angle_beta   53.91458782
_cell_angle_gamma   53.94337067
_symmetry_Int_Tables_number   1
_chemical_formula_structural   Cu8Ni8C25
_chemical_formula_sum   'Cu8 Ni8 C25'
_cell_volume   430.37075008
_cell_formula_units_Z   1
loop_
 _symmetry_equiv_pos_site_id
 _symmetry_equiv_pos_as_xyz
  1  'x, y, z'
loop_
 _atom_site_type_symbol
 _atom_site_label
 _atom_site_symmetry_multiplicity
 _atom_site_fract_x
 _atom_site_fract_y
 _atom_site_fract_z
 _atom_site_occupancy
  C  C0  1  0.20572800  0.08722400  0.09116500  1
  Ni  Ni1  1  0.48855800  0.23281800  0.23509900  1
  Ni  Ni2  1  0.12431800  0.07387800  0.59419900  1
  Ni  Ni3  1  0.16058800  0.58289400  0.06118200  1
  Ni  Ni4  1  0.14177200  0.58297300  0.56692200  1
  Ni  Ni5  1  0.84973900  0.43964500  0.43014500  1
  Ni  Ni6  1  0.88973100  0.42520800  0.91250300  1
  Ni  Ni7  1  0.85264700  0.92028700  0.42970600  1
  Ni  Ni8  1  0.82050000  0.89940900  0.93335200  1
  Cu  Cu9  1  0.00472100  0.00189500  0.00652300  1
  Cu  Cu10  1  0.34348300  0.67274100  0.18322700  1
  Cu  Cu11  1  0.36164400  0.17643400  0.67376300  1
  Cu  Cu12  1  0.68706300  0.32735300  0.33093800  1
  Cu  Cu13  1  0.35037900  0.67696200  0.67139300  1
  Cu  Cu14  1  0.64373700  0.33193000  0.82676200  1
  Cu  Cu15  1  0.64596800  0.82908300  0.32838500  1
  Cu  Cu16  1  0.64067200  0.82226700  0.81925700  1
  C  C17  1  0.07409500  0.38126200  0.22428900  1
  C  C18  1  0.41618200  0.03988500  0.38573800  1
  C  C19  1  0.76508500  0.21727100  0.03270000  1
  C  C20  1  0.24904000  0.28352500  0.45578800  1
  C  C21  1  0.56575700  0.44622900  0.12534600  1
  C  C22  1  0.05004700  0.38689000  0.71790100  1
  C  C23  1  0.04886800  0.88619600  0.22119300  1
  C  C24  1  0.86571000  0.13233700  0.29081300  1
  C  C25  1  0.42979600  0.02078500  0.88614100  1
  C  C26  1  0.45669500  0.52731800  0.38394400  1
  C  C27  1  0.77117500  0.22161300  0.53520300  1
  C  C28  1  0.75521000  0.70553900  0.03218200  1
  C  C29  1  0.23719800  0.29879800  0.95487800  1
  C  C30  1  0.22988300  0.78507800  0.47082700  1
  C  C31  1  0.56462400  0.47818200  0.61607100  1
  C  C32  1  0.61601100  0.95358800  0.11226000  1
  C  C33  1  0.05523300  0.88392200  0.71542500  1
  C  C34  1  0.94535700  0.11408000  0.78805000  1
  C  C35  1  0.95252200  0.61781000  0.28470300  1
  C  C36  1  0.43550200  0.53353700  0.87996100  1
  C  C37  1  0.76060000  0.72260600  0.52839900  1
  C  C38  1  0.23365800  0.78062100  0.97371700  1
  C  C39  1  0.55241400  0.97690400  0.61590900  1
  C  C40  1  0.94859500  0.61826700  0.77524500  1
