# generated using pymatgen
data_CuNiC18
_symmetry_space_group_name_H-M   'P 1'
_cell_length_a   16.33015531
_cell_length_b   9.48409071
_cell_length_c   9.47724324
_cell_angle_alpha   90.00000000
_cell_angle_beta   125.34613186
_cell_angle_gamma   90.00000000
_symmetry_Int_Tables_number   1
_chemical_formula_structural   CuNiC18
_chemical_formula_sum   'Cu4 Ni4 C72'
_cell_volume   1197.24664587
_cell_formula_units_Z   4
loop_
 _symmetry_equiv_pos_site_id
 _symmetry_equiv_pos_as_xyz
  1  'x, y, z'
loop_
 _atom_site_type_symbol
 _atom_site_label
 _atom_site_symmetry_multiplicity
 _atom_site_fract_x
 _atom_site_fract_y
 _atom_site_fract_z
 _atom_site_occupancy
  C  C0  1  0.25475970  0.72022950  0.00926009  1
  C  C1  1  0.75475970  0.77977050  0.50926009  1
  C  C2  1  0.75475970  0.22022950  0.00926009  1
  C  C3  1  0.25475970  0.27977050  0.50926009  1
  C  C4  1  0.50829798  0.08276408  0.75882946  1
  C  C5  1  0.50829798  0.91723592  0.25882946  1
  C  C6  1  0.00829798  0.58276408  0.75882946  1
  C  C7  1  0.00829798  0.41723592  0.25882946  1
  C  C8  1  0.18350320  0.92316714  0.30439487  1
  C  C9  1  0.18350320  0.07683286  0.80439487  1
  C  C10  1  0.68350320  0.42316714  0.30439487  1
  C  C11  1  0.68350320  0.57683286  0.80439487  1
  Ni  Ni12  1  0.10682558  0.74464481  0.56665564  1
  Ni  Ni13  1  0.10682558  0.25535519  0.06665564  1
  Ni  Ni14  1  0.60682558  0.24464481  0.56665564  1
  Ni  Ni15  1  0.60682558  0.75535519  0.06665564  1
  Cu  Cu16  1  0.89809522  0.75940397  0.94246427  1
  Cu  Cu17  1  0.89809522  0.24059603  0.44246427  1
  Cu  Cu18  1  0.39809522  0.25940397  0.94246427  1
  Cu  Cu19  1  0.39809522  0.74059603  0.44246427  1
  C  C20  1  0.65031984  0.88275454  0.74067203  1
  C  C21  1  0.65031984  0.11724546  0.24067203  1
  C  C22  1  0.15031984  0.38275454  0.74067203  1
  C  C23  1  0.15031984  0.61724546  0.24067203  1
  C  C24  1  0.99130039  0.95438290  0.75451040  1
  C  C25  1  0.99130039  0.04561710  0.25451040  1
  C  C26  1  0.49130039  0.45438290  0.75451040  1
  C  C27  1  0.49130039  0.54561710  0.25451040  1
  C  C28  1  0.35278498  0.92344352  0.74836392  1
  C  C29  1  0.35278498  0.07655648  0.24836392  1
  C  C30  1  0.85278498  0.42344352  0.74836392  1
  C  C31  1  0.85278498  0.57655648  0.24836392  1
  C  C32  1  0.15750977  0.55424399  0.75941890  1
  C  C33  1  0.85504759  0.58932098  0.74396736  1
  C  C34  1  0.85504759  0.41067902  0.24396736  1
  C  C35  1  0.15750977  0.44575601  0.25941890  1
  C  C36  1  0.65750977  0.05424399  0.75941890  1
  C  C37  1  0.35504759  0.08932098  0.74396736  1
  C  C38  1  0.35504759  0.91067902  0.24396736  1
  C  C39  1  0.65750977  0.94575601  0.25941890  1
  C  C40  1  0.43579845  0.56036672  0.59551159  1
  C  C41  1  0.55324368  0.53666876  0.92257246  1
  C  C42  1  0.55324368  0.46333124  0.42257246  1
  C  C43  1  0.43579845  0.43963328  0.09551159  1
  C  C44  1  0.93579845  0.06036672  0.59551159  1
  C  C45  1  0.05324368  0.03666876  0.92257246  1
  C  C46  1  0.05324368  0.96333124  0.42257246  1
  C  C47  1  0.93579845  0.93963328  0.09551159  1
  C  C48  1  0.26146051  0.88008039  0.74800373  1
  C  C49  1  0.74481078  0.80473985  0.75125832  1
  C  C50  1  0.74481078  0.19526015  0.25125832  1
  C  C51  1  0.26146051  0.11991961  0.24800373  1
  C  C52  1  0.76146051  0.38008039  0.74800373  1
  C  C53  1  0.24481078  0.30473985  0.75125832  1
  C  C54  1  0.24481078  0.69526015  0.25125832  1
  C  C55  1  0.76146051  0.61991961  0.24800373  1
  C  C56  1  0.35034308  0.86982479  0.58653068  1
  C  C57  1  0.65084433  0.81612808  0.89765958  1
  C  C58  1  0.65084433  0.18387192  0.39765958  1
  C  C59  1  0.35034308  0.13017521  0.08653068  1
  C  C60  1  0.85034308  0.36982479  0.58653068  1
  C  C61  1  0.15084433  0.31612808  0.89765958  1
  C  C62  1  0.15084433  0.68387192  0.39765958  1
  C  C63  1  0.85034308  0.63017521  0.08653068  1
  C  C64  1  0.45012198  0.87258931  0.91549032  1
  C  C65  1  0.54056130  0.82760416  0.56075437  1
  C  C66  1  0.54056130  0.17239584  0.06075437  1
  C  C67  1  0.45012198  0.12741069  0.41549032  1
  C  C68  1  0.95012198  0.37258931  0.91549032  1
  C  C69  1  0.04056130  0.32760416  0.56075437  1
  C  C70  1  0.04056130  0.67239584  0.06075437  1
  C  C71  1  0.95012198  0.62741069  0.41549032  1
  C  C72  1  0.06346590  0.85682542  0.74342096  1
  C  C73  1  0.91090572  0.86118120  0.75026105  1
  C  C74  1  0.91090572  0.13881880  0.25026105  1
  C  C75  1  0.06346590  0.14317458  0.24342096  1
  C  C76  1  0.56346590  0.35682542  0.74342096  1
  C  C77  1  0.41090572  0.36118120  0.75026105  1
  C  C78  1  0.41090572  0.63881880  0.25026105  1
  C  C79  1  0.56346590  0.64317458  0.24342096  1
