# generated using pymatgen
data_Cu3NiC11
_symmetry_space_group_name_H-M   'P 1'
_cell_length_a   6.63498000
_cell_length_b   6.63498000
_cell_length_c   5.42197300
_cell_angle_alpha   90.00000000
_cell_angle_beta   90.00000000
_cell_angle_gamma   90.00000000
_symmetry_Int_Tables_number   1
_chemical_formula_structural   Cu3NiC11
_chemical_formula_sum   'Cu3 Ni1 C11'
_cell_volume   238.69129833
_cell_formula_units_Z   1
loop_
 _symmetry_equiv_pos_site_id
 _symmetry_equiv_pos_as_xyz
  1  'x, y, z'
loop_
 _atom_site_type_symbol
 _atom_site_label
 _atom_site_symmetry_multiplicity
 _atom_site_fract_x
 _atom_site_fract_y
 _atom_site_fract_z
 _atom_site_occupancy
  C  C0  1  0.25000000  0.75000000  0.00000000  1
  Ni  Ni1  1  0.75000000  0.25000000  0.50000000  1
  Cu  Cu2  1  0.25000000  0.25000000  0.63105500  1
  Cu  Cu3  1  0.75000000  0.75000000  0.36894500  1
  Cu  Cu4  1  0.25000000  0.75000000  0.50000000  1
  C  C5  1  0.04318800  0.75000000  0.27798000  1
  C  C6  1  0.25000000  0.25000000  0.32965200  1
  C  C7  1  0.25000000  0.54318800  0.72202000  1
  C  C8  1  0.25000000  0.95681200  0.72202000  1
  C  C9  1  0.45681200  0.75000000  0.27798000  1
  C  C10  1  0.52653800  0.25000000  0.71148100  1
  C  C11  1  0.75000000  0.02653800  0.28851900  1
  C  C12  1  0.75000000  0.47346200  0.28851900  1
  C  C13  1  0.75000000  0.75000000  0.67034800  1
  C  C14  1  0.97346200  0.25000000  0.71148100  1
