# generated using pymatgen
data_Cu(NiC4)2
_symmetry_space_group_name_H-M   'P 1'
_cell_length_a   6.68540184
_cell_length_b   6.21473838
_cell_length_c   6.71289460
_cell_angle_alpha   57.47494900
_cell_angle_beta   54.40954622
_cell_angle_gamma   85.14828223
_symmetry_Int_Tables_number   1
_chemical_formula_structural   Cu(NiC4)2
_chemical_formula_sum   'Cu1 Ni2 C8'
_cell_volume   180.31779802
_cell_formula_units_Z   1
loop_
 _symmetry_equiv_pos_site_id
 _symmetry_equiv_pos_as_xyz
  1  'x, y, z'
loop_
 _atom_site_type_symbol
 _atom_site_label
 _atom_site_symmetry_multiplicity
 _atom_site_fract_x
 _atom_site_fract_y
 _atom_site_fract_z
 _atom_site_occupancy
  Ni  Ni0  1  0.21053600  0.74938800  0.42705700  1
  Ni  Ni1  1  0.78946400  0.25061200  0.57294300  1
  Cu  Cu2  1  0.00000000  0.00000000  0.00000000  1
  C  C3  1  0.50000000  0.00000000  0.50000000  1
  C  C4  1  0.50000000  0.50000000  0.00000000  1
  C  C5  1  0.25666100  0.21467800  0.49158300  1
  C  C6  1  0.74333900  0.78532200  0.50841700  1
  C  C7  1  0.30034000  0.23365900  0.98668600  1
  C  C8  1  0.69966000  0.76634100  0.01331400  1
  C  C9  1  0.73487700  0.24679500  0.03075000  1
  C  C10  1  0.26512300  0.75320500  0.96925000  1
