# generated using pymatgen
data_CuNiC15
_symmetry_space_group_name_H-M   'P 1'
_cell_length_a   8.70096980
_cell_length_b   8.70096953
_cell_length_c   22.46039227
_cell_angle_alpha   90.00000000
_cell_angle_beta   90.00000000
_cell_angle_gamma   120.00000104
_symmetry_Int_Tables_number   1
_chemical_formula_structural   CuNiC15
_chemical_formula_sum   'Cu6 Ni6 C90'
_cell_volume   1472.59483556
_cell_formula_units_Z   6
loop_
 _symmetry_equiv_pos_site_id
 _symmetry_equiv_pos_as_xyz
  1  'x, y, z'
loop_
 _atom_site_type_symbol
 _atom_site_label
 _atom_site_symmetry_multiplicity
 _atom_site_fract_x
 _atom_site_fract_y
 _atom_site_fract_z
 _atom_site_occupancy
  Ni  Ni0  1  -0.00000000  0.00000000  0.35425799  1
  Ni  Ni1  1  -0.00000000  0.00000000  0.85425799  1
  Ni  Ni2  1  0.66666700  0.33333300  0.68759099  1
  Ni  Ni3  1  0.66666700  0.33333300  0.18759099  1
  Ni  Ni4  1  0.33333300  0.66666700  0.02092499  1
  Ni  Ni5  1  0.33333300  0.66666700  0.52092499  1
  Cu  Cu6  1  -0.00000000  0.00000000  0.64705729  1
  Cu  Cu7  1  -0.00000000  0.00000000  0.14705729  1
  Cu  Cu8  1  0.66666700  0.33333300  0.98039029  1
  Cu  Cu9  1  0.66666700  0.33333300  0.48039029  1
  Cu  Cu10  1  0.33333300  0.66666700  0.31372429  1
  Cu  Cu11  1  0.33333300  0.66666700  0.81372429  1
  C  C12  1  0.29354546  0.00486444  0.25168022  1
  C  C13  1  0.71131898  0.70645454  0.25168022  1
  C  C14  1  0.99513556  0.28868102  0.25168022  1
  C  C15  1  0.29354546  0.28868102  0.75168022  1
  C  C16  1  0.99513556  0.70645454  0.75168022  1
  C  C17  1  0.71131898  0.00486444  0.75168022  1
  C  C18  1  0.96021246  0.33819744  0.58501322  1
  C  C19  1  0.37798598  0.03978754  0.58501322  1
  C  C20  1  0.66180256  0.62201402  0.58501322  1
  C  C21  1  0.96021246  0.62201402  0.08501322  1
  C  C22  1  0.66180256  0.03978754  0.08501322  1
  C  C23  1  0.37798598  0.33819744  0.08501322  1
  C  C24  1  0.62687846  0.67153144  0.91834722  1
  C  C25  1  0.04465198  0.37312154  0.91834722  1
  C  C26  1  0.32846856  0.95534802  0.91834722  1
  C  C27  1  0.62687846  0.95534802  0.41834722  1
  C  C28  1  0.32846856  0.37312154  0.41834722  1
  C  C29  1  0.04465198  0.67153144  0.41834722  1
  C  C30  1  0.20763050  0.02913911  0.30338028  1
  C  C31  1  0.82150861  0.79236950  0.30338028  1
  C  C32  1  0.97086089  0.17849139  0.30338028  1
  C  C33  1  0.20763050  0.17849139  0.80338028  1
  C  C34  1  0.97086089  0.79236950  0.80338028  1
  C  C35  1  0.82150861  0.02913911  0.80338028  1
  C  C36  1  0.78369417  0.96278879  0.69618748  1
  C  C37  1  0.17909462  0.21630583  0.69618748  1
  C  C38  1  0.03721121  0.82090538  0.69618748  1
  C  C39  1  0.78369417  0.82090538  0.19618748  1
  C  C40  1  0.03721121  0.21630583  0.19618748  1
  C  C41  1  0.17909462  0.96278879  0.19618748  1
  C  C42  1  0.87429750  0.36247211  0.63671328  1
  C  C43  1  0.48817561  0.12570250  0.63671328  1
  C  C44  1  0.63752789  0.51182439  0.63671328  1
  C  C45  1  0.87429750  0.51182439  0.13671328  1
  C  C46  1  0.63752789  0.12570250  0.13671328  1
  C  C47  1  0.48817561  0.36247211  0.13671328  1
  C  C48  1  0.45036117  0.29612179  0.02952048  1
  C  C49  1  0.84576162  0.54963883  0.02952048  1
  C  C50  1  0.70387821  0.15423838  0.02952048  1
  C  C51  1  0.45036117  0.15423838  0.52952048  1
  C  C52  1  0.70387821  0.54963883  0.52952048  1
  C  C53  1  0.84576162  0.29612179  0.52952048  1
  C  C54  1  0.54096350  0.69580611  0.97004728  1
  C  C55  1  0.15484161  0.45903650  0.97004728  1
  C  C56  1  0.30419389  0.84515839  0.97004728  1
  C  C57  1  0.54096350  0.84515839  0.47004728  1
  C  C58  1  0.30419389  0.45903650  0.47004728  1
  C  C59  1  0.15484161  0.69580611  0.47004728  1
  C  C60  1  0.11702717  0.62945579  0.36285448  1
  C  C61  1  0.51242762  0.88297283  0.36285448  1
  C  C62  1  0.37054421  0.48757238  0.36285448  1
  C  C63  1  0.11702717  0.48757238  0.86285448  1
  C  C64  1  0.37054421  0.88297283  0.86285448  1
  C  C65  1  0.51242762  0.62945579  0.86285448  1
  C  C66  1  0.02326704  0.82325852  0.40780421  1
  C  C67  1  0.79999148  0.97673296  0.40780421  1
  C  C68  1  0.17674148  0.20000852  0.40780421  1
  C  C69  1  0.02326704  0.20000852  0.90780421  1
  C  C70  1  0.17674148  0.97673296  0.90780421  1
  C  C71  1  0.79999148  0.82325852  0.90780421  1
  C  C72  1  0.97456265  0.17244753  0.59050938  1
  C  C73  1  0.19788488  0.02543735  0.59050938  1
  C  C74  1  0.82755247  0.80211512  0.59050938  1
  C  C75  1  0.97456265  0.80211512  0.09050938  1
  C  C76  1  0.82755247  0.02543735  0.09050938  1
  C  C77  1  0.19788488  0.17244753  0.09050938  1
  C  C78  1  0.68993404  0.15659152  0.74113721  1
  C  C79  1  0.46665848  0.31006596  0.74113721  1
  C  C80  1  0.84340848  0.53334152  0.74113721  1
  C  C81  1  0.68993404  0.53334152  0.24113721  1
  C  C82  1  0.84340848  0.31006596  0.24113721  1
  C  C83  1  0.46665848  0.15659152  0.24113721  1
  C  C84  1  0.64122965  0.50578053  0.92384238  1
  C  C85  1  0.86455188  0.35877035  0.92384238  1
  C  C86  1  0.49421947  0.13544812  0.92384238  1
  C  C87  1  0.64122965  0.13544812  0.42384238  1
  C  C88  1  0.49421947  0.35877035  0.42384238  1
  C  C89  1  0.86455188  0.50578053  0.42384238  1
  C  C90  1  0.35660004  0.48992552  0.07447121  1
  C  C91  1  0.13332448  0.64339996  0.07447121  1
  C  C92  1  0.51007448  0.86667552  0.07447121  1
  C  C93  1  0.35660004  0.86667552  0.57447121  1
  C  C94  1  0.51007448  0.64339996  0.57447121  1
  C  C95  1  0.13332448  0.48992552  0.57447121  1
  C  C96  1  0.30789565  0.83911453  0.25717638  1
  C  C97  1  0.53121788  0.69210435  0.25717638  1
  C  C98  1  0.16088547  0.46878212  0.25717638  1
  C  C99  1  0.30789565  0.46878212  0.75717638  1
  C  C100  1  0.16088547  0.69210435  0.75717638  1
  C  C101  1  0.53121788  0.83911453  0.75717638  1
