# generated using pymatgen
data_Cu5NiC31
_symmetry_space_group_name_H-M   'P 1'
_cell_length_a   8.79544051
_cell_length_b   8.79372036
_cell_length_c   23.00230497
_cell_angle_alpha   90.08768555
_cell_angle_beta   89.94631062
_cell_angle_gamma   119.96632456
_symmetry_Int_Tables_number   1
_chemical_formula_structural   Cu5NiC31
_chemical_formula_sum   'Cu15 Ni3 C93'
_cell_volume   1541.27093861
_cell_formula_units_Z   3
loop_
 _symmetry_equiv_pos_site_id
 _symmetry_equiv_pos_as_xyz
  1  'x, y, z'
loop_
 _atom_site_type_symbol
 _atom_site_label
 _atom_site_symmetry_multiplicity
 _atom_site_fract_x
 _atom_site_fract_y
 _atom_site_fract_z
 _atom_site_occupancy
  C  C0  1  0.36816189  0.99576327  0.74918311  1
  C  C1  1  0.66024070  0.96945726  0.58856966  1
  C  C2  1  0.67317088  0.69477066  0.08142166  1
  C  C3  1  0.02847057  0.00334713  0.50367367  1
  C  C4  1  0.01495151  0.00271166  0.00279300  1
  C  C5  1  0.68267933  0.33809454  0.83346155  1
  C  C6  1  0.66674982  0.33337484  0.33308994  1
  C  C7  1  0.30421096  0.66280025  0.16651178  1
  C  C8  1  0.33021801  0.65848128  0.66665455  1
  C  C9  1  0.00318484  0.00015747  0.65094506  1
  C  C10  1  0.00852787  0.99977545  0.15085851  1
  C  C11  1  0.31734188  0.66676897  0.01643841  1
  C  C12  1  0.32711878  0.66935737  0.51570376  1
  C  C13  1  0.33174204  0.66611956  0.31566892  1
  C  C14  1  0.34335174  0.66769374  0.81564511  1
  C  C15  1  0.00235473  0.00017587  0.35073213  1
  C  C16  1  0.98946416  -0.00000058  0.85057390  1
  C  C17  1  0.67008830  0.33111741  0.68055906  1
  C  C18  1  0.67383787  0.33518158  0.18233899  1
  C  C19  1  0.67336787  0.33683538  0.98311341  1
  C  C20  1  0.65656888  0.32883788  0.48222426  1
  Ni  Ni21  1  0.69903792  0.99687801  0.74709551  1
  Ni  Ni22  1  0.35904656  0.02656566  0.58373439  1
  Ni  Ni23  1  0.96984858  0.63865251  0.08408372  1
  Cu  Cu24  1  0.29920315  0.99907788  0.24939817  1
  Cu  Cu25  1  0.69848738  0.70366529  0.24897212  1
  Cu  Cu26  1  0.00325626  0.29613121  0.24967416  1
  Cu  Cu27  1  0.29377350  0.29792526  0.74979414  1
  Cu  Cu28  1  0.00072899  0.70387097  0.75038746  1
  Cu  Cu29  1  0.97281140  0.33576828  0.58198393  1
  Cu  Cu30  1  0.66736480  0.63596161  0.58282474  1
  Cu  Cu31  1  0.66590204  0.02820219  0.08321032  1
  Cu  Cu32  1  0.36417908  0.33268195  0.08261213  1
  Cu  Cu33  1  0.62250454  0.66481755  0.91851002  1
  Cu  Cu34  1  0.04575748  0.37729413  0.91563953  1
  Cu  Cu35  1  0.33331274  0.96152196  0.91500714  1
  Cu  Cu36  1  0.62565559  0.95675481  0.41675027  1
  Cu  Cu37  1  0.33265785  0.37921399  0.41600250  1
  Cu  Cu38  1  0.03988663  0.66447578  0.41611892  1
  C  C39  1  0.22629943  0.02997305  0.30403639  1
  C  C40  1  0.80845984  0.78445292  0.30181319  1
  C  C41  1  0.97671639  0.19404764  0.30427780  1
  C  C42  1  0.22220681  0.18534110  0.80299607  1
  C  C43  1  0.97433475  0.77848609  0.80514038  1
  C  C44  1  0.80887049  0.02711046  0.80275710  1
  C  C45  1  0.78674115  0.98243123  0.69154205  1
  C  C46  1  0.18849910  0.20977672  0.69827584  1
  C  C47  1  0.02712826  0.81761446  0.70019834  1
  C  C48  1  0.78440565  0.80457012  0.19599440  1
  C  C49  1  0.01772709  0.20493158  0.19847232  1
  C  C50  1  0.19156343  0.98126960  0.19862559  1
  C  C51  1  0.89952088  0.37484484  0.63481682  1
  C  C52  1  0.47669512  0.10343105  0.63975929  1
  C  C53  1  0.64026787  0.52784804  0.63552608  1
  C  C54  1  0.88903799  0.52119314  0.13851121  1
  C  C55  1  0.62830618  0.10425005  0.13512278  1
  C  C56  1  0.48004171  0.36764768  0.13441531  1
  C  C57  1  0.44110072  0.29469049  0.03052085  1
  C  C58  1  0.84224115  0.55813988  0.03071495  1
  C  C59  1  0.69460130  0.13729170  0.03060483  1
  C  C60  1  0.44758333  0.14861989  0.53066964  1
  C  C61  1  0.70193125  0.55763930  0.53072287  1
  C  C62  1  0.85410402  0.30105952  0.53103229  1
  C  C63  1  0.54012708  0.67660879  0.97309328  1
  C  C64  1  0.14068084  0.46140881  0.96925076  1
  C  C65  1  0.31884572  0.85859167  0.96678119  1
  C  C66  1  0.54655190  0.86435507  0.47163057  1
  C  C67  1  0.32070796  0.46373724  0.46931645  1
  C  C68  1  0.13869984  0.68110657  0.46911536  1
  C  C69  1  0.12393617  0.65005430  0.36304628  1
  C  C70  1  0.52178562  0.86706968  0.36533499  1
  C  C71  1  0.34369675  0.47571923  0.36300854  1
  C  C72  1  0.13120272  0.47547243  0.86294422  1
  C  C73  1  0.34832253  0.88163656  0.86049844  1
  C  C74  1  0.52331880  0.65554414  0.86664575  1
  C  C75  1  0.02062241  0.82565369  0.41372862  1
  C  C76  1  0.80517371  0.97571940  0.41370272  1
  C  C77  1  0.17358682  0.19748387  0.41448632  1
  C  C78  1  0.02779864  0.19771999  0.91485283  1
  C  C79  1  0.17298627  0.98126979  0.91321027  1
  C  C80  1  0.80372190  0.82383228  0.91665913  1
  C  C81  1  0.97851115  0.17177434  0.58993645  1
  C  C82  1  0.17887202  0.00790506  0.59158755  1
  C  C83  1  0.82048444  0.81441782  0.58960381  1
  C  C84  1  0.97911071  0.81753814  0.09178109  1
  C  C85  1  0.82491809  0.01357645  0.09129646  1
  C  C86  1  0.18857027  0.18193741  0.09153019  1
  C  C87  1  0.67260149  0.16212881  0.74610554  1
  C  C88  1  0.47397345  0.31882712  0.74483570  1
  C  C89  1  0.84198050  0.52762506  0.74424527  1
  C  C90  1  0.67685778  0.52313267  0.24634813  1
  C  C91  1  0.84219119  0.31410299  0.24688615  1
  C  C92  1  0.47842152  0.15849198  0.24433055  1
  C  C93  1  0.63970978  0.50278741  0.91866266  1
  C  C94  1  0.86386840  0.35480728  0.91738140  1
  C  C95  1  0.49423875  0.14095897  0.91914356  1
  C  C96  1  0.64744401  0.13816305  0.41787917  1
  C  C97  1  0.49413805  0.36024004  0.41712801  1
  C  C98  1  0.85954235  0.50462966  0.41937457  1
  C  C99  1  0.35797741  0.49652671  0.07451509  1
  C  C100  1  0.14980350  0.65717205  0.07566529  1
  C  C101  1  0.51396362  0.84890071  0.07547738  1
  C  C102  1  0.35392631  0.84988677  0.57551825  1
  C  C103  1  0.50878185  0.65185772  0.57575710  1
  C  C104  1  0.14801431  0.48614057  0.57331160  1
  C  C105  1  0.31463367  0.84030361  0.25524895  1
  C  C106  1  0.52532811  0.68940849  0.25567667  1
  C  C107  1  0.16079022  0.47171175  0.25468526  1
  C  C108  1  0.30793176  0.46991530  0.75735310  1
  C  C109  1  0.15986365  0.68742393  0.75612706  1
  C  C110  1  0.51281896  0.83445009  0.75346228  1
