# generated using pymatgen
data_Cu3(NiC2)2
_symmetry_space_group_name_H-M   'P 1'
_cell_length_a   13.39567000
_cell_length_b   13.39567000
_cell_length_c   13.39567000
_cell_angle_alpha   90.00000000
_cell_angle_beta   90.00000000
_cell_angle_gamma   90.00000000
_symmetry_Int_Tables_number   1
_chemical_formula_structural   Cu3(NiC2)2
_chemical_formula_sum   'Cu24 Ni16 C32'
_cell_volume   2403.77226922
_cell_formula_units_Z   8
loop_
 _symmetry_equiv_pos_site_id
 _symmetry_equiv_pos_as_xyz
  1  'x, y, z'
loop_
 _atom_site_type_symbol
 _atom_site_label
 _atom_site_symmetry_multiplicity
 _atom_site_fract_x
 _atom_site_fract_y
 _atom_site_fract_z
 _atom_site_occupancy
  C  C0  1  0.22503500  0.22503500  0.22503500  1
  C  C1  1  0.27496500  0.77496500  0.72503500  1
  C  C2  1  0.72503500  0.27496500  0.77496500  1
  C  C3  1  0.77496500  0.72503500  0.27496500  1
  C  C4  1  0.77496500  0.77496500  0.77496500  1
  C  C5  1  0.72503500  0.22503500  0.27496500  1
  C  C6  1  0.27496500  0.72503500  0.22503500  1
  C  C7  1  0.22503500  0.27496500  0.72503500  1
  C  C8  1  0.03934800  0.01262400  0.26257600  1
  C  C9  1  0.26257600  0.03934800  0.01262400  1
  C  C10  1  0.01262400  0.26257600  0.03934800  1
  C  C11  1  0.48737600  0.73742400  0.53934800  1
  C  C12  1  0.76257600  0.46065200  0.98737600  1
  C  C13  1  0.98737600  0.76257600  0.46065200  1
  C  C14  1  0.23742400  0.96065200  0.51262400  1
  C  C15  1  0.73742400  0.53934800  0.48737600  1
  C  C16  1  0.51262400  0.23742400  0.96065200  1
  C  C17  1  0.53934800  0.48737600  0.73742400  1
  C  C18  1  0.96065200  0.51262400  0.23742400  1
  C  C19  1  0.46065200  0.98737600  0.76257600  1
  C  C20  1  0.96065200  0.98737600  0.73742400  1
  C  C21  1  0.73742400  0.96065200  0.98737600  1
  C  C22  1  0.98737600  0.73742400  0.96065200  1
  C  C23  1  0.51262400  0.26257600  0.46065200  1
  C  C24  1  0.23742400  0.53934800  0.01262400  1
  C  C25  1  0.01262400  0.23742400  0.53934800  1
  C  C26  1  0.76257600  0.03934800  0.48737600  1
  C  C27  1  0.26257600  0.46065200  0.51262400  1
  C  C28  1  0.48737600  0.76257600  0.03934800  1
  C  C29  1  0.46065200  0.51262400  0.26257600  1
  C  C30  1  0.03934800  0.48737600  0.76257600  1
  C  C31  1  0.53934800  0.01262400  0.23742400  1
  Ni  Ni32  1  0.11345500  0.11345500  0.11345500  1
  Ni  Ni33  1  0.38654500  0.88654500  0.61345500  1
  Ni  Ni34  1  0.61345500  0.38654500  0.88654500  1
  Ni  Ni35  1  0.88654500  0.61345500  0.38654500  1
  Ni  Ni36  1  0.88654500  0.88654500  0.88654500  1
  Ni  Ni37  1  0.61345500  0.11345500  0.38654500  1
  Ni  Ni38  1  0.38654500  0.61345500  0.11345500  1
  Ni  Ni39  1  0.11345500  0.38654500  0.61345500  1
  Ni  Ni40  1  0.44687800  0.44687800  0.44687800  1
  Ni  Ni41  1  0.05312200  0.55312200  0.94687800  1
  Ni  Ni42  1  0.94687800  0.05312200  0.55312200  1
  Ni  Ni43  1  0.55312200  0.94687800  0.05312200  1
  Ni  Ni44  1  0.55312200  0.55312200  0.55312200  1
  Ni  Ni45  1  0.94687800  0.44687800  0.05312200  1
  Ni  Ni46  1  0.05312200  0.94687800  0.44687800  1
  Ni  Ni47  1  0.44687800  0.05312200  0.94687800  1
  Cu  Cu48  1  0.18640900  0.44174800  0.25946400  1
  Cu  Cu49  1  0.25946400  0.18640900  0.44174800  1
  Cu  Cu50  1  0.44174800  0.25946400  0.18640900  1
  Cu  Cu51  1  0.05825200  0.74053600  0.68640900  1
  Cu  Cu52  1  0.75946400  0.31359100  0.55825200  1
  Cu  Cu53  1  0.55825200  0.75946400  0.31359100  1
  Cu  Cu54  1  0.24053600  0.81359100  0.94174800  1
  Cu  Cu55  1  0.74053600  0.68640900  0.05825200  1
  Cu  Cu56  1  0.94174800  0.24053600  0.81359100  1
  Cu  Cu57  1  0.68640900  0.05825200  0.74053600  1
  Cu  Cu58  1  0.81359100  0.94174800  0.24053600  1
  Cu  Cu59  1  0.31359100  0.55825200  0.75946400  1
  Cu  Cu60  1  0.81359100  0.55825200  0.74053600  1
  Cu  Cu61  1  0.74053600  0.81359100  0.55825200  1
  Cu  Cu62  1  0.55825200  0.74053600  0.81359100  1
  Cu  Cu63  1  0.94174800  0.25946400  0.31359100  1
  Cu  Cu64  1  0.24053600  0.68640900  0.44174800  1
  Cu  Cu65  1  0.44174800  0.24053600  0.68640900  1
  Cu  Cu66  1  0.75946400  0.18640900  0.05825200  1
  Cu  Cu67  1  0.25946400  0.31359100  0.94174800  1
  Cu  Cu68  1  0.05825200  0.75946400  0.18640900  1
  Cu  Cu69  1  0.31359100  0.94174800  0.25946400  1
  Cu  Cu70  1  0.18640900  0.05825200  0.75946400  1
  Cu  Cu71  1  0.68640900  0.44174800  0.24053600  1
