# generated using pymatgen
data_Cu2Ni2C13
_symmetry_space_group_name_H-M   'P 1'
_cell_length_a   6.06000869
_cell_length_b   7.83951916
_cell_length_c   7.46166746
_cell_angle_alpha   99.27039745
_cell_angle_beta   119.55819674
_cell_angle_gamma   99.06357250
_symmetry_Int_Tables_number   1
_chemical_formula_structural   Cu2Ni2C13
_chemical_formula_sum   'Cu2 Ni2 C13'
_cell_volume   292.49750037
_cell_formula_units_Z   1
loop_
 _symmetry_equiv_pos_site_id
 _symmetry_equiv_pos_as_xyz
  1  'x, y, z'
loop_
 _atom_site_type_symbol
 _atom_site_label
 _atom_site_symmetry_multiplicity
 _atom_site_fract_x
 _atom_site_fract_y
 _atom_site_fract_z
 _atom_site_occupancy
  C  C0  1  0.68618400  0.59111300  0.40111600  1
  C  C1  1  0.15008600  0.61821500  0.33868600  1
  C  C2  1  0.87772100  0.36798700  0.67035800  1
  Ni  Ni3  1  0.59681600  0.24597700  0.02423400  1
  Ni  Ni4  1  0.39895600  0.76880700  0.95083300  1
  Cu  Cu5  1  0.23766500  0.12863100  0.33123500  1
  Cu  Cu6  1  0.79961900  0.95580300  0.73449400  1
  C  C7  1  0.26676600  0.00620500  0.00000200  1
  C  C8  1  0.74342300  0.00451500  0.02445200  1
  C  C9  1  0.62370500  0.32401600  0.37248500  1
  C  C10  1  0.33429200  0.74857700  0.62037300  1
  C  C11  1  0.65412300  0.23173300  0.73402500  1
  C  C12  1  0.81948500  0.64139600  0.21817400  1
  C  C13  1  0.92707600  0.61423400  0.72006100  1
  C  C14  1  0.06130100  0.36800500  0.25269500  1
  C  C15  1  0.12535800  0.26547200  0.71869300  1
  C  C16  1  0.38790000  0.69338900  0.26771600  1
