# generated using pymatgen
data_CuNiC18
_symmetry_space_group_name_H-M   'P 1'
_cell_length_a   15.29477024
_cell_length_b   8.84097645
_cell_length_c   8.84902642
_cell_angle_alpha   90.00000000
_cell_angle_beta   124.83615502
_cell_angle_gamma   90.00000000
_symmetry_Int_Tables_number   1
_chemical_formula_structural   CuNiC18
_chemical_formula_sum   'Cu4 Ni4 C72'
_cell_volume   982.13268315
_cell_formula_units_Z   4
loop_
 _symmetry_equiv_pos_site_id
 _symmetry_equiv_pos_as_xyz
  1  'x, y, z'
loop_
 _atom_site_type_symbol
 _atom_site_label
 _atom_site_symmetry_multiplicity
 _atom_site_fract_x
 _atom_site_fract_y
 _atom_site_fract_z
 _atom_site_occupancy
  C  C0  1  0.25150713  0.72827624  0.99575410  1
  C  C1  1  0.75150713  0.77172376  0.49575410  1
  C  C2  1  0.75150713  0.22827624  0.99575410  1
  C  C3  1  0.25150713  0.27172376  0.49575410  1
  C  C4  1  0.50190219  0.10848536  0.75340445  1
  C  C5  1  0.50190219  0.89151464  0.25340445  1
  C  C6  1  0.00190219  0.60848536  0.75340445  1
  C  C7  1  0.00190219  0.39151464  0.25340445  1
  C  C8  1  0.18955755  0.93374829  0.28550185  1
  C  C9  1  0.18955755  0.06625171  0.78550185  1
  C  C10  1  0.68955755  0.43374829  0.28550185  1
  C  C11  1  0.68955755  0.56625171  0.78550185  1
  C  C12  1  0.89600556  0.75766390  0.93766467  1
  C  C13  1  0.89600556  0.24233610  0.43766467  1
  C  C14  1  0.39600556  0.25766390  0.93766467  1
  C  C15  1  0.39600556  0.74233610  0.43766467  1
  Ni  Ni16  1  0.10462782  0.74143603  0.56042070  1
  Ni  Ni17  1  0.10462782  0.25856397  0.06042070  1
  Ni  Ni18  1  0.60462782  0.24143603  0.56042070  1
  Ni  Ni19  1  0.60462782  0.75856397  0.06042070  1
  Cu  Cu20  1  0.64490028  0.89748526  0.74579550  1
  Cu  Cu21  1  0.64490028  0.10251474  0.24579550  1
  Cu  Cu22  1  0.14490028  0.39748526  0.74579550  1
  Cu  Cu23  1  0.14490028  0.60251474  0.24579550  1
  C  C24  1  0.00049697  0.96099928  0.75624311  1
  C  C25  1  0.00049697  0.03900072  0.25624311  1
  C  C26  1  0.50049697  0.46099928  0.75624311  1
  C  C27  1  0.50049697  0.53900072  0.25624311  1
  C  C28  1  0.35286071  0.89158079  0.75593871  1
  C  C29  1  0.35286071  0.10841921  0.25593871  1
  C  C30  1  0.85286071  0.39158079  0.75593871  1
  C  C31  1  0.85286071  0.60841921  0.25593871  1
  C  C32  1  0.14797104  0.58059094  0.73728708  1
  C  C33  1  0.84848467  0.56905395  0.75845364  1
  C  C34  1  0.84848467  0.43094605  0.25845364  1
  C  C35  1  0.14797104  0.41940906  0.23728708  1
  C  C36  1  0.64797104  0.08059094  0.73728708  1
  C  C37  1  0.34848467  0.06905395  0.75845364  1
  C  C38  1  0.34848467  0.93094605  0.25845364  1
  C  C39  1  0.64797104  0.91940906  0.23728708  1
  C  C40  1  0.43660839  0.56754706  0.58549642  1
  C  C41  1  0.56801731  0.55509898  0.93276002  1
  C  C42  1  0.56801731  0.44490102  0.43276002  1
  C  C43  1  0.43660839  0.43245294  0.08549642  1
  C  C44  1  0.93660839  0.06754706  0.58549642  1
  C  C45  1  0.06801731  0.05509898  0.93276002  1
  C  C46  1  0.06801731  0.94490102  0.43276002  1
  C  C47  1  0.93660839  0.93245294  0.08549642  1
  C  C48  1  0.25340698  0.83504094  0.74219059  1
  C  C49  1  0.74583208  0.81259169  0.76150996  1
  C  C50  1  0.74583208  0.18740831  0.26150996  1
  C  C51  1  0.25340698  0.16495906  0.24219059  1
  C  C52  1  0.75340698  0.33504094  0.74219059  1
  C  C53  1  0.24583208  0.31259169  0.76150996  1
  C  C54  1  0.24583208  0.68740831  0.26150996  1
  C  C55  1  0.75340698  0.66495906  0.24219059  1
  C  C56  1  0.35355400  0.85452352  0.58362431  1
  C  C57  1  0.64081849  0.85542423  0.91886918  1
  C  C58  1  0.64081849  0.14457577  0.41886918  1
  C  C59  1  0.35355400  0.14547648  0.08362431  1
  C  C60  1  0.85355400  0.35452352  0.58362431  1
  C  C61  1  0.14081849  0.35542423  0.91886918  1
  C  C62  1  0.14081849  0.64457577  0.41886918  1
  C  C63  1  0.85355400  0.64547648  0.08362431  1
  C  C64  1  0.45285271  0.83013257  0.93376777  1
  C  C65  1  0.53403858  0.82704015  0.55847623  1
  C  C66  1  0.53403858  0.17295985  0.05847623  1
  C  C67  1  0.45285271  0.16986743  0.43376777  1
  C  C68  1  0.95285271  0.33013257  0.93376777  1
  C  C69  1  0.03403858  0.32704015  0.55847623  1
  C  C70  1  0.03403858  0.67295985  0.05847623  1
  C  C71  1  0.95285271  0.66986743  0.43376777  1
  C  C72  1  0.07799941  0.86004740  0.74186530  1
  C  C73  1  0.91855813  0.85654627  0.75497643  1
  C  C74  1  0.91855813  0.14345373  0.25497643  1
  C  C75  1  0.07799941  0.13995260  0.24186530  1
  C  C76  1  0.57799941  0.36004740  0.74186530  1
  C  C77  1  0.41855813  0.35654627  0.75497643  1
  C  C78  1  0.41855813  0.64345373  0.25497643  1
  C  C79  1  0.57799941  0.63995260  0.24186530  1
