# generated using pymatgen
data_Cu7NiC3
_symmetry_space_group_name_H-M   'P 1'
_cell_length_a   7.64371443
_cell_length_b   7.64371443
_cell_length_c   14.83594600
_cell_angle_alpha   90.00000000
_cell_angle_beta   90.00000000
_cell_angle_gamma   120.00000372
_symmetry_Int_Tables_number   1
_chemical_formula_structural   Cu7NiC3
_chemical_formula_sum   'Cu14 Ni2 C6'
_cell_volume   750.67986311
_cell_formula_units_Z   2
loop_
 _symmetry_equiv_pos_site_id
 _symmetry_equiv_pos_as_xyz
  1  'x, y, z'
loop_
 _atom_site_type_symbol
 _atom_site_label
 _atom_site_symmetry_multiplicity
 _atom_site_fract_x
 _atom_site_fract_y
 _atom_site_fract_z
 _atom_site_occupancy
  C  C0  1  0.12975100  0.87024900  0.75015500  1
  C  C1  1  0.25950300  0.12975100  0.25015500  1
  C  C2  1  0.87024900  0.74049700  0.25015500  1
  C  C3  1  0.12975100  0.25950300  0.75015500  1
  C  C4  1  0.74049700  0.87024900  0.75015500  1
  C  C5  1  0.87024900  0.12975100  0.25015500  1
  Ni  Ni6  1  0.00000000  0.00000000  0.87760100  1
  Ni  Ni7  1  0.00000000  0.00000000  0.37760100  1
  Cu  Cu8  1  0.49793500  0.99587000  0.35440100  1
  Cu  Cu9  1  0.50206500  0.00413000  0.85440100  1
  Cu  Cu10  1  0.99587000  0.49793500  0.85440100  1
  Cu  Cu11  1  0.49793500  0.50206500  0.35440100  1
  Cu  Cu12  1  0.00413000  0.50206500  0.35440100  1
  Cu  Cu13  1  0.50206500  0.49793500  0.85440100  1
  Cu  Cu14  1  0.33333300  0.66666700  0.65395000  1
  Cu  Cu15  1  0.66666700  0.33333300  0.15395000  1
  Cu  Cu16  1  0.83219600  0.16780400  0.62376100  1
  Cu  Cu17  1  0.66439200  0.83219600  0.12376100  1
  Cu  Cu18  1  0.16780400  0.33560800  0.12376100  1
  Cu  Cu19  1  0.83219600  0.66439200  0.62376100  1
  Cu  Cu20  1  0.33560800  0.16780400  0.62376100  1
  Cu  Cu21  1  0.16780400  0.83219600  0.12376100  1
