# generated using pymatgen
data_Cu2Ni4C9
_symmetry_space_group_name_H-M   'P 1'
_cell_length_a   6.00486800
_cell_length_b   8.03925800
_cell_length_c   8.44455200
_cell_angle_alpha   90.00000000
_cell_angle_beta   90.00000000
_cell_angle_gamma   90.00000000
_symmetry_Int_Tables_number   1
_chemical_formula_structural   Cu2Ni4C9
_chemical_formula_sum   'Cu4 Ni8 C18'
_cell_volume   407.65807179
_cell_formula_units_Z   2
loop_
 _symmetry_equiv_pos_site_id
 _symmetry_equiv_pos_as_xyz
  1  'x, y, z'
loop_
 _atom_site_type_symbol
 _atom_site_label
 _atom_site_symmetry_multiplicity
 _atom_site_fract_x
 _atom_site_fract_y
 _atom_site_fract_z
 _atom_site_occupancy
  Ni  Ni0  1  0.50000000  0.14855800  0.66230300  1
  Ni  Ni1  1  0.50000000  0.85144200  0.33769700  1
  Ni  Ni2  1  0.50000000  0.64855800  0.83769700  1
  Ni  Ni3  1  0.50000000  0.35144200  0.16230300  1
  Ni  Ni4  1  0.25866100  0.50000000  0.50000000  1
  Ni  Ni5  1  0.74133900  0.00000000  0.00000000  1
  Ni  Ni6  1  0.74133900  0.50000000  0.50000000  1
  Ni  Ni7  1  0.25866100  0.00000000  0.00000000  1
  Cu  Cu8  1  0.00000000  0.32323000  0.82663400  1
  Cu  Cu9  1  0.00000000  0.67677000  0.17336600  1
  Cu  Cu10  1  0.00000000  0.82323000  0.67336600  1
  Cu  Cu11  1  0.00000000  0.17677000  0.32663400  1
  C  C12  1  0.50000000  0.50000000  0.00000000  1
  C  C13  1  0.50000000  0.00000000  0.50000000  1
  C  C14  1  0.24356600  0.87311200  0.20952000  1
  C  C15  1  0.24356600  0.12688800  0.79048000  1
  C  C16  1  0.75643400  0.37311200  0.29048000  1
  C  C17  1  0.75643400  0.62688800  0.70952000  1
  C  C18  1  0.75643400  0.12688800  0.79048000  1
  C  C19  1  0.75643400  0.87311200  0.20952000  1
  C  C20  1  0.24356600  0.62688800  0.70952000  1
  C  C21  1  0.24356600  0.37311200  0.29048000  1
  C  C22  1  0.50000000  0.36746700  0.59156100  1
  C  C23  1  0.50000000  0.63253300  0.40843900  1
  C  C24  1  0.00000000  0.14970300  0.06446200  1
  C  C25  1  0.00000000  0.85029700  0.93553800  1
  C  C26  1  0.00000000  0.64970300  0.43553800  1
  C  C27  1  0.00000000  0.35029700  0.56446200  1
  C  C28  1  0.50000000  0.13253300  0.09156100  1
  C  C29  1  0.50000000  0.86746700  0.90843900  1
