# generated using pymatgen
data_CuNiC5
_symmetry_space_group_name_H-M   'P 1'
_cell_length_a   9.91671379
_cell_length_b   9.91671379
_cell_length_c   15.66764118
_cell_angle_alpha   85.49685634
_cell_angle_beta   85.49685634
_cell_angle_gamma   78.62093950
_symmetry_Int_Tables_number   1
_chemical_formula_structural   CuNiC5
_chemical_formula_sum   'Cu12 Ni12 C60'
_cell_volume   1502.69132271
_cell_formula_units_Z   12
loop_
 _symmetry_equiv_pos_site_id
 _symmetry_equiv_pos_as_xyz
  1  'x, y, z'
loop_
 _atom_site_type_symbol
 _atom_site_label
 _atom_site_symmetry_multiplicity
 _atom_site_fract_x
 _atom_site_fract_y
 _atom_site_fract_z
 _atom_site_occupancy
  Ni  Ni0  1  0.30685700  0.78875400  0.11931900  1
  Ni  Ni1  1  0.21124600  0.69314300  0.38068100  1
  Ni  Ni2  1  0.69314300  0.21124600  0.88068100  1
  Ni  Ni3  1  0.78875400  0.30685700  0.61931900  1
  Ni  Ni4  1  0.39049000  0.88144900  0.26180100  1
  Ni  Ni5  1  0.11855100  0.60951000  0.23819900  1
  Ni  Ni6  1  0.60951000  0.11855100  0.73819900  1
  Ni  Ni7  1  0.88144900  0.39049000  0.76180100  1
  Ni  Ni8  1  0.15485900  0.02082900  0.18952800  1
  Ni  Ni9  1  0.97917100  0.84514100  0.31047200  1
  Ni  Ni10  1  0.84514100  0.97917100  0.81047200  1
  Ni  Ni11  1  0.02082900  0.15485900  0.68952800  1
  Cu  Cu12  1  0.20796500  0.12641700  0.90985200  1
  Cu  Cu13  1  0.87358300  0.79203500  0.59014800  1
  Cu  Cu14  1  0.79203500  0.87358300  0.09014800  1
  Cu  Cu15  1  0.12641700  0.20796500  0.40985200  1
  Cu  Cu16  1  0.44006600  0.34885300  0.13421700  1
  Cu  Cu17  1  0.65114700  0.55993400  0.36578300  1
  Cu  Cu18  1  0.55993400  0.65114700  0.86578300  1
  Cu  Cu19  1  0.34885300  0.44006600  0.63421700  1
  Cu  Cu20  1  0.61772100  0.16445300  0.39119800  1
  Cu  Cu21  1  0.83554700  0.38227900  0.10880200  1
  Cu  Cu22  1  0.38227900  0.83554700  0.60880200  1
  Cu  Cu23  1  0.16445300  0.61772100  0.89119800  1
  C  C24  1  0.13830700  0.29627600  0.86859400  1
  C  C25  1  0.70372400  0.86169300  0.63140600  1
  C  C26  1  0.86169300  0.70372400  0.13140600  1
  C  C27  1  0.29627600  0.13830700  0.36859400  1
  C  C28  1  0.04073800  0.08405900  0.90646300  1
  C  C29  1  0.91594100  0.95926200  0.59353700  1
  C  C30  1  0.95926200  0.91594100  0.09353700  1
  C  C31  1  0.08405900  0.04073800  0.40646300  1
  C  C32  1  0.16543700  0.17625400  0.01572900  1
  C  C33  1  0.82374600  0.83456300  0.48427100  1
  C  C34  1  0.83456300  0.82374600  0.98427100  1
  C  C35  1  0.17625400  0.16543700  0.51572900  1
  C  C36  1  0.37247200  0.16940100  0.90918200  1
  C  C37  1  0.83059900  0.62752800  0.59081800  1
  C  C38  1  0.62752800  0.83059900  0.09081800  1
  C  C39  1  0.16940100  0.37247200  0.40918200  1
  C  C40  1  0.24451700  0.07543900  0.80197400  1
  C  C41  1  0.92456100  0.75548300  0.69802600  1
  C  C42  1  0.75548300  0.92456100  0.19802600  1
  C  C43  1  0.07543900  0.24451700  0.30197400  1
  C  C44  1  0.30744500  0.42911000  0.06808500  1
  C  C45  1  0.27385100  0.95605100  0.94930400  1
  C  C46  1  0.72614900  0.04394900  0.05069600  1
  C  C47  1  0.95605100  0.27385100  0.44930400  1
  C  C48  1  0.13393100  0.67428300  0.99729800  1
  C  C49  1  0.32571700  0.86606900  0.50270200  1
  C  C50  1  0.86606900  0.32571700  0.00270200  1
  C  C51  1  0.67428300  0.13393100  0.49729800  1
  C  C52  1  0.00129000  0.57140600  0.88703300  1
  C  C53  1  0.42859400  0.99871000  0.61296700  1
  C  C54  1  0.99871000  0.42859400  0.11296700  1
  C  C55  1  0.57140600  0.00129000  0.38703300  1
  C  C56  1  0.10757600  0.78475100  0.84176000  1
  C  C57  1  0.21524900  0.89242400  0.65824000  1
  C  C58  1  0.89242400  0.21524900  0.15824000  1
  C  C59  1  0.78475100  0.10757600  0.34176000  1
  C  C60  1  0.18560900  0.39830600  0.62567700  1
  C  C61  1  0.60169400  0.81439100  0.87432300  1
  C  C62  1  0.81439100  0.60169400  0.37432300  1
  C  C63  1  0.39830600  0.18560900  0.12567700  1
  C  C64  1  0.32747800  0.56080100  0.54408500  1
  C  C65  1  0.43919900  0.67252200  0.95591500  1
  C  C66  1  0.67252200  0.43919900  0.45591500  1
  C  C67  1  0.56080100  0.32747800  0.04408500  1
  C  C68  1  0.27255100  0.57177900  0.70246600  1
  C  C69  1  0.42822100  0.72744900  0.79753400  1
  C  C70  1  0.72744900  0.42822100  0.29753400  1
  C  C71  1  0.57177900  0.27255100  0.20246600  1
  C  C72  1  0.51477900  0.48062100  0.64585200  1
  C  C73  1  0.51937900  0.48522100  0.85414800  1
  C  C74  1  0.48522100  0.51937900  0.35414800  1
  C  C75  1  0.48062100  0.51477900  0.14585200  1
  C  C76  1  0.37666900  0.31969300  0.72601600  1
  C  C77  1  0.68030700  0.62333100  0.77398400  1
  C  C78  1  0.62333100  0.68030700  0.27398400  1
  C  C79  1  0.31969300  0.37666900  0.22601600  1
  C  C80  1  0.42911000  0.30744500  0.56808500  1
  C  C81  1  0.69255500  0.57089000  0.93191500  1
  C  C82  1  0.57089000  0.69255500  0.43191500  1
  C  C83  1  0.04394900  0.72614900  0.55069600  1
