# generated using pymatgen
data_CuNiC19
_symmetry_space_group_name_H-M   'P 1'
_cell_length_a   9.23174949
_cell_length_b   9.21782314
_cell_length_c   22.54211336
_cell_angle_alpha   90.01598100
_cell_angle_beta   90.00000000
_cell_angle_gamma   120.04998971
_symmetry_Int_Tables_number   1
_chemical_formula_structural   CuNiC19
_chemical_formula_sum   'Cu6 Ni6 C114'
_cell_volume   1660.42259085
_cell_formula_units_Z   6
loop_
 _symmetry_equiv_pos_site_id
 _symmetry_equiv_pos_as_xyz
  1  'x, y, z'
loop_
 _atom_site_type_symbol
 _atom_site_label
 _atom_site_symmetry_multiplicity
 _atom_site_fract_x
 _atom_site_fract_y
 _atom_site_fract_z
 _atom_site_occupancy
  C  C0  1  0.64267282  0.02403886  0.25424446  1
  C  C1  1  0.36005557  0.34925196  0.24432248  1
  C  C2  1  0.99311206  0.62024450  0.24251876  1
  C  C3  1  0.62713244  0.62024450  0.74251876  1
  C  C4  1  0.98919639  0.34925196  0.74432248  1
  C  C5  1  0.38136604  0.02403886  0.75424446  1
  C  C6  1  0.30933982  0.35737186  0.58757746  1
  C  C7  1  0.02672257  0.68258496  0.57765548  1
  C  C8  1  0.65977906  0.95357750  0.57585176  1
  C  C9  1  0.29379944  0.95357750  0.07585176  1
  C  C10  1  0.65586339  0.68258496  0.07765548  1
  C  C11  1  0.04803304  0.35737186  0.08757746  1
  C  C12  1  0.97600582  0.69070586  0.92091146  1
  C  C13  1  0.69338857  0.01591896  0.91098948  1
  C  C14  1  0.32644506  0.28691150  0.90918576  1
  C  C15  1  0.96046544  0.28691150  0.40918576  1
  C  C16  1  0.32252939  0.01591896  0.41098948  1
  C  C17  1  0.71469904  0.69070586  0.42091146  1
  C  C18  1  0.98010440  0.98499762  0.49410865  1
  C  C19  1  0.00489322  0.98499762  0.99410865  1
  C  C20  1  0.64677140  0.31833062  0.82744165  1
  C  C21  1  0.67156022  0.31833062  0.32744165  1
  C  C22  1  0.31343740  0.65166462  0.16077565  1
  C  C23  1  0.33822622  0.65166462  0.66077565  1
  Ni  Ni24  1  0.00000311  0.00279601  0.35009662  1
  Ni  Ni25  1  0.00279289  0.00279601  0.85009662  1
  Ni  Ni26  1  0.66667011  0.33612901  0.68342962  1
  Ni  Ni27  1  0.66945989  0.33612901  0.18342962  1
  Ni  Ni28  1  0.33333611  0.66946301  0.01676362  1
  Ni  Ni29  1  0.33612589  0.66946301  0.51676362  1
  Cu  Cu30  1  0.98761942  0.00630919  0.64890843  1
  Cu  Cu31  1  0.01868977  0.00630919  0.14890843  1
  Cu  Cu32  1  0.65428642  0.33964219  0.98224143  1
  Cu  Cu33  1  0.68535677  0.33964219  0.48224143  1
  Cu  Cu34  1  0.32095242  0.67297619  0.31557543  1
  Cu  Cu35  1  0.35202277  0.67297619  0.81557543  1
  C  C36  1  0.30223328  0.00778276  0.25363160  1
  C  C37  1  0.99699897  0.29334860  0.25254595  1
  C  C38  1  0.29634963  0.29334860  0.75254595  1
  C  C39  1  0.70554948  0.00778276  0.75363160  1
  C  C40  1  0.96890028  0.34111576  0.58696460  1
  C  C41  1  0.66366597  0.62668160  0.58587895  1
  C  C42  1  0.96301663  0.62668160  0.08587895  1
  C  C43  1  0.37221648  0.34111576  0.08696460  1
  C  C44  1  0.63556628  0.67444976  0.92029860  1
  C  C45  1  0.33033197  0.96001560  0.91921295  1
  C  C46  1  0.62968263  0.96001560  0.41921295  1
  C  C47  1  0.03888248  0.67444976  0.42029860  1
  C  C48  1  0.70668843  0.70611781  0.25116815  1
  C  C49  1  0.99942938  0.70611781  0.75116815  1
  C  C50  1  0.37335543  0.03945081  0.58450115  1
  C  C51  1  0.66609638  0.03945081  0.08450115  1
  C  C52  1  0.04002143  0.37278481  0.91783515  1
  C  C53  1  0.33276238  0.37278481  0.41783515  1
  C  C54  1  0.21046165  0.03073659  0.31042334  1
  C  C55  1  0.81051153  0.78795615  0.30383839  1
  C  C56  1  0.96835723  0.17767875  0.30985098  1
  C  C57  1  0.20932153  0.17767875  0.80985098  1
  C  C58  1  0.97744462  0.78795615  0.80383839  1
  C  C59  1  0.82027494  0.03073659  0.81042334  1
  C  C60  1  0.78727049  0.96594221  0.69383900  1
  C  C61  1  0.17784924  0.20204342  0.69252903  1
  C  C62  1  0.02942467  0.81217438  0.69695008  1
  C  C63  1  0.78274971  0.81217438  0.19695008  1
  C  C64  1  0.02419418  0.20204342  0.19252903  1
  C  C65  1  0.17867172  0.96594221  0.19383900  1
  C  C66  1  0.87712865  0.36406959  0.64375634  1
  C  C67  1  0.47717853  0.12128915  0.63717139  1
  C  C68  1  0.63502423  0.51101175  0.64318398  1
  C  C69  1  0.87598853  0.51101175  0.14318398  1
  C  C70  1  0.64411162  0.12128915  0.13717139  1
  C  C71  1  0.48694194  0.36406959  0.14375634  1
  C  C72  1  0.45393749  0.29927521  0.02717200  1
  C  C73  1  0.84451624  0.53537642  0.02586203  1
  C  C74  1  0.69609167  0.14550738  0.03028308  1
  C  C75  1  0.44941671  0.14550738  0.53028308  1
  C  C76  1  0.69086118  0.53537642  0.52586203  1
  C  C77  1  0.84533872  0.29927521  0.52717200  1
  C  C78  1  0.54379465  0.69740359  0.97709034  1
  C  C79  1  0.14384453  0.45462315  0.97050539  1
  C  C80  1  0.30169023  0.84434575  0.97651798  1
  C  C81  1  0.54265453  0.84434575  0.47651798  1
  C  C82  1  0.31077762  0.45462315  0.47050539  1
  C  C83  1  0.15360794  0.69740359  0.47709034  1
  C  C84  1  0.12060349  0.63260921  0.36050600  1
  C  C85  1  0.51118224  0.86871042  0.35919603  1
  C  C86  1  0.36275767  0.47884138  0.36361708  1
  C  C87  1  0.11608271  0.47884138  0.86361708  1
  C  C88  1  0.35752718  0.86871042  0.85919603  1
  C  C89  1  0.51200472  0.63260921  0.86050600  1
  C  C90  1  0.01631454  0.83698451  0.41162818  1
  C  C91  1  0.81823398  0.98881413  0.41259328  1
  C  C92  1  0.18301020  0.20540914  0.41192257  1
  C  C93  1  0.02239893  0.20540914  0.91192257  1
  C  C94  1  0.17058015  0.98881413  0.91259328  1
  C  C95  1  0.82066997  0.83698451  0.91162818  1
  C  C96  1  0.98359308  0.16632535  0.58734426  1
  C  C97  1  0.20268573  0.02031516  0.58945935  1
  C  C98  1  0.84470399  0.81073292  0.58807644  1
  C  C99  1  0.96602893  0.81073292  0.08807644  1
  C  C100  1  0.81762943  0.02031516  0.08945935  1
  C  C101  1  0.18273227  0.16632535  0.08734426  1
  C  C102  1  0.68298154  0.17031751  0.74496118  1
  C  C103  1  0.48490098  0.32214713  0.74592628  1
  C  C104  1  0.84967720  0.53874214  0.74525557  1
  C  C105  1  0.68906593  0.53874214  0.24525557  1
  C  C106  1  0.83724715  0.32214713  0.24592628  1
  C  C107  1  0.48733697  0.17031751  0.24496118  1
  C  C108  1  0.65026008  0.49965835  0.92067726  1
  C  C109  1  0.86935273  0.35364816  0.92279235  1
  C  C110  1  0.51137099  0.14406592  0.92140944  1
  C  C111  1  0.63269593  0.14406592  0.42140944  1
  C  C112  1  0.48429643  0.35364816  0.42279235  1
  C  C113  1  0.84939927  0.49965835  0.42067726  1
  C  C114  1  0.34964754  0.50365151  0.07829518  1
  C  C115  1  0.15156698  0.65548113  0.07926028  1
  C  C116  1  0.51634320  0.87207614  0.07858957  1
  C  C117  1  0.35573193  0.87207614  0.57858957  1
  C  C118  1  0.50391315  0.65548113  0.57926028  1
  C  C119  1  0.15400297  0.50365151  0.57829518  1
  C  C120  1  0.31692608  0.83299235  0.25401126  1
  C  C121  1  0.53601873  0.68698216  0.25612635  1
  C  C122  1  0.17803699  0.47739992  0.25474344  1
  C  C123  1  0.29936193  0.47739992  0.75474344  1
  C  C124  1  0.15096243  0.68698216  0.75612635  1
  C  C125  1  0.51606527  0.83299235  0.75401126  1
