# generated using pymatgen
data_Cu2Ni10C7
_symmetry_space_group_name_H-M   'P 1'
_cell_length_a   7.94700495
_cell_length_b   5.72094565
_cell_length_c   5.89897906
_cell_angle_alpha   68.85054494
_cell_angle_beta   64.52708422
_cell_angle_gamma   66.71323980
_symmetry_Int_Tables_number   1
_chemical_formula_structural   Cu2Ni10C7
_chemical_formula_sum   'Cu2 Ni10 C7'
_cell_volume   216.43275643
_cell_formula_units_Z   1
loop_
 _symmetry_equiv_pos_site_id
 _symmetry_equiv_pos_as_xyz
  1  'x, y, z'
loop_
 _atom_site_type_symbol
 _atom_site_label
 _atom_site_symmetry_multiplicity
 _atom_site_fract_x
 _atom_site_fract_y
 _atom_site_fract_z
 _atom_site_occupancy
  C  C0  1  0.48969200  0.01406200  0.51862000  1
  C  C1  1  0.82444400  0.64489700  0.65379300  1
  C  C2  1  0.68844900  0.37544200  0.32281900  1
  C  C3  1  0.32806900  0.61977100  0.66424800  1
  C  C4  1  0.13884400  0.30926000  0.31174700  1
  C  C5  1  0.54710900  0.02150800  0.00856700  1
  C  C6  1  0.98669900  0.00105400  0.01069500  1
  Ni  Ni7  1  0.68276600  0.03104800  0.63971100  1
  Ni  Ni8  1  0.33374400  0.34652500  0.97719400  1
  Ni  Ni9  1  0.96462000  0.23393400  0.20554700  1
  Ni  Ni10  1  0.61618700  0.61003700  0.55488900  1
  Ni  Ni11  1  0.41037400  0.40332200  0.44271600  1
  Ni  Ni12  1  0.70267600  0.09181000  0.14121900  1
  Ni  Ni13  1  0.33002400  0.97004600  0.35944600  1
  Ni  Ni14  1  0.67590100  0.64910100  0.01563500  1
  Ni  Ni15  1  0.99665000  0.28742800  0.67656800  1
  Ni  Ni16  1  0.01071100  0.67720600  0.29762600  1
  Cu  Cu17  1  0.28823200  0.89995800  0.85796700  1
  Cu  Cu18  1  0.04036800  0.75406400  0.78146600  1
