# generated using pymatgen
data_CuNiC19
_symmetry_space_group_name_H-M   'P 1'
_cell_length_a   9.17160160
_cell_length_b   8.97143097
_cell_length_c   21.97652042
_cell_angle_alpha   91.91723458
_cell_angle_beta   90.00000000
_cell_angle_gamma   120.74086126
_symmetry_Int_Tables_number   1
_chemical_formula_structural   CuNiC19
_chemical_formula_sum   'Cu6 Ni6 C114'
_cell_volume   1553.01753612
_cell_formula_units_Z   6
loop_
 _symmetry_equiv_pos_site_id
 _symmetry_equiv_pos_as_xyz
  1  'x, y, z'
loop_
 _atom_site_type_symbol
 _atom_site_label
 _atom_site_symmetry_multiplicity
 _atom_site_fract_x
 _atom_site_fract_y
 _atom_site_fract_z
 _atom_site_occupancy
  C  C0  1  0.64059865  0.01594629  0.25260885  1
  C  C1  1  0.37028183  0.36000207  0.24683929  1
  C  C2  1  0.98974985  0.62434117  0.24299915  1
  C  C3  1  0.63459132  0.62434117  0.74299915  1
  C  C4  1  0.98972024  0.36000207  0.74683929  1
  C  C5  1  0.37534764  0.01594629  0.75260885  1
  C  C6  1  0.30726565  0.34927929  0.58594185  1
  C  C7  1  0.03694883  0.69333507  0.58017229  1
  C  C8  1  0.65641685  0.95767417  0.57633215  1
  C  C9  1  0.30125832  0.95767417  0.07633215  1
  C  C10  1  0.65638724  0.69333507  0.08017229  1
  C  C11  1  0.04201464  0.34927929  0.08594185  1
  C  C12  1  0.97393165  0.68261329  0.91927585  1
  C  C13  1  0.70361483  0.02666907  0.91350629  1
  C  C14  1  0.32308285  0.29100817  0.90966615  1
  C  C15  1  0.96792432  0.29100817  0.40966615  1
  C  C16  1  0.32305324  0.02666907  0.41350629  1
  C  C17  1  0.70868064  0.68261329  0.41927585  1
  C  C18  1  0.98926806  0.99180709  0.49581522  1
  C  C19  1  0.00253904  0.99180709  0.99581522  1
  C  C20  1  0.65593506  0.32514009  0.82914822  1
  C  C21  1  0.66920604  0.32514009  0.32914822  1
  C  C22  1  0.32260106  0.65847409  0.16248222  1
  C  C23  1  0.33587204  0.65847409  0.66248222  1
  Ni  Ni24  1  0.00272559  0.00250522  0.34906832  1
  Ni  Ni25  1  -0.00022037  0.00250522  0.84906832  1
  Ni  Ni26  1  0.66939259  0.33583822  0.68240132  1
  Ni  Ni27  1  0.66644663  0.33583822  0.18240132  1
  Ni  Ni28  1  0.33605859  0.66917222  0.01573532  1
  Ni  Ni29  1  0.33311263  0.66917222  0.51573532  1
  C  C30  1  0.29776152  0.00194692  0.25325385  1
  C  C31  1  0.00523447  0.29195577  0.25320547  1
  C  C32  1  0.28672130  0.29195577  0.75320547  1
  C  C33  1  0.70418540  0.00194692  0.75325385  1
  C  C34  1  0.96442852  0.33527992  0.58658685  1
  C  C35  1  0.67190147  0.62528877  0.58653847  1
  C  C36  1  0.95338830  0.62528877  0.08653847  1
  C  C37  1  0.37085240  0.33527992  0.08658685  1
  C  C38  1  0.63109452  0.66861392  0.91992085  1
  C  C39  1  0.33856747  0.95862277  0.91987247  1
  C  C40  1  0.62005430  0.95862277  0.41987247  1
  C  C41  1  0.03751840  0.66861392  0.41992085  1
  Cu  Cu42  1  0.97034369  0.01299718  0.64838476  1
  Cu  Cu43  1  0.04265349  0.01299718  0.14838476  1
  Cu  Cu44  1  0.63701069  0.34633018  0.98171776  1
  Cu  Cu45  1  0.70932049  0.34633018  0.48171776  1
  Cu  Cu46  1  0.30367669  0.67966418  0.31505176  1
  Cu  Cu47  1  0.37598649  0.67966418  0.81505176  1
  C  C48  1  0.70458856  0.71061994  0.24993524  1
  C  C49  1  0.00603137  0.71061994  0.74993524  1
  C  C50  1  0.37125556  0.04395294  0.58326824  1
  C  C51  1  0.67269837  0.04395294  0.08326824  1
  C  C52  1  0.03792156  0.37728694  0.91660224  1
  C  C53  1  0.33936437  0.37728694  0.41660224  1
  C  C54  1  0.21364763  0.03084352  0.31223188  1
  C  C55  1  0.80429318  0.78909657  0.30646364  1
  C  C56  1  0.96892182  0.17816559  0.31145305  1
  C  C57  1  0.20924378  0.17816559  0.81145305  1
  C  C58  1  0.98480338  0.78909657  0.80646364  1
  C  C59  1  0.81719589  0.03084352  0.81223188  1
  C  C60  1  0.78307504  0.95606727  0.69064450  1
  C  C61  1  0.15465027  0.19619547  0.69001418  1
  C  C62  1  0.03006227  0.81669680  0.69564758  1
  C  C63  1  0.78663453  0.81669680  0.19564758  1
  C  C64  1  0.04154520  0.19619547  0.19001418  1
  C  C65  1  0.17299222  0.95606727  0.19064450  1
  C  C66  1  0.88031463  0.36417652  0.64556488  1
  C  C67  1  0.47096018  0.12242957  0.63979664  1
  C  C68  1  0.63558882  0.51149859  0.64478605  1
  C  C69  1  0.87591078  0.51149859  0.14478605  1
  C  C70  1  0.65147038  0.12242957  0.13979664  1
  C  C71  1  0.48386289  0.36417652  0.14556488  1
  C  C72  1  0.44974204  0.28940027  0.02397750  1
  C  C73  1  0.82131727  0.52952847  0.02334718  1
  C  C74  1  0.69672927  0.15002980  0.02898058  1
  C  C75  1  0.45330153  0.15002980  0.52898058  1
  C  C76  1  0.70821220  0.52952847  0.52334718  1
  C  C77  1  0.83965922  0.28940027  0.52397750  1
  C  C78  1  0.54698063  0.69751052  0.97889888  1
  C  C79  1  0.13762618  0.45576357  0.97313064  1
  C  C80  1  0.30225482  0.84483259  0.97812005  1
  C  C81  1  0.54257678  0.84483259  0.47812005  1
  C  C82  1  0.31813638  0.45576357  0.47313064  1
  C  C83  1  0.15052889  0.69751052  0.47889888  1
  C  C84  1  0.11640804  0.62273427  0.35731150  1
  C  C85  1  0.48798327  0.86286247  0.35668118  1
  C  C86  1  0.36339527  0.48336380  0.36231458  1
  C  C87  1  0.11996753  0.48336380  0.86231458  1
  C  C88  1  0.37487820  0.86286247  0.85668118  1
  C  C89  1  0.50632522  0.62273427  0.85731150  1
  C  C90  1  0.00957361  0.83040903  0.41252864  1
  C  C91  1  0.80912679  0.99120571  0.41210756  1
  C  C92  1  0.18559705  0.20191261  0.41243955  1
  C  C93  1  0.01631556  0.20191261  0.91243955  1
  C  C94  1  0.18207891  0.99120571  0.91210756  1
  C  C95  1  0.82083543  0.83040903  0.91252864  1
  C  C96  1  0.97100304  0.14972096  0.58728689  1
  C  C97  1  0.20060755  0.02740393  0.58568277  1
  C  C98  1  0.86123036  0.82016088  0.59138960  1
  C  C99  1  0.95893053  0.82016088  0.09138960  1
  C  C100  1  0.82679638  0.02740393  0.08568277  1
  C  C101  1  0.17871792  0.14972096  0.08728689  1
  C  C102  1  0.67624061  0.16374203  0.74586164  1
  C  C103  1  0.47579379  0.32453871  0.74544056  1
  C  C104  1  0.85226405  0.53524561  0.74577255  1
  C  C105  1  0.68298256  0.53524561  0.24577255  1
  C  C106  1  0.84874591  0.32453871  0.24544056  1
  C  C107  1  0.48750243  0.16374203  0.24586164  1
  C  C108  1  0.63767004  0.48305396  0.92061989  1
  C  C109  1  0.86727455  0.36073693  0.91901577  1
  C  C110  1  0.52789736  0.15349388  0.92472260  1
  C  C111  1  0.62559753  0.15349388  0.42472260  1
  C  C112  1  0.49346338  0.36073693  0.41901577  1
  C  C113  1  0.84538492  0.48305396  0.42061989  1
  C  C114  1  0.34290661  0.49707603  0.07919564  1
  C  C115  1  0.14245979  0.65787271  0.07877456  1
  C  C116  1  0.51893005  0.86857961  0.07910655  1
  C  C117  1  0.34964856  0.86857961  0.57910655  1
  C  C118  1  0.51541191  0.65787271  0.57877456  1
  C  C119  1  0.15416843  0.49707603  0.57919564  1
  C  C120  1  0.30433604  0.81638796  0.25395389  1
  C  C121  1  0.53394055  0.69407093  0.25234977  1
  C  C122  1  0.19456336  0.48682788  0.25805660  1
  C  C123  1  0.29226353  0.48682788  0.75805660  1
  C  C124  1  0.16012938  0.69407093  0.75234977  1
  C  C125  1  0.51205092  0.81638796  0.75395389  1
