# generated using pymatgen
data_Cu12Ni3C2
_symmetry_space_group_name_H-M   'P 1'
_cell_length_a   9.19718106
_cell_length_b   9.19718074
_cell_length_c   23.49101609
_cell_angle_alpha   90.00000000
_cell_angle_beta   90.00000000
_cell_angle_gamma   120.00000116
_symmetry_Int_Tables_number   1
_chemical_formula_structural   Cu12Ni3C2
_chemical_formula_sum   'Cu72 Ni18 C12'
_cell_volume   1720.84552333
_cell_formula_units_Z   6
loop_
 _symmetry_equiv_pos_site_id
 _symmetry_equiv_pos_as_xyz
  1  'x, y, z'
loop_
 _atom_site_type_symbol
 _atom_site_label
 _atom_site_symmetry_multiplicity
 _atom_site_fract_x
 _atom_site_fract_y
 _atom_site_fract_z
 _atom_site_occupancy
  C  C0  1  -0.00000000  0.00000000  0.35697468  1
  C  C1  1  -0.00000000  0.00000000  0.85697468  1
  C  C2  1  -0.00000000  0.00000000  0.64333316  1
  C  C3  1  -0.00000000  0.00000000  0.14333316  1
  C  C4  1  0.66666700  0.33333300  0.69289980  1
  C  C5  1  0.66666700  0.33333300  0.19289980  1
  C  C6  1  0.33333300  0.66666700  0.02373033  1
  C  C7  1  0.33333300  0.66666700  0.52373033  1
  C  C8  1  0.66666700  0.33333300  0.97993108  1
  C  C9  1  0.66666700  0.33333300  0.47993108  1
  C  C10  1  0.33333300  0.66666700  0.31477934  1
  C  C11  1  0.33333300  0.66666700  0.81477934  1
  Ni  Ni12  1  0.29051766  0.98692456  0.25357788  1
  Ni  Ni13  1  0.69640690  0.70948234  0.25357788  1
  Ni  Ni14  1  0.01307544  0.30359310  0.25357788  1
  Ni  Ni15  1  0.29051766  0.30359310  0.75357788  1
  Ni  Ni16  1  0.01307544  0.70948234  0.75357788  1
  Ni  Ni17  1  0.69640690  0.98692456  0.75357788  1
  Ni  Ni18  1  0.94541975  0.32753049  0.58104417  1
  Ni  Ni19  1  0.38211174  0.05458025  0.58104417  1
  Ni  Ni20  1  0.67246951  0.61788826  0.58104417  1
  Ni  Ni21  1  0.94541975  0.61788826  0.08104417  1
  Ni  Ni22  1  0.67246951  0.05458025  0.08104417  1
  Ni  Ni23  1  0.38211174  0.32753049  0.08104417  1
  Ni  Ni24  1  0.61427335  0.65108903  0.91731813  1
  Ni  Ni25  1  0.03681468  0.38572665  0.91731813  1
  Ni  Ni26  1  0.34891097  0.96318532  0.91731813  1
  Ni  Ni27  1  0.61427335  0.96318532  0.41731813  1
  Ni  Ni28  1  0.34891097  0.38572665  0.41731813  1
  Ni  Ni29  1  0.03681468  0.65108903  0.41731813  1
  Cu  Cu30  1  0.21297414  0.01325067  0.30328151  1
  Cu  Cu31  1  0.80027652  0.78702586  0.30328151  1
  Cu  Cu32  1  0.98674933  0.19972348  0.30328151  1
  Cu  Cu33  1  0.21297414  0.19972348  0.80328151  1
  Cu  Cu34  1  0.98674933  0.78702586  0.80328151  1
  Cu  Cu35  1  0.80027652  0.01325067  0.80328151  1
  Cu  Cu36  1  0.75657471  0.94420553  0.70203514  1
  Cu  Cu37  1  0.18763082  0.24342529  0.70203514  1
  Cu  Cu38  1  0.05579447  0.81236918  0.70203514  1
  Cu  Cu39  1  0.75657471  0.81236918  0.20203514  1
  Cu  Cu40  1  0.05579447  0.24342529  0.20203514  1
  Cu  Cu41  1  0.18763082  0.94420553  0.20203514  1
  Cu  Cu42  1  0.86565151  0.35001790  0.63115299  1
  Cu  Cu43  1  0.48436739  0.13434849  0.63115299  1
  Cu  Cu44  1  0.64998210  0.51563261  0.63115299  1
  Cu  Cu45  1  0.86565151  0.51563261  0.13115299  1
  Cu  Cu46  1  0.64998210  0.13434849  0.13115299  1
  Cu  Cu47  1  0.48436739  0.35001790  0.13115299  1
  Cu  Cu48  1  0.48223442  0.31318860  0.02723091  1
  Cu  Cu49  1  0.83095517  0.51776558  0.02723091  1
  Cu  Cu50  1  0.68681140  0.16904483  0.02723091  1
  Cu  Cu51  1  0.48223442  0.16904483  0.52723091  1
  Cu  Cu52  1  0.68681140  0.51776558  0.52723091  1
  Cu  Cu53  1  0.83095517  0.31318860  0.52723091  1
  Cu  Cu54  1  0.54260326  0.68070480  0.96775488  1
  Cu  Cu55  1  0.13810054  0.45739674  0.96775488  1
  Cu  Cu56  1  0.31929520  0.86189946  0.96775488  1
  Cu  Cu57  1  0.54260326  0.86189946  0.46775488  1
  Cu  Cu58  1  0.31929520  0.45739674  0.46775488  1
  Cu  Cu59  1  0.13810054  0.68070480  0.46775488  1
  Cu  Cu60  1  0.12401070  0.62078149  0.36676557  1
  Cu  Cu61  1  0.49676979  0.87598930  0.36676557  1
  Cu  Cu62  1  0.37921851  0.50323021  0.36676557  1
  Cu  Cu63  1  0.12401070  0.50323021  0.86676557  1
  Cu  Cu64  1  0.37921851  0.87598930  0.86676557  1
  Cu  Cu65  1  0.49676979  0.62078149  0.86676557  1
  Cu  Cu66  1  0.00583699  0.78705798  0.40493412  1
  Cu  Cu67  1  0.78122099  0.99416301  0.40493412  1
  Cu  Cu68  1  0.21294202  0.21877901  0.40493412  1
  Cu  Cu69  1  0.00583699  0.21877901  0.90493412  1
  Cu  Cu70  1  0.21294202  0.99416301  0.90493412  1
  Cu  Cu71  1  0.78122099  0.78705798  0.90493412  1
  Cu  Cu72  1  0.94823924  0.17028008  0.58101492  1
  Cu  Cu73  1  0.22204083  0.05176076  0.58101492  1
  Cu  Cu74  1  0.82971992  0.77795917  0.58101492  1
  Cu  Cu75  1  0.94823924  0.77795917  0.08101492  1
  Cu  Cu76  1  0.82971992  0.05176076  0.08101492  1
  Cu  Cu77  1  0.22204083  0.17028008  0.08101492  1
  Cu  Cu78  1  0.65714985  0.12077091  0.74608979  1
  Cu  Cu79  1  0.46362206  0.34285015  0.74608979  1
  Cu  Cu80  1  0.87922909  0.53637794  0.74608979  1
  Cu  Cu81  1  0.65714985  0.53637794  0.24608979  1
  Cu  Cu82  1  0.87922909  0.34285015  0.24608979  1
  Cu  Cu83  1  0.46362206  0.12077091  0.24608979  1
  Cu  Cu84  1  0.62269346  0.48982761  0.92467299  1
  Cu  Cu85  1  0.86713514  0.37730654  0.92467299  1
  Cu  Cu86  1  0.51017239  0.13286486  0.92467299  1
  Cu  Cu87  1  0.62269346  0.13286486  0.42467299  1
  Cu  Cu88  1  0.51017239  0.37730654  0.42467299  1
  Cu  Cu89  1  0.86713514  0.48982761  0.42467299  1
  Cu  Cu90  1  0.36709981  0.47465796  0.07087948  1
  Cu  Cu91  1  0.10755715  0.63290019  0.07087948  1
  Cu  Cu92  1  0.52534204  0.89244285  0.07087948  1
  Cu  Cu93  1  0.36709981  0.89244285  0.57087948  1
  Cu  Cu94  1  0.52534204  0.63290019  0.57087948  1
  Cu  Cu95  1  0.10755715  0.47465796  0.57087948  1
  Cu  Cu96  1  0.30427234  0.82486483  0.26836472  1
  Cu  Cu97  1  0.52059149  0.69572766  0.26836472  1
  Cu  Cu98  1  0.17513517  0.47940851  0.26836472  1
  Cu  Cu99  1  0.30427234  0.47940851  0.76836472  1
  Cu  Cu100  1  0.17513517  0.69572766  0.76836472  1
  Cu  Cu101  1  0.52059149  0.82486483  0.76836472  1
