# generated using pymatgen
data_Cu4Ni2C9
_symmetry_space_group_name_H-M   'P 1'
_cell_length_a   7.16407900
_cell_length_b   7.41007100
_cell_length_c   7.20999441
_cell_angle_alpha   120.92228916
_cell_angle_beta   119.78956554
_cell_angle_gamma   90.00000000
_symmetry_Int_Tables_number   1
_chemical_formula_structural   Cu4Ni2C9
_chemical_formula_sum   'Cu4 Ni2 C9'
_cell_volume   267.68210607
_cell_formula_units_Z   1
loop_
 _symmetry_equiv_pos_site_id
 _symmetry_equiv_pos_as_xyz
  1  'x, y, z'
loop_
 _atom_site_type_symbol
 _atom_site_label
 _atom_site_symmetry_multiplicity
 _atom_site_fract_x
 _atom_site_fract_y
 _atom_site_fract_z
 _atom_site_occupancy
  C  C0  1  0.53704000  0.03704000  0.07408100  1
  Ni  Ni1  1  0.79576000  0.29576000  0.59152100  1
  Ni  Ni2  1  0.98660700  0.98660700  0.97321300  1
  Cu  Cu3  1  0.86148700  0.60646100  0.21292300  1
  Cu  Cu4  1  0.35143600  0.60646100  0.21292300  1
  Cu  Cu5  1  0.35504700  0.59921900  0.71009400  1
  Cu  Cu6  1  0.35504700  0.11087500  0.71009400  1
  C  C7  1  0.11987400  0.84622400  0.69245000  1
  C  C8  1  0.57257500  0.84622400  0.69245000  1
  C  C9  1  0.15854000  0.37259900  0.74519700  1
  C  C10  1  0.58665700  0.37259900  0.74519700  1
  C  C11  1  0.11939400  0.39904500  0.23878700  1
  C  C12  1  0.11939400  0.83974200  0.23878700  1
  C  C13  1  0.60075600  0.40043300  0.20151200  1
  C  C14  1  0.60075600  0.80108000  0.20151200  1
