# generated using pymatgen
data_Cu12NiC24
_symmetry_space_group_name_H-M   'P 1'
_cell_length_a   9.65823349
_cell_length_b   14.62376254
_cell_length_c   3.08317607
_cell_angle_alpha   89.97354905
_cell_angle_beta   90.01103167
_cell_angle_gamma   89.45717848
_symmetry_Int_Tables_number   1
_chemical_formula_structural   Cu12NiC24
_chemical_formula_sum   'Cu12 Ni1 C24'
_cell_volume   435.44730600
_cell_formula_units_Z   1
loop_
 _symmetry_equiv_pos_site_id
 _symmetry_equiv_pos_as_xyz
  1  'x, y, z'
loop_
 _atom_site_type_symbol
 _atom_site_label
 _atom_site_symmetry_multiplicity
 _atom_site_fract_x
 _atom_site_fract_y
 _atom_site_fract_z
 _atom_site_occupancy
  Ni  Ni0  1  0.24686900  0.32547400  0.98936200  1
  Cu  Cu1  1  0.00249600  0.99544200  0.99417700  1
  Cu  Cu2  1  0.97887900  0.32674400  0.00101300  1
  Cu  Cu3  1  0.00636200  0.67970100  0.99721800  1
  Cu  Cu4  1  0.22330800  0.14852700  0.49185300  1
  Cu  Cu5  1  0.24439300  0.50140800  0.49575000  1
  Cu  Cu6  1  0.25618300  0.85790400  0.49551800  1
  Cu  Cu7  1  0.52616300  0.34958200  0.99877800  1
  Cu  Cu8  1  0.51018200  0.99276000  0.99578200  1
  Cu  Cu9  1  0.52176800  0.67187400  0.99816800  1
  Cu  Cu10  1  0.74572300  0.13232900  0.49534900  1
  Cu  Cu11  1  0.73532800  0.50885400  0.50023000  1
  Cu  Cu12  1  0.72644400  0.83477800  0.49678900  1
  C  C13  1  0.13019400  0.27460500  0.49200400  1
  C  C14  1  0.09214700  0.92980900  0.49452400  1
  C  C15  1  0.14486900  0.09763900  0.99219800  1
  C  C16  1  0.15472300  0.44562500  0.99579300  1
  C  C17  1  0.35576500  0.90165000  0.99560600  1
  C  C18  1  0.39008800  0.38511200  0.49756300  1
  C  C19  1  0.60376900  0.93937900  0.49611300  1
  C  C20  1  0.59972000  0.60496900  0.49865500  1
  C  C21  1  0.63600800  0.10305700  0.99531000  1
  C  C22  1  0.65601000  0.44316000  0.00021900  1
  C  C23  1  0.64830600  0.77084700  0.99700900  1
  C  C24  1  0.89928600  0.05391500  0.49427800  1
  C  C25  1  0.11158700  0.60761400  0.49708200  1
  C  C26  1  0.16625100  0.76985100  0.99638300  1
  C  C27  1  0.36422300  0.21926700  0.99604500  1
  C  C28  1  0.35306200  0.56530800  0.99729100  1
  C  C29  1  0.39479000  0.06409500  0.49512500  1
  C  C30  1  0.40112700  0.72621400  0.49738500  1
  C  C31  1  0.60854500  0.27883300  0.49893900  1
  C  C32  1  0.84060400  0.22364100  0.00218100  1
  C  C33  1  0.84481400  0.88976600  0.99603600  1
  C  C34  1  0.85313600  0.56881200  0.99992000  1
  C  C35  1  0.89040600  0.40745200  0.50241000  1
  C  C36  1  0.89361400  0.73733100  0.49694600  1
