# generated using pymatgen
data_CuNiC3
_symmetry_space_group_name_H-M   'P 1'
_cell_length_a   3.34416200
_cell_length_b   3.34372295
_cell_length_c   37.61821236
_cell_angle_alpha   89.96110042
_cell_angle_beta   90.00000000
_cell_angle_gamma   120.00434363
_symmetry_Int_Tables_number   1
_chemical_formula_structural   CuNiC3
_chemical_formula_sum   'Cu2 Ni2 C6'
_cell_volume   364.27321239
_cell_formula_units_Z   2
loop_
 _symmetry_equiv_pos_site_id
 _symmetry_equiv_pos_as_xyz
  1  'x, y, z'
loop_
 _atom_site_type_symbol
 _atom_site_label
 _atom_site_symmetry_multiplicity
 _atom_site_fract_x
 _atom_site_fract_y
 _atom_site_fract_z
 _atom_site_occupancy
  C  C0  1  0.00010600  0.00021100  0.23236000  1
  C  C1  1  0.66683000  0.33365900  0.52806300  1
  C  C2  1  0.66646500  0.33293100  0.62947400  1
  C  C3  1  0.66676900  0.33353700  0.35254100  1
  C  C4  1  0.33316600  0.66633200  0.10737000  1
  C  C5  1  0.33331500  0.66663100  0.57878200  1
  Ni  Ni6  1  0.33322800  0.66645700  0.39669000  1
  Ni  Ni7  1  0.33364900  0.66730000  0.30761600  1
  Cu  Cu8  1  0.66681600  0.33363100  0.06700500  1
  Cu  Cu9  1  0.66625700  0.33251200  0.14794000  1
