# generated using pymatgen
data_CuNiC9
_symmetry_space_group_name_H-M   'P 1'
_cell_length_a   7.09386939
_cell_length_b   7.09386920
_cell_length_c   6.44816955
_cell_angle_alpha   54.40171413
_cell_angle_beta   54.40171476
_cell_angle_gamma   51.35142731
_symmetry_Int_Tables_number   1
_chemical_formula_structural   CuNiC9
_chemical_formula_sum   'Cu1 Ni1 C9'
_cell_volume   193.47613721
_cell_formula_units_Z   1
loop_
 _symmetry_equiv_pos_site_id
 _symmetry_equiv_pos_as_xyz
  1  'x, y, z'
loop_
 _atom_site_type_symbol
 _atom_site_label
 _atom_site_symmetry_multiplicity
 _atom_site_fract_x
 _atom_site_fract_y
 _atom_site_fract_z
 _atom_site_occupancy
  C  C0  1  0.32007483  0.32007483  0.30636568  1
  C  C1  1  0.70084992  0.70084992  0.79488874  1
  Ni  Ni2  1  0.08583003  0.08583003  0.11755167  1
  Cu  Cu3  1  0.47414380  0.47414380  0.52349313  1
  C  C4  1  0.94034971  0.94034971  0.89631627  1
  C  C5  1  0.27781821  0.75216722  0.72835063  1
  C  C6  1  0.28831366  0.72880091  0.25896186  1
  C  C7  1  0.75216722  0.27781821  0.72835064  1
  C  C8  1  0.26709544  0.26709544  0.76893355  1
  C  C9  1  0.72880091  0.28831366  0.25896186  1
  C  C10  1  0.78955627  0.78955627  0.25324298  1
