# generated using pymatgen
data_Cu6Ni2C13
_symmetry_space_group_name_H-M   'P 1'
_cell_length_a   6.25196606
_cell_length_b   6.25196606
_cell_length_c   6.66276083
_cell_angle_alpha   63.80930071
_cell_angle_beta   63.80930071
_cell_angle_gamma   68.77049092
_symmetry_Int_Tables_number   1
_chemical_formula_structural   Cu6Ni2C13
_chemical_formula_sum   'Cu6 Ni2 C13'
_cell_volume   205.12024612
_cell_formula_units_Z   1
loop_
 _symmetry_equiv_pos_site_id
 _symmetry_equiv_pos_as_xyz
  1  'x, y, z'
loop_
 _atom_site_type_symbol
 _atom_site_label
 _atom_site_symmetry_multiplicity
 _atom_site_fract_x
 _atom_site_fract_y
 _atom_site_fract_z
 _atom_site_occupancy
  C  C0  1  0.00000000  0.00000000  0.00000000  1
  C  C1  1  0.73526200  0.73526200  0.83265800  1
  C  C2  1  0.26473800  0.26473800  0.16734200  1
  C  C3  1  0.81604200  0.81604200  0.55096800  1
  C  C4  1  0.18395800  0.18395800  0.44903200  1
  C  C5  1  0.67295900  0.21119400  0.77660100  1
  C  C6  1  0.78880600  0.32704100  0.22339900  1
  C  C7  1  0.32704100  0.78880600  0.22339900  1
  C  C8  1  0.21119400  0.67295900  0.77660100  1
  C  C9  1  0.41472000  0.80097100  0.72465700  1
  C  C10  1  0.80097100  0.41472000  0.72465700  1
  C  C11  1  0.19902900  0.58528000  0.27534300  1
  C  C12  1  0.58528000  0.19902900  0.27534300  1
  Ni  Ni13  1  0.72531200  0.72531200  0.15814600  1
  Ni  Ni14  1  0.27468800  0.27468800  0.84185400  1
  Cu  Cu15  1  0.71588500  0.71588500  0.70163400  1
  Cu  Cu16  1  0.28411500  0.28411500  0.29836600  1
  Cu  Cu17  1  0.23809100  0.83205300  0.74711500  1
  Cu  Cu18  1  0.16794700  0.76190900  0.25288500  1
  Cu  Cu19  1  0.83205300  0.23809100  0.74711500  1
  Cu  Cu20  1  0.76190900  0.16794700  0.25288500  1
