# generated using pymatgen
data_Cu2NiC32
_symmetry_space_group_name_H-M   'P 1'
_cell_length_a   18.29468838
_cell_length_b   9.18060497
_cell_length_c   24.20884121
_cell_angle_alpha   90.07878622
_cell_angle_beta   90.04704193
_cell_angle_gamma   120.22169292
_symmetry_Int_Tables_number   1
_chemical_formula_structural   Cu2NiC32
_chemical_formula_sum   'Cu12 Ni6 C192'
_cell_volume   3513.38183740
_cell_formula_units_Z   6
loop_
 _symmetry_equiv_pos_site_id
 _symmetry_equiv_pos_as_xyz
  1  'x, y, z'
loop_
 _atom_site_type_symbol
 _atom_site_label
 _atom_site_symmetry_multiplicity
 _atom_site_fract_x
 _atom_site_fract_y
 _atom_site_fract_z
 _atom_site_occupancy
  Ni  Ni0  1  0.00207779  0.98990222  0.49652580  1
  Ni  Ni1  1  0.50156016  0.02436550  0.99696138  1
  Ni  Ni2  1  0.34424040  0.33594632  0.83719970  1
  Ni  Ni3  1  0.84165607  0.35357558  0.82868817  1
  Ni  Ni4  1  0.33184721  0.33064711  0.33474724  1
  Ni  Ni5  1  0.84371557  0.35143950  0.33131827  1
  C  C6  1  0.00036489  0.99310330  0.85737146  1
  C  C7  1  0.49890991  0.00696238  0.85781471  1
  C  C8  1  0.00040020  0.98717302  0.65041639  1
  C  C9  1  0.49942518  0.00088085  0.64000591  1
  C  C10  1  0.33800832  0.33617763  0.68246671  1
  C  C11  1  0.83922685  0.35230272  0.68249660  1
  C  C12  1  0.34206255  0.33685564  0.98586242  1
  C  C13  1  0.83927968  0.34384348  0.47341735  1
  C  C14  1  0.66105869  0.65337473  0.02644564  1
  C  C15  1  0.16029913  0.66945461  0.51035205  1
  C  C16  1  0.15627064  0.65975900  0.81146900  1
  C  C17  1  0.66493537  0.66106288  0.81883919  1
  Cu  Cu18  1  0.00074999  0.99381166  0.34908957  1
  Cu  Cu19  1  0.50054433  -0.00022890  0.35132312  1
  Cu  Cu20  1  0.99847414  0.00114513  0.14890653  1
  Cu  Cu21  1  0.50065036  0.00206196  0.15549987  1
  Cu  Cu22  1  0.32677089  0.32949103  0.18332331  1
  Cu  Cu23  1  0.84014144  0.34074545  0.18479317  1
  Cu  Cu24  1  0.83537262  0.33580097  0.98843428  1
  Cu  Cu25  1  0.33497403  0.33589815  0.47817374  1
  Cu  Cu26  1  0.16442489  0.66462029  0.02292530  1
  Cu  Cu27  1  0.66508811  0.66898953  0.51228869  1
  Cu  Cu28  1  0.16216141  0.66768630  0.31259247  1
  Cu  Cu29  1  0.66382557  0.66315400  0.31075367  1
  C  C30  1  0.99306270  0.69056216  0.75157223  1
  C  C31  1  0.51228461  0.36304747  0.91872003  1
  C  C32  1  0.01891538  0.67490025  0.40708579  1
  C  C33  1  0.14475910  0.00440749  0.24851645  1
  C  C34  1  0.64521237  0.00361507  0.25276123  1
  C  C35  1  0.35799289  0.70984313  0.25181583  1
  C  C36  1  0.85564381  0.71050904  0.24948815  1
  C  C37  1  0.99806536  0.28539061  0.25024847  1
  C  C38  1  0.49809929  0.28610899  0.25113052  1
  C  C39  1  0.15642933  0.30005763  0.75129337  1
  C  C40  1  0.64934068  0.29654355  0.74955792  1
  C  C41  1  0.49921795  0.70236170  0.75103281  1
  C  C42  1  0.35053043  0.00315490  0.74961105  1
  C  C43  1  0.84936426  0.00607560  0.75140663  1
  C  C44  1  0.48411346  0.34921216  0.57314550  1
  C  C45  1  0.98576328  0.32654781  0.58014069  1
  C  C46  1  0.18868685  0.05068368  0.57505401  1
  C  C47  1  0.68702534  0.02029858  0.57817046  1
  C  C48  1  0.33239144  0.61816085  0.57577464  1
  C  C49  1  0.82470000  0.63864100  0.57596934  1
  C  C50  1  0.47568843  0.63983314  0.09360804  1
  C  C51  1  0.97698622  0.62598523  0.08521504  1
  C  C52  1  0.33526644  0.03133925  0.08947707  1
  C  C53  1  0.84263651  0.06298706  0.08834376  1
  C  C54  1  0.18183957  0.32985415  0.08793264  1
  C  C55  1  0.68928813  0.31155235  0.08875851  1
  C  C56  1  0.30799017  0.66522761  0.92387009  1
  C  C57  1  0.81507609  0.64403494  0.92257434  1
  C  C58  1  0.01508477  0.37933857  0.92700248  1
  C  C59  1  0.16745566  0.95190861  0.92437187  1
  C  C60  1  0.67743764  0.98527778  0.92307947  1
  C  C61  1  0.31924268  0.97160941  0.40993395  1
  C  C62  1  0.80849038  0.93829525  0.41109960  1
  C  C63  1  0.16796969  0.36415445  0.41102779  1
  C  C64  1  0.65851451  0.37888274  0.40992138  1
  C  C65  1  0.52264197  0.66876759  0.41303590  1
  C  C66  1  0.10787888  0.04030022  0.29770935  1
  C  C67  1  0.60500393  0.03555224  0.30153978  1
  C  C68  1  0.41465122  0.78845727  0.30095328  1
  C  C69  1  0.91153064  0.78776867  0.29811387  1
  C  C70  1  0.48275369  0.17413276  0.29930496  1
  C  C71  1  0.97956843  0.17612963  0.29942029  1
  C  C72  1  0.11096059  0.20489583  0.80127539  1
  C  C73  1  0.60537103  0.19905371  0.79949350  1
  C  C74  1  0.49346128  0.78577373  0.80182679  1
  C  C75  1  0.99039715  0.79583190  0.80505965  1
  C  C76  1  0.40039431  0.01709643  0.79942038  1
  C  C77  1  0.90057082  0.02418987  0.80147072  1
  C  C78  1  0.39626678  0.00544591  0.69853340  1
  C  C79  1  0.89372604  0.00216699  0.70069354  1
  C  C80  1  0.10971386  0.21549111  0.70032315  1
  C  C81  1  0.60107826  0.20804285  0.69885420  1
  C  C82  1  -0.00729674  0.77788063  0.69278764  1
  C  C83  1  0.49696470  0.79260883  0.70078326  1
  C  C84  1  0.39935062  0.81918712  0.20267063  1
  C  C85  1  0.89435764  0.81776507  0.19982287  1
  C  C86  1  0.01002721  0.20271478  0.20087150  1
  C  C87  1  0.51450824  0.21086974  0.20118826  1
  C  C88  1  0.09021816  0.97618615  0.19935793  1
  C  C89  1  0.59101695  0.97355847  0.20315849  1
  C  C90  1  0.45415409  0.38067957  0.62611217  1
  C  C91  1  0.94422930  0.33354887  0.63154242  1
  C  C92  1  0.22892948  0.12868007  0.62832085  1
  C  C93  1  0.73554688  0.08770052  0.62966299  1
  C  C94  1  0.32370766  0.52924159  0.62847575  1
  C  C95  1  0.81304972  0.54894567  0.62860990  1
  C  C96  1  0.42429052  0.51643572  0.13772493  1
  C  C97  1  0.93828807  0.51304433  0.13449653  1
  C  C98  1  0.32030073  0.12423074  0.13518400  1
  C  C99  1  0.83083289  0.14861003  0.13740367  1
  C  C100  1  0.24265096  0.36225165  0.13525653  1
  C  C101  1  0.74364078  0.33084835  0.13731183  1
  C  C102  1  0.21241139  0.28527110  0.03819967  1
  C  C103  1  0.72711437  0.28861145  0.03744849  1
  C  C104  1  0.43185119  0.58613720  0.04000171  1
  C  C105  1  0.91969791  0.54840478  0.03694605  1
  C  C106  1  0.35910640  0.13285404  0.03831515  1
  C  C107  1  0.85658993  0.16729592  0.03825567  1
  C  C108  1  0.24114026  0.15722992  0.52762001  1
  C  C109  1  0.72894891  0.13560476  0.53112390  1
  C  C110  1  0.33868783  0.51890976  0.52833230  1
  C  C111  1  0.83840069  0.54752591  0.53008151  1
  C  C112  1  0.42375016  0.32519400  0.52759382  1
  C  C113  1  0.93420243  0.31868338  0.53122620  1
  C  C114  1  0.25730798  0.66779170  0.97200026  1
  C  C115  1  0.76890506  0.66309598  0.96956357  1
  C  C116  1  0.07352123  0.47979341  0.97297431  1
  C  C117  1  0.56172387  0.46581266  0.97491067  1
  C  C118  1  0.16754618  0.84990478  0.97277229  1
  C  C119  1  0.66793022  0.87550416  0.97031334  1
  C  C120  1  0.28987672  0.87551917  0.46173144  1
  C  C121  1  0.76894029  0.84197950  0.46244700  1
  C  C122  1  0.15219075  0.42601154  0.46340118  1
  C  C123  1  0.64838899  0.45539750  0.46111595  1
  C  C124  1  0.06286432  0.69800469  0.46728418  1
  C  C125  1  0.57555280  0.69858856  0.46273268  1
  C  C126  1  0.07784779  0.65786463  0.35842046  1
  C  C127  1  0.56195773  0.63590472  0.36410045  1
  C  C128  1  0.26011860  0.88509096  0.36354554  1
  C  C129  1  0.75479196  0.84659461  0.36237883  1
  C  C130  1  0.18324281  0.48049809  0.36437587  1
  C  C131  1  0.66982979  0.48910452  0.36151322  1
  C  C132  1  0.04395220  0.46933956  0.87397651  1
  C  C133  1  0.55983440  0.45906943  0.86220440  1
  C  C134  1  0.17694608  0.88154718  0.87203520  1
  C  C135  1  0.68908350  0.91805425  0.87043905  1
  C  C136  1  0.26880076  0.66380979  0.87075465  1
  C  C137  1  0.76844359  0.61675011  0.87014680  1
  C  C138  1  0.00950642  0.84234208  0.39779393  1
  C  C139  1  0.51379963  0.81913517  0.40307905  1
  C  C140  1  0.40392889  0.99296123  0.39696717  1
  C  C141  1  0.89415598  0.95912132  0.40615653  1
  C  C142  1  0.09257679  0.19465188  0.40075119  1
  C  C143  1  0.58197125  0.21024999  0.40144038  1
  C  C144  1  0.00871862  0.21391851  0.92472711  1
  C  C145  1  0.50320943  0.17696855  0.92342672  1
  C  C146  1  0.08871462  0.95754006  0.92574080  1
  C  C147  1  0.60090330  0.00188522  0.92142738  1
  C  C148  1  0.39364371  0.81640871  0.92865243  1
  C  C149  1  0.89933315  0.79519215  0.92023263  1
  C  C150  1  0.48967590  0.19506329  0.57706009  1
  C  C151  1  0.99346867  0.17422903  0.57802429  1
  C  C152  1  0.10455028  0.03542200  0.57094797  1
  C  C153  1  0.60123328  -0.00188748  0.58387417  1
  C  C154  1  0.41125842  0.78284389  0.57652308  1
  C  C155  1  0.89979818  0.81066565  0.57727352  1
  C  C156  1  0.48564029  0.80815193  0.10516716  1
  C  C157  1  0.98583106  0.79306800  0.09704268  1
  C  C158  1  0.40930716  0.01035891  0.10360909  1
  C  C159  1  0.91840404  0.04570118  0.09757344  1
  C  C160  1  0.09795870  0.18431469  0.10343741  1
  C  C161  1  0.60320359  0.15919277  0.09563297  1
  C  C162  1  0.34039111  0.15432004  0.75063506  1
  C  C163  1  0.83666491  0.15321804  0.75039068  1
  C  C164  1  0.24058743  0.31121271  0.75188578  1
  C  C165  1  0.73296322  0.30870954  0.74920478  1
  C  C166  1  0.42354931  0.52881000  0.75173765  1
  C  C167  1  0.90925902  0.50244926  0.75408618  1
  C  C168  1  0.34872349  0.53846685  0.24306506  1
  C  C169  1  0.84640184  0.53930441  0.24050639  1
  C  C170  1  0.42195665  0.30360107  0.24241603  1
  C  C171  1  0.92250031  0.30883513  0.24123575  1
  C  C172  1  0.23133198  0.15937161  0.23948162  1
  C  C173  1  0.73089404  0.15373623  0.24459832  1
  C  C174  1  0.31438933  0.51052975  0.92585678  1
  C  C175  1  0.82385715  0.49206108  0.93121132  1
  C  C176  1  0.41818611  0.34401944  0.91556953  1
  C  C177  1  0.92997417  0.35950651  0.93733974  1
  C  C178  1  0.24126904  0.12465565  0.92799268  1
  C  C179  1  0.75362631  0.15564241  0.93099461  1
  C  C180  1  0.32848482  0.14355895  0.41724901  1
  C  C181  1  0.81468683  0.10551695  0.41297355  1
  C  C182  1  0.24554945  0.34626171  0.41743075  1
  C  C183  1  0.73418740  0.36033950  0.41269977  1
  C  C184  1  0.43657993  0.51605943  0.42127219  1
  C  C185  1  0.92586292  0.50322142  0.40504986  1
  C  C186  1  0.17539735  0.48238707  0.07905724  1
  C  C187  1  0.68235981  0.46384378  0.08543174  1
  C  C188  1  0.06053518  0.64322693  0.07406427  1
  C  C189  1  0.55899176  0.65290295  0.09245173  1
  C  C190  1  0.25874009  0.86546134  0.08043350  1
  C  C191  1  0.76676467  0.89646140  0.08259890  1
  C  C192  1  0.18297342  0.88545162  0.57301349  1
  C  C193  1  0.67756230  0.85269222  0.56597427  1
  C  C194  1  0.25843265  0.63748185  0.56942577  1
  C  C195  1  0.74747720  0.64746101  0.56484207  1
  C  C196  1  0.06975511  0.48001365  0.57801211  1
  C  C197  1  0.56758978  0.49657279  0.56118853  1
  C  C198  1  0.15571163  0.85730216  0.25714540  1
  C  C199  1  0.65191678  0.85056100  0.26287447  1
  C  C200  1  0.27493391  0.69388182  0.26066510  1
  C  C201  1  0.77081373  0.69018573  0.25981927  1
  C  C202  1  0.07466084  0.45255172  0.25870640  1
  C  C203  1  0.57381530  0.45535782  0.26088837  1
  C  C204  1  0.16880048  0.47054539  0.75182337  1
  C  C205  1  0.65868473  0.46505882  0.75048176  1
  C  C206  1  0.07691513  0.67463466  0.75188179  1
  C  C207  1  0.57706099  0.69344500  0.75030123  1
  C  C208  1  0.26829438  0.84885696  0.74991386  1
  C  C209  1  0.76715903  0.84884528  0.75362759  1
