# generated using pymatgen
data_Cu(NiC6)2
_symmetry_space_group_name_H-M   'P 1'
_cell_length_a   3.98973126
_cell_length_b   3.98972678
_cell_length_c   15.18140131
_cell_angle_alpha   90.00000000
_cell_angle_beta   90.00000000
_cell_angle_gamma   90.00000000
_symmetry_Int_Tables_number   1
_chemical_formula_structural   Cu(NiC6)2
_chemical_formula_sum   'Cu1 Ni2 C12'
_cell_volume   241.65659954
_cell_formula_units_Z   1
loop_
 _symmetry_equiv_pos_site_id
 _symmetry_equiv_pos_as_xyz
  1  'x, y, z'
loop_
 _atom_site_type_symbol
 _atom_site_label
 _atom_site_symmetry_multiplicity
 _atom_site_fract_x
 _atom_site_fract_y
 _atom_site_fract_z
 _atom_site_occupancy
  Ni  Ni0  1  0.50000000  0.50000000  0.25919654  1
  Ni  Ni1  1  0.50000000  0.50000000  0.74080346  1
  Cu  Cu2  1  0.50000000  0.50000000  0.50000000  1
  C  C3  1  0.50000000  0.50000000  -0.00000000  1
  C  C4  1  0.00000000  0.00000000  0.37464909  1
  C  C5  1  0.00000000  0.00000000  -0.00000000  1
  C  C6  1  -0.00000000  -0.00000000  0.62535091  1
  C  C7  1  -0.00000000  0.50000000  0.40667812  1
  C  C8  1  0.50000000  0.00000000  0.40667781  1
  C  C9  1  0.50000000  0.00000000  -0.00000000  1
  C  C10  1  0.00000000  0.00000000  0.24715343  1
  C  C11  1  0.00000000  0.50000000  0.59332188  1
  C  C12  1  0.50000000  -0.00000000  0.59332219  1
  C  C13  1  -0.00000000  -0.00000000  0.75284657  1
  C  C14  1  0.00000000  0.50000000  -0.00000000  1
