# generated using pymatgen
data_Cu7(NiC2)2
_symmetry_space_group_name_H-M   'P 1'
_cell_length_a   6.40783236
_cell_length_b   6.40783236
_cell_length_c   16.53335431
_cell_angle_alpha   76.27878790
_cell_angle_beta   76.27878790
_cell_angle_gamma   62.57489976
_symmetry_Int_Tables_number   1
_chemical_formula_structural   Cu7(NiC2)2
_chemical_formula_sum   'Cu14 Ni4 C8'
_cell_volume   578.89312359
_cell_formula_units_Z   2
loop_
 _symmetry_equiv_pos_site_id
 _symmetry_equiv_pos_as_xyz
  1  'x, y, z'
loop_
 _atom_site_type_symbol
 _atom_site_label
 _atom_site_symmetry_multiplicity
 _atom_site_fract_x
 _atom_site_fract_y
 _atom_site_fract_z
 _atom_site_occupancy
  C  C0  1  0.82194700  0.26106800  0.44504800  1
  C  C1  1  0.73893200  0.17805300  0.05495200  1
  C  C2  1  0.17805300  0.73893200  0.55495200  1
  C  C3  1  0.26106800  0.82194700  0.94504800  1
  C  C4  1  0.96187000  0.55454400  0.16294800  1
  C  C5  1  0.44545600  0.03813000  0.33705200  1
  C  C6  1  0.03813000  0.44545600  0.83705200  1
  C  C7  1  0.55454400  0.96187000  0.66294800  1
  Ni  Ni8  1  0.71697700  0.06687800  0.85643200  1
  Ni  Ni9  1  0.06687800  0.71697700  0.35643200  1
  Ni  Ni10  1  0.28302300  0.93312200  0.14356800  1
  Ni  Ni11  1  0.93312200  0.28302300  0.64356800  1
  Cu  Cu12  1  0.63761700  0.35196100  0.59742400  1
  Cu  Cu13  1  0.64803900  0.36238300  0.90257600  1
  Cu  Cu14  1  0.06316700  0.42467400  0.32375900  1
  Cu  Cu15  1  0.57532600  0.93683300  0.17624100  1
  Cu  Cu16  1  0.00524600  0.99475400  0.25000000  1
  Cu  Cu17  1  0.35196100  0.63761700  0.09742400  1
  Cu  Cu18  1  0.36238300  0.64803900  0.40257600  1
  Cu  Cu19  1  0.99475400  0.00524600  0.75000000  1
  Cu  Cu20  1  0.23932400  0.10024200  0.56805200  1
  Cu  Cu21  1  0.89975800  0.76067600  0.93194800  1
  Cu  Cu22  1  0.76067600  0.89975800  0.43194800  1
  Cu  Cu23  1  0.10024200  0.23932400  0.06805200  1
  Cu  Cu24  1  0.42467400  0.06316700  0.82375900  1
  Cu  Cu25  1  0.93683300  0.57532600  0.67624100  1
