# generated using pymatgen
data_CuNi2
_symmetry_space_group_name_H-M   'P 1'
_cell_length_a   4.04909100
_cell_length_b   13.39410000
_cell_length_c   16.70241300
_cell_angle_alpha   90.00000000
_cell_angle_beta   90.00000000
_cell_angle_gamma   90.00000000
_symmetry_Int_Tables_number   1
_chemical_formula_structural   CuNi2
_chemical_formula_sum   'Cu8 Ni16'
_cell_volume   905.83749352
_cell_formula_units_Z   8
loop_
 _symmetry_equiv_pos_site_id
 _symmetry_equiv_pos_as_xyz
  1  'x, y, z'
loop_
 _atom_site_type_symbol
 _atom_site_label
 _atom_site_symmetry_multiplicity
 _atom_site_fract_x
 _atom_site_fract_y
 _atom_site_fract_z
 _atom_site_occupancy
  Ni  Ni0  1  0.75000000  0.05279100  0.72495700  1
  Ni  Ni1  1  0.25000000  0.94720900  0.27504300  1
  Ni  Ni2  1  0.25000000  0.55279100  0.77504300  1
  Ni  Ni3  1  0.75000000  0.44720900  0.22495700  1
  Ni  Ni4  1  0.25000000  0.19770600  0.68932900  1
  Ni  Ni5  1  0.75000000  0.80229400  0.31067100  1
  Ni  Ni6  1  0.75000000  0.69770600  0.81067100  1
  Ni  Ni7  1  0.25000000  0.30229400  0.18932900  1
  Ni  Ni8  1  0.75000000  0.41863200  0.40324400  1
  Ni  Ni9  1  0.25000000  0.58136800  0.59675600  1
  Ni  Ni10  1  0.25000000  0.91863200  0.09675600  1
  Ni  Ni11  1  0.75000000  0.08136800  0.90324400  1
  Ni  Ni12  1  0.25000000  0.26628500  0.41815700  1
  Ni  Ni13  1  0.75000000  0.73371500  0.58184300  1
  Ni  Ni14  1  0.75000000  0.76628500  0.08184300  1
  Ni  Ni15  1  0.25000000  0.23371500  0.91815700  1
  Cu  Cu16  1  0.75000000  0.14410000  0.15627000  1
  Cu  Cu17  1  0.25000000  0.85590000  0.84373000  1
  Cu  Cu18  1  0.25000000  0.64410000  0.34373000  1
  Cu  Cu19  1  0.75000000  0.35590000  0.65627000  1
  Cu  Cu20  1  0.75000000  0.11147100  0.43918500  1
  Cu  Cu21  1  0.25000000  0.88852900  0.56081500  1
  Cu  Cu22  1  0.25000000  0.61147100  0.06081500  1
  Cu  Cu23  1  0.75000000  0.38852900  0.93918500  1
