# generated using pymatgen
data_Cu6Ni3C13
_symmetry_space_group_name_H-M   'P 1'
_cell_length_a   7.94466215
_cell_length_b   7.94466215
_cell_length_c   7.94466190
_cell_angle_alpha   96.46801344
_cell_angle_beta   96.46801344
_cell_angle_gamma   96.46801621
_symmetry_Int_Tables_number   1
_chemical_formula_structural   Cu6Ni3C13
_chemical_formula_sum   'Cu12 Ni6 C26'
_cell_volume   491.07959235
_cell_formula_units_Z   2
loop_
 _symmetry_equiv_pos_site_id
 _symmetry_equiv_pos_as_xyz
  1  'x, y, z'
loop_
 _atom_site_type_symbol
 _atom_site_label
 _atom_site_symmetry_multiplicity
 _atom_site_fract_x
 _atom_site_fract_y
 _atom_site_fract_z
 _atom_site_occupancy
  C  C0  1  0.50000000  0.50000000  0.50000000  1
  C  C1  1  0.00000000  0.00000000  0.00000000  1
  C  C2  1  0.88670300  0.29171000  0.08534500  1
  C  C3  1  0.08534500  0.88670300  0.29171000  1
  C  C4  1  0.29171000  0.08534500  0.88670300  1
  C  C5  1  0.61329700  0.41465500  0.20829000  1
  C  C6  1  0.20829000  0.61329700  0.41465500  1
  C  C7  1  0.41465500  0.20829000  0.61329700  1
  C  C8  1  0.11329700  0.70829000  0.91465500  1
  C  C9  1  0.91465500  0.11329700  0.70829000  1
  C  C10  1  0.70829000  0.91465500  0.11329700  1
  C  C11  1  0.38670300  0.58534500  0.79171000  1
  C  C12  1  0.79171000  0.38670300  0.58534500  1
  C  C13  1  0.58534500  0.79171000  0.38670300  1
  C  C14  1  0.95779000  0.21466800  0.25826600  1
  C  C15  1  0.25826600  0.95779000  0.21466800  1
  C  C16  1  0.21466800  0.25826600  0.95779000  1
  C  C17  1  0.54221000  0.24173400  0.28533200  1
  C  C18  1  0.28533200  0.54221000  0.24173400  1
  C  C19  1  0.24173400  0.28533200  0.54221000  1
  C  C20  1  0.04221000  0.78533200  0.74173400  1
  C  C21  1  0.74173400  0.04221000  0.78533200  1
  C  C22  1  0.75826600  0.71466800  0.45779000  1
  C  C23  1  0.71466800  0.45779000  0.75826600  1
  C  C24  1  0.45779000  0.75826600  0.71466800  1
  C  C25  1  0.78533200  0.74173400  0.04221000  1
  Ni  Ni26  1  0.51869700  0.98130300  0.25000000  1
  Ni  Ni27  1  0.75000000  0.48130300  0.01869700  1
  Ni  Ni28  1  0.01869700  0.75000000  0.48130300  1
  Ni  Ni29  1  0.48130300  0.01869700  0.75000000  1
  Ni  Ni30  1  0.98130300  0.25000000  0.51869700  1
  Ni  Ni31  1  0.25000000  0.51869700  0.98130300  1
  Cu  Cu32  1  0.94475800  0.19738200  0.13040200  1
  Cu  Cu33  1  0.13040200  0.94475800  0.19738200  1
  Cu  Cu34  1  0.19738200  0.13040200  0.94475800  1
  Cu  Cu35  1  0.55524200  0.36959800  0.30261800  1
  Cu  Cu36  1  0.30261800  0.55524200  0.36959800  1
  Cu  Cu37  1  0.36959800  0.30261800  0.55524200  1
  Cu  Cu38  1  0.05524200  0.80261800  0.86959800  1
  Cu  Cu39  1  0.86959800  0.05524200  0.80261800  1
  Cu  Cu40  1  0.80261800  0.86959800  0.05524200  1
  Cu  Cu41  1  0.44475800  0.63040200  0.69738200  1
  Cu  Cu42  1  0.69738200  0.44475800  0.63040200  1
  Cu  Cu43  1  0.63040200  0.69738200  0.44475800  1
