# generated using pymatgen
data_CuNiC17
_symmetry_space_group_name_H-M   'P 1'
_cell_length_a   9.01535536
_cell_length_b   9.04563567
_cell_length_c   22.98306627
_cell_angle_alpha   89.20328175
_cell_angle_beta   90.00000000
_cell_angle_gamma   119.88932707
_symmetry_Int_Tables_number   1
_chemical_formula_structural   CuNiC17
_chemical_formula_sum   'Cu6 Ni6 C102'
_cell_volume   1624.75518804
_cell_formula_units_Z   6
loop_
 _symmetry_equiv_pos_site_id
 _symmetry_equiv_pos_as_xyz
  1  'x, y, z'
loop_
 _atom_site_type_symbol
 _atom_site_label
 _atom_site_symmetry_multiplicity
 _atom_site_fract_x
 _atom_site_fract_y
 _atom_site_fract_z
 _atom_site_occupancy
  C  C0  1  0.99523033  0.63222562  0.23765743  1
  C  C1  1  0.63699528  0.63222562  0.73765743  1
  C  C2  1  0.64875913  0.94976494  0.57482262  1
  C  C3  1  0.30100681  0.94976494  0.07482262  1
  C  C4  1  0.69457834  0.02626903  0.90585664  1
  C  C5  1  0.33168969  0.02626903  0.40585664  1
  C  C6  1  0.97289503  0.98489870  0.48913858  1
  C  C7  1  0.01200367  0.98489870  0.98913858  1
  C  C8  1  0.65370862  0.30452426  0.82314821  1
  C  C9  1  0.65081664  0.30452426  0.32314821  1
  C  C10  1  0.32731647  0.65297569  0.15739457  1
  C  C11  1  0.32565821  0.65297569  0.65739457  1
  C  C12  1  0.99233214  0.99358741  0.64720262  1
  C  C13  1  0.00125527  0.99358741  0.14720262  1
  C  C14  1  0.67010538  0.34316692  0.98127088  1
  C  C15  1  0.67306254  0.34316692  0.48127088  1
  C  C16  1  0.34721819  0.68738538  0.31483898  1
  C  C17  1  0.34016619  0.68738538  0.81483898  1
  Ni  Ni18  1  0.99760164  0.00754422  0.34831807  1
  Ni  Ni19  1  0.00994258  0.00754422  0.84831807  1
  Ni  Ni20  1  0.66188898  0.32140240  0.68279297  1
  Ni  Ni21  1  0.65951443  0.32140240  0.18279297  1
  Ni  Ni22  1  0.28694475  0.66314625  0.01487798  1
  Ni  Ni23  1  0.37620049  0.66314625  0.51487798  1
  Cu  Cu24  1  0.30044863  0.01451580  0.25427198  1
  Cu  Cu25  1  0.71406717  0.01451580  0.75427198  1
  Cu  Cu26  1  0.66036971  0.61885437  0.59056390  1
  Cu  Cu27  1  0.95848566  0.61885437  0.09056390  1
  Cu  Cu28  1  0.32533858  0.97085433  0.92006869  1
  Cu  Cu29  1  0.64551475  0.97085433  0.42006869  1
  C  C30  1  0.70684334  0.70606198  0.25212210  1
  C  C31  1  0.00153184  0.29564443  0.25136730  1
  C  C32  1  0.29411259  0.29564443  0.75136730  1
  C  C33  1  0.99921865  0.70606198  0.75212210  1
  C  C34  1  0.96615109  0.34006881  0.58384098  1
  C  C35  1  0.37137455  0.03892319  0.58319233  1
  C  C36  1  0.66754965  0.03892319  0.08319233  1
  C  C37  1  0.37391872  0.34006881  0.08384098  1
  C  C38  1  0.61832309  0.66518554  0.91864340  1
  C  C39  1  0.04140154  0.37227559  0.91873382  1
  C  C40  1  0.33087306  0.37227559  0.41873382  1
  C  C41  1  0.04686145  0.66518554  0.41864340  1
  C  C42  1  0.20881518  0.02298702  0.31388041  1
  C  C43  1  0.80954553  0.79109077  0.30308967  1
  C  C44  1  0.98167422  0.19561700  0.30412923  1
  C  C45  1  0.21394278  0.19561700  0.80412923  1
  C  C46  1  0.98154524  0.79109077  0.80308967  1
  C  C47  1  0.81417184  0.02298702  0.81388041  1
  C  C48  1  0.80724972  0.97888356  0.69674678  1
  C  C49  1  0.19352161  0.21009957  0.69809695  1
  C  C50  1  0.02948785  0.81425652  0.69781113  1
  C  C51  1  0.78476867  0.81425652  0.19781113  1
  C  C52  1  0.01657796  0.21009957  0.19809695  1
  C  C53  1  0.17163384  0.97888356  0.19674678  1
  C  C54  1  0.88600225  0.35670348  0.63658017  1
  C  C55  1  0.48232455  0.11897537  0.63335619  1
  C  C56  1  0.65122414  0.51862085  0.65003513  1
  C  C57  1  0.86739770  0.51862085  0.15003513  1
  C  C58  1  0.63665182  0.11897537  0.13335619  1
  C  C59  1  0.47070223  0.35670348  0.13658017  1
  C  C60  1  0.45441437  0.30315908  0.03184701  1
  C  C61  1  0.84086955  0.52154637  0.03273718  1
  C  C62  1  0.68783716  0.14200798  0.02825690  1
  C  C63  1  0.45417182  0.14200798  0.52825690  1
  C  C64  1  0.68067783  0.52154637  0.53273718  1
  C  C65  1  0.84874572  0.30315908  0.53184701  1
  C  C66  1  0.52435603  0.67607055  0.96848726  1
  C  C67  1  0.14119943  0.44949015  0.97109197  1
  C  C68  1  0.31046324  0.87171852  0.98108026  1
  C  C69  1  0.56125428  0.87171852  0.48108026  1
  C  C70  1  0.30828972  0.44949015  0.47109197  1
  C  C71  1  0.15171353  0.67607055  0.46848726  1
  C  C72  1  0.12234472  0.64176414  0.36289246  1
  C  C73  1  0.50765500  0.86905064  0.36494086  1
  C  C74  1  0.34983755  0.47571098  0.36535088  1
  C  C75  1  0.12587243  0.47571098  0.86535088  1
  C  C76  1  0.36139464  0.86905064  0.86494086  1
  C  C77  1  0.51941842  0.64176414  0.86289246  1
  C  C78  1  0.03073256  0.81920065  0.41379895  1
  C  C79  1  0.83054766  0.99038853  0.40867660  1
  C  C80  1  0.18875571  0.19596144  0.41531704  1
  C  C81  1  0.00720572  0.19596144  0.91531704  1
  C  C82  1  0.15984087  0.99038853  0.90867660  1
  C  C83  1  0.78846809  0.81920065  0.91379895  1
  C  C84  1  0.97816251  0.17732261  0.58770244  1
  C  C85  1  0.20420871  0.03561968  0.58834424  1
  C  C86  1  0.83580644  0.81839703  0.58997976  1
  C  C87  1  0.98259059  0.81839703  0.08997976  1
  C  C88  1  0.83141097  0.03561968  0.08834424  1
  C  C89  1  0.19916010  0.17732261  0.08770244  1
  C  C90  1  0.68216721  0.17267545  0.74336899  1
  C  C91  1  0.47097716  0.32567215  0.74765473  1
  C  C92  1  0.84580297  0.53833663  0.74682620  1
  C  C93  1  0.69253466  0.53833663  0.24682620  1
  C  C94  1  0.85469599  0.32567215  0.24765473  1
  C  C95  1  0.49050925  0.17267545  0.24336899  1
  C  C96  1  0.63959764  0.51001182  0.92156594  1
  C  C97  1  0.86741276  0.36236018  0.92179782  1
  C  C98  1  0.51335038  0.15502818  0.92187181  1
  C  C99  1  0.64167880  0.15502818  0.42187181  1
  C  C100  1  0.49494841  0.36236018  0.42179782  1
  C  C101  1  0.87041518  0.51001182  0.42156594  1
  C  C102  1  0.35323368  0.48763314  0.07341182  1
  C  C103  1  0.15453719  0.65401695  0.08559583  1
  C  C104  1  0.52243773  0.86479344  0.07788127  1
  C  C105  1  0.34235470  0.86479344  0.57788127  1
  C  C106  1  0.49947876  0.65401695  0.58559583  1
  C  C107  1  0.13439846  0.48763314  0.57341182  1
  C  C108  1  0.30075483  0.82602539  0.25658721  1
  C  C109  1  0.53030348  0.68532076  0.25547315  1
  C  C110  1  0.16304009  0.46890855  0.25361170  1
  C  C111  1  0.30586747  0.46890855  0.75361170  1
  C  C112  1  0.15501629  0.68532076  0.75547315  1
  C  C113  1  0.52526956  0.82602539  0.75658721  1
