# generated using pymatgen
data_Cu4Ni2C13
_symmetry_space_group_name_H-M   'P 1'
_cell_length_a   5.35396538
_cell_length_b   5.26666047
_cell_length_c   10.36735000
_cell_angle_alpha   90.00000000
_cell_angle_beta   90.00000000
_cell_angle_gamma   89.85202111
_symmetry_Int_Tables_number   1
_chemical_formula_structural   Cu4Ni2C13
_chemical_formula_sum   'Cu4 Ni2 C13'
_cell_volume   292.33256170
_cell_formula_units_Z   1
loop_
 _symmetry_equiv_pos_site_id
 _symmetry_equiv_pos_as_xyz
  1  'x, y, z'
loop_
 _atom_site_type_symbol
 _atom_site_label
 _atom_site_symmetry_multiplicity
 _atom_site_fract_x
 _atom_site_fract_y
 _atom_site_fract_z
 _atom_site_occupancy
  C  C0  1  0.50000000  0.00000000  0.43676000  1
  Ni  Ni1  1  0.00000000  0.00000000  0.99432100  1
  Ni  Ni2  1  0.50000000  0.50000000  0.51435200  1
  Cu  Cu3  1  0.00000000  0.00000000  0.31591400  1
  Cu  Cu4  1  0.00000000  0.00000000  0.67424900  1
  Cu  Cu5  1  0.50000000  0.50000000  0.16322500  1
  Cu  Cu6  1  0.50000000  0.50000000  0.83375700  1
  C  C7  1  0.19531600  0.78527400  0.82214800  1
  C  C8  1  0.18964600  0.77729200  0.17282600  1
  C  C9  1  0.19212100  0.83562300  0.49477200  1
  C  C10  1  0.32466500  0.30770300  0.99900700  1
  C  C11  1  0.32885600  0.26508100  0.32821900  1
  C  C12  1  0.30989800  0.28106300  0.67611400  1
  C  C13  1  0.67114400  0.73491900  0.32821900  1
  C  C14  1  0.69010200  0.71893700  0.67611400  1
  C  C15  1  0.67533500  0.69229700  0.99900700  1
  C  C16  1  0.80787900  0.16437700  0.49477200  1
  C  C17  1  0.81035400  0.22270800  0.17282600  1
  C  C18  1  0.80468400  0.21472600  0.82214800  1
