# generated using pymatgen
data_Cu2NiC10
_symmetry_space_group_name_H-M   'P 1'
_cell_length_a   6.17765841
_cell_length_b   6.17765973
_cell_length_c   6.27030398
_cell_angle_alpha   105.44071450
_cell_angle_beta   105.44071501
_cell_angle_gamma   116.80704983
_symmetry_Int_Tables_number   1
_chemical_formula_structural   Cu2NiC10
_chemical_formula_sum   'Cu2 Ni1 C10'
_cell_volume   183.94822524
_cell_formula_units_Z   1
loop_
 _symmetry_equiv_pos_site_id
 _symmetry_equiv_pos_as_xyz
  1  'x, y, z'
loop_
 _atom_site_type_symbol
 _atom_site_label
 _atom_site_symmetry_multiplicity
 _atom_site_fract_x
 _atom_site_fract_y
 _atom_site_fract_z
 _atom_site_occupancy
  C  C0  1  0.40227000  0.59773000  0.75000000  1
  C  C1  1  0.62664700  0.37335500  0.25000100  1
  Ni  Ni2  1  0.11273700  0.88726300  0.75000000  1
  Cu  Cu3  1  0.85302800  0.14697400  0.75000000  1
  Cu  Cu4  1  0.12604100  0.87395900  0.25000000  1
  C  C5  1  0.31022800  0.23357000  0.42231900  1
  C  C6  1  0.88486500  0.34294500  0.58579300  1
  C  C7  1  0.21691600  0.26769400  0.90599400  1
  C  C8  1  0.28906300  0.86300200  0.04810300  1
  C  C9  1  0.13699900  0.71093700  0.45189600  1
  C  C10  1  0.73230600  0.78308500  0.59400700  1
  C  C11  1  0.76643000  0.68977200  0.07768000  1
  C  C12  1  0.65705500  0.11513500  0.91420800  1
