# generated using pymatgen
data_Cu6NiC32
_symmetry_space_group_name_H-M   'P 1'
_cell_length_a   9.19528005
_cell_length_b   9.18855636
_cell_length_c   23.39052946
_cell_angle_alpha   89.95434479
_cell_angle_beta   89.94381079
_cell_angle_gamma   120.03025641
_symmetry_Int_Tables_number   1
_chemical_formula_structural   Cu6NiC32
_chemical_formula_sum   'Cu18 Ni3 C96'
_cell_volume   1710.99897237
_cell_formula_units_Z   3
loop_
 _symmetry_equiv_pos_site_id
 _symmetry_equiv_pos_as_xyz
  1  'x, y, z'
loop_
 _atom_site_type_symbol
 _atom_site_label
 _atom_site_symmetry_multiplicity
 _atom_site_fract_x
 _atom_site_fract_y
 _atom_site_fract_z
 _atom_site_occupancy
  C  C0  1  0.63809054  -0.00005834  0.25408376  1
  C  C1  1  0.36234899  0.36306083  0.25504383  1
  C  C2  1  0.99944877  0.63742273  0.25420225  1
  C  C3  1  0.64284282  0.64047500  0.75111463  1
  C  C4  1  0.99809653  0.36024803  0.75143123  1
  C  C5  1  0.03278704  0.69992641  0.58039028  1
  C  C6  1  0.66450554  0.96620785  0.58017731  1
  C  C7  1  0.66452001  0.69882623  0.08043064  1
  C  C8  1  0.03326404  0.33245529  0.08042862  1
  C  C9  1  0.01099403  0.01127828  0.49546415  1
  C  C10  1  0.01125696  0.99964866  0.99475262  1
  C  C11  1  0.65616458  0.32223788  0.83697778  1
  C  C12  1  0.66644419  0.33320673  0.34271024  1
  C  C13  1  0.33322610  0.67710973  0.16663642  1
  C  C14  1  0.33362181  0.66676925  0.66623768  1
  C  C15  1  0.99825732  0.99868273  0.35566141  1
  C  C16  1  0.00170582  0.99943770  0.85392842  1
  C  C17  1  0.01130009  0.00841727  0.65031038  1
  C  C18  1  0.00803555  0.99936134  0.14705248  1
  C  C19  1  0.65508627  0.32520369  0.68485709  1
  C  C20  1  0.66250908  0.32943439  0.18196613  1
  C  C21  1  0.33288102  0.67373792  0.01436289  1
  C  C22  1  0.33253946  0.65788026  0.51409552  1
  C  C23  1  0.33333624  0.66590066  0.32560891  1
  Ni  Ni24  1  0.66424255  0.33104050  0.97876452  1
  Ni  Ni25  1  0.66379003  0.33342812  0.48207802  1
  Ni  Ni26  1  0.33343738  0.67278839  0.82156072  1
  Cu  Cu27  1  0.29664284  0.99656180  0.25104246  1
  Cu  Cu28  1  0.70069969  0.70347569  0.24839196  1
  Cu  Cu29  1  0.00269444  0.29928457  0.24851014  1
  Cu  Cu30  1  0.29775081  0.30978524  0.75417600  1
  Cu  Cu31  1  0.00872133  0.70209787  0.75101005  1
  Cu  Cu32  1  0.69597643  0.99111259  0.75153784  1
  Cu  Cu33  1  0.95361072  0.33190125  0.58297257  1
  Cu  Cu34  1  0.37346711  0.03969307  0.57990406  1
  Cu  Cu35  1  0.66936606  0.62770800  0.58325264  1
  Cu  Cu36  1  0.95402703  0.62139790  0.08078874  1
  Cu  Cu37  1  0.66880085  0.04151115  0.08137812  1
  Cu  Cu38  1  0.37468835  0.33393075  0.08011423  1
  Cu  Cu39  1  0.62606406  0.65665001  0.91745589  1
  Cu  Cu40  1  0.03012383  0.37320527  0.91775959  1
  Cu  Cu41  1  0.34338600  0.97089396  0.91664703  1
  Cu  Cu42  1  0.63563875  0.97927443  0.41962123  1
  Cu  Cu43  1  0.34323485  0.36257877  0.41711229  1
  Cu  Cu44  1  0.02100717  0.65681579  0.41977666  1
  C  C45  1  0.21261314  0.02605163  0.30234966  1
  C  C46  1  0.81700530  0.79115393  0.29891874  1
  C  C47  1  0.97462631  0.18294547  0.29908903  1
  C  C48  1  0.21349958  0.19860431  0.80539973  1
  C  C49  1  0.97636616  0.78850760  0.80089161  1
  C  C50  1  0.81380832  0.01998639  0.80145760  1
  C  C51  1  0.76773745  0.95727641  0.69581066  1
  C  C52  1  0.18932265  0.23527602  0.69975864  1
  C  C53  1  0.03633077  0.80183659  0.69472488  1
  C  C54  1  0.77719225  0.80536587  0.19242346  1
  C  C55  1  0.02874890  0.22314953  0.19264433  1
  C  C56  1  0.19003361  0.96868255  0.19669414  1
  C  C57  1  0.87791229  0.35678040  0.63855306  1
  C  C58  1  0.47967527  0.11826654  0.63365353  1
  C  C59  1  0.64721700  0.52995761  0.63901171  1
  C  C60  1  0.88032924  0.52365926  0.13702821  1
  C  C61  1  0.64708064  0.11482324  0.13770245  1
  C  C62  1  0.47281638  0.35814078  0.13615375  1
  C  C63  1  0.46774248  0.31236942  0.02837668  1
  C  C64  1  0.83478277  0.52897641  0.02946074  1
  C  C65  1  0.69435505  0.16047224  0.02996925  1
  C  C66  1  0.46050982  0.15102148  0.52689791  1
  C  C67  1  0.69568883  0.53648295  0.53136661  1
  C  C68  1  0.83542962  0.30363666  0.53111355  1
  C  C69  1  0.54534813  0.67795558  0.97160711  1
  C  C70  1  0.13236224  0.45387217  0.97183462  1
  C  C71  1  0.32006437  0.86673130  0.96978561  1
  C  C72  1  0.54818315  0.87119584  0.47252176  1
  C  C73  1  0.32199060  0.45459093  0.46783800  1
  C  C74  1  0.12868141  0.67724397  0.47263251  1
  C  C75  1  0.10033207  0.63242414  0.36419130  1
  C  C76  1  0.53252237  0.89896304  0.36407386  1
  C  C77  1  0.36792890  0.46247583  0.36055326  1
  C  C78  1  0.11654131  0.48507422  0.86274671  1
  C  C79  1  0.37152883  0.88647085  0.86230198  1
  C  C80  1  0.51502875  0.63288657  0.86247929  1
  C  C81  1  0.00109555  0.81217493  0.41510055  1
  C  C82  1  0.81094457  0.99899218  0.41507725  1
  C  C83  1  0.18776609  0.18725321  0.41406531  1
  C  C84  1  0.00919387  0.19841616  0.91134645  1
  C  C85  1  0.18968070  0.99163319  0.91078971  1
  C  C86  1  0.80109209  0.81072617  0.91122215  1
  C  C87  1  0.96396314  0.16873327  0.58638978  1
  C  C88  1  0.19431766  0.01463049  0.58444064  1
  C  C89  1  0.83358048  0.80321873  0.58593040  1
  C  C90  1  0.96399322  0.79445231  0.08303852  1
  C  C91  1  0.83281546  0.03059838  0.08324858  1
  C  C92  1  0.19484613  0.18063929  0.08230441  1
  C  C93  1  0.68054438  0.15026794  0.74648320  1
  C  C94  1  0.47940210  0.34354470  0.74795836  1
  C  C95  1  0.85160715  0.52234293  0.74627864  1
  C  C96  1  0.67949330  0.52463033  0.24487228  1
  C  C97  1  0.84477852  0.31987430  0.24497171  1
  C  C98  1  0.47460167  0.15456031  0.24593569  1
  C  C99  1  0.63835996  0.49221278  0.92097132  1
  C  C100  1  0.85336180  0.36095915  0.92150738  1
  C  C101  1  0.50774166  0.14727929  0.92089069  1
  C  C102  1  0.64870061  0.15528056  0.42403315  1
  C  C103  1  0.50724477  0.35250691  0.42330194  1
  C  C104  1  0.84511446  0.49334799  0.42459179  1
  C  C105  1  0.35986178  0.49496982  0.07600959  1
  C  C106  1  0.12632037  0.63259727  0.07576491  1
  C  C107  1  0.51876557  0.86102150  0.07698241  1
  C  C108  1  0.35659607  0.86288802  0.57580289  1
  C  C109  1  0.51915747  0.65774026  0.57768995  1
  C  C110  1  0.12634450  0.49285086  0.57683261  1
  C  C111  1  0.31598215  0.83802307  0.25615442  1
  C  C112  1  0.52414340  0.68650715  0.25480925  1
  C  C113  1  0.16158309  0.47680301  0.25473812  1
  C  C114  1  0.31080052  0.48899271  0.76050069  1
  C  C115  1  0.16586535  0.67758882  0.75955361  1
  C  C116  1  0.52033934  0.82506062  0.75994830  1
