# generated using pymatgen
data_Cu5NiC4
_symmetry_space_group_name_H-M   'P 1'
_cell_length_a   7.06954500
_cell_length_b   7.47829400
_cell_length_c   8.19670555
_cell_angle_alpha   72.09669953
_cell_angle_beta   90.00000000
_cell_angle_gamma   90.00000000
_symmetry_Int_Tables_number   1
_chemical_formula_structural   Cu5NiC4
_chemical_formula_sum   'Cu20 Ni4 C16'
_cell_volume   412.36056962
_cell_formula_units_Z   4
loop_
 _symmetry_equiv_pos_site_id
 _symmetry_equiv_pos_as_xyz
  1  'x, y, z'
loop_
 _atom_site_type_symbol
 _atom_site_label
 _atom_site_symmetry_multiplicity
 _atom_site_fract_x
 _atom_site_fract_y
 _atom_site_fract_z
 _atom_site_occupancy
  C  C0  1  0.33683400  0.76510500  0.29493500  1
  C  C1  1  0.83683400  0.23489500  0.20506500  1
  C  C2  1  0.66316600  0.23489500  0.70506500  1
  C  C3  1  0.16316600  0.76510500  0.79493500  1
  C  C4  1  0.87745000  0.28020900  0.77729800  1
  C  C5  1  0.37745000  0.71979100  0.72270200  1
  C  C6  1  0.20356800  0.58574600  0.41250000  1
  C  C7  1  0.70356800  0.41425400  0.08750000  1
  C  C8  1  0.79643200  0.41425400  0.58750000  1
  C  C9  1  0.29643200  0.58574600  0.91250000  1
  C  C10  1  0.81675800  0.88656800  0.60701700  1
  C  C11  1  0.31675800  0.11343200  0.89298300  1
  C  C12  1  0.18324200  0.11343200  0.39298300  1
  C  C13  1  0.68324200  0.88656800  0.10701700  1
  C  C14  1  0.12255000  0.71979100  0.22270200  1
  C  C15  1  0.62255000  0.28020900  0.27729800  1
  Ni  Ni16  1  0.65311900  0.74645900  0.46119200  1
  Ni  Ni17  1  0.15311900  0.25354100  0.03880800  1
  Ni  Ni18  1  0.34688100  0.25354100  0.53880800  1
  Ni  Ni19  1  0.84688100  0.74645900  0.96119200  1
  Cu  Cu20  1  0.50908800  0.66859100  0.59176700  1
  Cu  Cu21  1  0.75417300  0.92441700  0.99349200  1
  Cu  Cu22  1  0.24582700  0.07558300  0.00650800  1
  Cu  Cu23  1  0.74582700  0.92441700  0.49349200  1
  Cu  Cu24  1  0.29706500  0.72041100  0.82591400  1
  Cu  Cu25  1  0.79706500  0.27958900  0.67408600  1
  Cu  Cu26  1  0.70293500  0.27958900  0.17408600  1
  Cu  Cu27  1  0.20293500  0.72041100  0.32591400  1
  Cu  Cu28  1  0.49091200  0.33140900  0.40823300  1
  Cu  Cu29  1  0.99091200  0.66859100  0.09176700  1
  Cu  Cu30  1  0.80532300  0.61183800  0.46463900  1
  Cu  Cu31  1  0.30532300  0.38816200  0.03536100  1
  Cu  Cu32  1  0.19467700  0.38816200  0.53536100  1
  Cu  Cu33  1  0.69467700  0.61183800  0.96463900  1
  Cu  Cu34  1  0.56667900  0.82462100  0.28879300  1
  Cu  Cu35  1  0.06667900  0.17537900  0.21120700  1
  Cu  Cu36  1  0.43332100  0.17537900  0.71120700  1
  Cu  Cu37  1  0.93332100  0.82462100  0.78879300  1
  Cu  Cu38  1  0.25417300  0.07558300  0.50650800  1
  Cu  Cu39  1  0.00908800  0.33140900  0.90823300  1
