# generated using pymatgen
data_Cu8Ni19
_symmetry_space_group_name_H-M   'P 1'
_cell_length_a   10.55554921
_cell_length_b   10.55554921
_cell_length_c   10.55554896
_cell_angle_alpha   89.64445406
_cell_angle_beta   89.64445406
_cell_angle_gamma   89.64445227
_symmetry_Int_Tables_number   1
_chemical_formula_structural   Cu8Ni19
_chemical_formula_sum   'Cu16 Ni38'
_cell_volume   1176.02759272
_cell_formula_units_Z   2
loop_
 _symmetry_equiv_pos_site_id
 _symmetry_equiv_pos_as_xyz
  1  'x, y, z'
loop_
 _atom_site_type_symbol
 _atom_site_label
 _atom_site_symmetry_multiplicity
 _atom_site_fract_x
 _atom_site_fract_y
 _atom_site_fract_z
 _atom_site_occupancy
  Ni  Ni0  1  0.53015800  0.61829200  0.16852700  1
  Ni  Ni1  1  0.61829200  0.16852700  0.53015800  1
  Ni  Ni2  1  0.16852700  0.53015800  0.61829200  1
  Ni  Ni3  1  0.66852700  0.11829200  0.03015800  1
  Ni  Ni4  1  0.85662600  0.85662600  0.85662600  1
  Ni  Ni5  1  0.35662600  0.35662600  0.35662600  1
  Ni  Ni6  1  0.11829200  0.03015800  0.66852700  1
  Ni  Ni7  1  0.03015800  0.66852700  0.11829200  1
  Ni  Ni8  1  0.42642900  0.41797100  0.14987000  1
  Ni  Ni9  1  0.41797100  0.14987000  0.42642900  1
  Ni  Ni10  1  0.14987000  0.42642900  0.41797100  1
  Ni  Ni11  1  0.64987000  0.91797100  0.92642900  1
  Ni  Ni12  1  0.91797100  0.92642900  0.64987000  1
  Ni  Ni13  1  0.92642900  0.64987000  0.91797100  1
  Ni  Ni14  1  0.50359900  0.38873300  0.81790600  1
  Ni  Ni15  1  0.38873300  0.81790600  0.50359900  1
  Ni  Ni16  1  0.81790600  0.50359900  0.38873300  1
  Ni  Ni17  1  0.31790600  0.88873300  0.00359900  1
  Ni  Ni18  1  0.99205700  0.50302500  0.75802200  1
  Ni  Ni19  1  0.75802200  0.99205700  0.50302500  1
  Ni  Ni20  1  0.50302500  0.75802200  0.99205700  1
  Ni  Ni21  1  0.00302500  0.49205700  0.25802200  1
  Ni  Ni22  1  0.25802200  0.00302500  0.49205700  1
  Ni  Ni23  1  0.49205700  0.25802200  0.00302500  1
  Ni  Ni24  1  0.16525900  0.17432600  0.83070200  1
  Ni  Ni25  1  0.83070200  0.16525900  0.17432500  1
  Ni  Ni26  1  0.17432600  0.83070200  0.16525900  1
  Ni  Ni27  1  0.67432600  0.66525900  0.33070200  1
  Ni  Ni28  1  0.33070200  0.67432600  0.66525900  1
  Ni  Ni29  1  0.66525900  0.33070200  0.67432500  1
  Ni  Ni30  1  0.98022300  0.31921700  0.11389500  1
  Ni  Ni31  1  0.11389500  0.98022300  0.31921700  1
  Ni  Ni32  1  0.31921700  0.11389500  0.98022300  1
  Ni  Ni33  1  0.81921700  0.48022300  0.61389500  1
  Ni  Ni34  1  0.61389500  0.81921700  0.48022300  1
  Ni  Ni35  1  0.48022300  0.61389500  0.81921700  1
  Ni  Ni36  1  0.00359900  0.31790600  0.88873300  1
  Ni  Ni37  1  0.88873300  0.00359900  0.31790600  1
  Cu  Cu38  1  0.30917600  0.31655700  0.68255400  1
  Cu  Cu39  1  0.31655700  0.68255400  0.30917600  1
  Cu  Cu40  1  0.68255400  0.30917600  0.31655700  1
  Cu  Cu41  1  0.18255400  0.81655700  0.80917600  1
  Cu  Cu42  1  0.81655700  0.80917600  0.18255400  1
  Cu  Cu43  1  0.80917600  0.18255400  0.81655700  1
  Cu  Cu44  1  0.00520400  0.24659400  0.50932000  1
  Cu  Cu45  1  0.24659400  0.50932000  0.00520400  1
  Cu  Cu46  1  0.50932000  0.00520400  0.24659400  1
  Cu  Cu47  1  0.00932000  0.74659400  0.50520400  1
  Cu  Cu48  1  0.74659400  0.50520400  0.00932000  1
  Cu  Cu49  1  0.50520400  0.00932000  0.74659400  1
  Cu  Cu50  1  0.68784200  0.68784200  0.68784200  1
  Cu  Cu51  1  0.18784200  0.18784200  0.18784200  1
  Cu  Cu52  1  0.50004600  0.50004600  0.50004600  1
  Cu  Cu53  1  0.00004600  0.00004600  0.00004600  1
