# generated using pymatgen
data_CuNiC
_symmetry_space_group_name_H-M   'P 1'
_cell_length_a   4.81844768
_cell_length_b   4.81844768
_cell_length_c   7.49978100
_cell_angle_alpha   90.00000000
_cell_angle_beta   90.00000000
_cell_angle_gamma   119.99999554
_symmetry_Int_Tables_number   1
_chemical_formula_structural   CuNiC
_chemical_formula_sum   'Cu2 Ni2 C2'
_cell_volume   150.79728676
_cell_formula_units_Z   2
loop_
 _symmetry_equiv_pos_site_id
 _symmetry_equiv_pos_as_xyz
  1  'x, y, z'
loop_
 _atom_site_type_symbol
 _atom_site_label
 _atom_site_symmetry_multiplicity
 _atom_site_fract_x
 _atom_site_fract_y
 _atom_site_fract_z
 _atom_site_occupancy
  C  C0  1  0.00000000  0.00000000  0.98671400  1
  C  C1  1  0.00000000  0.00000000  0.48671400  1
  Ni  Ni2  1  0.66666700  0.33333300  0.66791100  1
  Ni  Ni3  1  0.33333300  0.66666700  0.16791100  1
  Cu  Cu4  1  0.33333300  0.66666700  0.76547500  1
  Cu  Cu5  1  0.66666700  0.33333300  0.26547500  1
