# generated using pymatgen
data_Cu4Ni3C8
_symmetry_space_group_name_H-M   'P 1'
_cell_length_a   9.07518872
_cell_length_b   9.07518872
_cell_length_c   9.07518877
_cell_angle_alpha   90.53133477
_cell_angle_beta   90.53133477
_cell_angle_gamma   90.53133225
_symmetry_Int_Tables_number   1
_chemical_formula_structural   Cu4Ni3C8
_chemical_formula_sum   'Cu16 Ni12 C32'
_cell_volume   747.32691254
_cell_formula_units_Z   4
loop_
 _symmetry_equiv_pos_site_id
 _symmetry_equiv_pos_as_xyz
  1  'x, y, z'
loop_
 _atom_site_type_symbol
 _atom_site_label
 _atom_site_symmetry_multiplicity
 _atom_site_fract_x
 _atom_site_fract_y
 _atom_site_fract_z
 _atom_site_occupancy
  Ni  Ni0  1  0.50000000  0.03896400  0.96103600  1
  Ni  Ni1  1  0.96103600  0.50000000  0.03896400  1
  Ni  Ni2  1  0.03896400  0.96103600  0.50000000  1
  Ni  Ni3  1  0.00000000  0.70805800  0.29194200  1
  Ni  Ni4  1  0.29194200  0.00000000  0.70805800  1
  Ni  Ni5  1  0.70805800  0.29194200  0.00000000  1
  Ni  Ni6  1  0.45985200  0.25058000  0.20993800  1
  Ni  Ni7  1  0.20993800  0.45985200  0.25058000  1
  Ni  Ni8  1  0.25058000  0.20993800  0.45985200  1
  Ni  Ni9  1  0.54014800  0.79006200  0.74942000  1
  Ni  Ni10  1  0.74942000  0.54014800  0.79006200  1
  Ni  Ni11  1  0.79006200  0.74942000  0.54014800  1
  Cu  Cu12  1  0.50000000  0.50000000  0.50000000  1
  Cu  Cu13  1  0.13535200  0.21386400  0.94372000  1
  Cu  Cu14  1  0.94372000  0.13535200  0.21386400  1
  Cu  Cu15  1  0.21386400  0.94372000  0.13535200  1
  Cu  Cu16  1  0.86464800  0.05628000  0.78613600  1
  Cu  Cu17  1  0.78613600  0.86464800  0.05628000  1
  Cu  Cu18  1  0.05628000  0.78613600  0.86464800  1
  Cu  Cu19  1  0.39448300  0.78808200  0.38457700  1
  Cu  Cu20  1  0.38457700  0.39448300  0.78808200  1
  Cu  Cu21  1  0.78808200  0.38457700  0.39448300  1
  Cu  Cu22  1  0.60551700  0.61542300  0.21191800  1
  Cu  Cu23  1  0.21191800  0.60551700  0.61542300  1
  Cu  Cu24  1  0.61542300  0.21191800  0.60551700  1
  Cu  Cu25  1  0.00000000  0.33558500  0.66441500  1
  Cu  Cu26  1  0.66441500  0.00000000  0.33558500  1
  Cu  Cu27  1  0.33558500  0.66441500  0.00000000  1
  C  C28  1  0.17170400  0.47464400  0.04113500  1
  C  C29  1  0.04113500  0.17170400  0.47464400  1
  C  C30  1  0.47464400  0.04113500  0.17170400  1
  C  C31  1  0.82829600  0.95886500  0.52535600  1
  C  C32  1  0.52535600  0.82829600  0.95886500  1
  C  C33  1  0.95886500  0.52535600  0.82829600  1
  C  C34  1  0.22258700  0.41941800  0.45813600  1
  C  C35  1  0.45813600  0.22258700  0.41941800  1
  C  C36  1  0.41941800  0.45813600  0.22258700  1
  C  C37  1  0.77741300  0.54186400  0.58058200  1
  C  C38  1  0.58058200  0.77741300  0.54186400  1
  C  C39  1  0.54186400  0.58058200  0.77741300  1
  C  C40  1  0.24036000  0.24036000  0.24036000  1
  C  C41  1  0.75964000  0.75964000  0.75964000  1
  C  C42  1  0.67113700  0.27595800  0.20836300  1
  C  C43  1  0.97066400  0.70701900  0.08111400  1
  C  C44  1  0.70701900  0.08111400  0.97066400  1
  C  C45  1  0.02933600  0.91888600  0.29298100  1
  C  C46  1  0.29298100  0.02933600  0.91888600  1
  C  C47  1  0.91888600  0.29298100  0.02933600  1
  C  C48  1  0.25810400  0.99006300  0.49104600  1
  C  C49  1  0.49104600  0.25810400  0.99006300  1
  C  C50  1  0.99006300  0.49104600  0.25810400  1
  C  C51  1  0.74189600  0.50895400  0.00993700  1
  C  C52  1  0.00993700  0.74189600  0.50895400  1
  C  C53  1  0.50895400  0.00993700  0.74189600  1
  C  C54  1  0.20836300  0.67113700  0.27595800  1
  C  C55  1  0.27595800  0.20836300  0.67113700  1
  C  C56  1  0.72404200  0.32886300  0.79163700  1
  C  C57  1  0.32886300  0.79163700  0.72404200  1
  C  C58  1  0.79163700  0.72404200  0.32886300  1
  C  C59  1  0.08111400  0.97066400  0.70701900  1
