# generated using pymatgen
data_Cu2Ni2C
_symmetry_space_group_name_H-M   'P 1'
_cell_length_a   7.22843574
_cell_length_b   7.22843574
_cell_length_c   7.46189900
_cell_angle_alpha   90.00000000
_cell_angle_beta   90.00000000
_cell_angle_gamma   98.18275658
_symmetry_Int_Tables_number   1
_chemical_formula_structural   Cu2Ni2C
_chemical_formula_sum   'Cu16 Ni16 C8'
_cell_volume   385.91694711
_cell_formula_units_Z   8
loop_
 _symmetry_equiv_pos_site_id
 _symmetry_equiv_pos_as_xyz
  1  'x, y, z'
loop_
 _atom_site_type_symbol
 _atom_site_label
 _atom_site_symmetry_multiplicity
 _atom_site_fract_x
 _atom_site_fract_y
 _atom_site_fract_z
 _atom_site_occupancy
  C  C0  1  0.72095200  0.72095200  0.01024500  1
  C  C1  1  0.77904800  0.77904800  0.51024500  1
  C  C2  1  0.22095200  0.22095200  0.48975500  1
  C  C3  1  0.27904800  0.27904800  0.98975500  1
  C  C4  1  0.34756500  0.65243500  0.50000000  1
  C  C5  1  0.15243500  0.84756500  0.00000000  1
  C  C6  1  0.65243500  0.34756500  0.50000000  1
  C  C7  1  0.84756500  0.15243500  0.00000000  1
  Ni  Ni8  1  0.78711600  0.53181800  0.75472000  1
  Ni  Ni9  1  0.46818200  0.21288400  0.24528000  1
  Ni  Ni10  1  0.03181800  0.28711600  0.74528000  1
  Ni  Ni11  1  0.71288400  0.96818200  0.25472000  1
  Ni  Ni12  1  0.53181800  0.78711600  0.75472000  1
  Ni  Ni13  1  0.96818200  0.71288400  0.25472000  1
  Ni  Ni14  1  0.28711600  0.03181800  0.74528000  1
  Ni  Ni15  1  0.21288400  0.46818200  0.24528000  1
  Ni  Ni16  1  0.84375000  0.34375000  0.25000000  1
  Ni  Ni17  1  0.65625000  0.15625000  0.75000000  1
  Ni  Ni18  1  0.15625000  0.65625000  0.75000000  1
  Ni  Ni19  1  0.34375000  0.84375000  0.25000000  1
  Ni  Ni20  1  0.58819900  0.58819900  0.27549800  1
  Ni  Ni21  1  0.91180100  0.91180100  0.77549800  1
  Ni  Ni22  1  0.08819900  0.08819900  0.22450200  1
  Ni  Ni23  1  0.41180100  0.41180100  0.72450200  1
  Cu  Cu24  1  0.04979900  0.29893900  0.22477900  1
  Cu  Cu25  1  0.45020100  0.20106100  0.72477900  1
  Cu  Cu26  1  0.79893900  0.54979900  0.27522100  1
  Cu  Cu27  1  0.70106100  0.95020100  0.77522100  1
  Cu  Cu28  1  0.29893900  0.04979900  0.22477900  1
  Cu  Cu29  1  0.95020100  0.70106100  0.77522100  1
  Cu  Cu30  1  0.54979900  0.79893900  0.27522100  1
  Cu  Cu31  1  0.20106100  0.45020100  0.72477900  1
  Cu  Cu32  1  0.67639700  0.17639700  0.25000000  1
  Cu  Cu33  1  0.82360300  0.32360300  0.75000000  1
  Cu  Cu34  1  0.32360300  0.82360300  0.75000000  1
  Cu  Cu35  1  0.17639700  0.67639700  0.25000000  1
  Cu  Cu36  1  0.92043000  0.92043000  0.23069800  1
  Cu  Cu37  1  0.57957000  0.57957000  0.73069800  1
  Cu  Cu38  1  0.42043000  0.42043000  0.26930200  1
  Cu  Cu39  1  0.07957000  0.07957000  0.76930200  1
