# generated using pymatgen
data_Cu(NiC2)2
_symmetry_space_group_name_H-M   'P 1'
_cell_length_a   5.78592457
_cell_length_b   5.78592599
_cell_length_c   10.02060943
_cell_angle_alpha   106.78049111
_cell_angle_beta   73.21948778
_cell_angle_gamma   119.99990297
_symmetry_Int_Tables_number   1
_chemical_formula_structural   Cu(NiC2)2
_chemical_formula_sum   'Cu4 Ni8 C16'
_cell_volume   273.89792448
_cell_formula_units_Z   4
loop_
 _symmetry_equiv_pos_site_id
 _symmetry_equiv_pos_as_xyz
  1  'x, y, z'
loop_
 _atom_site_type_symbol
 _atom_site_label
 _atom_site_symmetry_multiplicity
 _atom_site_fract_x
 _atom_site_fract_y
 _atom_site_fract_z
 _atom_site_occupancy
  Ni  Ni0  1  0.25000000  0.75000000  0.25000000  1
  Ni  Ni1  1  0.75000000  0.25000000  0.75000100  1
  Ni  Ni2  1  0.75000000  0.75000000  0.25000000  1
  Ni  Ni3  1  0.25000000  0.25000000  0.75000100  1
  Ni  Ni4  1  0.25000000  0.25000000  0.25000000  1
  Ni  Ni5  1  0.75000000  0.75000000  0.75000100  1
  Ni  Ni6  1  0.50000500  0.49999500  0.99997900  1
  Ni  Ni7  1  0.99999500  0.00000500  0.50002100  1
  Cu  Cu8  1  0.31254300  0.68745700  0.56237300  1
  Cu  Cu9  1  0.18745700  0.81254200  0.93762700  1
  Cu  Cu10  1  0.81254400  0.18745600  0.06235400  1
  Cu  Cu11  1  0.68745600  0.31254400  0.43764700  1
  C  C12  1  0.89668600  0.10331400  0.36774100  1
  C  C13  1  0.39674200  0.60325800  0.86770100  1
  C  C14  1  0.16110600  0.39667800  0.13226100  1
  C  C15  1  0.66119500  0.89673600  0.63228700  1
  C  C16  1  0.60331500  0.39668500  0.13225800  1
  C  C17  1  0.10325700  0.89674300  0.63229900  1
  C  C18  1  0.33889300  0.10332100  0.36773900  1
  C  C19  1  0.83880500  0.60326400  0.86771300  1
  C  C20  1  0.89667900  0.66110800  0.36773900  1
  C  C21  1  0.39673600  0.16119500  0.86771300  1
  C  C22  1  0.11776000  0.88224100  0.14673300  1
  C  C23  1  0.61778200  0.38221800  0.64663800  1
  C  C24  1  0.38224100  0.61775900  0.35326600  1
  C  C25  1  0.88221700  0.11778200  0.85336300  1
  C  C26  1  0.60332200  0.83889300  0.13226100  1
  C  C27  1  0.10326400  0.33880500  0.63228700  1
