# generated using pymatgen
data_Cu4(NiC2)3
_symmetry_space_group_name_H-M   'P 1'
_cell_length_a   17.13424800
_cell_length_b   17.13424800
_cell_length_c   5.09150600
_cell_angle_alpha   90.00000000
_cell_angle_beta   90.00000000
_cell_angle_gamma   90.00000000
_symmetry_Int_Tables_number   1
_chemical_formula_structural   Cu4(NiC2)3
_chemical_formula_sum   'Cu32 Ni24 C48'
_cell_volume   1494.77682871
_cell_formula_units_Z   8
loop_
 _symmetry_equiv_pos_site_id
 _symmetry_equiv_pos_as_xyz
  1  'x, y, z'
loop_
 _atom_site_type_symbol
 _atom_site_label
 _atom_site_symmetry_multiplicity
 _atom_site_fract_x
 _atom_site_fract_y
 _atom_site_fract_z
 _atom_site_occupancy
  Ni  Ni0  1  0.10187700  0.20416800  0.00000000  1
  Ni  Ni1  1  0.20416800  0.89812300  0.50000000  1
  Ni  Ni2  1  0.79583200  0.10187700  0.50000000  1
  Ni  Ni3  1  0.89812300  0.79583200  0.00000000  1
  Ni  Ni4  1  0.39812300  0.70416800  0.00000000  1
  Ni  Ni5  1  0.60187700  0.29583200  0.00000000  1
  Ni  Ni6  1  0.70416800  0.60187700  0.50000000  1
  Ni  Ni7  1  0.29583200  0.39812300  0.50000000  1
  Ni  Ni8  1  0.29886800  0.28245500  0.00000000  1
  Ni  Ni9  1  0.28245500  0.70113200  0.50000000  1
  Ni  Ni10  1  0.71754500  0.29886800  0.50000000  1
  Ni  Ni11  1  0.70113200  0.71754500  0.00000000  1
  Ni  Ni12  1  0.20113200  0.78245500  0.00000000  1
  Ni  Ni13  1  0.79886800  0.21754500  0.00000000  1
  Ni  Ni14  1  0.78245500  0.79886800  0.50000000  1
  Ni  Ni15  1  0.21754500  0.20113200  0.50000000  1
  Ni  Ni16  1  0.20981800  0.47398800  0.00000000  1
  Ni  Ni17  1  0.47398800  0.79018200  0.50000000  1
  Ni  Ni18  1  0.52601200  0.20981800  0.50000000  1
  Ni  Ni19  1  0.79018200  0.52601200  0.00000000  1
  Ni  Ni20  1  0.29018200  0.97398800  0.00000000  1
  Ni  Ni21  1  0.70981800  0.02601200  0.00000000  1
  Ni  Ni22  1  0.97398800  0.70981800  0.50000000  1
  Ni  Ni23  1  0.02601200  0.29018200  0.50000000  1
  Cu  Cu24  1  0.15403100  0.05193100  0.25112800  1
  Cu  Cu25  1  0.05193100  0.84596900  0.75112800  1
  Cu  Cu26  1  0.94806900  0.15403100  0.75112800  1
  Cu  Cu27  1  0.84596900  0.94806900  0.25112800  1
  Cu  Cu28  1  0.34596900  0.55193100  0.74887200  1
  Cu  Cu29  1  0.65403100  0.44806900  0.74887200  1
  Cu  Cu30  1  0.55193100  0.65403100  0.24887200  1
  Cu  Cu31  1  0.44806900  0.34596900  0.24887200  1
  Cu  Cu32  1  0.84596900  0.94806900  0.74887200  1
  Cu  Cu33  1  0.94806900  0.15403100  0.24887200  1
  Cu  Cu34  1  0.05193100  0.84596900  0.24887200  1
  Cu  Cu35  1  0.15403100  0.05193100  0.74887200  1
  Cu  Cu36  1  0.65403100  0.44806900  0.25112800  1
  Cu  Cu37  1  0.34596900  0.55193100  0.25112800  1
  Cu  Cu38  1  0.44806900  0.34596900  0.75112800  1
  Cu  Cu39  1  0.55193100  0.65403100  0.75112800  1
  Cu  Cu40  1  0.04408300  0.38502700  0.00000000  1
  Cu  Cu41  1  0.38502700  0.95591700  0.50000000  1
  Cu  Cu42  1  0.61497300  0.04408300  0.50000000  1
  Cu  Cu43  1  0.95591700  0.61497300  0.00000000  1
  Cu  Cu44  1  0.45591700  0.88502700  0.00000000  1
  Cu  Cu45  1  0.54408300  0.11497300  0.00000000  1
  Cu  Cu46  1  0.88502700  0.54408300  0.50000000  1
  Cu  Cu47  1  0.11497300  0.45591700  0.50000000  1
  Cu  Cu48  1  0.12622500  0.62622500  0.25000000  1
  Cu  Cu49  1  0.62622500  0.87377500  0.75000000  1
  Cu  Cu50  1  0.37377500  0.12622500  0.75000000  1
  Cu  Cu51  1  0.87377500  0.37377500  0.25000000  1
  Cu  Cu52  1  0.87377500  0.37377500  0.75000000  1
  Cu  Cu53  1  0.37377500  0.12622500  0.25000000  1
  Cu  Cu54  1  0.62622500  0.87377500  0.25000000  1
  Cu  Cu55  1  0.12622500  0.62622500  0.75000000  1
  C  C56  1  0.43511100  0.02359900  0.00000000  1
  C  C57  1  0.02359900  0.56488900  0.50000000  1
  C  C58  1  0.97640100  0.43511100  0.50000000  1
  C  C59  1  0.56488900  0.97640100  0.00000000  1
  C  C60  1  0.06488900  0.52359900  0.00000000  1
  C  C61  1  0.93511100  0.47640100  0.00000000  1
  C  C62  1  0.52359900  0.93511100  0.50000000  1
  C  C63  1  0.47640100  0.06488900  0.50000000  1
  C  C64  1  0.03099800  0.06192400  0.00000000  1
  C  C65  1  0.06192400  0.96900200  0.50000000  1
  C  C66  1  0.93807600  0.03099800  0.50000000  1
  C  C67  1  0.96900200  0.93807600  0.00000000  1
  C  C68  1  0.46900200  0.56192400  0.00000000  1
  C  C69  1  0.53099800  0.43807600  0.00000000  1
  C  C70  1  0.56192400  0.53099800  0.50000000  1
  C  C71  1  0.43807600  0.46900200  0.50000000  1
  C  C72  1  0.24778100  0.13002100  0.00000000  1
  C  C73  1  0.13002100  0.75221900  0.50000000  1
  C  C74  1  0.86997900  0.24778100  0.50000000  1
  C  C75  1  0.75221900  0.86997900  0.00000000  1
  C  C76  1  0.25221900  0.63002100  0.00000000  1
  C  C77  1  0.74778100  0.36997900  0.00000000  1
  C  C78  1  0.63002100  0.74778100  0.50000000  1
  C  C79  1  0.36997900  0.25221900  0.50000000  1
  C  C80  1  0.45209500  0.22481900  0.00000000  1
  C  C81  1  0.22481900  0.54790500  0.50000000  1
  C  C82  1  0.77518100  0.45209500  0.50000000  1
  C  C83  1  0.54790500  0.77518100  0.00000000  1
  C  C84  1  0.04790500  0.72481900  0.00000000  1
  C  C85  1  0.95209500  0.27518100  0.00000000  1
  C  C86  1  0.72481900  0.95209500  0.50000000  1
  C  C87  1  0.27518100  0.04790500  0.50000000  1
  C  C88  1  0.36382400  0.43210700  0.00000000  1
  C  C89  1  0.43210700  0.63617600  0.50000000  1
  C  C90  1  0.56789300  0.36382400  0.50000000  1
  C  C91  1  0.63617600  0.56789300  0.00000000  1
  C  C92  1  0.13617600  0.93210700  0.00000000  1
  C  C93  1  0.86382400  0.06789300  0.00000000  1
  C  C94  1  0.93210700  0.86382400  0.50000000  1
  C  C95  1  0.06789300  0.13617600  0.50000000  1
  C  C96  1  0.66166600  0.16166600  0.25000000  1
  C  C97  1  0.16166600  0.33833400  0.75000000  1
  C  C98  1  0.83833400  0.66166600  0.75000000  1
  C  C99  1  0.33833400  0.83833400  0.25000000  1
  C  C100  1  0.33833400  0.83833400  0.75000000  1
  C  C101  1  0.83833400  0.66166600  0.25000000  1
  C  C102  1  0.16166600  0.33833400  0.25000000  1
  C  C103  1  0.66166600  0.16166600  0.75000000  1
