# generated using pymatgen
data_Cu2NiC6
_symmetry_space_group_name_H-M   'P 1'
_cell_length_a   3.86418500
_cell_length_b   10.78862500
_cell_length_c   20.48672800
_cell_angle_alpha   90.00000000
_cell_angle_beta   90.00000000
_cell_angle_gamma   90.00000000
_symmetry_Int_Tables_number   1
_chemical_formula_structural   Cu2NiC6
_chemical_formula_sum   'Cu8 Ni4 C24'
_cell_volume   854.07617973
_cell_formula_units_Z   4
loop_
 _symmetry_equiv_pos_site_id
 _symmetry_equiv_pos_as_xyz
  1  'x, y, z'
loop_
 _atom_site_type_symbol
 _atom_site_label
 _atom_site_symmetry_multiplicity
 _atom_site_fract_x
 _atom_site_fract_y
 _atom_site_fract_z
 _atom_site_occupancy
  C  C0  1  0.25000000  0.39090400  0.98989400  1
  C  C1  1  0.75000000  0.60909600  0.01010600  1
  C  C2  1  0.75000000  0.89090400  0.51010600  1
  C  C3  1  0.25000000  0.10909600  0.48989400  1
  C  C4  1  0.25000000  0.93264500  0.63825400  1
  C  C5  1  0.75000000  0.06735500  0.36174600  1
  C  C6  1  0.75000000  0.43264500  0.86174600  1
  C  C7  1  0.25000000  0.56735500  0.13825400  1
  C  C8  1  0.25000000  0.87707900  0.02920400  1
  C  C9  1  0.75000000  0.12292100  0.97079600  1
  C  C10  1  0.75000000  0.37707900  0.47079600  1
  C  C11  1  0.25000000  0.62292100  0.52920400  1
  C  C12  1  0.25000000  0.82850800  0.39257700  1
  C  C13  1  0.75000000  0.17149200  0.60742300  1
  C  C14  1  0.75000000  0.32850800  0.10742300  1
  C  C15  1  0.25000000  0.67149200  0.89257700  1
  C  C16  1  0.25000000  0.53695300  0.33825800  1
  C  C17  1  0.75000000  0.46304700  0.66174200  1
  C  C18  1  0.75000000  0.03695300  0.16174200  1
  C  C19  1  0.25000000  0.96304700  0.83825800  1
  C  C20  1  0.25000000  0.24913000  0.23045700  1
  C  C21  1  0.75000000  0.75087000  0.76954300  1
  C  C22  1  0.75000000  0.74913000  0.26954300  1
  C  C23  1  0.25000000  0.25087000  0.73045700  1
  Ni  Ni24  1  0.25000000  0.14220900  0.07602000  1
  Ni  Ni25  1  0.75000000  0.85779100  0.92398000  1
  Ni  Ni26  1  0.75000000  0.64220900  0.42398000  1
  Ni  Ni27  1  0.25000000  0.35779100  0.57602000  1
  Cu  Cu28  1  0.25000000  0.22615300  0.87318100  1
  Cu  Cu29  1  0.75000000  0.77384700  0.12681900  1
  Cu  Cu30  1  0.75000000  0.72615300  0.62681900  1
  Cu  Cu31  1  0.25000000  0.27384700  0.37318100  1
  Cu  Cu32  1  0.25000000  0.53534700  0.76499000  1
  Cu  Cu33  1  0.75000000  0.46465300  0.23501000  1
  Cu  Cu34  1  0.75000000  0.03534700  0.73501000  1
  Cu  Cu35  1  0.25000000  0.96465300  0.26499000  1
