# generated using pymatgen
data_CuNiC2
_symmetry_space_group_name_H-M   'P 1'
_cell_length_a   5.74745075
_cell_length_b   5.74745075
_cell_length_c   5.66882028
_cell_angle_alpha   78.30107233
_cell_angle_beta   78.30107233
_cell_angle_gamma   100.73718443
_symmetry_Int_Tables_number   1
_chemical_formula_structural   CuNiC2
_chemical_formula_sum   'Cu2 Ni2 C4'
_cell_volume   174.43679255
_cell_formula_units_Z   2
loop_
 _symmetry_equiv_pos_site_id
 _symmetry_equiv_pos_as_xyz
  1  'x, y, z'
loop_
 _atom_site_type_symbol
 _atom_site_label
 _atom_site_symmetry_multiplicity
 _atom_site_fract_x
 _atom_site_fract_y
 _atom_site_fract_z
 _atom_site_occupancy
  Ni  Ni0  1  0.05397500  0.50559300  0.42731200  1
  Ni  Ni1  1  0.50559300  0.05397500  0.42731200  1
  C  C2  1  0.65862800  0.17128200  0.87036000  1
  C  C3  1  0.17128200  0.65862800  0.87036000  1
  C  C4  1  0.96030900  0.96030900  0.53573900  1
  C  C5  1  0.55219100  0.55219100  0.52336400  1
  Cu  Cu6  1  0.12701200  0.12701200  0.98889100  1
  Cu  Cu7  1  0.64001000  0.64001000  0.99266300  1
