# generated using pymatgen
data_CuNiC4
_symmetry_space_group_name_H-M   'P 1'
_cell_length_a   5.36265600
_cell_length_b   5.13418500
_cell_length_c   5.36142045
_cell_angle_alpha   89.15326360
_cell_angle_beta   90.00000000
_cell_angle_gamma   90.00000000
_symmetry_Int_Tables_number   1
_chemical_formula_structural   CuNiC4
_chemical_formula_sum   'Cu2 Ni2 C8'
_cell_volume   147.59916240
_cell_formula_units_Z   2
loop_
 _symmetry_equiv_pos_site_id
 _symmetry_equiv_pos_as_xyz
  1  'x, y, z'
loop_
 _atom_site_type_symbol
 _atom_site_label
 _atom_site_symmetry_multiplicity
 _atom_site_fract_x
 _atom_site_fract_y
 _atom_site_fract_z
 _atom_site_occupancy
  Ni  Ni0  1  0.75698900  0.00000000  0.75000000  1
  Ni  Ni1  1  0.24301100  0.00000000  0.25000000  1
  Cu  Cu2  1  0.74915200  0.50000000  0.25000000  1
  Cu  Cu3  1  0.25084800  0.50000000  0.75000000  1
  C  C4  1  0.43553000  0.26369700  0.06771500  1
  C  C5  1  0.43553000  0.73630300  0.43228500  1
  C  C6  1  0.93715400  0.26272100  0.94077100  1
  C  C7  1  0.93715400  0.73727900  0.55922900  1
  C  C8  1  0.06284600  0.73727900  0.05922900  1
  C  C9  1  0.06284600  0.26272100  0.44077100  1
  C  C10  1  0.56447000  0.26369700  0.56771500  1
  C  C11  1  0.56447000  0.73630300  0.93228500  1
