# generated using pymatgen
data_CuNiC8
_symmetry_space_group_name_H-M   'P 1'
_cell_length_a   5.55056900
_cell_length_b   5.45648400
_cell_length_c   9.48649744
_cell_angle_alpha   54.81666325
_cell_angle_beta   90.00000000
_cell_angle_gamma   90.00000000
_symmetry_Int_Tables_number   1
_chemical_formula_structural   CuNiC8
_chemical_formula_sum   'Cu2 Ni2 C16'
_cell_volume   234.82505365
_cell_formula_units_Z   2
loop_
 _symmetry_equiv_pos_site_id
 _symmetry_equiv_pos_as_xyz
  1  'x, y, z'
loop_
 _atom_site_type_symbol
 _atom_site_label
 _atom_site_symmetry_multiplicity
 _atom_site_fract_x
 _atom_site_fract_y
 _atom_site_fract_z
 _atom_site_occupancy
  Ni  Ni0  1  0.22613000  0.74565700  0.24992900  1
  Ni  Ni1  1  0.77387000  0.74565700  0.74992900  1
  Cu  Cu2  1  0.70496300  0.26281000  0.25000700  1
  Cu  Cu3  1  0.29503700  0.26281000  0.75000700  1
  C  C4  1  0.24396900  0.50619600  0.99977600  1
  C  C5  1  0.75603100  0.50619600  0.49977600  1
  C  C6  1  0.24497900  0.00942000  0.49695600  1
  C  C7  1  0.75502100  0.00942000  0.99695600  1
  C  C8  1  0.73230200  0.17326300  0.75194700  1
  C  C9  1  0.46989000  0.31470500  0.46214500  1
  C  C10  1  0.46902200  0.74113200  0.03899000  1
  C  C11  1  0.96225200  0.24926200  0.45681000  1
  C  C12  1  0.95731000  0.66380800  0.04435700  1
  C  C13  1  0.23327000  0.83374700  0.74908500  1
  C  C14  1  0.26769800  0.17326300  0.25194700  1
  C  C15  1  0.53011000  0.31470500  0.96214500  1
  C  C16  1  0.53097800  0.74113200  0.53899000  1
  C  C17  1  0.03774800  0.24926200  0.95681000  1
  C  C18  1  0.04269000  0.66380800  0.54435700  1
  C  C19  1  0.76673000  0.83374700  0.24908500  1
