# generated using pymatgen
data_Cu5NiC6
_symmetry_space_group_name_H-M   'P 1'
_cell_length_a   10.75618575
_cell_length_b   10.75618575
_cell_length_c   8.90488893
_cell_angle_alpha   72.38608867
_cell_angle_beta   72.38608867
_cell_angle_gamma   119.78915892
_symmetry_Int_Tables_number   1
_chemical_formula_structural   Cu5NiC6
_chemical_formula_sum   'Cu10 Ni2 C12'
_cell_volume   713.08416409
_cell_formula_units_Z   2
loop_
 _symmetry_equiv_pos_site_id
 _symmetry_equiv_pos_as_xyz
  1  'x, y, z'
loop_
 _atom_site_type_symbol
 _atom_site_label
 _atom_site_symmetry_multiplicity
 _atom_site_fract_x
 _atom_site_fract_y
 _atom_site_fract_z
 _atom_site_occupancy
  Ni  Ni0  1  0.40644600  0.59355400  0.75000000  1
  Ni  Ni1  1  0.59355400  0.40644600  0.25000000  1
  Cu  Cu2  1  0.67028200  0.88746800  0.06029100  1
  Cu  Cu3  1  0.00000000  0.00000000  0.50000000  1
  Cu  Cu4  1  0.32971800  0.11253200  0.93970900  1
  Cu  Cu5  1  0.88746800  0.67028200  0.56029100  1
  Cu  Cu6  1  0.00000000  0.00000000  0.00000000  1
  Cu  Cu7  1  0.11253200  0.32971800  0.43970900  1
  Cu  Cu8  1  0.30260300  0.85187100  0.93192100  1
  Cu  Cu9  1  0.14812900  0.69739700  0.56807900  1
  Cu  Cu10  1  0.69739700  0.14812900  0.06807900  1
  Cu  Cu11  1  0.85187100  0.30260300  0.43192100  1
  C  C12  1  0.77487300  0.45047900  0.07817400  1
  C  C13  1  0.54952100  0.22512700  0.42182600  1
  C  C14  1  0.22512700  0.54952100  0.92182600  1
  C  C15  1  0.45047900  0.77487300  0.57817400  1
  C  C16  1  0.64313700  0.59078300  0.07874100  1
  C  C17  1  0.40921700  0.35686300  0.42125900  1
  C  C18  1  0.27912600  0.46828300  0.68580400  1
  C  C19  1  0.59078300  0.64313700  0.57874100  1
  C  C20  1  0.46828300  0.27912600  0.18580400  1
  C  C21  1  0.72087400  0.53171700  0.31419600  1
  C  C22  1  0.53171700  0.72087400  0.81419600  1
  C  C23  1  0.35686300  0.40921700  0.92125900  1
