# generated using pymatgen
data_CuNi5C8
_symmetry_space_group_name_H-M   'P 1'
_cell_length_a   6.03536485
_cell_length_b   6.03536485
_cell_length_c   6.03536434
_cell_angle_alpha   60.40796050
_cell_angle_beta   60.40796050
_cell_angle_gamma   60.40795478
_symmetry_Int_Tables_number   1
_chemical_formula_structural   CuNi5C8
_chemical_formula_sum   'Cu1 Ni5 C8'
_cell_volume   156.88582373
_cell_formula_units_Z   1
loop_
 _symmetry_equiv_pos_site_id
 _symmetry_equiv_pos_as_xyz
  1  'x, y, z'
loop_
 _atom_site_type_symbol
 _atom_site_label
 _atom_site_symmetry_multiplicity
 _atom_site_fract_x
 _atom_site_fract_y
 _atom_site_fract_z
 _atom_site_occupancy
  Ni  Ni0  1  0.37869200  0.37869200  0.37869200  1
  Ni  Ni1  1  0.62130800  0.62130800  0.62130800  1
  Ni  Ni2  1  0.00000000  0.50000000  0.00000000  1
  Ni  Ni3  1  0.50000000  0.00000000  0.00000000  1
  Ni  Ni4  1  0.00000000  0.00000000  0.50000000  1
  Cu  Cu5  1  0.00000000  0.00000000  0.00000000  1
  C  C6  1  0.75855800  0.75855800  0.75855800  1
  C  C7  1  0.22971100  0.75041700  0.75041700  1
  C  C8  1  0.75041700  0.75041700  0.22971100  1
  C  C9  1  0.75041700  0.22971100  0.75041700  1
  C  C10  1  0.24958300  0.77028900  0.24958300  1
  C  C11  1  0.24958300  0.24958300  0.77028900  1
  C  C12  1  0.77028900  0.24958300  0.24958300  1
  C  C13  1  0.24144200  0.24144200  0.24144200  1
