# generated using pymatgen
data_Cu3NiC2
_symmetry_space_group_name_H-M   'P 1'
_cell_length_a   5.21562114
_cell_length_b   5.21562114
_cell_length_c   6.16542940
_cell_angle_alpha   79.98264900
_cell_angle_beta   79.98264900
_cell_angle_gamma   61.42025257
_symmetry_Int_Tables_number   1
_chemical_formula_structural   Cu3NiC2
_chemical_formula_sum   'Cu6 Ni2 C4'
_cell_volume   144.23465395
_cell_formula_units_Z   2
loop_
 _symmetry_equiv_pos_site_id
 _symmetry_equiv_pos_as_xyz
  1  'x, y, z'
loop_
 _atom_site_type_symbol
 _atom_site_label
 _atom_site_symmetry_multiplicity
 _atom_site_fract_x
 _atom_site_fract_y
 _atom_site_fract_z
 _atom_site_occupancy
  C  C0  1  0.32855800  0.32855800  0.75530900  1
  C  C1  1  0.67144200  0.67144200  0.24469100  1
  C  C2  1  0.00000000  0.00000000  0.00000000  1
  C  C3  1  0.00000000  0.00000000  0.50000000  1
  Ni  Ni4  1  0.66343200  0.66343200  0.75185900  1
  Ni  Ni5  1  0.33656800  0.33656800  0.24814100  1
  Cu  Cu6  1  0.79034300  0.79034300  0.82368200  1
  Cu  Cu7  1  0.18895000  0.61132100  0.28387000  1
  Cu  Cu8  1  0.38867900  0.81105000  0.71613000  1
  Cu  Cu9  1  0.61132100  0.18895000  0.28387000  1
  Cu  Cu10  1  0.81105000  0.38867900  0.71613000  1
  Cu  Cu11  1  0.20965700  0.20965700  0.17631800  1
