# generated using pymatgen
data_CuNiC
_symmetry_space_group_name_H-M   'P 1'
_cell_length_a   6.20339900
_cell_length_b   6.25188000
_cell_length_c   11.18835300
_cell_angle_alpha   90.00000000
_cell_angle_beta   90.00000000
_cell_angle_gamma   90.00000000
_symmetry_Int_Tables_number   1
_chemical_formula_structural   CuNiC
_chemical_formula_sum   'Cu8 Ni8 C8'
_cell_volume   433.91684426
_cell_formula_units_Z   8
loop_
 _symmetry_equiv_pos_site_id
 _symmetry_equiv_pos_as_xyz
  1  'x, y, z'
loop_
 _atom_site_type_symbol
 _atom_site_label
 _atom_site_symmetry_multiplicity
 _atom_site_fract_x
 _atom_site_fract_y
 _atom_site_fract_z
 _atom_site_occupancy
  Ni  Ni0  1  0.99827600  0.60833800  0.11111900  1
  Ni  Ni1  1  0.49827600  0.89166200  0.88888100  1
  Ni  Ni2  1  0.00172400  0.10833800  0.38888100  1
  Ni  Ni3  1  0.50172400  0.39166200  0.61111900  1
  Ni  Ni4  1  0.00172400  0.39166200  0.88888100  1
  Ni  Ni5  1  0.50172400  0.10833800  0.11111900  1
  Ni  Ni6  1  0.99827600  0.89166200  0.61111900  1
  Ni  Ni7  1  0.49827600  0.60833800  0.38888100  1
  Cu  Cu8  1  0.66679500  0.27418300  0.43178000  1
  Cu  Cu9  1  0.16679500  0.22581700  0.56822000  1
  Cu  Cu10  1  0.33320500  0.77418300  0.06822000  1
  Cu  Cu11  1  0.83320500  0.72581700  0.93178000  1
  Cu  Cu12  1  0.33320500  0.72581700  0.56822000  1
  Cu  Cu13  1  0.83320500  0.77418300  0.43178000  1
  Cu  Cu14  1  0.66679500  0.22581700  0.93178000  1
  Cu  Cu15  1  0.16679500  0.27418300  0.06822000  1
  C  C16  1  0.61830100  0.48877600  0.17591100  1
  C  C17  1  0.11830100  0.01122400  0.82408900  1
  C  C18  1  0.38169900  0.98877600  0.32408900  1
  C  C19  1  0.88169900  0.51122400  0.67591100  1
  C  C20  1  0.38169900  0.51122400  0.82408900  1
  C  C21  1  0.88169900  0.98877600  0.17591100  1
  C  C22  1  0.61830100  0.01122400  0.67591100  1
  C  C23  1  0.11830100  0.48877600  0.32408900  1
