# generated using pymatgen
data_Cu4(NiC5)3
_symmetry_space_group_name_H-M   'P 1'
_cell_length_a   9.68110368
_cell_length_b   9.68110368
_cell_length_c   9.68110357
_cell_angle_alpha   54.13775103
_cell_angle_beta   54.13775103
_cell_angle_gamma   54.13774857
_symmetry_Int_Tables_number   1
_chemical_formula_structural   Cu4(NiC5)3
_chemical_formula_sum   'Cu8 Ni6 C30'
_cell_volume   553.78594837
_cell_formula_units_Z   2
loop_
 _symmetry_equiv_pos_site_id
 _symmetry_equiv_pos_as_xyz
  1  'x, y, z'
loop_
 _atom_site_type_symbol
 _atom_site_label
 _atom_site_symmetry_multiplicity
 _atom_site_fract_x
 _atom_site_fract_y
 _atom_site_fract_z
 _atom_site_occupancy
  C  C0  1  0.15140900  0.15140900  0.15140900  1
  C  C1  1  0.34953700  0.34953700  0.34953700  1
  C  C2  1  0.65140900  0.65140900  0.65140900  1
  C  C3  1  0.84953700  0.84953700  0.84953700  1
  Ni  Ni4  1  0.74861300  0.03721000  0.46685100  1
  Ni  Ni5  1  0.03721000  0.46685100  0.74861300  1
  Ni  Ni6  1  0.46685100  0.74861300  0.03721000  1
  Ni  Ni7  1  0.53721000  0.24861300  0.96685100  1
  Ni  Ni8  1  0.96685100  0.53721000  0.24861300  1
  Ni  Ni9  1  0.24861300  0.96685100  0.53721000  1
  Cu  Cu10  1  0.46395200  0.46395200  0.46395200  1
  Cu  Cu11  1  0.64627400  0.45482400  0.46068900  1
  Cu  Cu12  1  0.45482400  0.46068900  0.64627400  1
  Cu  Cu13  1  0.46068900  0.64627400  0.45482400  1
  Cu  Cu14  1  0.95482400  0.14627400  0.96068900  1
  Cu  Cu15  1  0.96068900  0.95482400  0.14627400  1
  Cu  Cu16  1  0.14627400  0.96068900  0.95482400  1
  Cu  Cu17  1  0.96395200  0.96395200  0.96395200  1
  C  C18  1  0.00547500  0.00547500  0.00547500  1
  C  C19  1  0.50547500  0.50547500  0.50547500  1
  C  C20  1  0.24664900  0.13984200  0.51346700  1
  C  C21  1  0.51346700  0.24664900  0.13984200  1
  C  C22  1  0.13984200  0.51346700  0.24664900  1
  C  C23  1  0.92353600  0.07283800  0.30271300  1
  C  C24  1  0.57609300  0.20187100  0.42838600  1
  C  C25  1  0.74664900  0.01346700  0.63984200  1
  C  C26  1  0.07283800  0.30271300  0.92353600  1
  C  C27  1  0.20187100  0.42838600  0.57609300  1
  C  C28  1  0.42838600  0.57609300  0.20187100  1
  C  C29  1  0.70187100  0.07609300  0.92838600  1
  C  C30  1  0.36441200  0.25139200  0.98786700  1
  C  C31  1  0.01346700  0.63984200  0.74664900  1
  C  C32  1  0.98786700  0.36441200  0.25139200  1
  C  C33  1  0.63984200  0.74664900  0.01346700  1
  C  C34  1  0.30271300  0.92353600  0.07283800  1
  C  C35  1  0.57283800  0.42353600  0.80271300  1
  C  C36  1  0.80271300  0.57283800  0.42353600  1
  C  C37  1  0.92838600  0.70187100  0.07609300  1
  C  C38  1  0.25139200  0.98786700  0.36441200  1
  C  C39  1  0.42353600  0.80271300  0.57283800  1
  C  C40  1  0.07609300  0.92838600  0.70187100  1
  C  C41  1  0.86441200  0.48786700  0.75139200  1
  C  C42  1  0.48786700  0.75139200  0.86441200  1
  C  C43  1  0.75139200  0.86441200  0.48786700  1
