# generated using pymatgen
data_Cu3NiC
_symmetry_space_group_name_H-M   'P 1'
_cell_length_a   4.37156250
_cell_length_b   4.37156250
_cell_length_c   8.37043780
_cell_angle_alpha   71.76304182
_cell_angle_beta   71.76304182
_cell_angle_gamma   72.89891294
_symmetry_Int_Tables_number   1
_chemical_formula_structural   Cu3NiC
_chemical_formula_sum   'Cu6 Ni2 C2'
_cell_volume   140.84579421
_cell_formula_units_Z   2
loop_
 _symmetry_equiv_pos_site_id
 _symmetry_equiv_pos_as_xyz
  1  'x, y, z'
loop_
 _atom_site_type_symbol
 _atom_site_label
 _atom_site_symmetry_multiplicity
 _atom_site_fract_x
 _atom_site_fract_y
 _atom_site_fract_z
 _atom_site_occupancy
  C  C0  1  0.50000000  0.50000000  0.50000000  1
  C  C1  1  0.50000000  0.50000000  0.00000000  1
  Ni  Ni2  1  0.96560000  0.96560000  0.23242300  1
  Ni  Ni3  1  0.03440000  0.03440000  0.76757700  1
  Cu  Cu4  1  0.90276400  0.33615300  0.69626800  1
  Cu  Cu5  1  0.87403600  0.87403600  0.91031800  1
  Cu  Cu6  1  0.33615300  0.90276400  0.69626800  1
  Cu  Cu7  1  0.66384700  0.09723600  0.30373200  1
  Cu  Cu8  1  0.09723600  0.66384700  0.30373200  1
  Cu  Cu9  1  0.12596400  0.12596400  0.08968200  1
