# generated using pymatgen
data_Cu13Ni9C4
_symmetry_space_group_name_H-M   'P 1'
_cell_length_a   4.00078600
_cell_length_b   11.31666700
_cell_length_c   19.51463000
_cell_angle_alpha   90.00000000
_cell_angle_beta   90.00000000
_cell_angle_gamma   90.00000000
_symmetry_Int_Tables_number   1
_chemical_formula_structural   Cu13Ni9C4
_chemical_formula_sum   'Cu26 Ni18 C8'
_cell_volume   883.53585804
_cell_formula_units_Z   2
loop_
 _symmetry_equiv_pos_site_id
 _symmetry_equiv_pos_as_xyz
  1  'x, y, z'
loop_
 _atom_site_type_symbol
 _atom_site_label
 _atom_site_symmetry_multiplicity
 _atom_site_fract_x
 _atom_site_fract_y
 _atom_site_fract_z
 _atom_site_occupancy
  C  C0  1  0.50000000  0.50000000  0.02267400  1
  C  C1  1  0.00000000  0.00000000  0.97732600  1
  C  C2  1  0.00000000  0.19127400  0.79243400  1
  C  C3  1  0.50000000  0.30872600  0.20756600  1
  C  C4  1  0.50000000  0.69127400  0.20756600  1
  C  C5  1  0.00000000  0.80872600  0.79243400  1
  C  C6  1  0.00000000  0.50000000  0.48093400  1
  C  C7  1  0.50000000  0.00000000  0.51906600  1
  Ni  Ni8  1  0.50000000  0.18626100  0.91873900  1
  Ni  Ni9  1  0.00000000  0.00000000  0.39884000  1
  Ni  Ni10  1  0.50000000  0.50000000  0.60116000  1
  Ni  Ni11  1  0.50000000  0.00000000  0.09978100  1
  Ni  Ni12  1  0.00000000  0.50000000  0.90021900  1
  Ni  Ni13  1  0.00000000  0.82044800  0.58461900  1
  Ni  Ni14  1  0.50000000  0.67955200  0.41538100  1
  Ni  Ni15  1  0.50000000  0.32044800  0.41538100  1
  Ni  Ni16  1  0.00000000  0.31373900  0.08126100  1
  Ni  Ni17  1  0.00000000  0.68626100  0.08126100  1
  Ni  Ni18  1  0.50000000  0.81373900  0.91873900  1
  Ni  Ni19  1  0.00000000  0.50000000  0.26534500  1
  Ni  Ni20  1  0.00000000  0.17955200  0.58461900  1
  Ni  Ni21  1  0.50000000  0.00000000  0.73465500  1
  Ni  Ni22  1  0.50000000  0.36974000  0.73115800  1
  Ni  Ni23  1  0.50000000  0.63026000  0.73115800  1
  Ni  Ni24  1  0.00000000  0.86974000  0.26884200  1
  Ni  Ni25  1  0.00000000  0.13026000  0.26884200  1
  Cu  Cu26  1  0.50000000  0.20035400  0.04605700  1
  Cu  Cu27  1  0.50000000  0.69037200  0.53981300  1
  Cu  Cu28  1  0.50000000  0.30962800  0.53981300  1
  Cu  Cu29  1  0.00000000  0.19037200  0.46018700  1
  Cu  Cu30  1  0.50000000  0.87266600  0.35446900  1
  Cu  Cu31  1  0.00000000  0.62733400  0.64553100  1
  Cu  Cu32  1  0.00000000  0.37266600  0.64553100  1
  Cu  Cu33  1  0.50000000  0.12733400  0.35446900  1
  Cu  Cu34  1  0.00000000  0.29964600  0.95394300  1
  Cu  Cu35  1  0.00000000  0.70035400  0.95394300  1
  Cu  Cu36  1  0.50000000  0.79964600  0.04605700  1
  Cu  Cu37  1  0.50000000  0.50000000  0.34238600  1
  Cu  Cu38  1  0.00000000  0.00000000  0.65761400  1
  Cu  Cu39  1  0.00000000  0.50000000  0.14100600  1
  Cu  Cu40  1  0.50000000  0.00000000  0.85899400  1
  Cu  Cu41  1  0.00000000  0.50000000  0.77295000  1
  Cu  Cu42  1  0.50000000  0.00000000  0.22705000  1
  Cu  Cu43  1  0.50000000  0.18294400  0.66467400  1
  Cu  Cu44  1  0.00000000  0.31705600  0.33532600  1
  Cu  Cu45  1  0.00000000  0.68294400  0.33532600  1
  Cu  Cu46  1  0.50000000  0.81705600  0.66467400  1
  Cu  Cu47  1  0.00000000  0.12390900  0.14205800  1
  Cu  Cu48  1  0.50000000  0.37609100  0.85794200  1
  Cu  Cu49  1  0.50000000  0.62390900  0.85794200  1
  Cu  Cu50  1  0.00000000  0.87609100  0.14205800  1
  Cu  Cu51  1  0.00000000  0.80962800  0.46018700  1
