# generated using pymatgen
data_Cu2Ni2C3
_symmetry_space_group_name_H-M   'P 1'
_cell_length_a   9.91577641
_cell_length_b   9.91577641
_cell_length_c   9.91577641
_cell_angle_alpha   121.50768188
_cell_angle_beta   121.50768188
_cell_angle_gamma   87.40787102
_symmetry_Int_Tables_number   1
_chemical_formula_structural   Cu2Ni2C3
_chemical_formula_sum   'Cu8 Ni8 C12'
_cell_volume   672.93160381
_cell_formula_units_Z   4
loop_
 _symmetry_equiv_pos_site_id
 _symmetry_equiv_pos_as_xyz
  1  'x, y, z'
loop_
 _atom_site_type_symbol
 _atom_site_label
 _atom_site_symmetry_multiplicity
 _atom_site_fract_x
 _atom_site_fract_y
 _atom_site_fract_z
 _atom_site_occupancy
  Ni  Ni0  1  0.03484000  0.71793100  0.39526900  1
  Ni  Ni1  1  0.32266200  0.63957100  0.60473100  1
  Ni  Ni2  1  0.53484000  0.13957100  0.31690900  1
  Ni  Ni3  1  0.28206900  0.67733800  0.31690900  1
  Ni  Ni4  1  0.36042900  0.96516000  0.68309100  1
  Ni  Ni5  1  0.78206900  0.46516000  0.60473100  1
  Ni  Ni6  1  0.86042900  0.17733800  0.39526900  1
  Ni  Ni7  1  0.82266200  0.21793100  0.68309100  1
  Cu  Cu8  1  0.80696000  0.68340800  0.28426400  1
  Cu  Cu9  1  0.89914400  0.18340800  0.87644800  1
  Cu  Cu10  1  0.31659200  0.60085600  0.12355200  1
  Cu  Cu11  1  0.47730400  0.19304000  0.87644800  1
  Cu  Cu12  1  0.81659200  0.69304000  0.71573600  1
  Cu  Cu13  1  0.97730400  0.10085600  0.28426400  1
  Cu  Cu14  1  0.30696000  0.02269600  0.12355200  1
  Cu  Cu15  1  0.39914400  0.52269600  0.71573600  1
  C  C16  1  0.12507700  0.62507700  0.50000000  1
  C  C17  1  0.84101200  0.41027900  0.75192100  1
  C  C18  1  0.65835900  0.08909200  0.24807900  1
  C  C19  1  0.58972100  0.34164100  0.43073300  1
  C  C20  1  0.34101200  0.58909200  0.43073300  1
  C  C21  1  0.15835900  0.91027900  0.56926700  1
  C  C22  1  0.91090800  0.15898800  0.56926700  1
  C  C23  1  0.41090800  0.84164100  0.75192100  1
  C  C24  1  0.37492300  0.87492300  0.50000000  1
  C  C25  1  0.87492300  0.37492300  0.50000000  1
  C  C26  1  0.62507700  0.12507700  0.50000000  1
  C  C27  1  0.08972100  0.65898800  0.24807900  1
