# generated using pymatgen
data_Cu6Ni2C3
_symmetry_space_group_name_H-M   'P 1'
_cell_length_a   8.09309000
_cell_length_b   8.55235500
_cell_length_c   10.60663800
_cell_angle_alpha   90.00000000
_cell_angle_beta   90.00000000
_cell_angle_gamma   90.00000000
_symmetry_Int_Tables_number   1
_chemical_formula_structural   Cu6Ni2C3
_chemical_formula_sum   'Cu24 Ni8 C12'
_cell_volume   734.13822353
_cell_formula_units_Z   4
loop_
 _symmetry_equiv_pos_site_id
 _symmetry_equiv_pos_as_xyz
  1  'x, y, z'
loop_
 _atom_site_type_symbol
 _atom_site_label
 _atom_site_symmetry_multiplicity
 _atom_site_fract_x
 _atom_site_fract_y
 _atom_site_fract_z
 _atom_site_occupancy
  C  C0  1  0.56297000  0.94520900  0.13871000  1
  C  C1  1  0.06297000  0.55479100  0.36129000  1
  C  C2  1  0.43703000  0.44520900  0.86129000  1
  C  C3  1  0.93703000  0.05479100  0.63871000  1
  C  C4  1  0.43703000  0.05479100  0.86129000  1
  C  C5  1  0.93703000  0.44520900  0.63871000  1
  C  C6  1  0.56297000  0.55479100  0.13871000  1
  C  C7  1  0.06297000  0.94520900  0.36129000  1
  C  C8  1  0.95779200  0.75000000  0.06302800  1
  C  C9  1  0.45779200  0.75000000  0.43697200  1
  C  C10  1  0.04220800  0.25000000  0.93697200  1
  C  C11  1  0.54220800  0.25000000  0.56302800  1
  Ni  Ni12  1  0.36245900  0.75000000  0.73427500  1
  Ni  Ni13  1  0.86245900  0.75000000  0.76572500  1
  Ni  Ni14  1  0.63754100  0.25000000  0.26572500  1
  Ni  Ni15  1  0.13754100  0.25000000  0.23427500  1
  Ni  Ni16  1  0.31026400  0.75000000  0.98299400  1
  Ni  Ni17  1  0.81026400  0.75000000  0.51700600  1
  Ni  Ni18  1  0.68973600  0.25000000  0.01700600  1
  Ni  Ni19  1  0.18973600  0.25000000  0.48299400  1
  Cu  Cu20  1  0.70493300  0.49480200  0.41334300  1
  Cu  Cu21  1  0.20493300  0.00519800  0.08665700  1
  Cu  Cu22  1  0.29506700  0.99480200  0.58665700  1
  Cu  Cu23  1  0.79506700  0.50519800  0.91334300  1
  Cu  Cu24  1  0.20493300  0.49480200  0.08665700  1
  Cu  Cu25  1  0.70493300  0.00519800  0.41334300  1
  Cu  Cu26  1  0.79506700  0.99480200  0.91334300  1
  Cu  Cu27  1  0.29506700  0.50519800  0.58665700  1
  Cu  Cu28  1  0.88213400  0.41657600  0.15457800  1
  Cu  Cu29  1  0.38213400  0.08342400  0.34542200  1
  Cu  Cu30  1  0.11786600  0.91657600  0.84542200  1
  Cu  Cu31  1  0.61786600  0.58342400  0.65457800  1
  Cu  Cu32  1  0.11786600  0.58342400  0.84542200  1
  Cu  Cu33  1  0.61786600  0.91657600  0.65457800  1
  Cu  Cu34  1  0.88213400  0.08342400  0.15457800  1
  Cu  Cu35  1  0.38213400  0.41657600  0.34542200  1
  Cu  Cu36  1  0.09497400  0.75000000  0.58606300  1
  Cu  Cu37  1  0.59497400  0.75000000  0.91393700  1
  Cu  Cu38  1  0.90502600  0.25000000  0.41393700  1
  Cu  Cu39  1  0.40502600  0.25000000  0.08606300  1
  Cu  Cu40  1  0.77826100  0.75000000  0.28141800  1
  Cu  Cu41  1  0.27826100  0.75000000  0.21858200  1
  Cu  Cu42  1  0.22173900  0.25000000  0.71858200  1
  Cu  Cu43  1  0.72173900  0.25000000  0.78141800  1
