# generated using pymatgen
data_Cu4Ni29
_symmetry_space_group_name_H-M   'P 1'
_cell_length_a   14.20899823
_cell_length_b   14.20899823
_cell_length_c   14.20899823
_cell_angle_alpha   60.00000000
_cell_angle_beta   60.00000000
_cell_angle_gamma   60.00000000
_symmetry_Int_Tables_number   1
_chemical_formula_structural   Cu4Ni29
_chemical_formula_sum   'Cu12 Ni87'
_cell_volume   2028.50172960
_cell_formula_units_Z   3
loop_
 _symmetry_equiv_pos_site_id
 _symmetry_equiv_pos_as_xyz
  1  'x, y, z'
loop_
 _atom_site_type_symbol
 _atom_site_label
 _atom_site_symmetry_multiplicity
 _atom_site_fract_x
 _atom_site_fract_y
 _atom_site_fract_z
 _atom_site_occupancy
  Ni  Ni0  1  0.84048500  0.26220800  0.84048500  1
  Ni  Ni1  1  0.05682200  0.84048500  0.84048500  1
  Ni  Ni2  1  0.84048500  0.05682200  0.26220800  1
  Ni  Ni3  1  0.26220800  0.05682200  0.84048500  1
  Ni  Ni4  1  0.84048500  0.84048500  0.05682200  1
  Ni  Ni5  1  0.26220800  0.84048500  0.05682200  1
  Ni  Ni6  1  0.05682200  0.84048500  0.26220800  1
  Ni  Ni7  1  0.84048500  0.26220800  0.05682200  1
  Ni  Ni8  1  0.05682200  0.26220800  0.84048500  1
  Ni  Ni9  1  0.84048500  0.84048500  0.26220800  1
  Ni  Ni10  1  0.26220800  0.84048500  0.84048500  1
  Ni  Ni11  1  0.84048500  0.05682200  0.84048500  1
  Ni  Ni12  1  0.23113300  0.96890600  0.23113300  1
  Ni  Ni13  1  0.56882900  0.23113300  0.23113300  1
  Ni  Ni14  1  0.23113300  0.56882900  0.96890600  1
  Ni  Ni15  1  0.96890600  0.56882900  0.23113300  1
  Ni  Ni16  1  0.23113300  0.23113300  0.56882900  1
  Ni  Ni17  1  0.96890600  0.23113300  0.56882900  1
  Ni  Ni18  1  0.56882900  0.23113300  0.96890600  1
  Ni  Ni19  1  0.23113300  0.96890600  0.56882900  1
  Ni  Ni20  1  0.56882900  0.96890600  0.23113300  1
  Ni  Ni21  1  0.23113300  0.23113300  0.96890600  1
  Ni  Ni22  1  0.96890600  0.23113300  0.23113300  1
  Ni  Ni23  1  0.23113300  0.56882900  0.23113300  1
  Ni  Ni24  1  0.71604300  0.49851800  0.71604300  1
  Ni  Ni25  1  0.06939500  0.71604300  0.71604300  1
  Ni  Ni26  1  0.71604300  0.06939500  0.49851800  1
  Ni  Ni27  1  0.49851800  0.06939500  0.71604300  1
  Ni  Ni28  1  0.71604300  0.71604300  0.06939500  1
  Ni  Ni29  1  0.49851800  0.71604300  0.06939500  1
  Ni  Ni30  1  0.06939500  0.71604300  0.49851800  1
  Ni  Ni31  1  0.71604300  0.49851800  0.06939500  1
  Ni  Ni32  1  0.06939500  0.49851800  0.71604300  1
  Ni  Ni33  1  0.71604300  0.71604300  0.49851800  1
  Ni  Ni34  1  0.49851800  0.71604300  0.71604300  1
  Ni  Ni35  1  0.71604300  0.06939500  0.71604300  1
  Ni  Ni36  1  0.47905400  0.82735900  0.47905400  1
  Ni  Ni37  1  0.21453400  0.47905400  0.47905400  1
  Ni  Ni38  1  0.47905400  0.21453400  0.82735900  1
  Ni  Ni39  1  0.82735900  0.21453400  0.47905400  1
  Ni  Ni40  1  0.47905400  0.47905400  0.21453400  1
  Ni  Ni41  1  0.82735900  0.47905400  0.21453400  1
  Ni  Ni42  1  0.21453400  0.47905400  0.82735900  1
  Ni  Ni43  1  0.47905400  0.82735900  0.21453400  1
  Ni  Ni44  1  0.21453400  0.82735900  0.47905400  1
  Ni  Ni45  1  0.47905400  0.47905400  0.82735900  1
  Ni  Ni46  1  0.82735900  0.47905400  0.47905400  1
  Ni  Ni47  1  0.47905400  0.21453400  0.47905400  1
  Ni  Ni48  1  0.98028800  0.40565500  0.98028800  1
  Ni  Ni49  1  0.63376900  0.98028800  0.98028800  1
  Ni  Ni50  1  0.98028800  0.63376900  0.40565500  1
  Ni  Ni51  1  0.40565500  0.63376900  0.98028800  1
  Ni  Ni52  1  0.98028800  0.98028800  0.63376900  1
  Ni  Ni53  1  0.40565500  0.98028800  0.63376900  1
  Ni  Ni54  1  0.63376900  0.98028800  0.40565500  1
  Ni  Ni55  1  0.98028800  0.40565500  0.63376900  1
  Ni  Ni56  1  0.63376900  0.40565500  0.98028800  1
  Ni  Ni57  1  0.98028800  0.98028800  0.40565500  1
  Ni  Ni58  1  0.40565500  0.98028800  0.98028800  1
  Ni  Ni59  1  0.98028800  0.63376900  0.98028800  1
  Ni  Ni60  1  0.85662300  0.64337700  0.64337700  1
  Ni  Ni61  1  0.85662300  0.64337700  0.85662300  1
  Ni  Ni62  1  0.64337700  0.85662300  0.64337700  1
  Ni  Ni63  1  0.64337700  0.85662300  0.85662300  1
  Ni  Ni64  1  0.64337700  0.64337700  0.85662300  1
  Ni  Ni65  1  0.85662300  0.85662300  0.64337700  1
  Ni  Ni66  1  0.36646500  0.13353500  0.13353500  1
  Ni  Ni67  1  0.36646500  0.13353500  0.36646500  1
  Ni  Ni68  1  0.13353500  0.36646500  0.13353500  1
  Ni  Ni69  1  0.13353500  0.36646500  0.36646500  1
  Ni  Ni70  1  0.13353500  0.13353500  0.36646500  1
  Ni  Ni71  1  0.36646500  0.36646500  0.13353500  1
  Ni  Ni72  1  0.68004600  0.31995400  0.31995400  1
  Ni  Ni73  1  0.68004600  0.31995400  0.68004600  1
  Ni  Ni74  1  0.31995400  0.68004600  0.31995400  1
  Ni  Ni75  1  0.31995400  0.68004600  0.68004600  1
  Ni  Ni76  1  0.31995400  0.31995400  0.68004600  1
  Ni  Ni77  1  0.68004600  0.68004600  0.31995400  1
  Ni  Ni78  1  0.44843800  0.65468700  0.44843800  1
  Ni  Ni79  1  0.44843800  0.44843800  0.44843800  1
  Ni  Ni80  1  0.44843800  0.44843800  0.65468700  1
  Ni  Ni81  1  0.65468700  0.44843800  0.44843800  1
  Ni  Ni82  1  0.08497100  0.74508800  0.08497100  1
  Ni  Ni83  1  0.08497100  0.08497100  0.08497100  1
  Ni  Ni84  1  0.08497100  0.08497100  0.74508800  1
  Ni  Ni85  1  0.74508800  0.08497100  0.08497100  1
  Ni  Ni86  1  0.00000000  0.00000000  0.00000000  1
  Cu  Cu87  1  0.84958300  0.45125200  0.84958300  1
  Cu  Cu88  1  0.84958300  0.84958300  0.84958300  1
  Cu  Cu89  1  0.84958300  0.84958300  0.45125200  1
  Cu  Cu90  1  0.45125200  0.84958300  0.84958300  1
  Cu  Cu91  1  0.58231700  0.25305000  0.58231700  1
  Cu  Cu92  1  0.58231700  0.58231700  0.58231700  1
  Cu  Cu93  1  0.58231700  0.58231700  0.25305000  1
  Cu  Cu94  1  0.25305000  0.58231700  0.58231700  1
  Cu  Cu95  1  0.34499200  0.96502400  0.34499200  1
  Cu  Cu96  1  0.34499200  0.34499200  0.34499200  1
  Cu  Cu97  1  0.34499200  0.34499200  0.96502400  1
  Cu  Cu98  1  0.96502400  0.34499200  0.34499200  1
