# generated using pymatgen
data_Cu3NiC19
_symmetry_space_group_name_H-M   'P 1'
_cell_length_a   8.70421721
_cell_length_b   8.70421721
_cell_length_c   5.31931300
_cell_angle_alpha   90.00000000
_cell_angle_beta   90.00000000
_cell_angle_gamma   119.99999402
_symmetry_Int_Tables_number   1
_chemical_formula_structural   Cu3NiC19
_chemical_formula_sum   'Cu3 Ni1 C19'
_cell_volume   349.01624713
_cell_formula_units_Z   1
loop_
 _symmetry_equiv_pos_site_id
 _symmetry_equiv_pos_as_xyz
  1  'x, y, z'
loop_
 _atom_site_type_symbol
 _atom_site_label
 _atom_site_symmetry_multiplicity
 _atom_site_fract_x
 _atom_site_fract_y
 _atom_site_fract_z
 _atom_site_occupancy
  C  C0  1  0.57137100  0.57137100  0.00000000  1
  C  C1  1  0.42862900  0.00000000  0.00000000  1
  C  C2  1  0.00000000  0.42862900  0.00000000  1
  Ni  Ni3  1  0.00000000  0.00000000  0.00000000  1
  Cu  Cu4  1  0.00000000  0.74448600  0.50000000  1
  Cu  Cu5  1  0.25551400  0.25551400  0.50000000  1
  Cu  Cu6  1  0.74448600  0.00000000  0.50000000  1
  C  C7  1  0.66666700  0.33333300  0.47652400  1
  C  C8  1  0.33333300  0.66666700  0.52347600  1
  C  C9  1  0.17595900  0.69880400  0.64820000  1
  C  C10  1  0.52284400  0.82404100  0.64820000  1
  C  C11  1  0.47715600  0.30119600  0.35180000  1
  C  C12  1  0.88813700  0.78337300  0.77639300  1
  C  C13  1  0.33333300  0.66666700  0.22026300  1
  C  C14  1  0.11186300  0.89523600  0.22360700  1
  C  C15  1  0.30119600  0.47715600  0.64820000  1
  C  C16  1  0.21662700  0.10476400  0.77639300  1
  C  C17  1  0.10476400  0.21662700  0.22360700  1
  C  C18  1  0.66666700  0.33333300  0.77973700  1
  C  C19  1  0.82404100  0.52284400  0.35180000  1
  C  C20  1  0.69880400  0.17595900  0.35180000  1
  C  C21  1  0.78337300  0.88813700  0.22360700  1
  C  C22  1  0.89523600  0.11186300  0.77639300  1
