# generated using pymatgen
data_Cu4NiC3
_symmetry_space_group_name_H-M   'P 1'
_cell_length_a   9.25380000
_cell_length_b   9.62351300
_cell_length_c   10.72065600
_cell_angle_alpha   90.00000000
_cell_angle_beta   90.00000000
_cell_angle_gamma   90.00000000
_symmetry_Int_Tables_number   1
_chemical_formula_structural   Cu4NiC3
_chemical_formula_sum   'Cu16 Ni4 C12'
_cell_volume   954.71799197
_cell_formula_units_Z   4
loop_
 _symmetry_equiv_pos_site_id
 _symmetry_equiv_pos_as_xyz
  1  'x, y, z'
loop_
 _atom_site_type_symbol
 _atom_site_label
 _atom_site_symmetry_multiplicity
 _atom_site_fract_x
 _atom_site_fract_y
 _atom_site_fract_z
 _atom_site_occupancy
  C  C0  1  0.93367400  0.70092500  0.95509200  1
  C  C1  1  0.36490800  0.57382000  0.25000000  1
  C  C2  1  0.86490800  0.92618000  0.25000000  1
  C  C3  1  0.13509200  0.07382000  0.75000000  1
  C  C4  1  0.93367400  0.70092500  0.54490800  1
  C  C5  1  0.06632600  0.29907500  0.04490800  1
  C  C6  1  0.56632600  0.20092500  0.04490800  1
  C  C7  1  0.43367400  0.79907500  0.54490800  1
  C  C8  1  0.43367400  0.79907500  0.95509200  1
  C  C9  1  0.06632600  0.29907500  0.45509200  1
  C  C10  1  0.56632600  0.20092500  0.45509200  1
  C  C11  1  0.63509200  0.42618000  0.75000000  1
  Ni  Ni12  1  0.72095400  0.98044500  0.75000000  1
  Ni  Ni13  1  0.27904600  0.01955500  0.25000000  1
  Ni  Ni14  1  0.77904600  0.48044500  0.25000000  1
  Ni  Ni15  1  0.22095400  0.51955500  0.75000000  1
  Cu  Cu16  1  0.84268500  0.03224000  0.58084700  1
  Cu  Cu17  1  0.15731500  0.96776000  0.08084700  1
  Cu  Cu18  1  0.65731500  0.53224000  0.08084700  1
  Cu  Cu19  1  0.34268500  0.46776000  0.58084700  1
  Cu  Cu20  1  0.51301800  0.09269500  0.75000000  1
  Cu  Cu21  1  0.48698200  0.90730500  0.25000000  1
  Cu  Cu22  1  0.98698200  0.59269500  0.25000000  1
  Cu  Cu23  1  0.01301800  0.40730500  0.75000000  1
  Cu  Cu24  1  0.84268500  0.03224000  0.91915300  1
  Cu  Cu25  1  0.15731500  0.96776000  0.41915300  1
  Cu  Cu26  1  0.65731500  0.53224000  0.41915300  1
  Cu  Cu27  1  0.34268500  0.46776000  0.91915300  1
  Cu  Cu28  1  0.67974500  0.75552200  0.75000000  1
  Cu  Cu29  1  0.17974500  0.74447800  0.75000000  1
  Cu  Cu30  1  0.82025500  0.25552200  0.25000000  1
  Cu  Cu31  1  0.32025500  0.24447800  0.25000000  1
