# generated using pymatgen
data_Cu4NiC
_symmetry_space_group_name_H-M   'P 1'
_cell_length_a   5.44964600
_cell_length_b   5.44964600
_cell_length_c   7.18613055
_cell_angle_alpha   112.28277874
_cell_angle_beta   112.28277874
_cell_angle_gamma   90.00000000
_symmetry_Int_Tables_number   1
_chemical_formula_structural   Cu4NiC
_chemical_formula_sum   'Cu8 Ni2 C2'
_cell_volume   180.13921878
_cell_formula_units_Z   2
loop_
 _symmetry_equiv_pos_site_id
 _symmetry_equiv_pos_as_xyz
  1  'x, y, z'
loop_
 _atom_site_type_symbol
 _atom_site_label
 _atom_site_symmetry_multiplicity
 _atom_site_fract_x
 _atom_site_fract_y
 _atom_site_fract_z
 _atom_site_occupancy
  C  C0  1  0.50000000  0.50000000  0.00000000  1
  C  C1  1  0.75000000  0.25000000  0.50000000  1
  Ni  Ni2  1  0.25000000  0.75000000  0.50000000  1
  Ni  Ni3  1  0.00000000  0.00000000  0.00000000  1
  Cu  Cu4  1  0.31949100  0.93394700  0.16294600  1
  Cu  Cu5  1  0.47899900  0.06949100  0.66294700  1
  Cu  Cu6  1  0.18394700  0.59345600  0.66294600  1
  Cu  Cu7  1  0.84345600  0.22899900  0.16294700  1
  Cu  Cu8  1  0.40654400  0.52100100  0.33705300  1
  Cu  Cu9  1  0.06605300  0.15654400  0.83705400  1
  Cu  Cu10  1  0.77100100  0.68050900  0.83705300  1
  Cu  Cu11  1  0.93050900  0.81605300  0.33705400  1
