# generated using pymatgen
data_Cu2NiC4
_symmetry_space_group_name_H-M   'P 1'
_cell_length_a   3.48858600
_cell_length_b   10.52326100
_cell_length_c   12.24543800
_cell_angle_alpha   90.00000000
_cell_angle_beta   90.00000000
_cell_angle_gamma   90.00000000
_symmetry_Int_Tables_number   1
_chemical_formula_structural   Cu2NiC4
_chemical_formula_sum   'Cu8 Ni4 C16'
_cell_volume   449.54596028
_cell_formula_units_Z   4
loop_
 _symmetry_equiv_pos_site_id
 _symmetry_equiv_pos_as_xyz
  1  'x, y, z'
loop_
 _atom_site_type_symbol
 _atom_site_label
 _atom_site_symmetry_multiplicity
 _atom_site_fract_x
 _atom_site_fract_y
 _atom_site_fract_z
 _atom_site_occupancy
  Ni  Ni0  1  0.25000000  0.75341900  0.35105000  1
  Ni  Ni1  1  0.75000000  0.24658100  0.64895000  1
  Ni  Ni2  1  0.25000000  0.25341900  0.14895000  1
  Ni  Ni3  1  0.75000000  0.74658100  0.85105000  1
  Cu  Cu4  1  0.25000000  0.42659700  0.38906700  1
  Cu  Cu5  1  0.75000000  0.57340300  0.61093300  1
  Cu  Cu6  1  0.25000000  0.92659700  0.11093300  1
  Cu  Cu7  1  0.75000000  0.07340300  0.88906700  1
  Cu  Cu8  1  0.75000000  0.07775200  0.39098600  1
  Cu  Cu9  1  0.25000000  0.92224800  0.60901400  1
  Cu  Cu10  1  0.75000000  0.57775200  0.10901400  1
  Cu  Cu11  1  0.25000000  0.42224800  0.89098600  1
  C  C12  1  0.75000000  0.29076000  0.34086400  1
  C  C13  1  0.25000000  0.70924000  0.65913600  1
  C  C14  1  0.75000000  0.79076000  0.15913600  1
  C  C15  1  0.25000000  0.20924000  0.84086400  1
  C  C16  1  0.75000000  0.38433000  0.01847000  1
  C  C17  1  0.25000000  0.61567000  0.98153000  1
  C  C18  1  0.75000000  0.88433000  0.48153000  1
  C  C19  1  0.25000000  0.11567000  0.51847000  1
  C  C20  1  0.75000000  0.98104000  0.71708400  1
  C  C21  1  0.25000000  0.01896000  0.28291600  1
  C  C22  1  0.75000000  0.48104000  0.78291600  1
  C  C23  1  0.25000000  0.51896000  0.21708400  1
  C  C24  1  0.75000000  0.07096600  0.07412500  1
  C  C25  1  0.25000000  0.92903400  0.92587500  1
  C  C26  1  0.75000000  0.57096600  0.42587500  1
  C  C27  1  0.25000000  0.42903400  0.57412500  1
