# generated using pymatgen
data_Cu(NiC2)3
_symmetry_space_group_name_H-M   'P 1'
_cell_length_a   12.03475666
_cell_length_b   12.03475666
_cell_length_c   12.03475666
_cell_angle_alpha   109.47122063
_cell_angle_beta   109.47122063
_cell_angle_gamma   109.47122063
_symmetry_Int_Tables_number   1
_chemical_formula_structural   Cu(NiC2)3
_chemical_formula_sum   'Cu8 Ni24 C48'
_cell_volume   1341.80698969
_cell_formula_units_Z   8
loop_
 _symmetry_equiv_pos_site_id
 _symmetry_equiv_pos_as_xyz
  1  'x, y, z'
loop_
 _atom_site_type_symbol
 _atom_site_label
 _atom_site_symmetry_multiplicity
 _atom_site_fract_x
 _atom_site_fract_y
 _atom_site_fract_z
 _atom_site_occupancy
  Ni  Ni0  1  0.17252000  0.82521900  0.74739800  1
  Ni  Ni1  1  0.92217900  0.67478100  0.84730100  1
  Ni  Ni2  1  0.32748000  0.07487800  0.65269900  1
  Ni  Ni3  1  0.42512200  0.75260200  0.57782100  1
  Ni  Ni4  1  0.75260200  0.57782100  0.42512200  1
  Ni  Ni5  1  0.74739800  0.17252000  0.82521900  1
  Ni  Ni6  1  0.67478100  0.84730100  0.92217900  1
  Ni  Ni7  1  0.65269900  0.32748000  0.07487800  1
  Ni  Ni8  1  0.82521900  0.74739800  0.17252000  1
  Ni  Ni9  1  0.84730100  0.92217900  0.67478100  1
  Ni  Ni10  1  0.07487800  0.65269900  0.32748000  1
  Ni  Ni11  1  0.57782100  0.42512200  0.75260200  1
  Ni  Ni12  1  0.82748000  0.17478100  0.25260200  1
  Ni  Ni13  1  0.07782100  0.32521900  0.15269900  1
  Ni  Ni14  1  0.67252000  0.92512200  0.34730100  1
  Ni  Ni15  1  0.57487800  0.24739800  0.42217900  1
  Ni  Ni16  1  0.24739800  0.42217900  0.57487800  1
  Ni  Ni17  1  0.25260200  0.82748000  0.17478100  1
  Ni  Ni18  1  0.32521900  0.15269900  0.07782100  1
  Ni  Ni19  1  0.34730100  0.67252000  0.92512200  1
  Ni  Ni20  1  0.17478100  0.25260200  0.82748000  1
  Ni  Ni21  1  0.15269900  0.07782100  0.32521900  1
  Ni  Ni22  1  0.92512200  0.34730100  0.67252000  1
  Ni  Ni23  1  0.42217900  0.57487800  0.24739800  1
  Cu  Cu24  1  0.50000000  0.00000000  0.00000000  1
  Cu  Cu25  1  0.00000000  0.00000000  0.50000000  1
  Cu  Cu26  1  0.00000000  0.50000000  0.00000000  1
  Cu  Cu27  1  0.50000000  0.50000000  0.50000000  1
  Cu  Cu28  1  0.50000000  0.00000000  0.50000000  1
  Cu  Cu29  1  0.00000000  0.00000000  0.00000000  1
  Cu  Cu30  1  0.00000000  0.50000000  0.50000000  1
  Cu  Cu31  1  0.50000000  0.50000000  0.00000000  1
  C  C32  1  0.49638900  0.85557400  0.85612200  1
  C  C33  1  0.00054700  0.64442600  0.14081400  1
  C  C34  1  0.00361100  0.85973300  0.35918600  1
  C  C35  1  0.64026700  0.64387800  0.49945300  1
  C  C36  1  0.64387800  0.49945300  0.64026700  1
  C  C37  1  0.85612200  0.49638900  0.85557400  1
  C  C38  1  0.64442600  0.14081400  0.00054700  1
  C  C39  1  0.35918600  0.00361100  0.85973300  1
  C  C40  1  0.85557400  0.85612200  0.49638900  1
  C  C41  1  0.14081400  0.00054700  0.64442600  1
  C  C42  1  0.85973300  0.35918600  0.00361100  1
  C  C43  1  0.49945300  0.64026700  0.64387800  1
  C  C44  1  0.50361100  0.14442600  0.14387800  1
  C  C45  1  0.99945300  0.35557400  0.85918600  1
  C  C46  1  0.99638900  0.14026700  0.64081400  1
  C  C47  1  0.35973300  0.35612200  0.50054700  1
  C  C48  1  0.35612200  0.50054700  0.35973300  1
  C  C49  1  0.14387800  0.50361100  0.14442600  1
  C  C50  1  0.35557400  0.85918600  0.99945300  1
  C  C51  1  0.50183400  0.64552600  0.14034700  1
  C  C52  1  0.64081400  0.99638900  0.14026700  1
  C  C53  1  0.85918600  0.99945300  0.35557400  1
  C  C54  1  0.14026700  0.64081400  0.99638900  1
  C  C55  1  0.50054700  0.35973300  0.35612200  1
  C  C56  1  0.14034700  0.50183400  0.64552600  1
  C  C57  1  0.14369300  0.99816600  0.13851300  1
  C  C58  1  0.35965300  0.00518000  0.36148700  1
  C  C59  1  0.49482000  0.85447400  0.35630700  1
  C  C60  1  0.85447400  0.35630700  0.49482000  1
  C  C61  1  0.64552600  0.14034700  0.50183400  1
  C  C62  1  0.99816600  0.13851300  0.14369300  1
  C  C63  1  0.36148700  0.35965300  0.00518000  1
  C  C64  1  0.64369300  0.50518000  0.14552600  1
  C  C65  1  0.99482000  0.63851300  0.64034700  1
  C  C66  1  0.86148700  0.85630700  0.00183400  1
  C  C67  1  0.49816600  0.35447400  0.85965300  1
  C  C68  1  0.63851300  0.64034700  0.99482000  1
  C  C69  1  0.00183400  0.86148700  0.85630700  1
  C  C70  1  0.35447400  0.85965300  0.49816600  1
  C  C71  1  0.14552600  0.64369300  0.50518000  1
  C  C72  1  0.50518000  0.14552600  0.64369300  1
  C  C73  1  0.64034700  0.99482000  0.63851300  1
  C  C74  1  0.85630700  0.00183400  0.86148700  1
  C  C75  1  0.85965300  0.49816600  0.35447400  1
  C  C76  1  0.35630700  0.49482000  0.85447400  1
  C  C77  1  0.00518000  0.36148700  0.35965300  1
  C  C78  1  0.13851300  0.14369300  0.99816600  1
  C  C79  1  0.14442600  0.14387800  0.50361100  1
