# generated using pymatgen
data_Cu2Ni2C
_symmetry_space_group_name_H-M   'P 1'
_cell_length_a   5.95724400
_cell_length_b   5.95724400
_cell_length_c   5.95130600
_cell_angle_alpha   90.00000000
_cell_angle_beta   90.00000000
_cell_angle_gamma   90.00000000
_symmetry_Int_Tables_number   1
_chemical_formula_structural   Cu2Ni2C
_chemical_formula_sum   'Cu4 Ni4 C2'
_cell_volume   211.20444696
_cell_formula_units_Z   2
loop_
 _symmetry_equiv_pos_site_id
 _symmetry_equiv_pos_as_xyz
  1  'x, y, z'
loop_
 _atom_site_type_symbol
 _atom_site_label
 _atom_site_symmetry_multiplicity
 _atom_site_fract_x
 _atom_site_fract_y
 _atom_site_fract_z
 _atom_site_occupancy
  C  C0  1  0.00000000  0.00000000  0.25814200  1
  C  C1  1  0.50000000  0.50000000  0.75814200  1
  Ni  Ni2  1  0.19892600  0.80107400  0.44149600  1
  Ni  Ni3  1  0.80107400  0.19892600  0.44149600  1
  Ni  Ni4  1  0.69892600  0.69892600  0.94149600  1
  Ni  Ni5  1  0.30107400  0.30107400  0.94149600  1
  Cu  Cu6  1  0.81199500  0.81199500  0.05443400  1
  Cu  Cu7  1  0.18800500  0.18800500  0.05443400  1
  Cu  Cu8  1  0.68800500  0.31199500  0.55443400  1
  Cu  Cu9  1  0.31199500  0.68800500  0.55443400  1
