# generated using pymatgen
data_CuNiC3
_symmetry_space_group_name_H-M   'P 1'
_cell_length_a   7.12493200
_cell_length_b   7.14247000
_cell_length_c   10.16815000
_cell_angle_alpha   90.00000000
_cell_angle_beta   90.00000000
_cell_angle_gamma   90.00000000
_symmetry_Int_Tables_number   1
_chemical_formula_structural   CuNiC3
_chemical_formula_sum   'Cu4 Ni4 C12'
_cell_volume   517.45321906
_cell_formula_units_Z   4
loop_
 _symmetry_equiv_pos_site_id
 _symmetry_equiv_pos_as_xyz
  1  'x, y, z'
loop_
 _atom_site_type_symbol
 _atom_site_label
 _atom_site_symmetry_multiplicity
 _atom_site_fract_x
 _atom_site_fract_y
 _atom_site_fract_z
 _atom_site_occupancy
  Ni  Ni0  1  0.00000000  0.50000000  0.50000000  1
  Ni  Ni1  1  0.50000000  0.00000000  0.00000000  1
  Ni  Ni2  1  0.50000000  0.00000000  0.50000000  1
  Ni  Ni3  1  0.00000000  0.50000000  0.00000000  1
  Cu  Cu4  1  0.01437300  0.99964600  0.75000000  1
  Cu  Cu5  1  0.51437300  0.50035400  0.75000000  1
  Cu  Cu6  1  0.48562700  0.49964600  0.25000000  1
  Cu  Cu7  1  0.98562700  0.00035400  0.25000000  1
  C  C8  1  0.71957900  0.28055700  0.48123400  1
  C  C9  1  0.21957900  0.21944300  0.01876600  1
  C  C10  1  0.78042100  0.78055700  0.51876600  1
  C  C11  1  0.28042100  0.71944300  0.98123400  1
  C  C12  1  0.28042100  0.71944300  0.51876600  1
  C  C13  1  0.78042100  0.78055700  0.98123400  1
  C  C14  1  0.21957900  0.21944300  0.48123400  1
  C  C15  1  0.71957900  0.28055700  0.01876600  1
  C  C16  1  0.50221900  0.96182300  0.25000000  1
  C  C17  1  0.00221900  0.53817700  0.25000000  1
  C  C18  1  0.99778100  0.46182300  0.75000000  1
  C  C19  1  0.49778100  0.03817700  0.75000000  1
