# generated using pymatgen
data_Cu2Ni3C8
_symmetry_space_group_name_H-M   'P 1'
_cell_length_a   7.90561600
_cell_length_b   7.90561600
_cell_length_c   9.20190500
_cell_angle_alpha   90.00000000
_cell_angle_beta   90.00000000
_cell_angle_gamma   90.00000000
_symmetry_Int_Tables_number   1
_chemical_formula_structural   Cu2Ni3C8
_chemical_formula_sum   'Cu4 Ni6 C16'
_cell_volume   575.10769207
_cell_formula_units_Z   2
loop_
 _symmetry_equiv_pos_site_id
 _symmetry_equiv_pos_as_xyz
  1  'x, y, z'
loop_
 _atom_site_type_symbol
 _atom_site_label
 _atom_site_symmetry_multiplicity
 _atom_site_fract_x
 _atom_site_fract_y
 _atom_site_fract_z
 _atom_site_occupancy
  Ni  Ni0  1  0.50000000  0.00000000  0.48187600  1
  Ni  Ni1  1  0.00000000  0.50000000  0.51812400  1
  Ni  Ni2  1  0.50000000  0.00000000  0.01812400  1
  Ni  Ni3  1  0.00000000  0.50000000  0.98187600  1
  Ni  Ni4  1  0.50000000  0.50000000  0.00000000  1
  Ni  Ni5  1  0.00000000  0.00000000  0.50000000  1
  Cu  Cu6  1  0.74343200  0.24343200  0.25000000  1
  Cu  Cu7  1  0.24343200  0.25656800  0.75000000  1
  Cu  Cu8  1  0.75656800  0.74343200  0.75000000  1
  Cu  Cu9  1  0.25656800  0.75656800  0.25000000  1
  C  C10  1  0.24775400  0.52311700  0.13838200  1
  C  C11  1  0.52311700  0.75224600  0.86161800  1
  C  C12  1  0.97688300  0.25224600  0.36161800  1
  C  C13  1  0.02311700  0.74775400  0.36161800  1
  C  C14  1  0.74775400  0.97688300  0.63838200  1
  C  C15  1  0.25224600  0.02311700  0.63838200  1
  C  C16  1  0.76430500  0.03346800  0.12541900  1
  C  C17  1  0.03346800  0.23569500  0.87458100  1
  C  C18  1  0.96653200  0.76430500  0.87458100  1
  C  C19  1  0.23569500  0.96653200  0.12541900  1
  C  C20  1  0.53346800  0.26430500  0.37458100  1
  C  C21  1  0.46653200  0.73569500  0.37458100  1
  C  C22  1  0.73569500  0.53346800  0.62541900  1
  C  C23  1  0.26430500  0.46653200  0.62541900  1
  C  C24  1  0.75224600  0.47688300  0.13838200  1
  C  C25  1  0.47688300  0.24775400  0.86161800  1
