# generated using pymatgen
data_Cu2Ni3C4
_symmetry_space_group_name_H-M   'P 1'
_cell_length_a   6.92942888
_cell_length_b   6.92942888
_cell_length_c   10.16387217
_cell_angle_alpha   53.15573607
_cell_angle_beta   53.15573607
_cell_angle_gamma   33.00827646
_symmetry_Int_Tables_number   1
_chemical_formula_structural   Cu2Ni3C4
_chemical_formula_sum   'Cu2 Ni3 C4'
_cell_volume   207.45278026
_cell_formula_units_Z   1
loop_
 _symmetry_equiv_pos_site_id
 _symmetry_equiv_pos_as_xyz
  1  'x, y, z'
loop_
 _atom_site_type_symbol
 _atom_site_label
 _atom_site_symmetry_multiplicity
 _atom_site_fract_x
 _atom_site_fract_y
 _atom_site_fract_z
 _atom_site_occupancy
  C  C0  1  0.24339500  0.24339500  0.64778900  1
  C  C1  1  0.75660500  0.75660500  0.35221100  1
  C  C2  1  0.56339100  0.56339100  0.14419100  1
  C  C3  1  0.43660900  0.43660900  0.85580900  1
  Ni  Ni4  1  0.00000000  0.00000000  0.00000000  1
  Ni  Ni5  1  0.82980900  0.82980900  0.78186700  1
  Ni  Ni6  1  0.17019100  0.17019100  0.21813300  1
  Cu  Cu7  1  0.35416600  0.35416600  0.36055600  1
  Cu  Cu8  1  0.64583400  0.64583400  0.63944400  1
