# generated using pymatgen
data_Cu9(Ni2C)10
_symmetry_space_group_name_H-M   'P 1'
_cell_length_a   13.38459200
_cell_length_b   13.38459200
_cell_length_c   9.17852300
_cell_angle_alpha   90.00000000
_cell_angle_beta   90.00000000
_cell_angle_gamma   90.00000000
_symmetry_Int_Tables_number   1
_chemical_formula_structural   Cu9(Ni2C)10
_chemical_formula_sum   'Cu18 Ni40 C20'
_cell_volume   1644.30764103
_cell_formula_units_Z   2
loop_
 _symmetry_equiv_pos_site_id
 _symmetry_equiv_pos_as_xyz
  1  'x, y, z'
loop_
 _atom_site_type_symbol
 _atom_site_label
 _atom_site_symmetry_multiplicity
 _atom_site_fract_x
 _atom_site_fract_y
 _atom_site_fract_z
 _atom_site_occupancy
  C  C0  1  0.00000000  0.50000000  0.36326700  1
  C  C1  1  0.50000000  0.00000000  0.63673300  1
  C  C2  1  0.00000000  0.50000000  0.83523700  1
  C  C3  1  0.50000000  0.00000000  0.16476300  1
  C  C4  1  0.27671000  0.50000000  0.76812800  1
  C  C5  1  0.00000000  0.22329000  0.76812800  1
  C  C6  1  0.00000000  0.77671000  0.76812800  1
  C  C7  1  0.72329000  0.50000000  0.76812800  1
  C  C8  1  0.22329000  0.00000000  0.23187200  1
  C  C9  1  0.77671000  0.00000000  0.23187200  1
  C  C10  1  0.50000000  0.27671000  0.23187200  1
  C  C11  1  0.50000000  0.72329000  0.23187200  1
  C  C12  1  0.20339500  0.70339500  0.26839400  1
  C  C13  1  0.20339500  0.29660500  0.26839400  1
  C  C14  1  0.79660500  0.70339500  0.26839400  1
  C  C15  1  0.79660500  0.29660500  0.26839400  1
  C  C16  1  0.29660500  0.20339500  0.73160600  1
  C  C17  1  0.70339500  0.79660500  0.73160600  1
  C  C18  1  0.70339500  0.20339500  0.73160600  1
  C  C19  1  0.29660500  0.79660500  0.73160600  1
  Ni  Ni20  1  0.84490800  0.84490800  0.00000000  1
  Ni  Ni21  1  0.34490800  0.65509200  0.00000000  1
  Ni  Ni22  1  0.65509200  0.34490800  0.00000000  1
  Ni  Ni23  1  0.15509200  0.15509200  0.00000000  1
  Ni  Ni24  1  0.65509200  0.65509200  0.00000000  1
  Ni  Ni25  1  0.15509200  0.84490800  0.00000000  1
  Ni  Ni26  1  0.84490800  0.15509200  0.00000000  1
  Ni  Ni27  1  0.34490800  0.34490800  0.00000000  1
  Ni  Ni28  1  0.36976600  0.36976600  0.50000000  1
  Ni  Ni29  1  0.86976600  0.13023400  0.50000000  1
  Ni  Ni30  1  0.13023400  0.86976600  0.50000000  1
  Ni  Ni31  1  0.63023400  0.63023400  0.50000000  1
  Ni  Ni32  1  0.13023400  0.13023400  0.50000000  1
  Ni  Ni33  1  0.63023400  0.36976600  0.50000000  1
  Ni  Ni34  1  0.36976600  0.63023400  0.50000000  1
  Ni  Ni35  1  0.86976600  0.86976600  0.50000000  1
  Ni  Ni36  1  0.83343900  0.50000000  0.09299700  1
  Ni  Ni37  1  0.00000000  0.66656100  0.09299700  1
  Ni  Ni38  1  0.00000000  0.33343900  0.09299700  1
  Ni  Ni39  1  0.16656100  0.50000000  0.09299700  1
  Ni  Ni40  1  0.66656100  0.00000000  0.90700300  1
  Ni  Ni41  1  0.33343900  0.00000000  0.90700300  1
  Ni  Ni42  1  0.50000000  0.83343900  0.90700300  1
  Ni  Ni43  1  0.50000000  0.16656100  0.90700300  1
  Ni  Ni44  1  0.61598100  0.50000000  0.23461700  1
  Ni  Ni45  1  0.00000000  0.88401900  0.23461700  1
  Ni  Ni46  1  0.00000000  0.11598100  0.23461700  1
  Ni  Ni47  1  0.38401900  0.50000000  0.23461700  1
  Ni  Ni48  1  0.88401900  0.00000000  0.76538300  1
  Ni  Ni49  1  0.11598100  0.00000000  0.76538300  1
  Ni  Ni50  1  0.50000000  0.61598100  0.76538300  1
  Ni  Ni51  1  0.50000000  0.38401900  0.76538300  1
  Ni  Ni52  1  0.13193200  0.63193200  0.59021500  1
  Ni  Ni53  1  0.13193200  0.36806800  0.59021500  1
  Ni  Ni54  1  0.86806800  0.63193200  0.59021500  1
  Ni  Ni55  1  0.86806800  0.36806800  0.59021500  1
  Ni  Ni56  1  0.36806800  0.13193200  0.40978500  1
  Ni  Ni57  1  0.63193200  0.86806800  0.40978500  1
  Ni  Ni58  1  0.63193200  0.13193200  0.40978500  1
  Ni  Ni59  1  0.36806800  0.86806800  0.40978500  1
  Cu  Cu60  1  0.50000000  0.50000000  0.00000000  1
  Cu  Cu61  1  0.00000000  0.00000000  0.00000000  1
  Cu  Cu62  1  0.77727800  0.50000000  0.40883700  1
  Cu  Cu63  1  0.00000000  0.72272200  0.40883700  1
  Cu  Cu64  1  0.00000000  0.27727800  0.40883700  1
  Cu  Cu65  1  0.22272200  0.50000000  0.40883700  1
  Cu  Cu66  1  0.72272200  0.00000000  0.59116300  1
  Cu  Cu67  1  0.27727800  0.00000000  0.59116300  1
  Cu  Cu68  1  0.50000000  0.77727800  0.59116300  1
  Cu  Cu69  1  0.50000000  0.22272200  0.59116300  1
  Cu  Cu70  1  0.34478200  0.84478200  0.10452900  1
  Cu  Cu71  1  0.34478200  0.15521800  0.10452900  1
  Cu  Cu72  1  0.65521800  0.84478200  0.10452900  1
  Cu  Cu73  1  0.65521800  0.15521800  0.10452900  1
  Cu  Cu74  1  0.15521800  0.34478200  0.89547100  1
  Cu  Cu75  1  0.84478200  0.65521800  0.89547100  1
  Cu  Cu76  1  0.84478200  0.34478200  0.89547100  1
  Cu  Cu77  1  0.15521800  0.65521800  0.89547100  1
