# generated using pymatgen
data_Cu8NiC16
_symmetry_space_group_name_H-M   'P 1'
_cell_length_a   7.01572600
_cell_length_b   9.90539800
_cell_length_c   14.00967300
_cell_angle_alpha   90.00000000
_cell_angle_beta   90.00000000
_cell_angle_gamma   90.00000000
_symmetry_Int_Tables_number   1
_chemical_formula_structural   Cu8NiC16
_chemical_formula_sum   'Cu16 Ni2 C32'
_cell_volume   973.58202723
_cell_formula_units_Z   2
loop_
 _symmetry_equiv_pos_site_id
 _symmetry_equiv_pos_as_xyz
  1  'x, y, z'
loop_
 _atom_site_type_symbol
 _atom_site_label
 _atom_site_symmetry_multiplicity
 _atom_site_fract_x
 _atom_site_fract_y
 _atom_site_fract_z
 _atom_site_occupancy
  Ni  Ni0  1  0.00000000  0.50000000  0.50000000  1
  Ni  Ni1  1  0.50000000  0.00000000  0.00000000  1
  Cu  Cu2  1  0.24208400  0.25453700  0.87244000  1
  Cu  Cu3  1  0.00000000  0.99450200  0.74329900  1
  Cu  Cu4  1  0.74208400  0.75453700  0.62756000  1
  Cu  Cu5  1  0.75791600  0.25453700  0.87244000  1
  Cu  Cu6  1  0.50000000  0.49450200  0.75670100  1
  Cu  Cu7  1  0.50000000  0.50000000  0.50000000  1
  Cu  Cu8  1  0.25791600  0.24546300  0.37244000  1
  Cu  Cu9  1  0.25791600  0.75453700  0.62756000  1
  Cu  Cu10  1  0.24208400  0.74546300  0.12756000  1
  Cu  Cu11  1  0.00000000  0.00000000  0.50000000  1
  Cu  Cu12  1  0.00000000  0.00549800  0.25670100  1
  Cu  Cu13  1  0.75791600  0.74546300  0.12756000  1
  Cu  Cu14  1  0.74208400  0.24546300  0.37244000  1
  Cu  Cu15  1  0.50000000  0.50549800  0.24329900  1
  Cu  Cu16  1  0.50000000  0.50000000  0.00000000  1
  Cu  Cu17  1  0.00000000  0.00000000  0.00000000  1
  C  C18  1  0.50000000  0.25396800  0.75377400  1
  C  C19  1  0.24292600  0.00376000  0.87377600  1
  C  C20  1  0.24390500  0.99823000  0.62413000  1
  C  C21  1  0.00000000  0.24602000  0.75210200  1
  C  C22  1  0.00000000  0.75396800  0.74622600  1
  C  C23  1  0.00000000  0.75448600  0.50369800  1
  C  C24  1  0.75609500  0.99823000  0.62413000  1
  C  C25  1  0.75707400  0.00376000  0.87377600  1
  C  C26  1  0.74292600  0.50376000  0.62622400  1
  C  C27  1  0.74292600  0.49624000  0.37377600  1
  C  C28  1  0.50000000  0.74716700  0.50388700  1
  C  C29  1  0.50000000  0.74602000  0.74789800  1
  C  C30  1  0.50000000  0.25398000  0.25210200  1
  C  C31  1  0.50000000  0.25283300  0.49611300  1
  C  C32  1  0.25707400  0.49624000  0.37377600  1
  C  C33  1  0.25707400  0.50376000  0.62622400  1
  C  C34  1  0.24390500  0.00177000  0.37587000  1
  C  C35  1  0.24292600  0.99624000  0.12622400  1
  C  C36  1  0.00000000  0.24551400  0.49630200  1
  C  C37  1  0.00000000  0.24603200  0.25377400  1
  C  C38  1  0.00000000  0.75398000  0.24789800  1
  C  C39  1  0.00000000  0.75283300  0.00388700  1
  C  C40  1  0.75707400  0.99624000  0.12622400  1
  C  C41  1  0.75609500  0.00177000  0.37587000  1
  C  C42  1  0.74390500  0.50177000  0.12413000  1
  C  C43  1  0.74390500  0.49823000  0.87587000  1
  C  C44  1  0.50000000  0.74603200  0.24622600  1
  C  C45  1  0.50000000  0.74551400  0.00369800  1
  C  C46  1  0.50000000  0.25448600  0.99630200  1
  C  C47  1  0.25609500  0.50177000  0.12413000  1
  C  C48  1  0.25609500  0.49823000  0.87587000  1
  C  C49  1  0.00000000  0.24716700  0.99611300  1
