# generated using pymatgen
data_CuNiC
_symmetry_space_group_name_H-M   'P 1'
_cell_length_a   9.23139522
_cell_length_b   9.23139522
_cell_length_c   9.23139522
_cell_angle_alpha   154.26676400
_cell_angle_beta   154.26676400
_cell_angle_gamma   36.71198396
_symmetry_Int_Tables_number   1
_chemical_formula_structural   CuNiC
_chemical_formula_sum   'Cu2 Ni2 C2'
_cell_volume   148.09935086
_cell_formula_units_Z   2
loop_
 _symmetry_equiv_pos_site_id
 _symmetry_equiv_pos_as_xyz
  1  'x, y, z'
loop_
 _atom_site_type_symbol
 _atom_site_label
 _atom_site_symmetry_multiplicity
 _atom_site_fract_x
 _atom_site_fract_y
 _atom_site_fract_z
 _atom_site_occupancy
  C  C0  1  0.87740300  0.87740300  0.00000000  1
  C  C1  1  0.12259700  0.12259700  0.00000000  1
  Ni  Ni2  1  0.50000000  0.00000000  0.50000000  1
  Ni  Ni3  1  0.00000000  0.50000000  0.50000000  1
  Cu  Cu4  1  0.31526100  0.31526100  0.00000000  1
  Cu  Cu5  1  0.68473900  0.68473900  0.00000000  1
