# generated using pymatgen
data_Cu12Ni4C
_symmetry_space_group_name_H-M   'P 1'
_cell_length_a   14.30038500
_cell_length_b   8.07014000
_cell_length_c   10.69694963
_cell_angle_alpha   55.78278200
_cell_angle_beta   90.00000000
_cell_angle_gamma   90.00000000
_symmetry_Int_Tables_number   1
_chemical_formula_structural   Cu12Ni4C
_chemical_formula_sum   'Cu48 Ni16 C4'
_cell_volume   1020.81688958
_cell_formula_units_Z   4
loop_
 _symmetry_equiv_pos_site_id
 _symmetry_equiv_pos_as_xyz
  1  'x, y, z'
loop_
 _atom_site_type_symbol
 _atom_site_label
 _atom_site_symmetry_multiplicity
 _atom_site_fract_x
 _atom_site_fract_y
 _atom_site_fract_z
 _atom_site_occupancy
  C  C0  1  0.67123700  0.18104700  0.53428100  1
  C  C1  1  0.17123700  0.81895300  0.96571900  1
  C  C2  1  0.32876300  0.81895300  0.46571900  1
  C  C3  1  0.82876300  0.18104700  0.03428100  1
  Ni  Ni4  1  0.93436900  0.49138600  0.84103400  1
  Ni  Ni5  1  0.75786100  0.86504900  0.05227500  1
  Ni  Ni6  1  0.25786100  0.13495100  0.44772500  1
  Ni  Ni7  1  0.24213900  0.13495100  0.94772500  1
  Ni  Ni8  1  0.74213900  0.86504900  0.55227500  1
  Ni  Ni9  1  0.43436900  0.50861400  0.65896600  1
  Ni  Ni10  1  0.06563100  0.50861400  0.15896600  1
  Ni  Ni11  1  0.56563100  0.49138600  0.34103400  1
  Ni  Ni12  1  0.67533900  0.39802200  0.96878700  1
  Ni  Ni13  1  0.17533900  0.60197800  0.53121300  1
  Ni  Ni14  1  0.32466100  0.60197800  0.03121300  1
  Ni  Ni15  1  0.82466100  0.39802200  0.46878700  1
  Ni  Ni16  1  0.94688500  0.99359600  0.26480200  1
  Ni  Ni17  1  0.44688500  0.00640400  0.23519800  1
  Ni  Ni18  1  0.05311500  0.00640400  0.73519800  1
  Ni  Ni19  1  0.55311500  0.99359600  0.76480200  1
  Cu  Cu20  1  0.13037500  0.92438100  0.73002100  1
  Cu  Cu21  1  0.72251600  0.72199500  0.06276200  1
  Cu  Cu22  1  0.22251600  0.27800500  0.43723800  1
  Cu  Cu23  1  0.27748400  0.27800500  0.93723800  1
  Cu  Cu24  1  0.91670500  0.34656300  0.82491300  1
  Cu  Cu25  1  0.41670500  0.65343700  0.67508700  1
  Cu  Cu26  1  0.08329500  0.65343700  0.17508700  1
  Cu  Cu27  1  0.58329500  0.34656300  0.32491300  1
  Cu  Cu28  1  0.89650000  0.46348300  0.96491900  1
  Cu  Cu29  1  0.39650000  0.53651700  0.53508100  1
  Cu  Cu30  1  0.10350000  0.53651700  0.03508100  1
  Cu  Cu31  1  0.60350000  0.46348300  0.46491900  1
  Cu  Cu32  1  0.98019300  0.63764600  0.75381200  1
  Cu  Cu33  1  0.48019300  0.36235400  0.74618800  1
  Cu  Cu34  1  0.01980700  0.36235400  0.24618800  1
  Cu  Cu35  1  0.51980700  0.63764600  0.25381200  1
  Cu  Cu36  1  0.71620100  0.35796500  0.87707800  1
  Cu  Cu37  1  0.21620100  0.64203500  0.62292200  1
  Cu  Cu38  1  0.28379900  0.64203500  0.12292200  1
  Cu  Cu39  1  0.78379900  0.35796500  0.37707800  1
  Cu  Cu40  1  0.71530900  0.30825400  0.10065500  1
  Cu  Cu41  1  0.21530900  0.69174600  0.39934500  1
  Cu  Cu42  1  0.28469100  0.69174600  0.89934500  1
  Cu  Cu43  1  0.78469100  0.30825400  0.60065500  1
  Cu  Cu44  1  0.60875400  0.50788800  0.93072500  1
  Cu  Cu45  1  0.10875400  0.49211200  0.56927500  1
  Cu  Cu46  1  0.39124600  0.49211200  0.06927500  1
  Cu  Cu47  1  0.89124600  0.50788800  0.43072500  1
  Cu  Cu48  1  0.86962500  0.07561900  0.26997900  1
  Cu  Cu49  1  0.36962500  0.92438100  0.23002100  1
  Cu  Cu50  1  0.77748400  0.72199500  0.56276200  1
  Cu  Cu51  1  0.63037500  0.07561900  0.76997900  1
  Cu  Cu52  1  0.95831200  0.01399100  0.13380700  1
  Cu  Cu53  1  0.45831200  0.98600900  0.36619300  1
  Cu  Cu54  1  0.04168800  0.98600900  0.86619300  1
  Cu  Cu55  1  0.68489400  0.98869200  0.44511400  1
  Cu  Cu56  1  0.00230800  0.90855400  0.36678900  1
  Cu  Cu57  1  0.50230800  0.09144600  0.13321100  1
  Cu  Cu58  1  0.99769200  0.09144600  0.63321100  1
  Cu  Cu59  1  0.49769200  0.90855400  0.86678900  1
  Cu  Cu60  1  0.74143100  0.91165200  0.15091900  1
  Cu  Cu61  1  0.24143100  0.08834800  0.34908100  1
  Cu  Cu62  1  0.25856900  0.08834800  0.84908100  1
  Cu  Cu63  1  0.75856900  0.91165200  0.65091900  1
  Cu  Cu64  1  0.81510600  0.98869200  0.94511400  1
  Cu  Cu65  1  0.31510600  0.01130800  0.55488600  1
  Cu  Cu66  1  0.18489400  0.01130800  0.05488600  1
  Cu  Cu67  1  0.54168800  0.01399100  0.63380700  1
