# generated using pymatgen
data_CuNiC9
_symmetry_space_group_name_H-M   'P 1'
_cell_length_a   7.36414200
_cell_length_b   7.36414200
_cell_length_c   10.46723700
_cell_angle_alpha   90.00000000
_cell_angle_beta   90.00000000
_cell_angle_gamma   90.00000000
_symmetry_Int_Tables_number   1
_chemical_formula_structural   CuNiC9
_chemical_formula_sum   'Cu4 Ni4 C36'
_cell_volume   567.64441092
_cell_formula_units_Z   4
loop_
 _symmetry_equiv_pos_site_id
 _symmetry_equiv_pos_as_xyz
  1  'x, y, z'
loop_
 _atom_site_type_symbol
 _atom_site_label
 _atom_site_symmetry_multiplicity
 _atom_site_fract_x
 _atom_site_fract_y
 _atom_site_fract_z
 _atom_site_occupancy
  C  C0  1  0.00000000  0.73614200  0.00000000  1
  C  C1  1  0.26385800  0.00000000  0.25000000  1
  C  C2  1  0.00000000  0.26385800  0.50000000  1
  C  C3  1  0.73614200  0.00000000  0.75000000  1
  Ni  Ni4  1  0.76161200  0.00000000  0.25000000  1
  Ni  Ni5  1  0.00000000  0.76161200  0.50000000  1
  Ni  Ni6  1  0.23838800  0.00000000  0.75000000  1
  Ni  Ni7  1  0.00000000  0.23838800  0.00000000  1
  Cu  Cu8  1  0.50000000  0.73575400  0.00000000  1
  Cu  Cu9  1  0.50000000  0.26424600  0.50000000  1
  Cu  Cu10  1  0.73575400  0.50000000  0.75000000  1
  Cu  Cu11  1  0.26424600  0.50000000  0.25000000  1
  C  C12  1  0.24405500  0.50000000  0.75000000  1
  C  C13  1  0.50000000  0.75594500  0.50000000  1
  C  C14  1  0.50000000  0.24405500  0.00000000  1
  C  C15  1  0.75594500  0.50000000  0.25000000  1
  C  C16  1  0.26069500  0.73930500  0.12500000  1
  C  C17  1  0.55519000  0.94561900  0.36940000  1
  C  C18  1  0.73930500  0.26069500  0.62500000  1
  C  C19  1  0.95257600  0.95257600  0.37500000  1
  C  C20  1  0.05438100  0.44481000  0.88060000  1
  C  C21  1  0.04742400  0.04742400  0.87500000  1
  C  C22  1  0.04742400  0.95257600  0.62500000  1
  C  C23  1  0.24956300  0.23594400  0.07171700  1
  C  C24  1  0.23594400  0.24956300  0.67828300  1
  C  C25  1  0.24956300  0.76405600  0.42828300  1
  C  C26  1  0.44848500  0.44848500  0.87500000  1
  C  C27  1  0.44481000  0.05438100  0.86940000  1
  C  C28  1  0.44481000  0.94561900  0.63060000  1
  C  C29  1  0.55151500  0.55151500  0.37500000  1
  C  C30  1  0.55519000  0.05438100  0.13060000  1
  C  C31  1  0.55151500  0.44848500  0.12500000  1
  C  C32  1  0.75043700  0.76405600  0.57171700  1
  C  C33  1  0.73930500  0.73930500  0.87500000  1
  C  C34  1  0.76405600  0.24956300  0.32171700  1
  C  C35  1  0.76405600  0.75043700  0.17828300  1
  C  C36  1  0.75043700  0.23594400  0.92828300  1
  C  C37  1  0.94561900  0.55519000  0.38060000  1
  C  C38  1  0.94561900  0.44481000  0.11940000  1
  C  C39  1  0.95257600  0.04742400  0.12500000  1
  C  C40  1  0.05438100  0.55519000  0.61940000  1
  C  C41  1  0.26069500  0.26069500  0.37500000  1
  C  C42  1  0.23594400  0.75043700  0.82171700  1
  C  C43  1  0.44848500  0.55151500  0.62500000  1
