# generated using pymatgen
data_CuNiC2
_symmetry_space_group_name_H-M   'P 1'
_cell_length_a   24.58965900
_cell_length_b   6.45901600
_cell_length_c   12.75389244
_cell_angle_alpha   71.19391135
_cell_angle_beta   90.00000000
_cell_angle_gamma   90.00000000
_symmetry_Int_Tables_number   1
_chemical_formula_structural   CuNiC2
_chemical_formula_sum   'Cu16 Ni16 C32'
_cell_volume   1917.49836550
_cell_formula_units_Z   16
loop_
 _symmetry_equiv_pos_site_id
 _symmetry_equiv_pos_as_xyz
  1  'x, y, z'
loop_
 _atom_site_type_symbol
 _atom_site_label
 _atom_site_symmetry_multiplicity
 _atom_site_fract_x
 _atom_site_fract_y
 _atom_site_fract_z
 _atom_site_occupancy
  Ni  Ni0  1  0.57610700  0.65117800  0.87701300  1
  Ni  Ni1  1  0.07610700  0.34882200  0.62298700  1
  Ni  Ni2  1  0.42389300  0.34882200  0.12298700  1
  Ni  Ni3  1  0.92389300  0.65117800  0.37701300  1
  Ni  Ni4  1  0.56534000  0.36450800  0.61023000  1
  Ni  Ni5  1  0.06534000  0.63549200  0.88977000  1
  Ni  Ni6  1  0.43466000  0.63549200  0.38977000  1
  Ni  Ni7  1  0.93466000  0.36450800  0.11023000  1
  Ni  Ni8  1  0.67316800  0.81917300  0.50384400  1
  Ni  Ni9  1  0.17316800  0.18082700  0.99615600  1
  Ni  Ni10  1  0.32683200  0.18082700  0.49615600  1
  Ni  Ni11  1  0.82683200  0.81917300  0.00384400  1
  Ni  Ni12  1  0.68050700  0.55478200  0.22857500  1
  Ni  Ni13  1  0.18050700  0.44521800  0.27142500  1
  Ni  Ni14  1  0.31949300  0.44521800  0.77142500  1
  Ni  Ni15  1  0.81949300  0.55478200  0.72857500  1
  Cu  Cu16  1  0.55312100  0.92455200  0.10835200  1
  Cu  Cu17  1  0.80992900  0.13960100  0.24602900  1
  Cu  Cu18  1  0.30992900  0.86039900  0.25397100  1
  Cu  Cu19  1  0.19007100  0.86039900  0.75397100  1
  Cu  Cu20  1  0.69007100  0.13960100  0.74602900  1
  Cu  Cu21  1  0.71049900  0.27820400  0.00281400  1
  Cu  Cu22  1  0.21049900  0.72179600  0.49718600  1
  Cu  Cu23  1  0.28950100  0.72179600  0.99718600  1
  Cu  Cu24  1  0.78950100  0.27820400  0.50281400  1
  Cu  Cu25  1  0.05312100  0.07544800  0.39164800  1
  Cu  Cu26  1  0.44687900  0.07544800  0.89164800  1
  Cu  Cu27  1  0.94687900  0.92455200  0.60835200  1
  Cu  Cu28  1  0.55039500  0.08669300  0.35820100  1
  Cu  Cu29  1  0.05039500  0.91330700  0.14179900  1
  Cu  Cu30  1  0.44960500  0.91330700  0.64179900  1
  Cu  Cu31  1  0.94960500  0.08669300  0.85820100  1
  C  C32  1  0.81046900  0.50253900  0.26053300  1
  C  C33  1  0.30631500  0.65921400  0.51623600  1
  C  C34  1  0.19368500  0.65921400  0.01623600  1
  C  C35  1  0.69368500  0.34078600  0.48376400  1
  C  C36  1  0.80460900  0.94094600  0.45290200  1
  C  C37  1  0.30460900  0.05905400  0.04709800  1
  C  C38  1  0.19539100  0.05905400  0.54709800  1
  C  C39  1  0.54365300  0.14678000  0.88996800  1
  C  C40  1  0.69539100  0.94094600  0.95290200  1
  C  C41  1  0.78570300  0.06830200  0.71449000  1
  C  C42  1  0.28570300  0.93169800  0.78551000  1
  C  C43  1  0.21429700  0.93169800  0.28551000  1
  C  C44  1  0.71429700  0.06830200  0.21449000  1
  C  C45  1  0.68953100  0.50253900  0.76053300  1
  C  C46  1  0.18953100  0.49746100  0.73946700  1
  C  C47  1  0.31046900  0.49746100  0.23946700  1
  C  C48  1  0.94028300  0.72172200  0.83872700  1
  C  C49  1  0.44028300  0.27827800  0.66127300  1
  C  C50  1  0.05971700  0.27827800  0.16127300  1
  C  C51  1  0.55971700  0.72172200  0.33872700  1
  C  C52  1  0.93947600  0.26939900  0.65013300  1
  C  C53  1  0.43947600  0.73060100  0.84986700  1
  C  C54  1  0.06052400  0.73060100  0.34986700  1
  C  C55  1  0.56052400  0.26939900  0.15013300  1
  C  C56  1  0.95474800  0.85279700  0.12540700  1
  C  C57  1  0.45474800  0.14720300  0.37459300  1
  C  C58  1  0.04525200  0.14720300  0.87459300  1
  C  C59  1  0.54525200  0.85279700  0.62540700  1
  C  C60  1  0.95634700  0.14678000  0.38996800  1
  C  C61  1  0.45634700  0.85322000  0.11003200  1
  C  C62  1  0.04365300  0.85322000  0.61003200  1
  C  C63  1  0.80631500  0.34078600  0.98376400  1
