# generated using pymatgen
data_Cu11Ni5
_symmetry_space_group_name_H-M   'P 1'
_cell_length_a   8.87340100
_cell_length_b   7.00706000
_cell_length_c   12.21103204
_cell_angle_alpha   59.92828852
_cell_angle_beta   90.00000000
_cell_angle_gamma   90.00000000
_symmetry_Int_Tables_number   1
_chemical_formula_structural   Cu11Ni5
_chemical_formula_sum   'Cu44 Ni20'
_cell_volume   657.04432213
_cell_formula_units_Z   4
loop_
 _symmetry_equiv_pos_site_id
 _symmetry_equiv_pos_as_xyz
  1  'x, y, z'
loop_
 _atom_site_type_symbol
 _atom_site_label
 _atom_site_symmetry_multiplicity
 _atom_site_fract_x
 _atom_site_fract_y
 _atom_site_fract_z
 _atom_site_occupancy
  Ni  Ni0  1  0.28959900  0.48869800  0.12496300  1
  Ni  Ni1  1  0.78959900  0.51130200  0.37503700  1
  Ni  Ni2  1  0.71040100  0.51130200  0.87503700  1
  Ni  Ni3  1  0.21040100  0.48869800  0.62496300  1
  Ni  Ni4  1  0.33877900  0.31699100  0.29013300  1
  Ni  Ni5  1  0.83877900  0.68300900  0.20986700  1
  Ni  Ni6  1  0.66122100  0.68300900  0.70986700  1
  Ni  Ni7  1  0.16122100  0.31699100  0.79013300  1
  Ni  Ni8  1  0.45001100  0.29156000  0.18080000  1
  Ni  Ni9  1  0.95001100  0.70844000  0.31920000  1
  Ni  Ni10  1  0.54998900  0.70844000  0.81920000  1
  Ni  Ni11  1  0.04998900  0.29156000  0.68080000  1
  Ni  Ni12  1  0.39561900  0.05406200  0.31621400  1
  Ni  Ni13  1  0.89561900  0.94593800  0.18378600  1
  Ni  Ni14  1  0.60438100  0.94593800  0.68378600  1
  Ni  Ni15  1  0.10438100  0.05406200  0.81621400  1
  Ni  Ni16  1  0.39758800  0.03358400  0.18000200  1
  Ni  Ni17  1  0.89758800  0.96641600  0.31999800  1
  Ni  Ni18  1  0.60241200  0.96641600  0.81999800  1
  Ni  Ni19  1  0.10241200  0.03358400  0.68000200  1
  Cu  Cu20  1  0.37135600  0.36281300  0.08110000  1
  Cu  Cu21  1  0.87135600  0.63718700  0.41890000  1
  Cu  Cu22  1  0.62864400  0.63718700  0.91890000  1
  Cu  Cu23  1  0.12864400  0.36281300  0.58110000  1
  Cu  Cu24  1  0.21332800  0.41220800  0.23808700  1
  Cu  Cu25  1  0.71332800  0.58779200  0.26191300  1
  Cu  Cu26  1  0.78667200  0.58779200  0.76191300  1
  Cu  Cu27  1  0.28667200  0.41220800  0.73808700  1
  Cu  Cu28  1  0.27477200  0.11981600  0.35823500  1
  Cu  Cu29  1  0.77477200  0.88018400  0.14176500  1
  Cu  Cu30  1  0.72522800  0.88018400  0.64176500  1
  Cu  Cu31  1  0.22522800  0.11981600  0.85823500  1
  Cu  Cu32  1  0.31843800  0.92219900  0.29096700  1
  Cu  Cu33  1  0.81843800  0.07780100  0.20903300  1
  Cu  Cu34  1  0.68156200  0.07780100  0.70903300  1
  Cu  Cu35  1  0.18202200  0.45934200  0.07453400  1
  Cu  Cu36  1  0.18156200  0.92219900  0.79096700  1
  Cu  Cu37  1  0.82654300  0.32438600  0.41286300  1
  Cu  Cu38  1  0.67345700  0.32438600  0.91286300  1
  Cu  Cu39  1  0.17345700  0.67561400  0.58713700  1
  Cu  Cu40  1  0.00509200  0.91048900  0.68546900  1
  Cu  Cu41  1  0.50509200  0.08951100  0.81453100  1
  Cu  Cu42  1  0.99490800  0.08951100  0.31453100  1
  Cu  Cu43  1  0.49490800  0.91048900  0.18546900  1
  Cu  Cu44  1  0.20444300  0.06952500  0.60778100  1
  Cu  Cu45  1  0.70444300  0.93047500  0.89221900  1
  Cu  Cu46  1  0.79555700  0.93047500  0.39221900  1
  Cu  Cu47  1  0.29555700  0.06952500  0.10778100  1
  Cu  Cu48  1  0.01988400  0.95438700  0.90219300  1
  Cu  Cu49  1  0.51988400  0.04561300  0.59780700  1
  Cu  Cu50  1  0.98011600  0.04561300  0.09780700  1
  Cu  Cu51  1  0.48011600  0.95438700  0.40219300  1
  Cu  Cu52  1  0.92328000  0.35768100  0.66425200  1
  Cu  Cu53  1  0.42328000  0.64231900  0.83574800  1
  Cu  Cu54  1  0.07672000  0.64231900  0.33574800  1
  Cu  Cu55  1  0.57672000  0.35768100  0.16425200  1
  Cu  Cu56  1  0.11692600  0.37816700  0.85933600  1
  Cu  Cu57  1  0.61692600  0.62183300  0.64066400  1
  Cu  Cu58  1  0.88307400  0.62183300  0.14066400  1
  Cu  Cu59  1  0.38307400  0.37816700  0.35933600  1
  Cu  Cu60  1  0.31797800  0.45934200  0.57453400  1
  Cu  Cu61  1  0.81797800  0.54065800  0.92546600  1
  Cu  Cu62  1  0.68202200  0.54065800  0.42546600  1
  Cu  Cu63  1  0.32654300  0.67561400  0.08713700  1
