# generated using pymatgen
data_Cu7Ni3C40
_symmetry_space_group_name_H-M   'P 1'
_cell_length_a   3.99204300
_cell_length_b   3.99204300
_cell_length_c   40.86762300
_cell_angle_alpha   90.00000000
_cell_angle_beta   90.00000000
_cell_angle_gamma   90.00000000
_symmetry_Int_Tables_number   1
_chemical_formula_structural   Cu7Ni3C40
_chemical_formula_sum   'Cu7 Ni3 C40'
_cell_volume   651.28308608
_cell_formula_units_Z   1
loop_
 _symmetry_equiv_pos_site_id
 _symmetry_equiv_pos_as_xyz
  1  'x, y, z'
loop_
 _atom_site_type_symbol
 _atom_site_label
 _atom_site_symmetry_multiplicity
 _atom_site_fract_x
 _atom_site_fract_y
 _atom_site_fract_z
 _atom_site_occupancy
  Ni  Ni0  1  0.00000000  0.00000000  0.60006800  1
  Ni  Ni1  1  0.00000000  0.00000000  0.80075400  1
  Ni  Ni2  1  0.00000000  0.00000000  0.89915100  1
  Cu  Cu3  1  0.00000000  0.00000000  0.99928700  1
  Cu  Cu4  1  0.00000000  0.00000000  0.09998500  1
  Cu  Cu5  1  0.00000000  0.00000000  0.20000900  1
  Cu  Cu6  1  0.00000000  0.00000000  0.29998400  1
  Cu  Cu7  1  0.00000000  0.00000000  0.40003400  1
  Cu  Cu8  1  0.00000000  0.00000000  0.50074000  1
  Cu  Cu9  1  0.00000000  0.00000000  0.69997000  1
  C  C10  1  0.50000000  0.50000000  0.05077800  1
  C  C11  1  0.50000000  0.50000000  0.24998400  1
  C  C12  1  0.50000000  0.50000000  0.15020800  1
  C  C13  1  0.50000000  0.50000000  0.44929700  1
  C  C14  1  0.50000000  0.50000000  0.34978400  1
  C  C15  1  0.50000000  0.50000000  0.54736900  1
  C  C16  1  0.50000000  0.50000000  0.74772300  1
  C  C17  1  0.50000000  0.50000000  0.65178100  1
  C  C18  1  0.50000000  0.50000000  0.85009400  1
  C  C19  1  0.50000000  0.50000000  0.95290300  1
  C  C20  1  0.00000000  0.50000000  0.05048000  1
  C  C21  1  0.00000000  0.50000000  0.15011200  1
  C  C22  1  0.00000000  0.50000000  0.25000000  1
  C  C23  1  0.00000000  0.50000000  0.34990400  1
  C  C24  1  0.00000000  0.50000000  0.44959400  1
  C  C25  1  0.00000000  0.50000000  0.54883400  1
  C  C26  1  0.00000000  0.50000000  0.65064400  1
  C  C27  1  0.00000000  0.50000000  0.74904200  1
  C  C28  1  0.00000000  0.50000000  0.85006400  1
  C  C29  1  0.00000000  0.50000000  0.95133800  1
  C  C30  1  0.50000000  0.00000000  0.05048000  1
  C  C31  1  0.50000000  0.50000000  0.00051200  1
  C  C32  1  0.50000000  0.00000000  0.15011200  1
  C  C33  1  0.50000000  0.00000000  0.25000000  1
  C  C34  1  0.50000000  0.50000000  0.20002300  1
  C  C35  1  0.50000000  0.50000000  0.10017400  1
  C  C36  1  0.50000000  0.00000000  0.34990400  1
  C  C37  1  0.50000000  0.00000000  0.44959400  1
  C  C38  1  0.50000000  0.50000000  0.39988400  1
  C  C39  1  0.50000000  0.50000000  0.30000300  1
  C  C40  1  0.50000000  0.00000000  0.54883400  1
  C  C41  1  0.50000000  0.50000000  0.49962400  1
  C  C42  1  0.50000000  0.00000000  0.74904200  1
  C  C43  1  0.50000000  0.50000000  0.69984000  1
  C  C44  1  0.50000000  0.00000000  0.65064400  1
  C  C45  1  0.50000000  0.00000000  0.85006400  1
  C  C46  1  0.50000000  0.00000000  0.95133800  1
  C  C47  1  0.50000000  0.50000000  0.59982800  1
  C  C48  1  0.50000000  0.50000000  0.79984700  1
  C  C49  1  0.50000000  0.50000000  0.90033600  1
