# generated using pymatgen
data_Cu(NiC4)2
_symmetry_space_group_name_H-M   'P 1'
_cell_length_a   5.75237200
_cell_length_b   5.75237349
_cell_length_c   26.58264000
_cell_angle_alpha   90.00000560
_cell_angle_beta   90.00000000
_cell_angle_gamma   120.00000141
_symmetry_Int_Tables_number   1
_chemical_formula_structural   Cu(NiC4)2
_chemical_formula_sum   'Cu4 Ni8 C32'
_cell_volume   761.76808730
_cell_formula_units_Z   4
loop_
 _symmetry_equiv_pos_site_id
 _symmetry_equiv_pos_as_xyz
  1  'x, y, z'
loop_
 _atom_site_type_symbol
 _atom_site_label
 _atom_site_symmetry_multiplicity
 _atom_site_fract_x
 _atom_site_fract_y
 _atom_site_fract_z
 _atom_site_occupancy
  Ni  Ni0  1  0.33333300  0.66666700  0.06655600  1
  Ni  Ni1  1  0.33333300  0.66666700  0.31655700  1
  Ni  Ni2  1  0.33333300  0.66666700  0.56655600  1
  Ni  Ni3  1  0.33333300  0.66666700  0.81655800  1
  Ni  Ni4  1  0.66666700  0.33333300  0.18344600  1
  Ni  Ni5  1  0.66666700  0.33333300  0.43344200  1
  Ni  Ni6  1  0.66666700  0.33333300  0.68344100  1
  Ni  Ni7  1  0.66666700  0.33333300  0.93344500  1
  Cu  Cu8  1  0.00000000  0.00000000  0.50000100  1
  Cu  Cu9  1  0.00000000  0.00000000  0.74999600  1
  Cu  Cu10  1  0.00000000  0.00000000  0.99999600  1
  Cu  Cu11  1  0.00000000  0.00000000  0.25000800  1
  C  C12  1  0.66666700  0.33333300  0.11820100  1
  C  C13  1  0.66666700  0.33333300  0.36821300  1
  C  C14  1  0.66666700  0.33333300  0.61820200  1
  C  C15  1  0.66666700  0.33333300  0.86819200  1
  C  C16  1  0.33333300  0.66666700  0.13180000  1
  C  C17  1  0.33333300  0.66666700  0.38180800  1
  C  C18  1  0.33333300  0.66666700  0.63179700  1
  C  C19  1  0.33333300  0.66666700  0.88178700  1
  C  C20  1  0.81404300  0.14879800  0.20534400  1
  C  C21  1  0.81405000  0.14879400  0.45534700  1
  C  C22  1  0.81404300  0.14879100  0.70533500  1
  C  C23  1  0.81403500  0.14880300  0.95532800  1
  C  C24  1  0.14879500  0.33475300  0.04465700  1
  C  C25  1  0.14880200  0.33476700  0.29467300  1
  C  C26  1  0.14879800  0.33475300  0.54466300  1
  C  C27  1  0.14879000  0.33474300  0.79465300  1
  C  C28  1  0.66524700  0.81404300  0.04465700  1
  C  C29  1  0.66523300  0.81403600  0.29467300  1
  C  C30  1  0.66524700  0.81404600  0.54466300  1
  C  C31  1  0.66525700  0.81404800  0.79465300  1
  C  C32  1  0.18595700  0.85120400  0.04465700  1
  C  C33  1  0.18596400  0.85119800  0.29467300  1
  C  C34  1  0.18595400  0.85120200  0.54466300  1
  C  C35  1  0.18595200  0.85121000  0.79465300  1
  C  C36  1  0.85120300  0.66524400  0.20534400  1
  C  C37  1  0.85120500  0.66525500  0.45534700  1
  C  C38  1  0.85120900  0.66525200  0.70533400  1
  C  C39  1  0.85119700  0.66523100  0.95532800  1
  C  C40  1  0.33475600  0.18595700  0.20534400  1
  C  C41  1  0.33474500  0.18595000  0.45534700  1
  C  C42  1  0.33474800  0.18595600  0.70533400  1
  C  C43  1  0.33476900  0.18596500  0.95532800  1
