# generated using pymatgen
data_Cu3NiC
_symmetry_space_group_name_H-M   'P 1'
_cell_length_a   5.33186800
_cell_length_b   5.33186800
_cell_length_c   9.11918400
_cell_angle_alpha   90.00000000
_cell_angle_beta   90.00000000
_cell_angle_gamma   90.00000000
_symmetry_Int_Tables_number   1
_chemical_formula_structural   Cu3NiC
_chemical_formula_sum   'Cu12 Ni4 C4'
_cell_volume   259.24760737
_cell_formula_units_Z   4
loop_
 _symmetry_equiv_pos_site_id
 _symmetry_equiv_pos_as_xyz
  1  'x, y, z'
loop_
 _atom_site_type_symbol
 _atom_site_label
 _atom_site_symmetry_multiplicity
 _atom_site_fract_x
 _atom_site_fract_y
 _atom_site_fract_z
 _atom_site_occupancy
  C  C0  1  0.57078500  0.11978800  0.75452900  1
  C  C1  1  0.88021200  0.57078500  0.00452900  1
  C  C2  1  0.11978800  0.42921500  0.50452900  1
  C  C3  1  0.42921500  0.88021200  0.25452900  1
  Ni  Ni4  1  0.31805000  0.08505100  0.83914100  1
  Ni  Ni5  1  0.68195000  0.91494900  0.33914100  1
  Ni  Ni6  1  0.91494900  0.31805000  0.08914100  1
  Ni  Ni7  1  0.08505100  0.68195000  0.58914100  1
  Cu  Cu8  1  0.95634600  0.21072700  0.62497900  1
  Cu  Cu9  1  0.78927300  0.95634600  0.87497900  1
  Cu  Cu10  1  0.13460900  0.58035500  0.88073000  1
  Cu  Cu11  1  0.56330100  0.67872700  0.09182100  1
  Cu  Cu12  1  0.21072700  0.04365400  0.37497900  1
  Cu  Cu13  1  0.41964500  0.13460900  0.13073000  1
  Cu  Cu14  1  0.04365400  0.78927300  0.12497900  1
  Cu  Cu15  1  0.67872700  0.43669900  0.84182100  1
  Cu  Cu16  1  0.32127300  0.56330100  0.34182100  1
  Cu  Cu17  1  0.58035500  0.86539100  0.63073000  1
  Cu  Cu18  1  0.43669900  0.32127300  0.59182100  1
  Cu  Cu19  1  0.86539100  0.41964500  0.38073000  1
