# generated using pymatgen
data_Cu4Ni2C
_symmetry_space_group_name_H-M   'P 1'
_cell_length_a   11.24945000
_cell_length_b   11.24945000
_cell_length_c   11.24945000
_cell_angle_alpha   90.00000000
_cell_angle_beta   90.00000000
_cell_angle_gamma   90.00000000
_symmetry_Int_Tables_number   1
_chemical_formula_structural   Cu4Ni2C
_chemical_formula_sum   'Cu48 Ni24 C12'
_cell_volume   1423.61930708
_cell_formula_units_Z   12
loop_
 _symmetry_equiv_pos_site_id
 _symmetry_equiv_pos_as_xyz
  1  'x, y, z'
loop_
 _atom_site_type_symbol
 _atom_site_label
 _atom_site_symmetry_multiplicity
 _atom_site_fract_x
 _atom_site_fract_y
 _atom_site_fract_z
 _atom_site_occupancy
  C  C0  1  0.37359500  0.12640500  0.87359500  1
  C  C1  1  0.12640500  0.87359500  0.37359500  1
  C  C2  1  0.87359500  0.37359500  0.12640500  1
  C  C3  1  0.62640500  0.62640500  0.62640500  1
  C  C4  1  0.62640500  0.87359500  0.12640500  1
  C  C5  1  0.87359500  0.12640500  0.62640500  1
  C  C6  1  0.12640500  0.62640500  0.87359500  1
  C  C7  1  0.37359500  0.37359500  0.37359500  1
  C  C8  1  0.00000000  0.50000000  0.50000000  1
  C  C9  1  0.50000000  0.50000000  0.00000000  1
  C  C10  1  0.50000000  0.00000000  0.50000000  1
  C  C11  1  0.00000000  0.00000000  0.00000000  1
  Ni  Ni12  1  0.62938200  0.19343600  0.14598900  1
  Ni  Ni13  1  0.12938200  0.30656400  0.85401100  1
  Ni  Ni14  1  0.37061800  0.69343600  0.35401100  1
  Ni  Ni15  1  0.30656400  0.85401100  0.12938200  1
  Ni  Ni16  1  0.35401100  0.37061800  0.69343600  1
  Ni  Ni17  1  0.85401100  0.12938200  0.30656400  1
  Ni  Ni18  1  0.19343600  0.14598900  0.62938200  1
  Ni  Ni19  1  0.14598900  0.62938200  0.19343600  1
  Ni  Ni20  1  0.69343600  0.35401100  0.37061800  1
  Ni  Ni21  1  0.80656400  0.64598900  0.87061800  1
  Ni  Ni22  1  0.64598900  0.87061800  0.80656400  1
  Ni  Ni23  1  0.87061800  0.80656400  0.64598900  1
  Ni  Ni24  1  0.37061800  0.80656400  0.85401100  1
  Ni  Ni25  1  0.87061800  0.69343600  0.14598900  1
  Ni  Ni26  1  0.62938200  0.30656400  0.64598900  1
  Ni  Ni27  1  0.69343600  0.14598900  0.87061800  1
  Ni  Ni28  1  0.64598900  0.62938200  0.30656400  1
  Ni  Ni29  1  0.14598900  0.87061800  0.69343600  1
  Ni  Ni30  1  0.80656400  0.85401100  0.37061800  1
  Ni  Ni31  1  0.85401100  0.37061800  0.80656400  1
  Ni  Ni32  1  0.30656400  0.64598900  0.62938200  1
  Ni  Ni33  1  0.19343600  0.35401100  0.12938200  1
  Ni  Ni34  1  0.35401100  0.12938200  0.19343600  1
  Ni  Ni35  1  0.12938200  0.19343600  0.35401100  1
  Cu  Cu36  1  0.58493900  0.27730300  0.47957300  1
  Cu  Cu37  1  0.08493900  0.22269700  0.52042700  1
  Cu  Cu38  1  0.41506100  0.77730300  0.02042700  1
  Cu  Cu39  1  0.22269700  0.52042700  0.08493900  1
  Cu  Cu40  1  0.02042700  0.41506100  0.77730300  1
  Cu  Cu41  1  0.52042700  0.08493900  0.22269700  1
  Cu  Cu42  1  0.27730300  0.47957300  0.58493900  1
  Cu  Cu43  1  0.47957300  0.58493900  0.27730300  1
  Cu  Cu44  1  0.77730300  0.02042700  0.41506100  1
  Cu  Cu45  1  0.72269700  0.97957300  0.91506100  1
  Cu  Cu46  1  0.97957300  0.91506100  0.72269700  1
  Cu  Cu47  1  0.91506100  0.72269700  0.97957300  1
  Cu  Cu48  1  0.41506100  0.72269700  0.52042700  1
  Cu  Cu49  1  0.91506100  0.77730300  0.47957300  1
  Cu  Cu50  1  0.58493900  0.22269700  0.97957300  1
  Cu  Cu51  1  0.77730300  0.47957300  0.91506100  1
  Cu  Cu52  1  0.97957300  0.58493900  0.22269700  1
  Cu  Cu53  1  0.47957300  0.91506100  0.77730300  1
  Cu  Cu54  1  0.72269700  0.52042700  0.41506100  1
  Cu  Cu55  1  0.52042700  0.41506100  0.72269700  1
  Cu  Cu56  1  0.22269700  0.97957300  0.58493900  1
  Cu  Cu57  1  0.27730300  0.02042700  0.08493900  1
  Cu  Cu58  1  0.02042700  0.08493900  0.27730300  1
  Cu  Cu59  1  0.08493900  0.27730300  0.02042700  1
  Cu  Cu60  1  0.85094000  0.28814200  0.37173700  1
  Cu  Cu61  1  0.35094000  0.21185800  0.62826300  1
  Cu  Cu62  1  0.14906000  0.78814200  0.12826300  1
  Cu  Cu63  1  0.21185800  0.62826300  0.35094000  1
  Cu  Cu64  1  0.12826300  0.14906000  0.78814200  1
  Cu  Cu65  1  0.62826300  0.35094000  0.21185800  1
  Cu  Cu66  1  0.28814200  0.37173700  0.85094000  1
  Cu  Cu67  1  0.37173700  0.85094000  0.28814200  1
  Cu  Cu68  1  0.78814200  0.12826300  0.14906000  1
  Cu  Cu69  1  0.71185800  0.87173700  0.64906000  1
  Cu  Cu70  1  0.87173700  0.64906000  0.71185800  1
  Cu  Cu71  1  0.64906000  0.71185800  0.87173700  1
  Cu  Cu72  1  0.14906000  0.71185800  0.62826300  1
  Cu  Cu73  1  0.64906000  0.78814200  0.37173700  1
  Cu  Cu74  1  0.85094000  0.21185800  0.87173700  1
  Cu  Cu75  1  0.78814200  0.37173700  0.64906000  1
  Cu  Cu76  1  0.87173700  0.85094000  0.21185800  1
  Cu  Cu77  1  0.37173700  0.64906000  0.78814200  1
  Cu  Cu78  1  0.71185800  0.62826300  0.14906000  1
  Cu  Cu79  1  0.62826300  0.14906000  0.71185800  1
  Cu  Cu80  1  0.21185800  0.87173700  0.85094000  1
  Cu  Cu81  1  0.28814200  0.12826300  0.35094000  1
  Cu  Cu82  1  0.12826300  0.35094000  0.28814200  1
  Cu  Cu83  1  0.35094000  0.28814200  0.12826300  1
