# generated using pymatgen
data_CuNiC
_symmetry_space_group_name_H-M   'P 1'
_cell_length_a   3.67467400
_cell_length_b   5.55256300
_cell_length_c   8.50579500
_cell_angle_alpha   90.00000000
_cell_angle_beta   90.00000000
_cell_angle_gamma   90.00000000
_symmetry_Int_Tables_number   1
_chemical_formula_structural   CuNiC
_chemical_formula_sum   'Cu4 Ni4 C4'
_cell_volume   173.55104092
_cell_formula_units_Z   4
loop_
 _symmetry_equiv_pos_site_id
 _symmetry_equiv_pos_as_xyz
  1  'x, y, z'
loop_
 _atom_site_type_symbol
 _atom_site_label
 _atom_site_symmetry_multiplicity
 _atom_site_fract_x
 _atom_site_fract_y
 _atom_site_fract_z
 _atom_site_occupancy
  Ni  Ni0  1  0.25000000  0.57469400  0.04755100  1
  Ni  Ni1  1  0.75000000  0.42530600  0.95244900  1
  Ni  Ni2  1  0.75000000  0.07469400  0.45244900  1
  Ni  Ni3  1  0.25000000  0.92530600  0.54755100  1
  Cu  Cu4  1  0.25000000  0.47344300  0.65633500  1
  Cu  Cu5  1  0.75000000  0.97344300  0.84366500  1
  Cu  Cu6  1  0.25000000  0.02655700  0.15633500  1
  Cu  Cu7  1  0.75000000  0.52655700  0.34366500  1
  C  C8  1  0.75000000  0.74084600  0.09283000  1
  C  C9  1  0.75000000  0.75915400  0.59283000  1
  C  C10  1  0.25000000  0.25915400  0.90717000  1
  C  C11  1  0.25000000  0.24084600  0.40717000  1
