# generated using pymatgen
data_Cu4NiC3
_symmetry_space_group_name_H-M   'P 1'
_cell_length_a   6.17321400
_cell_length_b   6.46220600
_cell_length_c   7.44549600
_cell_angle_alpha   90.00000000
_cell_angle_beta   90.00000000
_cell_angle_gamma   90.00000000
_symmetry_Int_Tables_number   1
_chemical_formula_structural   Cu4NiC3
_chemical_formula_sum   'Cu8 Ni2 C6'
_cell_volume   297.02004892
_cell_formula_units_Z   2
loop_
 _symmetry_equiv_pos_site_id
 _symmetry_equiv_pos_as_xyz
  1  'x, y, z'
loop_
 _atom_site_type_symbol
 _atom_site_label
 _atom_site_symmetry_multiplicity
 _atom_site_fract_x
 _atom_site_fract_y
 _atom_site_fract_z
 _atom_site_occupancy
  C  C0  1  0.99693200  0.84005500  0.50000000  1
  C  C1  1  0.49275000  0.67141200  0.25035400  1
  C  C2  1  0.49275000  0.67141200  0.74964600  1
  C  C3  1  0.99275000  0.32858800  0.75035400  1
  C  C4  1  0.49693200  0.15994500  0.00000000  1
  C  C5  1  0.99275000  0.32858800  0.24964600  1
  Ni  Ni6  1  0.49875600  0.16990100  0.50000000  1
  Ni  Ni7  1  0.99875600  0.83009900  0.00000000  1
  Cu  Cu8  1  0.62241300  0.33812600  0.24941100  1
  Cu  Cu9  1  0.12241300  0.66187400  0.25058900  1
  Cu  Cu10  1  0.12241300  0.66187400  0.74941100  1
  Cu  Cu11  1  0.62241300  0.33812600  0.75058900  1
  Cu  Cu12  1  0.62490900  0.83995300  0.50000000  1
  Cu  Cu13  1  0.12490900  0.16004700  0.00000000  1
  Cu  Cu14  1  0.62919700  0.82745200  0.00000000  1
  Cu  Cu15  1  0.12919700  0.17254800  0.50000000  1
