# generated using pymatgen
data_Cu2Ni4C7
_symmetry_space_group_name_H-M   'P 1'
_cell_length_a   7.53944700
_cell_length_b   10.27488900
_cell_length_c   12.48559600
_cell_angle_alpha   90.00000000
_cell_angle_beta   90.00000000
_cell_angle_gamma   90.00000000
_symmetry_Int_Tables_number   1
_chemical_formula_structural   Cu2Ni4C7
_chemical_formula_sum   'Cu8 Ni16 C28'
_cell_volume   967.22142868
_cell_formula_units_Z   4
loop_
 _symmetry_equiv_pos_site_id
 _symmetry_equiv_pos_as_xyz
  1  'x, y, z'
loop_
 _atom_site_type_symbol
 _atom_site_label
 _atom_site_symmetry_multiplicity
 _atom_site_fract_x
 _atom_site_fract_y
 _atom_site_fract_z
 _atom_site_occupancy
  Ni  Ni0  1  0.05378900  0.10463300  0.45115500  1
  Ni  Ni1  1  0.55378900  0.39536700  0.54884500  1
  Ni  Ni2  1  0.44621100  0.60463300  0.04884500  1
  Ni  Ni3  1  0.94621100  0.89536700  0.95115500  1
  Ni  Ni4  1  0.94621100  0.89536700  0.54884500  1
  Ni  Ni5  1  0.44621100  0.60463300  0.45115500  1
  Ni  Ni6  1  0.55378900  0.39536700  0.95115500  1
  Ni  Ni7  1  0.05378900  0.10463300  0.04884500  1
  Ni  Ni8  1  0.55809000  0.01013100  0.40219500  1
  Ni  Ni9  1  0.05809000  0.48986900  0.59780500  1
  Ni  Ni10  1  0.94191000  0.51013100  0.09780500  1
  Ni  Ni11  1  0.44191000  0.98986900  0.90219500  1
  Ni  Ni12  1  0.44191000  0.98986900  0.59780500  1
  Ni  Ni13  1  0.94191000  0.51013100  0.40219500  1
  Ni  Ni14  1  0.05809000  0.48986900  0.90219500  1
  Ni  Ni15  1  0.55809000  0.01013100  0.09780500  1
  Cu  Cu16  1  0.31857400  0.69676600  0.75000000  1
  Cu  Cu17  1  0.81857400  0.80323400  0.25000000  1
  Cu  Cu18  1  0.18142600  0.19676600  0.75000000  1
  Cu  Cu19  1  0.68142600  0.30323400  0.25000000  1
  Cu  Cu20  1  0.72277800  0.76193300  0.75000000  1
  Cu  Cu21  1  0.22277800  0.73806700  0.25000000  1
  Cu  Cu22  1  0.77722200  0.26193300  0.75000000  1
  Cu  Cu23  1  0.27722200  0.23806700  0.25000000  1
  C  C24  1  0.21468100  0.54536900  0.75000000  1
  C  C25  1  0.71468100  0.95463100  0.25000000  1
  C  C26  1  0.28531900  0.04536900  0.75000000  1
  C  C27  1  0.78531900  0.45463100  0.25000000  1
  C  C28  1  0.55102800  0.64188200  0.75000000  1
  C  C29  1  0.05102800  0.85811800  0.25000000  1
  C  C30  1  0.94897200  0.14188200  0.75000000  1
  C  C31  1  0.44897200  0.35811800  0.25000000  1
  C  C32  1  0.63475900  0.91478600  0.75000000  1
  C  C33  1  0.13475900  0.58521400  0.25000000  1
  C  C34  1  0.86524100  0.41478600  0.75000000  1
  C  C35  1  0.36524100  0.08521400  0.25000000  1
  C  C36  1  0.15668400  0.27095500  0.36426500  1
  C  C37  1  0.65668400  0.22904500  0.63573500  1
  C  C38  1  0.34331600  0.77095500  0.13573500  1
  C  C39  1  0.84331600  0.72904500  0.86426500  1
  C  C40  1  0.84331600  0.72904500  0.63573500  1
  C  C41  1  0.34331600  0.77095500  0.36426500  1
  C  C42  1  0.65668400  0.22904500  0.86426500  1
  C  C43  1  0.15668400  0.27095500  0.13573500  1
  C  C44  1  0.21364100  0.27186700  0.86948700  1
  C  C45  1  0.71364100  0.22813300  0.13051300  1
  C  C46  1  0.28635900  0.77186700  0.63051300  1
  C  C47  1  0.78635900  0.72813300  0.36948700  1
  C  C48  1  0.21364100  0.27186700  0.63051300  1
  C  C49  1  0.71364100  0.22813300  0.36948700  1
  C  C50  1  0.28635900  0.77186700  0.86948700  1
  C  C51  1  0.78635900  0.72813300  0.13051300  1
