# generated using pymatgen
data_Cu2NiC4
_symmetry_space_group_name_H-M   'P 1'
_cell_length_a   5.77365260
_cell_length_b   5.77365260
_cell_length_c   14.15949100
_cell_angle_alpha   90.00000000
_cell_angle_beta   90.00000000
_cell_angle_gamma   120.00000690
_symmetry_Int_Tables_number   1
_chemical_formula_structural   Cu2NiC4
_chemical_formula_sum   'Cu12 Ni6 C24'
_cell_volume   408.77049541
_cell_formula_units_Z   6
loop_
 _symmetry_equiv_pos_site_id
 _symmetry_equiv_pos_as_xyz
  1  'x, y, z'
loop_
 _atom_site_type_symbol
 _atom_site_label
 _atom_site_symmetry_multiplicity
 _atom_site_fract_x
 _atom_site_fract_y
 _atom_site_fract_z
 _atom_site_occupancy
  Ni  Ni0  1  0.33333300  0.66666700  0.00396300  1
  Ni  Ni1  1  0.00000000  0.00000000  0.66645500  1
  Ni  Ni2  1  0.66666700  0.33333300  0.96151800  1
  Ni  Ni3  1  0.66666700  0.33333300  0.58432900  1
  Ni  Ni4  1  0.66666700  0.33333300  0.33453400  1
  Ni  Ni5  1  0.33333300  0.66666700  0.24632500  1
  Cu  Cu6  1  0.00000000  0.00000000  0.91415400  1
  Cu  Cu7  1  0.49763300  0.99526600  0.79082200  1
  Cu  Cu8  1  0.49763300  0.50236700  0.79082200  1
  Cu  Cu9  1  0.16644900  0.33289800  0.45750500  1
  Cu  Cu10  1  0.00473400  0.50236700  0.79082200  1
  Cu  Cu11  1  0.33333300  0.66666700  0.62308300  1
  Cu  Cu12  1  0.16644900  0.83355100  0.45750500  1
  Cu  Cu13  1  0.83055800  0.66111700  0.12579300  1
  Cu  Cu14  1  0.66710200  0.83355100  0.45750500  1
  Cu  Cu15  1  0.83055800  0.16944200  0.12579300  1
  Cu  Cu16  1  0.00000000  0.00000000  0.29089300  1
  Cu  Cu17  1  0.33888300  0.16944200  0.12579300  1
  C  C18  1  0.34047200  0.17023600  0.86689400  1
  C  C19  1  0.82976400  0.17023600  0.86689400  1
  C  C20  1  0.66666700  0.33333300  0.72606200  1
  C  C21  1  0.82976400  0.65952800  0.86689400  1
  C  C22  1  0.03596100  0.51798000  0.53709900  1
  C  C23  1  0.18582600  0.37165300  0.71156500  1
  C  C24  1  0.48202000  0.51798000  0.53709900  1
  C  C25  1  0.18582600  0.81417400  0.71156500  1
  C  C26  1  0.33333300  0.66666700  0.38758400  1
  C  C27  1  0.33333300  0.66666700  0.86217100  1
  C  C28  1  0.48202000  0.96403900  0.53709900  1
  C  C29  1  0.62834700  0.81417400  0.71156500  1
  C  C30  1  0.70830200  0.85415100  0.20308500  1
  C  C31  1  0.85169000  0.70338000  0.37994600  1
  C  C32  1  0.14584900  0.85415100  0.20308500  1
  C  C33  1  0.85169000  0.14831000  0.37994600  1
  C  C34  1  0.00000000  0.00000000  0.04307400  1
  C  C35  1  0.00000000  0.00000000  0.52832100  1
  C  C36  1  0.14584900  0.29169800  0.20308500  1
  C  C37  1  0.29662000  0.14831000  0.37994600  1
  C  C38  1  0.51285000  0.02570000  0.05384800  1
  C  C39  1  0.51285000  0.48715000  0.05384800  1
  C  C40  1  0.66666700  0.33333300  0.19798000  1
  C  C41  1  0.97430000  0.48715000  0.05384800  1
