# generated using pymatgen
data_CuNi4C
_symmetry_space_group_name_H-M   'P 1'
_cell_length_a   9.10381470
_cell_length_b   9.10381470
_cell_length_c   4.09494900
_cell_angle_alpha   90.00000000
_cell_angle_beta   90.00000000
_cell_angle_gamma   120.00000506
_symmetry_Int_Tables_number   1
_chemical_formula_structural   CuNi4C
_chemical_formula_sum   'Cu3 Ni12 C3'
_cell_volume   293.91782517
_cell_formula_units_Z   3
loop_
 _symmetry_equiv_pos_site_id
 _symmetry_equiv_pos_as_xyz
  1  'x, y, z'
loop_
 _atom_site_type_symbol
 _atom_site_label
 _atom_site_symmetry_multiplicity
 _atom_site_fract_x
 _atom_site_fract_y
 _atom_site_fract_z
 _atom_site_occupancy
  C  C0  1  0.00000000  0.40927500  0.00000000  1
  C  C1  1  0.59072500  0.59072500  0.00000000  1
  C  C2  1  0.40927500  0.00000000  0.00000000  1
  Ni  Ni3  1  0.00000000  0.74155700  0.00000000  1
  Ni  Ni4  1  0.25844300  0.25844300  0.00000000  1
  Ni  Ni5  1  0.74155700  0.00000000  0.00000000  1
  Ni  Ni6  1  0.00000000  0.16942600  0.50000000  1
  Ni  Ni7  1  0.83057400  0.83057400  0.50000000  1
  Ni  Ni8  1  0.16942600  0.00000000  0.50000000  1
  Ni  Ni9  1  0.29700200  0.48009300  0.50000000  1
  Ni  Ni10  1  0.18309100  0.70299800  0.50000000  1
  Ni  Ni11  1  0.51990700  0.81690900  0.50000000  1
  Ni  Ni12  1  0.81690900  0.51990700  0.50000000  1
  Ni  Ni13  1  0.70299800  0.18309100  0.50000000  1
  Ni  Ni14  1  0.48009300  0.29700200  0.50000000  1
  Cu  Cu15  1  0.66666700  0.33333300  0.00000000  1
  Cu  Cu16  1  0.33333300  0.66666700  0.00000000  1
  Cu  Cu17  1  0.00000000  0.00000000  0.00000000  1
