# generated using pymatgen
data_CuNiC
_symmetry_space_group_name_H-M   'P 1'
_cell_length_a   4.63434800
_cell_length_b   7.22946600
_cell_length_c   8.01071200
_cell_angle_alpha   90.00000000
_cell_angle_beta   90.00000000
_cell_angle_gamma   90.00000000
_symmetry_Int_Tables_number   1
_chemical_formula_structural   CuNiC
_chemical_formula_sum   'Cu4 Ni4 C4'
_cell_volume   268.38978375
_cell_formula_units_Z   4
loop_
 _symmetry_equiv_pos_site_id
 _symmetry_equiv_pos_as_xyz
  1  'x, y, z'
loop_
 _atom_site_type_symbol
 _atom_site_label
 _atom_site_symmetry_multiplicity
 _atom_site_fract_x
 _atom_site_fract_y
 _atom_site_fract_z
 _atom_site_occupancy
  C  C0  1  0.25000000  0.49118300  0.20625700  1
  C  C1  1  0.75000000  0.50881700  0.79374300  1
  C  C2  1  0.25000000  0.99118300  0.29374300  1
  C  C3  1  0.75000000  0.00881700  0.70625700  1
  Ni  Ni4  1  0.25000000  0.30518500  0.58694500  1
  Ni  Ni5  1  0.75000000  0.19481500  0.08694500  1
  Ni  Ni6  1  0.25000000  0.80518500  0.91305500  1
  Ni  Ni7  1  0.75000000  0.69481500  0.41305500  1
  Cu  Cu8  1  0.75000000  0.29527700  0.41447700  1
  Cu  Cu9  1  0.25000000  0.20472300  0.91447700  1
  Cu  Cu10  1  0.75000000  0.79527700  0.08552300  1
  Cu  Cu11  1  0.25000000  0.70472300  0.58552300  1
