# generated using pymatgen
data_Cu2Ni3C4
_symmetry_space_group_name_H-M   'P 1'
_cell_length_a   8.40745883
_cell_length_b   8.40745883
_cell_length_c   6.55680975
_cell_angle_alpha   89.82195085
_cell_angle_beta   89.82195085
_cell_angle_gamma   75.65859388
_symmetry_Int_Tables_number   1
_chemical_formula_structural   Cu2Ni3C4
_chemical_formula_sum   'Cu4 Ni6 C8'
_cell_volume   449.02386792
_cell_formula_units_Z   2
loop_
 _symmetry_equiv_pos_site_id
 _symmetry_equiv_pos_as_xyz
  1  'x, y, z'
loop_
 _atom_site_type_symbol
 _atom_site_label
 _atom_site_symmetry_multiplicity
 _atom_site_fract_x
 _atom_site_fract_y
 _atom_site_fract_z
 _atom_site_occupancy
  C  C0  1  0.58525900  0.74430800  0.57215800  1
  C  C1  1  0.25569200  0.41474100  0.92784200  1
  C  C2  1  0.41474100  0.25569200  0.42784200  1
  C  C3  1  0.74430800  0.58525900  0.07215800  1
  C  C4  1  0.94312900  0.30986100  0.53009700  1
  C  C5  1  0.69013900  0.05687100  0.96990300  1
  C  C6  1  0.05687100  0.69013900  0.46990300  1
  C  C7  1  0.30986100  0.94312900  0.03009700  1
  Ni  Ni8  1  0.98431200  0.24706300  0.03513400  1
  Ni  Ni9  1  0.40273400  0.59726600  0.25000000  1
  Ni  Ni10  1  0.75293700  0.01568800  0.46486600  1
  Ni  Ni11  1  0.01568800  0.75293700  0.96486600  1
  Ni  Ni12  1  0.59726600  0.40273400  0.75000000  1
  Ni  Ni13  1  0.24706300  0.98431200  0.53513400  1
  Cu  Cu14  1  0.82954000  0.58140100  0.41478500  1
  Cu  Cu15  1  0.58140100  0.82954000  0.91478500  1
  Cu  Cu16  1  0.17046000  0.41859900  0.58521500  1
  Cu  Cu17  1  0.41859900  0.17046000  0.08521500  1
