# generated using pymatgen
data_Cu(NiC2)2
_symmetry_space_group_name_H-M   'P 1'
_cell_length_a   7.48070451
_cell_length_b   7.48070451
_cell_length_c   7.48070451
_cell_angle_alpha   109.31181943
_cell_angle_beta   109.31181943
_cell_angle_gamma   109.79049558
_symmetry_Int_Tables_number   1
_chemical_formula_structural   Cu(NiC2)2
_chemical_formula_sum   'Cu2 Ni4 C8'
_cell_volume   322.25190232
_cell_formula_units_Z   2
loop_
 _symmetry_equiv_pos_site_id
 _symmetry_equiv_pos_as_xyz
  1  'x, y, z'
loop_
 _atom_site_type_symbol
 _atom_site_label
 _atom_site_symmetry_multiplicity
 _atom_site_fract_x
 _atom_site_fract_y
 _atom_site_fract_z
 _atom_site_occupancy
  Ni  Ni0  1  0.99783500  0.37500000  0.12283500  1
  Ni  Ni1  1  0.62500000  0.74783500  0.62283500  1
  Ni  Ni2  1  0.25216500  0.87500000  0.87716500  1
  Ni  Ni3  1  0.12500000  0.00216500  0.37716500  1
  Cu  Cu4  1  0.75000000  0.25000000  0.50000000  1
  Cu  Cu5  1  0.50000000  0.50000000  0.00000000  1
  C  C6  1  0.51989700  0.11968700  0.74991100  1
  C  C7  1  0.73010300  0.98001400  0.09979000  1
  C  C8  1  0.88031300  0.63022400  0.40021000  1
  C  C9  1  0.23001400  0.48010300  0.59979000  1
  C  C10  1  0.36968700  0.26989700  0.24991100  1
  C  C11  1  0.88022400  0.63031300  0.90021000  1
  C  C12  1  0.36977600  0.76998600  0.25008900  1
  C  C13  1  0.01998600  0.11977600  0.75008900  1
