# generated using pymatgen
data_Cu3NiC
_symmetry_space_group_name_H-M   'P 1'
_cell_length_a   10.33246683
_cell_length_b   10.33246683
_cell_length_c   6.68497900
_cell_angle_alpha   90.00000000
_cell_angle_beta   90.00000000
_cell_angle_gamma   120.00000532
_symmetry_Int_Tables_number   1
_chemical_formula_structural   Cu3NiC
_chemical_formula_sum   'Cu18 Ni6 C6'
_cell_volume   618.07146745
_cell_formula_units_Z   6
loop_
 _symmetry_equiv_pos_site_id
 _symmetry_equiv_pos_as_xyz
  1  'x, y, z'
loop_
 _atom_site_type_symbol
 _atom_site_label
 _atom_site_symmetry_multiplicity
 _atom_site_fract_x
 _atom_site_fract_y
 _atom_site_fract_z
 _atom_site_occupancy
  C  C0  1  0.29501100  0.00000000  0.50000000  1
  C  C1  1  0.00000000  0.29501100  0.50000000  1
  C  C2  1  0.70498900  0.70498900  0.50000000  1
  C  C3  1  0.61918500  0.00000000  0.00000000  1
  C  C4  1  0.00000000  0.61918500  0.00000000  1
  C  C5  1  0.38081500  0.38081500  0.00000000  1
  Ni  Ni6  1  0.00000000  0.00000000  0.16692600  1
  Ni  Ni7  1  0.00000000  0.00000000  0.83307400  1
  Ni  Ni8  1  0.33333300  0.66666700  0.59648400  1
  Ni  Ni9  1  0.66666700  0.33333300  0.40351600  1
  Ni  Ni10  1  0.33333300  0.66666700  0.26533900  1
  Ni  Ni11  1  0.66666700  0.33333300  0.73466100  1
  Cu  Cu12  1  0.21037800  0.51783400  0.20733300  1
  Cu  Cu13  1  0.48216600  0.69254400  0.20733300  1
  Cu  Cu14  1  0.30745600  0.78962200  0.20733300  1
  Cu  Cu15  1  0.69254400  0.48216600  0.79266700  1
  Cu  Cu16  1  0.78962200  0.30745600  0.79266700  1
  Cu  Cu17  1  0.51783400  0.21037800  0.79266700  1
  Cu  Cu18  1  0.17817100  0.62056800  0.64960300  1
  Cu  Cu19  1  0.37943200  0.55760400  0.64960300  1
  Cu  Cu20  1  0.44239600  0.82182900  0.64960300  1
  Cu  Cu21  1  0.55760400  0.37943200  0.35039700  1
  Cu  Cu22  1  0.82182900  0.44239600  0.35039700  1
  Cu  Cu23  1  0.62056800  0.17817100  0.35039700  1
  Cu  Cu24  1  0.15185300  0.11643800  0.22414600  1
  Cu  Cu25  1  0.88356200  0.03541400  0.22414600  1
  Cu  Cu26  1  0.96458600  0.84814700  0.22414600  1
  Cu  Cu27  1  0.03541400  0.88356200  0.77585400  1
  Cu  Cu28  1  0.84814700  0.96458600  0.77585400  1
  Cu  Cu29  1  0.11643800  0.15185300  0.77585400  1
