# generated using pymatgen
data_Cu8Ni4C33
_symmetry_space_group_name_H-M   'P 1'
_cell_length_a   8.60414738
_cell_length_b   8.60414738
_cell_length_c   10.59008016
_cell_angle_alpha   68.95860384
_cell_angle_beta   68.95860384
_cell_angle_gamma   56.18613096
_symmetry_Int_Tables_number   1
_chemical_formula_structural   Cu8Ni4C33
_chemical_formula_sum   'Cu8 Ni4 C33'
_cell_volume   594.99510152
_cell_formula_units_Z   1
loop_
 _symmetry_equiv_pos_site_id
 _symmetry_equiv_pos_as_xyz
  1  'x, y, z'
loop_
 _atom_site_type_symbol
 _atom_site_label
 _atom_site_symmetry_multiplicity
 _atom_site_fract_x
 _atom_site_fract_y
 _atom_site_fract_z
 _atom_site_occupancy
  C  C0  1  0.84816100  0.84816100  0.88520500  1
  C  C1  1  0.73038500  0.73038500  0.56140100  1
  C  C2  1  0.53299400  0.53299400  0.16334000  1
  C  C3  1  0.46700600  0.46700600  0.83666000  1
  C  C4  1  0.26961500  0.26961500  0.43859900  1
  C  C5  1  0.15183900  0.15183900  0.11479500  1
  Ni  Ni6  1  0.25563500  0.86122300  0.65722700  1
  Ni  Ni7  1  0.13877700  0.74436500  0.34277300  1
  Ni  Ni8  1  0.86122300  0.25563500  0.65722700  1
  Ni  Ni9  1  0.74436500  0.13877700  0.34277300  1
  C  C10  1  0.00000000  0.00000000  0.00000000  1
  Cu  Cu11  1  0.45259600  0.83804400  0.34586100  1
  Cu  Cu12  1  0.45964700  0.84622100  0.86650600  1
  Cu  Cu13  1  0.84622100  0.45964700  0.86650600  1
  Cu  Cu14  1  0.83804400  0.45259600  0.34586100  1
  Cu  Cu15  1  0.16195600  0.54740400  0.65413900  1
  Cu  Cu16  1  0.15377900  0.54035300  0.13349400  1
  Cu  Cu17  1  0.54035300  0.15377900  0.13349400  1
  Cu  Cu18  1  0.54740400  0.16195600  0.65413900  1
  C  C19  1  0.27801700  0.92178100  0.98802900  1
  C  C20  1  0.34775500  0.93573800  0.48088400  1
  C  C21  1  0.55154400  0.99251400  0.79236500  1
  C  C22  1  0.35418600  0.73925700  0.32253800  1
  C  C23  1  0.43168600  0.79570000  0.74397200  1
  C  C24  1  0.96824000  0.96824000  0.27493000  1
  C  C25  1  0.67804100  0.67804100  0.36012000  1
  C  C26  1  0.64265700  0.64265700  0.93283100  1
  C  C27  1  0.07821900  0.72198300  0.01197100  1
  C  C28  1  0.06426200  0.65224500  0.51911600  1
  C  C29  1  0.79570000  0.43168600  0.74397200  1
  C  C30  1  0.99251400  0.55154400  0.79236500  1
  C  C31  1  0.73925700  0.35418600  0.32253800  1
  C  C32  1  0.26074300  0.64581400  0.67746200  1
  C  C33  1  0.00748600  0.44845600  0.20763500  1
  C  C34  1  0.20430000  0.56831400  0.25602800  1
  C  C35  1  0.93573800  0.34775500  0.48088400  1
  C  C36  1  0.92178100  0.27801700  0.98802900  1
  C  C37  1  0.35734300  0.35734300  0.06716900  1
  C  C38  1  0.32195900  0.32195900  0.63988000  1
  C  C39  1  0.03176000  0.03176000  0.72507000  1
  C  C40  1  0.56831400  0.20430000  0.25602800  1
  C  C41  1  0.64581400  0.26074300  0.67746200  1
  C  C42  1  0.44845600  0.00748600  0.20763500  1
  C  C43  1  0.65224500  0.06426200  0.51911600  1
  C  C44  1  0.72198300  0.07821900  0.01197100  1
