# generated using pymatgen
data_Cu8NiC4
_symmetry_space_group_name_H-M   'P 1'
_cell_length_a   7.42870404
_cell_length_b   7.42870404
_cell_length_c   7.42870404
_cell_angle_alpha   60.00000000
_cell_angle_beta   60.00000000
_cell_angle_gamma   60.00000000
_symmetry_Int_Tables_number   1
_chemical_formula_structural   Cu8NiC4
_chemical_formula_sum   'Cu8 Ni1 C4'
_cell_volume   289.88395022
_cell_formula_units_Z   1
loop_
 _symmetry_equiv_pos_site_id
 _symmetry_equiv_pos_as_xyz
  1  'x, y, z'
loop_
 _atom_site_type_symbol
 _atom_site_label
 _atom_site_symmetry_multiplicity
 _atom_site_fract_x
 _atom_site_fract_y
 _atom_site_fract_z
 _atom_site_occupancy
  C  C0  1  0.39781900  0.39781900  0.80654400  1
  C  C1  1  0.39781900  0.80654400  0.39781900  1
  C  C2  1  0.80654400  0.39781900  0.39781900  1
  C  C3  1  0.39781900  0.39781900  0.39781900  1
  Ni  Ni4  1  0.00000000  0.00000000  0.00000000  1
  Cu  Cu5  1  0.63563300  0.63563300  0.09310100  1
  Cu  Cu6  1  0.63563300  0.09310100  0.63563300  1
  Cu  Cu7  1  0.09310100  0.63563300  0.63563300  1
  Cu  Cu8  1  0.63563300  0.63563300  0.63563300  1
  Cu  Cu9  1  0.13576600  0.13576600  0.59270100  1
  Cu  Cu10  1  0.13576600  0.59270100  0.13576600  1
  Cu  Cu11  1  0.59270100  0.13576600  0.13576600  1
  Cu  Cu12  1  0.13576600  0.13576600  0.13576600  1
