# generated using pymatgen
data_Cu2(Ni2C)3
_symmetry_space_group_name_H-M   'P 1'
_cell_length_a   8.15447900
_cell_length_b   8.42243900
_cell_length_c   10.42789000
_cell_angle_alpha   90.00000000
_cell_angle_beta   90.00000000
_cell_angle_gamma   90.00000000
_symmetry_Int_Tables_number   1
_chemical_formula_structural   Cu2(Ni2C)3
_chemical_formula_sum   'Cu8 Ni24 C12'
_cell_volume   716.19376231
_cell_formula_units_Z   4
loop_
 _symmetry_equiv_pos_site_id
 _symmetry_equiv_pos_as_xyz
  1  'x, y, z'
loop_
 _atom_site_type_symbol
 _atom_site_label
 _atom_site_symmetry_multiplicity
 _atom_site_fract_x
 _atom_site_fract_y
 _atom_site_fract_z
 _atom_site_occupancy
  C  C0  1  0.56742300  0.94768300  0.13988500  1
  C  C1  1  0.53987100  0.25000000  0.56416700  1
  C  C2  1  0.03987100  0.25000000  0.93583300  1
  C  C3  1  0.46012900  0.75000000  0.43583300  1
  C  C4  1  0.96012900  0.75000000  0.06416700  1
  C  C5  1  0.06742300  0.94768300  0.36011500  1
  C  C6  1  0.56742300  0.55231700  0.13988500  1
  C  C7  1  0.93257700  0.44768300  0.63988500  1
  C  C8  1  0.06742300  0.55231700  0.36011500  1
  C  C9  1  0.43257700  0.05231700  0.86011500  1
  C  C10  1  0.43257700  0.44768300  0.86011500  1
  C  C11  1  0.93257700  0.05231700  0.63988500  1
  Ni  Ni12  1  0.11597800  0.58879200  0.84355600  1
  Ni  Ni13  1  0.11597800  0.91120800  0.84355600  1
  Ni  Ni14  1  0.61597800  0.58879200  0.65644400  1
  Ni  Ni15  1  0.88402200  0.41120800  0.15644400  1
  Ni  Ni16  1  0.29547600  0.50571800  0.58716800  1
  Ni  Ni17  1  0.79547600  0.99428200  0.91283200  1
  Ni  Ni18  1  0.70452400  0.00571800  0.41283200  1
  Ni  Ni19  1  0.20452400  0.49428200  0.08716800  1
  Ni  Ni20  1  0.70452400  0.49428200  0.41283200  1
  Ni  Ni21  1  0.20452400  0.00571800  0.08716800  1
  Ni  Ni22  1  0.29547600  0.99428200  0.58716800  1
  Ni  Ni23  1  0.79547600  0.50571800  0.91283200  1
  Ni  Ni24  1  0.61597800  0.91120800  0.65644400  1
  Ni  Ni25  1  0.88402200  0.08879200  0.15644400  1
  Ni  Ni26  1  0.38402200  0.41120800  0.34355600  1
  Ni  Ni27  1  0.09843000  0.75000000  0.59080900  1
  Ni  Ni28  1  0.59843000  0.75000000  0.90919100  1
  Ni  Ni29  1  0.90157000  0.25000000  0.40919100  1
  Ni  Ni30  1  0.40157000  0.25000000  0.09080900  1
  Ni  Ni31  1  0.77983200  0.75000000  0.28431800  1
  Ni  Ni32  1  0.27983200  0.75000000  0.21568200  1
  Ni  Ni33  1  0.22016800  0.25000000  0.71568200  1
  Ni  Ni34  1  0.72016800  0.25000000  0.78431800  1
  Ni  Ni35  1  0.38402200  0.08879200  0.34355600  1
  Cu  Cu36  1  0.31764800  0.75000000  0.97770000  1
  Cu  Cu37  1  0.81764800  0.75000000  0.52230000  1
  Cu  Cu38  1  0.68235200  0.25000000  0.02230000  1
  Cu  Cu39  1  0.18235200  0.25000000  0.47770000  1
  Cu  Cu40  1  0.36289900  0.75000000  0.73592300  1
  Cu  Cu41  1  0.86289900  0.75000000  0.76407700  1
  Cu  Cu42  1  0.63710100  0.25000000  0.26407700  1
  Cu  Cu43  1  0.13710100  0.25000000  0.23592300  1
