# generated using pymatgen
data_Cu6Ni3C
_symmetry_space_group_name_H-M   'P 1'
_cell_length_a   6.23070719
_cell_length_b   6.23070719
_cell_length_c   6.23070647
_cell_angle_alpha   114.82629155
_cell_angle_beta   114.82629155
_cell_angle_gamma   114.82628240
_symmetry_Int_Tables_number   1
_chemical_formula_structural   Cu6Ni3C
_chemical_formula_sum   'Cu6 Ni3 C1'
_cell_volume   137.49174538
_cell_formula_units_Z   1
loop_
 _symmetry_equiv_pos_site_id
 _symmetry_equiv_pos_as_xyz
  1  'x, y, z'
loop_
 _atom_site_type_symbol
 _atom_site_label
 _atom_site_symmetry_multiplicity
 _atom_site_fract_x
 _atom_site_fract_y
 _atom_site_fract_z
 _atom_site_occupancy
  C  C0  1  0.28084700  0.28084700  0.28084700  1
  Ni  Ni1  1  0.87492500  0.87492500  0.41345900  1
  Ni  Ni2  1  0.41345900  0.87492500  0.87492500  1
  Ni  Ni3  1  0.87492500  0.41345900  0.87492500  1
  Cu  Cu4  1  0.57674100  0.15500600  0.15500600  1
  Cu  Cu5  1  0.15500600  0.15500600  0.57674100  1
  Cu  Cu6  1  0.60800600  0.86104200  0.86104200  1
  Cu  Cu7  1  0.86104200  0.86104200  0.60800600  1
  Cu  Cu8  1  0.86104200  0.60800600  0.86104200  1
  Cu  Cu9  1  0.15500600  0.57674100  0.15500600  1
