# generated using pymatgen
data_CuNi9C
_symmetry_space_group_name_H-M   'P 1'
_cell_length_a   7.55400678
_cell_length_b   7.55400678
_cell_length_c   7.97031300
_cell_angle_alpha   90.00000000
_cell_angle_beta   90.00000000
_cell_angle_gamma   120.00000685
_symmetry_Int_Tables_number   1
_chemical_formula_structural   CuNi9C
_chemical_formula_sum   'Cu2 Ni18 C2'
_cell_volume   393.87708883
_cell_formula_units_Z   2
loop_
 _symmetry_equiv_pos_site_id
 _symmetry_equiv_pos_as_xyz
  1  'x, y, z'
loop_
 _atom_site_type_symbol
 _atom_site_label
 _atom_site_symmetry_multiplicity
 _atom_site_fract_x
 _atom_site_fract_y
 _atom_site_fract_z
 _atom_site_occupancy
  C  C0  1  0.00000000  0.00000000  0.25000000  1
  C  C1  1  0.00000000  0.00000000  0.75000000  1
  Ni  Ni2  1  0.47569000  0.95138000  0.25000000  1
  Ni  Ni3  1  0.52431000  0.47569000  0.75000000  1
  Ni  Ni4  1  0.95138000  0.47569000  0.75000000  1
  Ni  Ni5  1  0.04862000  0.52431000  0.25000000  1
  Ni  Ni6  1  0.47569000  0.52431000  0.25000000  1
  Ni  Ni7  1  0.52431000  0.04862000  0.75000000  1
  Ni  Ni8  1  0.20817900  0.41635800  0.51616600  1
  Ni  Ni9  1  0.79182100  0.20817900  0.01616600  1
  Ni  Ni10  1  0.41635800  0.20817900  0.01616600  1
  Ni  Ni11  1  0.58364200  0.79182100  0.51616600  1
  Ni  Ni12  1  0.20817900  0.79182100  0.51616600  1
  Ni  Ni13  1  0.79182100  0.58364200  0.48383400  1
  Ni  Ni14  1  0.79182100  0.20817900  0.48383400  1
  Ni  Ni15  1  0.79182100  0.58364200  0.01616600  1
  Ni  Ni16  1  0.41635800  0.20817900  0.48383400  1
  Ni  Ni17  1  0.58364200  0.79182100  0.98383400  1
  Ni  Ni18  1  0.20817900  0.41635800  0.98383400  1
  Ni  Ni19  1  0.20817900  0.79182100  0.98383400  1
  Cu  Cu20  1  0.33333300  0.66666700  0.75000000  1
  Cu  Cu21  1  0.66666700  0.33333300  0.25000000  1
