# generated using pymatgen
data_Cu6Ni4C
_symmetry_space_group_name_H-M   'P 1'
_cell_length_a   11.09774100
_cell_length_b   11.19150100
_cell_length_c   11.19374800
_cell_angle_alpha   90.00000000
_cell_angle_beta   90.00000000
_cell_angle_gamma   90.00000000
_symmetry_Int_Tables_number   1
_chemical_formula_structural   Cu6Ni4C
_chemical_formula_sum   'Cu24 Ni16 C4'
_cell_volume   1390.26774962
_cell_formula_units_Z   4
loop_
 _symmetry_equiv_pos_site_id
 _symmetry_equiv_pos_as_xyz
  1  'x, y, z'
loop_
 _atom_site_type_symbol
 _atom_site_label
 _atom_site_symmetry_multiplicity
 _atom_site_fract_x
 _atom_site_fract_y
 _atom_site_fract_z
 _atom_site_occupancy
  C  C0  1  0.50000000  0.00000000  0.50000000  1
  C  C1  1  0.00000000  0.50000000  0.50000000  1
  C  C2  1  0.00000000  0.00000000  0.00000000  1
  C  C3  1  0.50000000  0.50000000  0.00000000  1
  Ni  Ni4  1  0.10833300  0.89953000  0.50463800  1
  Ni  Ni5  1  0.39166700  0.60047000  0.50463800  1
  Ni  Ni6  1  0.60833300  0.10047000  0.99536200  1
  Ni  Ni7  1  0.89166700  0.39953000  0.99536200  1
  Ni  Ni8  1  0.89166700  0.10047000  0.49536200  1
  Ni  Ni9  1  0.60833300  0.39953000  0.49536200  1
  Ni  Ni10  1  0.39166700  0.89953000  0.00463800  1
  Ni  Ni11  1  0.10833300  0.60047000  0.00463800  1
  Ni  Ni12  1  0.91530500  0.90674500  0.42100500  1
  Ni  Ni13  1  0.58469500  0.59325500  0.42100500  1
  Ni  Ni14  1  0.41530500  0.09325500  0.07899500  1
  Ni  Ni15  1  0.08469500  0.40674500  0.07899500  1
  Ni  Ni16  1  0.08469500  0.09325500  0.57899500  1
  Ni  Ni17  1  0.41530500  0.40674500  0.57899500  1
  Ni  Ni18  1  0.58469500  0.90674500  0.92100500  1
  Ni  Ni19  1  0.91530500  0.59325500  0.92100500  1
  Cu  Cu20  1  0.67116600  0.03924300  0.35716600  1
  Cu  Cu21  1  0.82883400  0.46075700  0.35716600  1
  Cu  Cu22  1  0.17116600  0.96075700  0.14283400  1
  Cu  Cu23  1  0.32883400  0.53924300  0.14283400  1
  Cu  Cu24  1  0.32883400  0.96075700  0.64283400  1
  Cu  Cu25  1  0.17116600  0.53924300  0.64283400  1
  Cu  Cu26  1  0.82883400  0.03924300  0.85716600  1
  Cu  Cu27  1  0.67116600  0.46075700  0.85716600  1
  Cu  Cu28  1  0.43156000  0.82800800  0.37108900  1
  Cu  Cu29  1  0.06844000  0.67199200  0.37108900  1
  Cu  Cu30  1  0.93156000  0.17199200  0.12891100  1
  Cu  Cu31  1  0.56844000  0.32800800  0.12891100  1
  Cu  Cu32  1  0.56844000  0.17199200  0.62891100  1
  Cu  Cu33  1  0.93156000  0.32800800  0.62891100  1
  Cu  Cu34  1  0.06844000  0.82800800  0.87108900  1
  Cu  Cu35  1  0.43156000  0.67199200  0.87108900  1
  Cu  Cu36  1  0.62824600  0.86510400  0.61607000  1
  Cu  Cu37  1  0.87175400  0.63489600  0.61607000  1
  Cu  Cu38  1  0.12824600  0.13489600  0.88393000  1
  Cu  Cu39  1  0.37175400  0.36510400  0.88393000  1
  Cu  Cu40  1  0.62824600  0.63489600  0.11607000  1
  Cu  Cu41  1  0.87175400  0.86510400  0.11607000  1
  Cu  Cu42  1  0.12824600  0.36510400  0.38393000  1
  Cu  Cu43  1  0.37175400  0.13489600  0.38393000  1
