# generated using pymatgen
data_Cu3NiC3
_symmetry_space_group_name_H-M   'P 1'
_cell_length_a   6.74323900
_cell_length_b   10.86465500
_cell_length_c   13.84288770
_cell_angle_alpha   77.13496175
_cell_angle_beta   90.00000000
_cell_angle_gamma   90.00000000
_symmetry_Int_Tables_number   1
_chemical_formula_structural   Cu3NiC3
_chemical_formula_sum   'Cu12 Ni4 C12'
_cell_volume   988.71250931
_cell_formula_units_Z   4
loop_
 _symmetry_equiv_pos_site_id
 _symmetry_equiv_pos_as_xyz
  1  'x, y, z'
loop_
 _atom_site_type_symbol
 _atom_site_label
 _atom_site_symmetry_multiplicity
 _atom_site_fract_x
 _atom_site_fract_y
 _atom_site_fract_z
 _atom_site_occupancy
  C  C0  1  0.64844700  0.25391300  0.50873900  1
  C  C1  1  0.14844700  0.74608700  0.99126100  1
  C  C2  1  0.35155300  0.74608700  0.49126100  1
  C  C3  1  0.85155300  0.25391300  0.00873900  1
  C  C4  1  0.28604400  0.03192600  0.14228500  1
  C  C5  1  0.78604400  0.96807400  0.35771500  1
  C  C6  1  0.71395600  0.96807400  0.85771500  1
  C  C7  1  0.21395600  0.03192600  0.64228500  1
  C  C8  1  0.44771000  0.40348600  0.19761500  1
  C  C9  1  0.94771000  0.59651400  0.30238500  1
  C  C10  1  0.55229000  0.59651400  0.80238500  1
  C  C11  1  0.05229000  0.40348600  0.69761500  1
  Ni  Ni12  1  0.12698600  0.23506700  0.37379700  1
  Ni  Ni13  1  0.62698600  0.76493300  0.12620300  1
  Ni  Ni14  1  0.87301400  0.76493300  0.62620300  1
  Ni  Ni15  1  0.37301400  0.23506700  0.87379700  1
  Cu  Cu16  1  0.94343500  0.27943100  0.27292100  1
  Cu  Cu17  1  0.44343500  0.72056900  0.22707900  1
  Cu  Cu18  1  0.05656500  0.72056900  0.72707900  1
  Cu  Cu19  1  0.55656500  0.27943100  0.77292100  1
  Cu  Cu20  1  0.28654100  0.09554500  0.38146700  1
  Cu  Cu21  1  0.78654100  0.90445500  0.11853300  1
  Cu  Cu22  1  0.71345900  0.90445500  0.61853300  1
  Cu  Cu23  1  0.21345900  0.09554500  0.88146700  1
  Cu  Cu24  1  0.34537100  0.33381600  0.96497000  1
  Cu  Cu25  1  0.84537100  0.66618400  0.53503000  1
  Cu  Cu26  1  0.65462900  0.66618400  0.03503000  1
  Cu  Cu27  1  0.15462900  0.33381600  0.46497000  1
