# generated using pymatgen
data_Cu41Ni13
_symmetry_space_group_name_H-M   'P 1'
_cell_length_a   15.23408645
_cell_length_b   15.23408645
_cell_length_c   9.62161000
_cell_angle_alpha   90.00000000
_cell_angle_beta   90.00000000
_cell_angle_gamma   120.00000196
_symmetry_Int_Tables_number   1
_chemical_formula_structural   Cu41Ni13
_chemical_formula_sum   'Cu82 Ni26'
_cell_volume   1933.79843348
_cell_formula_units_Z   2
loop_
 _symmetry_equiv_pos_site_id
 _symmetry_equiv_pos_as_xyz
  1  'x, y, z'
loop_
 _atom_site_type_symbol
 _atom_site_label
 _atom_site_symmetry_multiplicity
 _atom_site_fract_x
 _atom_site_fract_y
 _atom_site_fract_z
 _atom_site_occupancy
  Ni  Ni0  1  0.00000000  0.00000000  0.00000000  1
  Ni  Ni1  1  0.00000000  0.00000000  0.50000000  1
  Ni  Ni2  1  0.44535400  0.00000000  0.25000000  1
  Ni  Ni3  1  0.44535400  0.44535400  0.75000000  1
  Ni  Ni4  1  0.00000000  0.55464600  0.75000000  1
  Ni  Ni5  1  0.00000000  0.44535400  0.25000000  1
  Ni  Ni6  1  0.55464600  0.55464600  0.25000000  1
  Ni  Ni7  1  0.55464600  0.00000000  0.75000000  1
  Ni  Ni8  1  0.77586300  0.00000000  0.25000000  1
  Ni  Ni9  1  0.77586300  0.77586300  0.75000000  1
  Ni  Ni10  1  0.00000000  0.22413700  0.75000000  1
  Ni  Ni11  1  0.00000000  0.77586300  0.25000000  1
  Ni  Ni12  1  0.22413700  0.22413700  0.25000000  1
  Ni  Ni13  1  0.22413700  0.00000000  0.75000000  1
  Ni  Ni14  1  0.22315000  0.44630000  0.00000000  1
  Ni  Ni15  1  0.77685000  0.22315000  0.50000000  1
  Ni  Ni16  1  0.44630000  0.22315000  0.50000000  1
  Ni  Ni17  1  0.55370000  0.77685000  0.00000000  1
  Ni  Ni18  1  0.22315000  0.77685000  0.00000000  1
  Ni  Ni19  1  0.77685000  0.55370000  0.50000000  1
  Ni  Ni20  1  0.77685000  0.55370000  0.00000000  1
  Ni  Ni21  1  0.22315000  0.77685000  0.50000000  1
  Ni  Ni22  1  0.55370000  0.77685000  0.50000000  1
  Ni  Ni23  1  0.44630000  0.22315000  0.00000000  1
  Ni  Ni24  1  0.77685000  0.22315000  0.00000000  1
  Ni  Ni25  1  0.22315000  0.44630000  0.50000000  1
  Cu  Cu26  1  0.33333300  0.66666700  0.00000000  1
  Cu  Cu27  1  0.66666700  0.33333300  0.50000000  1
  Cu  Cu28  1  0.66666700  0.33333300  0.00000000  1
  Cu  Cu29  1  0.33333300  0.66666700  0.50000000  1
  Cu  Cu30  1  0.10963100  0.00000000  0.25000000  1
  Cu  Cu31  1  0.10963100  0.10963100  0.75000000  1
  Cu  Cu32  1  0.00000000  0.89037000  0.75000000  1
  Cu  Cu33  1  0.00000000  0.10963100  0.25000000  1
  Cu  Cu34  1  0.89037000  0.89037000  0.25000000  1
  Cu  Cu35  1  0.89037000  0.00000000  0.75000000  1
  Cu  Cu36  1  0.11079500  0.22159000  0.00000000  1
  Cu  Cu37  1  0.88920500  0.11079500  0.50000000  1
  Cu  Cu38  1  0.22159000  0.11079500  0.50000000  1
  Cu  Cu39  1  0.77841000  0.88920500  0.00000000  1
  Cu  Cu40  1  0.11079500  0.88920500  0.00000000  1
  Cu  Cu41  1  0.88920500  0.77841000  0.50000000  1
  Cu  Cu42  1  0.88920500  0.77841000  0.00000000  1
  Cu  Cu43  1  0.11079500  0.88920500  0.50000000  1
  Cu  Cu44  1  0.77841000  0.88920500  0.50000000  1
  Cu  Cu45  1  0.22159000  0.11079500  0.00000000  1
  Cu  Cu46  1  0.88920500  0.11079500  0.00000000  1
  Cu  Cu47  1  0.11079500  0.22159000  0.50000000  1
  Cu  Cu48  1  0.44498900  0.88997800  0.00000000  1
  Cu  Cu49  1  0.55501100  0.44498900  0.50000000  1
  Cu  Cu50  1  0.88997800  0.44498900  0.50000000  1
  Cu  Cu51  1  0.11002200  0.55501100  0.00000000  1
  Cu  Cu52  1  0.44498900  0.55501100  0.00000000  1
  Cu  Cu53  1  0.55501100  0.11002200  0.50000000  1
  Cu  Cu54  1  0.55501100  0.11002200  0.00000000  1
  Cu  Cu55  1  0.44498900  0.55501100  0.50000000  1
  Cu  Cu56  1  0.11002200  0.55501100  0.50000000  1
  Cu  Cu57  1  0.88997800  0.44498900  0.00000000  1
  Cu  Cu58  1  0.55501100  0.44498900  0.00000000  1
  Cu  Cu59  1  0.44498900  0.88997800  0.50000000  1
  Cu  Cu60  1  0.22093300  0.55147900  0.25000000  1
  Cu  Cu61  1  0.66945400  0.22093300  0.75000000  1
  Cu  Cu62  1  0.55147900  0.33054600  0.75000000  1
  Cu  Cu63  1  0.44852100  0.66945400  0.25000000  1
  Cu  Cu64  1  0.33054600  0.77906700  0.25000000  1
  Cu  Cu65  1  0.66945400  0.44852100  0.25000000  1
  Cu  Cu66  1  0.77906700  0.33054600  0.25000000  1
  Cu  Cu67  1  0.77906700  0.44852100  0.75000000  1
  Cu  Cu68  1  0.55147900  0.22093300  0.25000000  1
  Cu  Cu69  1  0.44852100  0.77906700  0.75000000  1
  Cu  Cu70  1  0.33054600  0.55147900  0.75000000  1
  Cu  Cu71  1  0.22093300  0.66945400  0.75000000  1
  Cu  Cu72  1  0.11048600  0.66635100  0.25000000  1
  Cu  Cu73  1  0.44413500  0.11048600  0.75000000  1
  Cu  Cu74  1  0.66635100  0.55586500  0.75000000  1
  Cu  Cu75  1  0.33364900  0.44413500  0.25000000  1
  Cu  Cu76  1  0.55586500  0.88951400  0.25000000  1
  Cu  Cu77  1  0.44413500  0.33364900  0.25000000  1
  Cu  Cu78  1  0.88951400  0.55586500  0.25000000  1
  Cu  Cu79  1  0.88951400  0.33364900  0.75000000  1
  Cu  Cu80  1  0.66635100  0.11048600  0.25000000  1
  Cu  Cu81  1  0.33364900  0.88951400  0.75000000  1
  Cu  Cu82  1  0.55586500  0.66635100  0.75000000  1
  Cu  Cu83  1  0.11048600  0.44413500  0.75000000  1
  Cu  Cu84  1  0.11176800  0.33279300  0.25000000  1
  Cu  Cu85  1  0.77897400  0.11176800  0.75000000  1
  Cu  Cu86  1  0.33279300  0.22102600  0.75000000  1
  Cu  Cu87  1  0.66720700  0.77897400  0.25000000  1
  Cu  Cu88  1  0.22102600  0.88823200  0.25000000  1
  Cu  Cu89  1  0.77897400  0.66720700  0.25000000  1
  Cu  Cu90  1  0.88823200  0.22102600  0.25000000  1
  Cu  Cu91  1  0.88823200  0.66720700  0.75000000  1
  Cu  Cu92  1  0.33279300  0.11176800  0.25000000  1
  Cu  Cu93  1  0.66720700  0.88823200  0.75000000  1
  Cu  Cu94  1  0.22102600  0.33279300  0.75000000  1
  Cu  Cu95  1  0.11176800  0.77897400  0.75000000  1
  Cu  Cu96  1  0.33195000  0.00000000  0.00089500  1
  Cu  Cu97  1  0.33195000  0.33195000  0.50089500  1
  Cu  Cu98  1  0.00000000  0.66805000  0.50089500  1
  Cu  Cu99  1  0.00000000  0.33195000  0.00089500  1
  Cu  Cu100  1  0.66805000  0.66805000  0.00089500  1
  Cu  Cu101  1  0.33195000  0.00000000  0.49910500  1
  Cu  Cu102  1  0.66805000  0.66805000  0.49910500  1
  Cu  Cu103  1  0.66805000  0.00000000  0.50089500  1
  Cu  Cu104  1  0.00000000  0.33195000  0.49910500  1
  Cu  Cu105  1  0.00000000  0.66805000  0.99910500  1
  Cu  Cu106  1  0.66805000  0.00000000  0.99910500  1
  Cu  Cu107  1  0.33195000  0.33195000  0.99910500  1
