# generated using pymatgen
data_Cu2Ni2C7
_symmetry_space_group_name_H-M   'P 1'
_cell_length_a   5.45423954
_cell_length_b   5.45423954
_cell_length_c   9.37708878
_cell_angle_alpha   76.09873051
_cell_angle_beta   76.09873051
_cell_angle_gamma   97.61192524
_symmetry_Int_Tables_number   1
_chemical_formula_structural   Cu2Ni2C7
_chemical_formula_sum   'Cu4 Ni4 C14'
_cell_volume   257.44561545
_cell_formula_units_Z   2
loop_
 _symmetry_equiv_pos_site_id
 _symmetry_equiv_pos_as_xyz
  1  'x, y, z'
loop_
 _atom_site_type_symbol
 _atom_site_label
 _atom_site_symmetry_multiplicity
 _atom_site_fract_x
 _atom_site_fract_y
 _atom_site_fract_z
 _atom_site_occupancy
  Ni  Ni0  1  0.28875800  0.66167400  0.99132400  1
  Ni  Ni1  1  0.33832600  0.71124200  0.50867600  1
  Ni  Ni2  1  0.71124200  0.33832600  0.00867600  1
  Ni  Ni3  1  0.66167400  0.28875800  0.49132400  1
  Cu  Cu4  1  0.20076700  0.17827300  0.29294400  1
  Cu  Cu5  1  0.82172700  0.79923300  0.20705600  1
  Cu  Cu6  1  0.79923300  0.82172700  0.70705600  1
  Cu  Cu7  1  0.17827300  0.20076700  0.79294400  1
  C  C8  1  0.01155900  0.31009500  0.37698900  1
  C  C9  1  0.68990500  0.98844100  0.12301100  1
  C  C10  1  0.98844100  0.68990500  0.62301100  1
  C  C11  1  0.31009500  0.01155900  0.87698900  1
  C  C12  1  0.37568300  0.06456200  0.38591800  1
  C  C13  1  0.93543800  0.62431700  0.11408200  1
  C  C14  1  0.62431700  0.93543800  0.61408200  1
  C  C15  1  0.06456200  0.37568300  0.88591800  1
  C  C16  1  0.93949000  0.06051000  0.75000000  1
  C  C17  1  0.06051000  0.93949000  0.25000000  1
  C  C18  1  0.37001000  0.37146900  0.63778500  1
  C  C19  1  0.62853100  0.62999000  0.86221500  1
  C  C20  1  0.62999000  0.62853100  0.36221500  1
  C  C21  1  0.37146900  0.37001000  0.13778500  1
