# generated using pymatgen
data_Cu(NiC2)2
_symmetry_space_group_name_H-M   'P 1'
_cell_length_a   5.81677986
_cell_length_b   5.82145228
_cell_length_c   17.52956679
_cell_angle_alpha   60.01937915
_cell_angle_beta   60.05201972
_cell_angle_gamma   60.13181904
_symmetry_Int_Tables_number   1
_chemical_formula_structural   Cu(NiC2)2
_chemical_formula_sum   'Cu6 Ni12 C24'
_cell_volume   420.37363812
_cell_formula_units_Z   6
loop_
 _symmetry_equiv_pos_site_id
 _symmetry_equiv_pos_as_xyz
  1  'x, y, z'
loop_
 _atom_site_type_symbol
 _atom_site_label
 _atom_site_symmetry_multiplicity
 _atom_site_fract_x
 _atom_site_fract_y
 _atom_site_fract_z
 _atom_site_occupancy
  Ni  Ni0  1  0.49772700  0.49669300  0.16788300  1
  Ni  Ni1  1  0.49914200  0.49910500  0.33346500  1
  Ni  Ni2  1  0.49702500  0.00240100  0.16911900  1
  Ni  Ni3  1  0.00312700  0.49548600  0.16951100  1
  Ni  Ni4  1  0.49757200  0.50129800  0.49938700  1
  Ni  Ni5  1  0.50156100  0.50146000  0.66455600  1
  Ni  Ni6  1  0.49815200  0.00205700  0.49911300  1
  Ni  Ni7  1  0.50041600  0.49795300  0.83193700  1
  Ni  Ni8  1  0.99962200  0.50220700  0.49850900  1
  Ni  Ni9  1  0.50169200  0.00510500  0.83146200  1
  Ni  Ni10  1  0.00715900  0.49900700  0.83169300  1
  Ni  Ni11  1  0.87863600  0.87732000  0.95537300  1
  Cu  Cu12  1  0.12810500  0.12733100  0.04265300  1
  Cu  Cu13  1  0.12101300  0.12330500  0.37728100  1
  Cu  Cu14  1  0.12709100  0.12524900  0.70727500  1
  Cu  Cu15  1  0.87933700  0.87912600  0.28751500  1
  Cu  Cu16  1  0.87121800  0.87238900  0.62651100  1
  Cu  Cu17  1  0.49832400  0.49722900  0.00254000  1
  C  C18  1  0.24347800  0.24373800  0.10186800  1
  C  C19  1  0.26374900  0.26125800  0.23860000  1
  C  C20  1  0.24756000  0.70839200  0.09826300  1
  C  C21  1  0.71019100  0.24579400  0.09905500  1
  C  C22  1  0.30375600  0.73184900  0.24441200  1
  C  C23  1  0.26284500  0.26591600  0.42278600  1
  C  C24  1  0.73215500  0.30335500  0.24474300  1
  C  C25  1  0.26107500  0.26715000  0.56781300  1
  C  C26  1  0.26544200  0.70234600  0.42154000  1
  C  C27  1  0.74916400  0.74908500  0.08399700  1
  C  C28  1  0.69972300  0.26624900  0.42291100  1
  C  C29  1  0.73216000  0.73103300  0.24520200  1
  C  C30  1  0.29293900  0.73412000  0.57855800  1
  C  C31  1  0.26947600  0.26693000  0.75357500  1
  C  C32  1  0.73257400  0.29563500  0.57810700  1
  C  C33  1  0.73262200  0.73559600  0.43133100  1
  C  C34  1  0.26671200  0.26333200  0.90100300  1
  C  C35  1  0.27126100  0.70218500  0.75320100  1
  C  C36  1  0.70398300  0.27040400  0.75235900  1
  C  C37  1  0.73581200  0.73777500  0.57669900  1
  C  C38  1  0.26308600  0.75952800  0.90623700  1
  C  C39  1  0.75913300  0.26247000  0.90693200  1
  C  C40  1  0.73191600  0.72937600  0.77004900  1
  C  C41  1  0.76226800  0.76176200  0.90497800  1
