# generated using pymatgen
data_Cu4NiC8
_symmetry_space_group_name_H-M   'P 1'
_cell_length_a   6.72419192
_cell_length_b   6.72419192
_cell_length_c   12.35084000
_cell_angle_alpha   90.00000000
_cell_angle_beta   90.00000000
_cell_angle_gamma   119.99999922
_symmetry_Int_Tables_number   1
_chemical_formula_structural   Cu4NiC8
_chemical_formula_sum   'Cu8 Ni2 C16'
_cell_volume   483.62342874
_cell_formula_units_Z   2
loop_
 _symmetry_equiv_pos_site_id
 _symmetry_equiv_pos_as_xyz
  1  'x, y, z'
loop_
 _atom_site_type_symbol
 _atom_site_label
 _atom_site_symmetry_multiplicity
 _atom_site_fract_x
 _atom_site_fract_y
 _atom_site_fract_z
 _atom_site_occupancy
  Ni  Ni0  1  0.00000000  0.00000000  0.00000000  1
  Ni  Ni1  1  0.00000000  0.00000000  0.50000000  1
  Cu  Cu2  1  0.98799600  0.49399800  0.25000000  1
  Cu  Cu3  1  0.01200400  0.50600200  0.75000000  1
  Cu  Cu4  1  0.49399800  0.50600200  0.75000000  1
  Cu  Cu5  1  0.50600200  0.01200400  0.25000000  1
  Cu  Cu6  1  0.00000000  0.00000000  0.75000000  1
  Cu  Cu7  1  0.00000000  0.00000000  0.25000000  1
  Cu  Cu8  1  0.50600200  0.49399800  0.25000000  1
  Cu  Cu9  1  0.49399800  0.98799600  0.75000000  1
  C  C10  1  0.33333300  0.66666700  0.61988400  1
  C  C11  1  0.66666700  0.33333300  0.11988400  1
  C  C12  1  0.66666700  0.33333300  0.38011600  1
  C  C13  1  0.33333300  0.66666700  0.88011600  1
  C  C14  1  0.16778200  0.33556500  0.37636100  1
  C  C15  1  0.83221800  0.16778200  0.87636100  1
  C  C16  1  0.33556500  0.16778200  0.87636100  1
  C  C17  1  0.66443500  0.83221800  0.37636100  1
  C  C18  1  0.16778200  0.83221800  0.37636100  1
  C  C19  1  0.83221800  0.66443500  0.87636100  1
  C  C20  1  0.16778200  0.33556500  0.12363900  1
  C  C21  1  0.83221800  0.16778200  0.62363900  1
  C  C22  1  0.33556500  0.16778200  0.62363900  1
  C  C23  1  0.66443500  0.83221800  0.12363900  1
  C  C24  1  0.16778200  0.83221800  0.12363900  1
  C  C25  1  0.83221800  0.66443500  0.62363900  1
