# generated using pymatgen
data_Cu5Ni3C8
_symmetry_space_group_name_H-M   'P 1'
_cell_length_a   6.25926500
_cell_length_b   6.25926500
_cell_length_c   6.25926500
_cell_angle_alpha   90.00000000
_cell_angle_beta   90.00000000
_cell_angle_gamma   90.00000000
_symmetry_Int_Tables_number   1
_chemical_formula_structural   Cu5Ni3C8
_chemical_formula_sum   'Cu5 Ni3 C8'
_cell_volume   245.22797749
_cell_formula_units_Z   1
loop_
 _symmetry_equiv_pos_site_id
 _symmetry_equiv_pos_as_xyz
  1  'x, y, z'
loop_
 _atom_site_type_symbol
 _atom_site_label
 _atom_site_symmetry_multiplicity
 _atom_site_fract_x
 _atom_site_fract_y
 _atom_site_fract_z
 _atom_site_occupancy
  C  C0  1  0.25359300  0.74640700  0.25359300  1
  C  C1  1  0.74640700  0.25359300  0.25359300  1
  C  C2  1  0.25359300  0.25359300  0.74640700  1
  C  C3  1  0.00000000  0.00000000  0.00000000  1
  C  C4  1  0.00000000  0.50000000  0.50000000  1
  C  C5  1  0.74640700  0.74640700  0.74640700  1
  C  C6  1  0.50000000  0.00000000  0.50000000  1
  C  C7  1  0.50000000  0.50000000  0.00000000  1
  Ni  Ni8  1  0.00000000  0.00000000  0.50000000  1
  Ni  Ni9  1  0.00000000  0.50000000  0.00000000  1
  Ni  Ni10  1  0.50000000  0.00000000  0.00000000  1
  Cu  Cu11  1  0.24708400  0.24708400  0.24708400  1
  Cu  Cu12  1  0.50000000  0.50000000  0.50000000  1
  Cu  Cu13  1  0.75291600  0.24708400  0.75291600  1
  Cu  Cu14  1  0.75291600  0.75291600  0.24708400  1
  Cu  Cu15  1  0.24708400  0.75291600  0.75291600  1
