# generated using pymatgen
data_Cu9Ni13
_symmetry_space_group_name_H-M   'P 1'
_cell_length_a   9.26511641
_cell_length_b   9.26511641
_cell_length_c   14.20450356
_cell_angle_alpha   60.91879950
_cell_angle_beta   60.91879950
_cell_angle_gamma   60.02327712
_symmetry_Int_Tables_number   1
_chemical_formula_structural   Cu9Ni13
_chemical_formula_sum   'Cu18 Ni26'
_cell_volume   874.14798158
_cell_formula_units_Z   2
loop_
 _symmetry_equiv_pos_site_id
 _symmetry_equiv_pos_as_xyz
  1  'x, y, z'
loop_
 _atom_site_type_symbol
 _atom_site_label
 _atom_site_symmetry_multiplicity
 _atom_site_fract_x
 _atom_site_fract_y
 _atom_site_fract_z
 _atom_site_occupancy
  Ni  Ni0  1  0.26376000  0.50015200  0.50031400  1
  Ni  Ni1  1  0.98004800  0.25618300  0.00556700  1
  Ni  Ni2  1  0.39665700  0.65589000  0.85967400  1
  Ni  Ni3  1  0.49984800  0.73624000  0.99968600  1
  Ni  Ni4  1  0.90200300  0.65688200  0.86981200  1
  Ni  Ni5  1  0.13317800  0.90081300  0.37489000  1
  Ni  Ni6  1  0.50015200  0.26376000  0.00031400  1
  Ni  Ni7  1  0.34311800  0.09799700  0.63018800  1
  Ni  Ni8  1  0.34411000  0.60334300  0.64032600  1
  Ni  Ni9  1  0.90081300  0.13317800  0.87489000  1
  Ni  Ni10  1  0.09799700  0.34311800  0.13018800  1
  Ni  Ni11  1  0.86682200  0.09918700  0.62511000  1
  Ni  Ni12  1  0.87708000  0.62374500  0.24935500  1
  Ni  Ni13  1  0.25618300  0.98004800  0.50556700  1
  Ni  Ni14  1  0.37625500  0.12292000  0.25064500  1
  Ni  Ni15  1  0.65589000  0.39665700  0.35967400  1
  Ni  Ni16  1  0.65688200  0.90200300  0.36981200  1
  Ni  Ni17  1  0.62374500  0.87708000  0.74935500  1
  Ni  Ni18  1  0.74381700  0.01995200  0.49443300  1
  Ni  Ni19  1  0.37518100  0.62481900  0.25000000  1
  Ni  Ni20  1  0.73624000  0.49984800  0.49968600  1
  Ni  Ni21  1  0.12292000  0.37625500  0.75064500  1
  Ni  Ni22  1  0.60334300  0.34411000  0.14032600  1
  Ni  Ni23  1  0.01995200  0.74381700  0.99443300  1
  Ni  Ni24  1  0.62481900  0.37518100  0.75000000  1
  Ni  Ni25  1  0.09918700  0.86682200  0.12511000  1
  Cu  Cu26  1  0.42042800  0.24560800  0.38673300  1
  Cu  Cu27  1  0.24560800  0.42042800  0.88673300  1
  Cu  Cu28  1  0.99276100  0.75002900  0.61840400  1
  Cu  Cu29  1  0.00723900  0.24997100  0.38159600  1
  Cu  Cu30  1  0.24997100  0.00723900  0.88159600  1
  Cu  Cu31  1  0.47312400  0.72801100  0.38368300  1
  Cu  Cu32  1  0.67165300  0.00856300  0.87486000  1
  Cu  Cu33  1  0.87626700  0.12373300  0.25000000  1
  Cu  Cu34  1  0.75002900  0.99276100  0.11840400  1
  Cu  Cu35  1  0.00856300  0.67165300  0.37486000  1
  Cu  Cu36  1  0.27198900  0.52687600  0.11631700  1
  Cu  Cu37  1  0.52687600  0.27198900  0.61631700  1
  Cu  Cu38  1  0.32834700  0.99143700  0.12514000  1
  Cu  Cu39  1  0.75439200  0.57957200  0.11326700  1
  Cu  Cu40  1  0.72801100  0.47312400  0.88368300  1
  Cu  Cu41  1  0.57957200  0.75439200  0.61326700  1
  Cu  Cu42  1  0.99143700  0.32834700  0.62514000  1
  Cu  Cu43  1  0.12373300  0.87626700  0.75000000  1
