# generated using pymatgen
data_Cu3Ni2C9
_symmetry_space_group_name_H-M   'P 1'
_cell_length_a   9.59075300
_cell_length_b   9.59075300
_cell_length_c   9.59075300
_cell_angle_alpha   90.00000000
_cell_angle_beta   90.00000000
_cell_angle_gamma   90.00000000
_symmetry_Int_Tables_number   1
_chemical_formula_structural   Cu3Ni2C9
_chemical_formula_sum   'Cu12 Ni8 C36'
_cell_volume   882.18185125
_cell_formula_units_Z   4
loop_
 _symmetry_equiv_pos_site_id
 _symmetry_equiv_pos_as_xyz
  1  'x, y, z'
loop_
 _atom_site_type_symbol
 _atom_site_label
 _atom_site_symmetry_multiplicity
 _atom_site_fract_x
 _atom_site_fract_y
 _atom_site_fract_z
 _atom_site_occupancy
  Ni  Ni0  1  0.63854700  0.36145300  0.63854700  1
  Ni  Ni1  1  0.36145300  0.63854700  0.63854700  1
  Ni  Ni2  1  0.63854700  0.63854700  0.36145300  1
  Ni  Ni3  1  0.36145300  0.36145300  0.36145300  1
  Ni  Ni4  1  0.86145300  0.13854700  0.86145300  1
  Ni  Ni5  1  0.13854700  0.86145300  0.86145300  1
  Ni  Ni6  1  0.86145300  0.86145300  0.13854700  1
  Ni  Ni7  1  0.13854700  0.13854700  0.13854700  1
  Cu  Cu8  1  0.83732600  0.00000000  0.50000000  1
  Cu  Cu9  1  0.00000000  0.50000000  0.83732600  1
  Cu  Cu10  1  0.50000000  0.83732600  0.00000000  1
  Cu  Cu11  1  0.00000000  0.50000000  0.16267400  1
  Cu  Cu12  1  0.50000000  0.16267400  0.00000000  1
  Cu  Cu13  1  0.16267400  0.00000000  0.50000000  1
  Cu  Cu14  1  0.66267400  0.50000000  0.00000000  1
  Cu  Cu15  1  0.50000000  0.00000000  0.66267400  1
  Cu  Cu16  1  0.00000000  0.66267400  0.50000000  1
  Cu  Cu17  1  0.50000000  0.00000000  0.33732600  1
  Cu  Cu18  1  0.00000000  0.33732600  0.50000000  1
  Cu  Cu19  1  0.33732600  0.50000000  0.00000000  1
  C  C20  1  0.78872200  0.50587500  0.16444900  1
  C  C21  1  0.78872200  0.49412500  0.83555100  1
  C  C22  1  0.21127800  0.50587500  0.83555100  1
  C  C23  1  0.49412500  0.83555100  0.78872200  1
  C  C24  1  0.83555100  0.21127800  0.50587500  1
  C  C25  1  0.83555100  0.78872200  0.49412500  1
  C  C26  1  0.50587500  0.16444900  0.78872200  1
  C  C27  1  0.16444900  0.78872200  0.50587500  1
  C  C28  1  0.50587500  0.83555100  0.21127800  1
  C  C29  1  0.49412500  0.16444900  0.21127800  1
  C  C30  1  0.16444900  0.21127800  0.49412500  1
  C  C31  1  0.21127800  0.49412500  0.16444900  1
  C  C32  1  0.71127800  0.99412500  0.33555100  1
  C  C33  1  0.71127800  0.00587500  0.66444900  1
  C  C34  1  0.28872200  0.99412500  0.66444900  1
  C  C35  1  0.00587500  0.66444900  0.71127800  1
  C  C36  1  0.66444900  0.28872200  0.99412500  1
  C  C37  1  0.66444900  0.71127800  0.00587500  1
  C  C38  1  0.99412500  0.33555100  0.71127800  1
  C  C39  1  0.33555100  0.71127800  0.99412500  1
  C  C40  1  0.36310900  0.00000000  0.00000000  1
  C  C41  1  0.00000000  0.36310900  0.00000000  1
  C  C42  1  0.00000000  0.00000000  0.36310900  1
  C  C43  1  0.00000000  0.63689100  0.00000000  1
  C  C44  1  0.00000000  0.00000000  0.63689100  1
  C  C45  1  0.63689100  0.00000000  0.00000000  1
  C  C46  1  0.13689100  0.50000000  0.50000000  1
  C  C47  1  0.50000000  0.13689100  0.50000000  1
  C  C48  1  0.50000000  0.50000000  0.13689100  1
  C  C49  1  0.50000000  0.86310900  0.50000000  1
  C  C50  1  0.50000000  0.50000000  0.86310900  1
  C  C51  1  0.86310900  0.50000000  0.50000000  1
  C  C52  1  0.28872200  0.00587500  0.33555100  1
  C  C53  1  0.33555100  0.28872200  0.00587500  1
  C  C54  1  0.00587500  0.33555100  0.28872200  1
  C  C55  1  0.99412500  0.66444900  0.28872200  1
