# generated using pymatgen
data_CuNi3C17
_symmetry_space_group_name_H-M   'P 1'
_cell_length_a   9.82756393
_cell_length_b   9.82756393
_cell_length_c   6.76295900
_cell_angle_alpha   90.00000000
_cell_angle_beta   90.00000000
_cell_angle_gamma   119.99999953
_symmetry_Int_Tables_number   1
_chemical_formula_structural   CuNi3C17
_chemical_formula_sum   'Cu2 Ni6 C34'
_cell_volume   565.66478588
_cell_formula_units_Z   2
loop_
 _symmetry_equiv_pos_site_id
 _symmetry_equiv_pos_as_xyz
  1  'x, y, z'
loop_
 _atom_site_type_symbol
 _atom_site_label
 _atom_site_symmetry_multiplicity
 _atom_site_fract_x
 _atom_site_fract_y
 _atom_site_fract_z
 _atom_site_occupancy
  C  C0  1  0.24932100  0.98355200  0.24796100  1
  C  C1  1  0.01644800  0.26576900  0.24796100  1
  C  C2  1  0.33333300  0.66666700  0.99507300  1
  C  C3  1  0.33333300  0.66666700  0.50352400  1
  C  C4  1  0.26576900  0.24932100  0.74796100  1
  C  C5  1  0.73423100  0.75067900  0.24796100  1
  C  C6  1  0.66666700  0.33333300  0.49507300  1
  C  C7  1  0.66666700  0.33333300  0.00352400  1
  C  C8  1  0.98355200  0.73423100  0.74796100  1
  C  C9  1  0.75067900  0.01644800  0.74796100  1
  Ni  Ni10  1  0.03209900  0.62272800  0.25169800  1
  Ni  Ni11  1  0.59062900  0.96790100  0.25169800  1
  Ni  Ni12  1  0.37727200  0.40937100  0.25169800  1
  Ni  Ni13  1  0.62272800  0.59062900  0.75169800  1
  Ni  Ni14  1  0.40937100  0.03209900  0.75169800  1
  Ni  Ni15  1  0.96790100  0.37727200  0.75169800  1
  Cu  Cu16  1  0.00000000  0.00000000  0.43188800  1
  Cu  Cu17  1  0.00000000  0.00000000  0.93188800  1
  C  C18  1  0.08123000  0.73406300  0.06941200  1
  C  C19  1  0.08830200  0.72880000  0.43880700  1
  C  C20  1  0.13030200  0.53665000  0.24513900  1
  C  C21  1  0.14607600  0.49682500  0.75332100  1
  C  C22  1  0.35074900  0.85392400  0.75332100  1
  C  C23  1  0.40634900  0.86969800  0.24513900  1
  C  C24  1  0.27120000  0.35950200  0.43880700  1
  C  C25  1  0.26593700  0.34716700  0.06941200  1
  C  C26  1  0.46335000  0.59365100  0.24513900  1
  C  C27  1  0.50317500  0.64925100  0.75332100  1
  C  C28  1  0.64049800  0.91169800  0.43880700  1
  C  C29  1  0.65283300  0.91877000  0.06941200  1
  C  C30  1  0.35950200  0.08830200  0.93880700  1
  C  C31  1  0.34716700  0.08123000  0.56941200  1
  C  C32  1  0.49682500  0.35074900  0.25332100  1
  C  C33  1  0.53665000  0.40634900  0.74513900  1
  C  C34  1  0.72880000  0.64049800  0.93880700  1
  C  C35  1  0.73406300  0.65283300  0.56941200  1
  C  C36  1  0.59365100  0.13030200  0.74513900  1
  C  C37  1  0.64925100  0.14607600  0.25332100  1
  C  C38  1  0.85392400  0.50317500  0.25332100  1
  C  C39  1  0.86969800  0.46335000  0.74513900  1
  C  C40  1  0.91877000  0.26593700  0.56941200  1
  C  C41  1  0.91169800  0.27120000  0.93880700  1
