# generated using pymatgen
data_Cu2Ni3C4
_symmetry_space_group_name_H-M   'P 1'
_cell_length_a   8.34158644
_cell_length_b   8.34158644
_cell_length_c   6.49910548
_cell_angle_alpha   89.84024179
_cell_angle_beta   89.84024179
_cell_angle_gamma   75.63169457
_symmetry_Int_Tables_number   1
_chemical_formula_structural   Cu2Ni3C4
_chemical_formula_sum   'Cu4 Ni6 C8'
_cell_volume   438.07323188
_cell_formula_units_Z   2
loop_
 _symmetry_equiv_pos_site_id
 _symmetry_equiv_pos_as_xyz
  1  'x, y, z'
loop_
 _atom_site_type_symbol
 _atom_site_label
 _atom_site_symmetry_multiplicity
 _atom_site_fract_x
 _atom_site_fract_y
 _atom_site_fract_z
 _atom_site_occupancy
  C  C0  1  0.24461100  0.08560700  0.57216400  1
  C  C1  1  0.91439300  0.75538900  0.92783600  1
  C  C2  1  0.75538900  0.91439300  0.42783600  1
  C  C3  1  0.08560700  0.24461100  0.07216400  1
  C  C4  1  0.81057900  0.44291800  0.52988400  1
  C  C5  1  0.55708200  0.18942100  0.97011600  1
  C  C6  1  0.18942100  0.55708200  0.47011600  1
  C  C7  1  0.44291800  0.81057900  0.02988400  1
  Ni  Ni8  1  0.74646900  0.48397200  0.03531800  1
  Ni  Ni9  1  0.09662800  0.90337200  0.25000000  1
  Ni  Ni10  1  0.51602800  0.25353100  0.46468200  1
  Ni  Ni11  1  0.25353100  0.51602800  0.96468200  1
  Ni  Ni12  1  0.90337200  0.09662800  0.75000000  1
  Ni  Ni13  1  0.48397200  0.74646900  0.53531800  1
  Cu  Cu14  1  0.08183200  0.32942400  0.41476700  1
  Cu  Cu15  1  0.32942400  0.08183200  0.91476700  1
  Cu  Cu16  1  0.91816800  0.67057600  0.58523300  1
  Cu  Cu17  1  0.67057600  0.91816800  0.08523300  1
