# generated using pymatgen
data_Cu3NiC5
_symmetry_space_group_name_H-M   'P 1'
_cell_length_a   13.78342000
_cell_length_b   7.28445000
_cell_length_c   11.50870684
_cell_angle_alpha   74.89955149
_cell_angle_beta   90.00000000
_cell_angle_gamma   90.00000000
_symmetry_Int_Tables_number   1
_chemical_formula_structural   Cu3NiC5
_chemical_formula_sum   'Cu12 Ni4 C20'
_cell_volume   1115.62781504
_cell_formula_units_Z   4
loop_
 _symmetry_equiv_pos_site_id
 _symmetry_equiv_pos_as_xyz
  1  'x, y, z'
loop_
 _atom_site_type_symbol
 _atom_site_label
 _atom_site_symmetry_multiplicity
 _atom_site_fract_x
 _atom_site_fract_y
 _atom_site_fract_z
 _atom_site_occupancy
  C  C0  1  0.89204600  0.63253200  0.02534700  1
  C  C1  1  0.39204600  0.36746800  0.47465300  1
  C  C2  1  0.10795400  0.36746800  0.97465300  1
  C  C3  1  0.60795400  0.63253200  0.52534700  1
  C  C4  1  0.81387400  0.55403600  0.37079700  1
  C  C5  1  0.31387400  0.44596400  0.12920300  1
  C  C6  1  0.18612600  0.44596400  0.62920300  1
  C  C7  1  0.68612600  0.55403600  0.87079700  1
  C  C8  1  0.05342100  0.34471800  0.33653500  1
  C  C9  1  0.55342100  0.65528200  0.16346500  1
  C  C10  1  0.94657900  0.65528200  0.66346500  1
  C  C11  1  0.44657900  0.34471800  0.83653500  1
  C  C12  1  0.81285700  0.05689300  0.46504800  1
  C  C13  1  0.31285700  0.94310700  0.03495200  1
  C  C14  1  0.18714300  0.94310700  0.53495200  1
  C  C15  1  0.68714300  0.05689300  0.96504800  1
  C  C16  1  0.58854900  0.04001400  0.65463200  1
  C  C17  1  0.08854900  0.95998600  0.84536800  1
  C  C18  1  0.41145100  0.95998600  0.34536800  1
  C  C19  1  0.91145100  0.04001400  0.15463200  1
  Ni  Ni20  1  0.52210700  0.22069000  0.11149900  1
  Ni  Ni21  1  0.02210700  0.77931000  0.38850100  1
  Ni  Ni22  1  0.47789300  0.77931000  0.88850100  1
  Ni  Ni23  1  0.97789300  0.22069000  0.61149900  1
  Cu  Cu24  1  0.73511400  0.34047100  0.16849300  1
  Cu  Cu25  1  0.23511400  0.65952900  0.33150700  1
  Cu  Cu26  1  0.26488600  0.65952900  0.83150700  1
  Cu  Cu27  1  0.76488600  0.34047100  0.66849300  1
  Cu  Cu28  1  0.59374700  0.26240700  0.36919400  1
  Cu  Cu29  1  0.09374700  0.73759300  0.13080600  1
  Cu  Cu30  1  0.40625300  0.73759300  0.63080600  1
  Cu  Cu31  1  0.90625300  0.26240700  0.86919400  1
  Cu  Cu32  1  0.17197400  0.06199500  0.22250000  1
  Cu  Cu33  1  0.67197400  0.93800500  0.27750000  1
  Cu  Cu34  1  0.82802600  0.93800500  0.77750000  1
  Cu  Cu35  1  0.32802600  0.06199500  0.72250000  1
