# generated using pymatgen
data_CuNiC16
_symmetry_space_group_name_H-M   'P 1'
_cell_length_a   8.86057240
_cell_length_b   8.86057240
_cell_length_c   8.86057176
_cell_angle_alpha   58.53616708
_cell_angle_beta   58.53616708
_cell_angle_gamma   58.53617230
_symmetry_Int_Tables_number   1
_chemical_formula_structural   CuNiC16
_chemical_formula_sum   'Cu2 Ni2 C32'
_cell_volume   475.42425655
_cell_formula_units_Z   2
loop_
 _symmetry_equiv_pos_site_id
 _symmetry_equiv_pos_as_xyz
  1  'x, y, z'
loop_
 _atom_site_type_symbol
 _atom_site_label
 _atom_site_symmetry_multiplicity
 _atom_site_fract_x
 _atom_site_fract_y
 _atom_site_fract_z
 _atom_site_occupancy
  C  C0  1  0.99778100  0.99778100  0.99778100  1
  C  C1  1  0.49778100  0.49778100  0.49778100  1
  Ni  Ni2  1  0.14748900  0.14748900  0.14748900  1
  Ni  Ni3  1  0.64748900  0.64748900  0.64748900  1
  Cu  Cu4  1  0.35222800  0.35222800  0.35222800  1
  Cu  Cu5  1  0.85222800  0.85222800  0.85222800  1
  C  C6  1  0.45976300  0.04154100  0.75086600  1
  C  C7  1  0.75086600  0.45976300  0.04154100  1
  C  C8  1  0.04154100  0.75086600  0.45976300  1
  C  C9  1  0.95976300  0.25086600  0.54154100  1
  C  C10  1  0.25086600  0.54154100  0.95976300  1
  C  C11  1  0.54154100  0.95976300  0.25086600  1
  C  C12  1  0.50708700  0.12075700  0.29679000  1
  C  C13  1  0.12075700  0.29679000  0.50708700  1
  C  C14  1  0.27179700  0.05831800  0.92157200  1
  C  C15  1  0.29679000  0.50708700  0.12075700  1
  C  C16  1  0.62075700  0.00708700  0.79679000  1
  C  C17  1  0.43693500  0.22675000  0.58299800  1
  C  C18  1  0.92157200  0.27179700  0.05831800  1
  C  C19  1  0.58299800  0.43693500  0.22675000  1
  C  C20  1  0.99863100  0.20642900  0.37226900  1
  C  C21  1  0.22675000  0.58299800  0.43693500  1
  C  C22  1  0.93693500  0.08299800  0.72675000  1
  C  C23  1  0.20642900  0.37226900  0.99863100  1
  C  C24  1  0.79679000  0.62075700  0.00708700  1
  C  C25  1  0.05831800  0.92157200  0.27179700  1
  C  C26  1  0.77179700  0.42157200  0.55831800  1
  C  C27  1  0.00708700  0.79679000  0.62075700  1
  C  C28  1  0.42157200  0.55831800  0.77179700  1
  C  C29  1  0.08299800  0.72675000  0.93693500  1
  C  C30  1  0.55831800  0.77179700  0.42157200  1
  C  C31  1  0.37226900  0.99863100  0.20642900  1
  C  C32  1  0.70642900  0.49863100  0.87226900  1
  C  C33  1  0.72675000  0.93693500  0.08299800  1
  C  C34  1  0.87226900  0.70642900  0.49863100  1
  C  C35  1  0.49863100  0.87226900  0.70642900  1
