# generated using pymatgen
data_Cu5Ni8
_symmetry_space_group_name_H-M   'P 1'
_cell_length_a   8.17663081
_cell_length_b   8.17663081
_cell_length_c   8.17663081
_cell_angle_alpha   109.47122063
_cell_angle_beta   109.47122063
_cell_angle_gamma   109.47122063
_symmetry_Int_Tables_number   1
_chemical_formula_structural   Cu5Ni8
_chemical_formula_sum   'Cu10 Ni16'
_cell_volume   420.82475229
_cell_formula_units_Z   2
loop_
 _symmetry_equiv_pos_site_id
 _symmetry_equiv_pos_as_xyz
  1  'x, y, z'
loop_
 _atom_site_type_symbol
 _atom_site_label
 _atom_site_symmetry_multiplicity
 _atom_site_fract_x
 _atom_site_fract_y
 _atom_site_fract_z
 _atom_site_occupancy
  Ni  Ni0  1  0.65620700  0.65620700  0.36998700  1
  Ni  Ni1  1  0.00000000  0.71378100  0.34379300  1
  Ni  Ni2  1  0.71378100  0.00000000  0.34379300  1
  Ni  Ni3  1  0.28621900  0.63001300  0.28621900  1
  Ni  Ni4  1  0.63001300  0.28621900  0.28621900  1
  Ni  Ni5  1  0.36998700  0.65620700  0.65620700  1
  Ni  Ni6  1  0.00000000  0.34379300  0.71378100  1
  Ni  Ni7  1  0.34379300  0.00000000  0.71378100  1
  Ni  Ni8  1  0.65620700  0.36998700  0.65620700  1
  Ni  Ni9  1  0.71378100  0.34379300  0.00000000  1
  Ni  Ni10  1  0.00000000  0.00000000  0.21948000  1
  Ni  Ni11  1  0.21948000  0.00000000  0.00000000  1
  Ni  Ni12  1  0.00000000  0.21948000  0.00000000  1
  Ni  Ni13  1  0.78052000  0.78052000  0.78052000  1
  Ni  Ni14  1  0.28621900  0.28621900  0.63001300  1
  Ni  Ni15  1  0.34379300  0.71378100  0.00000000  1
  Cu  Cu16  1  0.64647100  0.00000000  0.64647100  1
  Cu  Cu17  1  0.35352900  0.35352900  0.00000000  1
  Cu  Cu18  1  0.64647100  0.64647100  0.00000000  1
  Cu  Cu19  1  0.00000000  0.35352900  0.35352900  1
  Cu  Cu20  1  0.00000000  0.64647100  0.64647100  1
  Cu  Cu21  1  0.35352900  0.00000000  0.35352900  1
  Cu  Cu22  1  0.35944500  0.35944500  0.35944500  1
  Cu  Cu23  1  0.00000000  0.64055500  0.00000000  1
  Cu  Cu24  1  0.64055500  0.00000000  0.00000000  1
  Cu  Cu25  1  0.00000000  0.00000000  0.64055500  1
