# generated using pymatgen
data_Cu2NiC4
_symmetry_space_group_name_H-M   'P 1'
_cell_length_a   5.93148303
_cell_length_b   5.93148303
_cell_length_c   14.49515608
_cell_angle_alpha   89.92184454
_cell_angle_beta   89.92184454
_cell_angle_gamma   60.55932405
_symmetry_Int_Tables_number   1
_chemical_formula_structural   Cu2NiC4
_chemical_formula_sum   'Cu12 Ni6 C24'
_cell_volume   444.11947496
_cell_formula_units_Z   6
loop_
 _symmetry_equiv_pos_site_id
 _symmetry_equiv_pos_as_xyz
  1  'x, y, z'
loop_
 _atom_site_type_symbol
 _atom_site_label
 _atom_site_symmetry_multiplicity
 _atom_site_fract_x
 _atom_site_fract_y
 _atom_site_fract_z
 _atom_site_occupancy
  Ni  Ni0  1  0.33830600  0.33830600  0.04132200  1
  Ni  Ni1  1  0.83441500  0.83441500  0.16764900  1
  Ni  Ni2  1  0.49988500  0.49988500  0.49982000  1
  Ni  Ni3  1  0.66634900  0.66634900  0.33305000  1
  Ni  Ni4  1  0.16734200  0.16734200  0.83201100  1
  Ni  Ni5  1  0.33303400  0.33303400  0.66617700  1
  Cu  Cu6  1  0.00634400  0.00634400  0.37954500  1
  Cu  Cu7  1  0.83526400  0.32886400  0.16754900  1
  Cu  Cu8  1  0.99963900  0.99963900  0.00446300  1
  Cu  Cu9  1  0.32886400  0.83526400  0.16754900  1
  Cu  Cu10  1  0.50023500  0.99947100  0.49970400  1
  Cu  Cu11  1  0.67325200  0.67325200  0.70902700  1
  Cu  Cu12  1  0.99947100  0.50023500  0.49970400  1
  Cu  Cu13  1  0.16854900  0.66184200  0.83169100  1
  Cu  Cu14  1  0.32673100  0.32673100  0.28851200  1
  Cu  Cu15  1  0.66184200  0.16854900  0.83169100  1
  Cu  Cu16  1  0.99326200  0.99326200  0.62165300  1
  Cu  Cu17  1  0.65962300  0.65962300  0.95913300  1
  C  C18  1  0.69871800  0.15919200  0.08642900  1
  C  C19  1  0.15919200  0.69871800  0.08642900  1
  C  C20  1  0.00313300  0.00313300  0.24844700  1
  C  C21  1  0.15421800  0.15421800  0.08784900  1
  C  C22  1  0.35115000  0.83171000  0.42086900  1
  C  C23  1  0.50454200  0.50454200  0.24494500  1
  C  C24  1  0.50057600  0.98326200  0.24554700  1
  C  C25  1  0.67060000  0.67060000  0.57714500  1
  C  C26  1  0.83171000  0.35115000  0.42086900  1
  C  C27  1  0.66332600  0.66332600  0.08941200  1
  C  C28  1  0.82761000  0.82761000  0.42125700  1
  C  C29  1  0.98326200  0.50057600  0.24554700  1
  C  C30  1  0.01381600  0.49919900  0.75287600  1
  C  C31  1  0.17159900  0.17159900  0.57920100  1
  C  C32  1  0.16795900  0.64919600  0.57943600  1
  C  C33  1  0.49919900  0.01381600  0.75287600  1
  C  C34  1  0.33977400  0.33977400  0.90321600  1
  C  C35  1  0.32930100  0.32930100  0.42167800  1
  C  C36  1  0.49696700  0.49696700  0.75295400  1
  C  C37  1  0.64919600  0.16795900  0.57943600  1
  C  C38  1  0.84076700  0.84076700  0.91545300  1
  C  C39  1  0.83952200  0.31042200  0.91572100  1
  C  C40  1  0.99485000  0.99485000  0.75608600  1
  C  C41  1  0.31042200  0.83952200  0.91572100  1
