# generated using pymatgen
data_Cu2Ni2C3
_symmetry_space_group_name_H-M   'P 1'
_cell_length_a   5.80857700
_cell_length_b   7.92891000
_cell_length_c   13.91376700
_cell_angle_alpha   90.00000000
_cell_angle_beta   90.00000000
_cell_angle_gamma   90.00000000
_symmetry_Int_Tables_number   1
_chemical_formula_structural   Cu2Ni2C3
_chemical_formula_sum   'Cu8 Ni8 C12'
_cell_volume   640.80805983
_cell_formula_units_Z   4
loop_
 _symmetry_equiv_pos_site_id
 _symmetry_equiv_pos_as_xyz
  1  'x, y, z'
loop_
 _atom_site_type_symbol
 _atom_site_label
 _atom_site_symmetry_multiplicity
 _atom_site_fract_x
 _atom_site_fract_y
 _atom_site_fract_z
 _atom_site_occupancy
  C  C0  1  0.14302600  0.60686500  0.09843800  1
  C  C1  1  0.14302600  0.89313500  0.90156200  1
  C  C2  1  0.85697400  0.10686500  0.40156200  1
  C  C3  1  0.85697400  0.39313500  0.59843800  1
  C  C4  1  0.85697400  0.39313500  0.90156200  1
  C  C5  1  0.85697400  0.10686500  0.09843800  1
  C  C6  1  0.14302600  0.89313500  0.59843800  1
  C  C7  1  0.14302600  0.60686500  0.40156200  1
  C  C8  1  0.37092400  0.25727700  0.25000000  1
  C  C9  1  0.37092400  0.24272300  0.75000000  1
  C  C10  1  0.62907600  0.75727700  0.25000000  1
  C  C11  1  0.62907600  0.74272300  0.75000000  1
  Ni  Ni12  1  0.37804300  0.25000000  0.00000000  1
  Ni  Ni13  1  0.62195700  0.75000000  0.50000000  1
  Ni  Ni14  1  0.62195700  0.75000000  0.00000000  1
  Ni  Ni15  1  0.37804300  0.25000000  0.50000000  1
  Ni  Ni16  1  0.85814200  0.40835200  0.25000000  1
  Ni  Ni17  1  0.85814200  0.09164800  0.75000000  1
  Ni  Ni18  1  0.14185800  0.90835200  0.25000000  1
  Ni  Ni19  1  0.14185800  0.59164800  0.75000000  1
  Cu  Cu20  1  0.63900900  0.46846700  0.09408000  1
  Cu  Cu21  1  0.63900900  0.03153300  0.90592000  1
  Cu  Cu22  1  0.36099100  0.96846700  0.40592000  1
  Cu  Cu23  1  0.36099100  0.53153300  0.59408000  1
  Cu  Cu24  1  0.36099100  0.53153300  0.90592000  1
  Cu  Cu25  1  0.36099100  0.96846700  0.09408000  1
  Cu  Cu26  1  0.63900900  0.03153300  0.59408000  1
  Cu  Cu27  1  0.63900900  0.46846700  0.40592000  1
