# generated using pymatgen
data_Cu13(Ni4C)2
_symmetry_space_group_name_H-M   'P 1'
_cell_length_a   4.22101800
_cell_length_b   13.89366300
_cell_length_c   25.28277318
_cell_angle_alpha   83.36858049
_cell_angle_beta   90.00000000
_cell_angle_gamma   90.00000000
_symmetry_Int_Tables_number   1
_chemical_formula_structural   Cu13(Ni4C)2
_chemical_formula_sum   'Cu26 Ni16 C4'
_cell_volume   1472.79838940
_cell_formula_units_Z   2
loop_
 _symmetry_equiv_pos_site_id
 _symmetry_equiv_pos_as_xyz
  1  'x, y, z'
loop_
 _atom_site_type_symbol
 _atom_site_label
 _atom_site_symmetry_multiplicity
 _atom_site_fract_x
 _atom_site_fract_y
 _atom_site_fract_z
 _atom_site_occupancy
  C  C0  1  0.75000000  0.41867300  0.11900800  1
  C  C1  1  0.25000000  0.58132700  0.88099200  1
  C  C2  1  0.25000000  0.27719300  0.36172200  1
  C  C3  1  0.75000000  0.72280700  0.63827800  1
  Ni  Ni4  1  0.25000000  0.57160900  0.43631100  1
  Ni  Ni5  1  0.75000000  0.42839100  0.56368900  1
  Ni  Ni6  1  0.25000000  0.80913600  0.16932900  1
  Ni  Ni7  1  0.75000000  0.19086400  0.83067100  1
  Ni  Ni8  1  0.75000000  0.04634900  0.07001600  1
  Ni  Ni9  1  0.25000000  0.95365100  0.92998400  1
  Ni  Ni10  1  0.75000000  0.88338700  0.30759800  1
  Ni  Ni11  1  0.25000000  0.11661300  0.69240200  1
  Ni  Ni12  1  0.75000000  0.56360000  0.26753000  1
  Ni  Ni13  1  0.25000000  0.43640000  0.73247000  1
  Ni  Ni14  1  0.75000000  0.72278000  0.03208900  1
  Ni  Ni15  1  0.25000000  0.27722000  0.96791100  1
  Ni  Ni16  1  0.25000000  0.12499800  0.21240200  1
  Ni  Ni17  1  0.75000000  0.87500200  0.78759800  1
  Ni  Ni18  1  0.25000000  0.95006500  0.44047600  1
  Ni  Ni19  1  0.75000000  0.04993500  0.55952400  1
  Cu  Cu20  1  0.25000000  0.38781000  0.48779900  1
  Cu  Cu21  1  0.75000000  0.61219000  0.51220100  1
  Cu  Cu22  1  0.75000000  0.48360900  0.37262800  1
  Cu  Cu23  1  0.25000000  0.51639100  0.62737200  1
  Cu  Cu24  1  0.25000000  0.44649900  0.23885000  1
  Cu  Cu25  1  0.75000000  0.55350100  0.76115000  1
  Cu  Cu26  1  0.25000000  0.74105800  0.27967300  1
  Cu  Cu27  1  0.75000000  0.25894200  0.72032700  1
  Cu  Cu28  1  0.75000000  0.67653200  0.14596300  1
  Cu  Cu29  1  0.25000000  0.32346800  0.85403700  1
  Cu  Cu30  1  0.25000000  0.59324400  0.02124100  1
  Cu  Cu31  1  0.75000000  0.40675600  0.97875900  1
  Cu  Cu32  1  0.25000000  0.89650500  0.04841900  1
  Cu  Cu33  1  0.75000000  0.10349500  0.95158100  1
  Cu  Cu34  1  0.25000000  0.18522000  0.08780600  1
  Cu  Cu35  1  0.75000000  0.81478000  0.91219400  1
  Cu  Cu36  1  0.75000000  0.24640200  0.23513800  1
  Cu  Cu37  1  0.25000000  0.75359800  0.76486200  1
  Cu  Cu38  1  0.75000000  0.96330100  0.18245700  1
  Cu  Cu39  1  0.25000000  0.03669900  0.81754300  1
  Cu  Cu40  1  0.25000000  0.90075500  0.55094600  1
  Cu  Cu41  1  0.75000000  0.09924500  0.44905400  1
  Cu  Cu42  1  0.25000000  0.19020900  0.58556600  1
  Cu  Cu43  1  0.75000000  0.80979100  0.41443400  1
  Cu  Cu44  1  0.75000000  0.97347100  0.68074700  1
  Cu  Cu45  1  0.25000000  0.02652900  0.31925300  1
