# generated using pymatgen
data_Cu6Ni2C5
_symmetry_space_group_name_H-M   'P 1'
_cell_length_a   8.29813700
_cell_length_b   8.29813700
_cell_length_c   8.29813700
_cell_angle_alpha   90.00000000
_cell_angle_beta   90.00000000
_cell_angle_gamma   90.00000000
_symmetry_Int_Tables_number   1
_chemical_formula_structural   Cu6Ni2C5
_chemical_formula_sum   'Cu18 Ni6 C15'
_cell_volume   571.40206021
_cell_formula_units_Z   3
loop_
 _symmetry_equiv_pos_site_id
 _symmetry_equiv_pos_as_xyz
  1  'x, y, z'
loop_
 _atom_site_type_symbol
 _atom_site_label
 _atom_site_symmetry_multiplicity
 _atom_site_fract_x
 _atom_site_fract_y
 _atom_site_fract_z
 _atom_site_occupancy
  Ni  Ni0  1  0.81884100  0.00000000  0.50000000  1
  Ni  Ni1  1  0.00000000  0.50000000  0.81884100  1
  Ni  Ni2  1  0.50000000  0.81884100  0.00000000  1
  Ni  Ni3  1  0.00000000  0.50000000  0.18115900  1
  Ni  Ni4  1  0.50000000  0.18115900  0.00000000  1
  Ni  Ni5  1  0.18115900  0.00000000  0.50000000  1
  C  C6  1  0.28199600  0.71800400  0.28199600  1
  C  C7  1  0.71800400  0.28199600  0.28199600  1
  C  C8  1  0.28199600  0.28199600  0.71800400  1
  C  C9  1  0.71800400  0.71800400  0.71800400  1
  C  C10  1  0.71800400  0.28199600  0.71800400  1
  C  C11  1  0.28199600  0.71800400  0.71800400  1
  C  C12  1  0.71800400  0.71800400  0.28199600  1
  C  C13  1  0.28199600  0.28199600  0.28199600  1
  C  C14  1  0.66342000  0.50000000  0.00000000  1
  C  C15  1  0.50000000  0.00000000  0.66342000  1
  C  C16  1  0.00000000  0.66342000  0.50000000  1
  C  C17  1  0.50000000  0.00000000  0.33658000  1
  C  C18  1  0.00000000  0.33658000  0.50000000  1
  C  C19  1  0.33658000  0.50000000  0.00000000  1
  C  C20  1  0.00000000  0.00000000  0.00000000  1
  Cu  Cu21  1  0.00000000  0.83632300  0.25772100  1
  Cu  Cu22  1  0.00000000  0.16367700  0.74227900  1
  Cu  Cu23  1  0.00000000  0.83632300  0.74227900  1
  Cu  Cu24  1  0.16367700  0.74227900  0.00000000  1
  Cu  Cu25  1  0.74227900  0.00000000  0.83632300  1
  Cu  Cu26  1  0.74227900  0.00000000  0.16367700  1
  Cu  Cu27  1  0.83632300  0.25772100  0.00000000  1
  Cu  Cu28  1  0.25772100  0.00000000  0.83632300  1
  Cu  Cu29  1  0.83632300  0.74227900  0.00000000  1
  Cu  Cu30  1  0.27509700  0.50000000  0.50000000  1
  Cu  Cu31  1  0.50000000  0.27509700  0.50000000  1
  Cu  Cu32  1  0.50000000  0.50000000  0.27509700  1
  Cu  Cu33  1  0.50000000  0.72490300  0.50000000  1
  Cu  Cu34  1  0.50000000  0.50000000  0.72490300  1
  Cu  Cu35  1  0.72490300  0.50000000  0.50000000  1
  Cu  Cu36  1  0.00000000  0.16367700  0.25772100  1
  Cu  Cu37  1  0.25772100  0.00000000  0.16367700  1
  Cu  Cu38  1  0.16367700  0.25772100  0.00000000  1
