# generated using pymatgen
data_Cu2Ni17
_symmetry_space_group_name_H-M   'P 1'
_cell_length_a   5.56194965
_cell_length_b   5.56194965
_cell_length_c   5.56194934
_cell_angle_alpha   83.13461362
_cell_angle_beta   83.13461362
_cell_angle_gamma   83.13460533
_symmetry_Int_Tables_number   1
_chemical_formula_structural   Cu2Ni17
_chemical_formula_sum   'Cu2 Ni17'
_cell_volume   168.63233382
_cell_formula_units_Z   1
loop_
 _symmetry_equiv_pos_site_id
 _symmetry_equiv_pos_as_xyz
  1  'x, y, z'
loop_
 _atom_site_type_symbol
 _atom_site_label
 _atom_site_symmetry_multiplicity
 _atom_site_fract_x
 _atom_site_fract_y
 _atom_site_fract_z
 _atom_site_occupancy
  Ni  Ni0  1  0.40108200  0.40108200  0.40108200  1
  Ni  Ni1  1  0.59891800  0.59891800  0.59891800  1
  Ni  Ni2  1  0.50000000  0.50000000  0.00000000  1
  Ni  Ni3  1  0.50000000  0.00000000  0.50000000  1
  Ni  Ni4  1  0.00000000  0.50000000  0.50000000  1
  Ni  Ni5  1  0.50000000  0.79367100  0.20632900  1
  Ni  Ni6  1  0.79367100  0.20632900  0.50000000  1
  Ni  Ni7  1  0.20632900  0.50000000  0.79367100  1
  Ni  Ni8  1  0.50000000  0.20632900  0.79367100  1
  Ni  Ni9  1  0.20632900  0.79367100  0.50000000  1
  Ni  Ni10  1  0.79367100  0.50000000  0.20632900  1
  Ni  Ni11  1  0.66049100  0.15326700  0.15326700  1
  Ni  Ni12  1  0.15326700  0.15326700  0.66049100  1
  Ni  Ni13  1  0.15326700  0.66049100  0.15326700  1
  Ni  Ni14  1  0.84673300  0.33950900  0.84673300  1
  Ni  Ni15  1  0.33950900  0.84673300  0.84673300  1
  Ni  Ni16  1  0.84673300  0.84673300  0.33950900  1
  Cu  Cu17  1  0.15888300  0.15888300  0.15888300  1
  Cu  Cu18  1  0.84111700  0.84111700  0.84111700  1
