# generated using pymatgen
data_Cu2NiC4
_symmetry_space_group_name_H-M   'P 1'
_cell_length_a   6.06536150
_cell_length_b   6.06536150
_cell_length_c   14.84971800
_cell_angle_alpha   90.00000000
_cell_angle_beta   90.00000000
_cell_angle_gamma   119.99999457
_symmetry_Int_Tables_number   1
_chemical_formula_structural   Cu2NiC4
_chemical_formula_sum   'Cu12 Ni6 C24'
_cell_volume   473.11012516
_cell_formula_units_Z   6
loop_
 _symmetry_equiv_pos_site_id
 _symmetry_equiv_pos_as_xyz
  1  'x, y, z'
loop_
 _atom_site_type_symbol
 _atom_site_label
 _atom_site_symmetry_multiplicity
 _atom_site_fract_x
 _atom_site_fract_y
 _atom_site_fract_z
 _atom_site_occupancy
  Ni  Ni0  1  0.66666700  0.33333300  0.95464400  1
  Ni  Ni1  1  0.00000000  0.00000000  0.99815300  1
  Ni  Ni2  1  0.00000000  0.00000000  0.62459900  1
  Ni  Ni3  1  0.33333300  0.66666700  0.29239100  1
  Ni  Ni4  1  0.66666700  0.33333300  0.71019700  1
  Ni  Ni5  1  0.00000000  0.00000000  0.37506500  1
  Cu  Cu6  1  0.16464800  0.83535200  0.83356600  1
  Cu  Cu7  1  0.00035200  0.50017600  0.50067200  1
  Cu  Cu8  1  0.33333300  0.66666700  0.66778100  1
  Cu  Cu9  1  0.16464800  0.32929600  0.83356600  1
  Cu  Cu10  1  0.49982400  0.50017600  0.50067200  1
  Cu  Cu11  1  0.67070400  0.83535200  0.83356600  1
  Cu  Cu12  1  0.66666700  0.33333300  0.33462200  1
  Cu  Cu13  1  0.49982400  0.99964800  0.50067200  1
  Cu  Cu14  1  0.83231200  0.16768800  0.16691800  1
  Cu  Cu15  1  0.83231200  0.66462400  0.16691800  1
  Cu  Cu16  1  0.33537600  0.16768800  0.16691800  1
  Cu  Cu17  1  0.33333300  0.66666700  0.04294200  1
  C  C18  1  0.84428000  0.15572000  0.90897700  1
  C  C19  1  0.84428000  0.68856000  0.90897700  1
  C  C20  1  0.00000000  0.00000000  0.75893300  1
  C  C21  1  0.31144000  0.15572000  0.90897700  1
  C  C22  1  0.18051700  0.81948300  0.57947800  1
  C  C23  1  0.03006800  0.51503400  0.75357400  1
  C  C24  1  0.33333300  0.66666700  0.91194600  1
  C  C25  1  0.48496600  0.96993200  0.75357400  1
  C  C26  1  0.18051700  0.36103400  0.57947800  1
  C  C27  1  0.33333300  0.66666700  0.42685700  1
  C  C28  1  0.63896600  0.81948300  0.57947800  1
  C  C29  1  0.48496600  0.51503400  0.75357400  1
  C  C30  1  0.51424400  0.48575600  0.24680700  1
  C  C31  1  0.36075400  0.18037700  0.41988600  1
  C  C32  1  0.66666700  0.33333300  0.57328300  1
  C  C33  1  0.81962300  0.63924600  0.41988600  1
  C  C34  1  0.66666700  0.33333300  0.09299700  1
  C  C35  1  0.51424400  0.02848800  0.24680700  1
  C  C36  1  0.97151200  0.48575600  0.24680700  1
  C  C37  1  0.81962300  0.18037700  0.41988600  1
  C  C38  1  0.67952600  0.83976300  0.08925300  1
  C  C39  1  0.16023700  0.32047400  0.08925300  1
  C  C40  1  0.00000000  0.00000000  0.23815400  1
  C  C41  1  0.16023700  0.83976300  0.08925300  1
