# generated using pymatgen
data_Cu2NiC4
_symmetry_space_group_name_H-M   'P 1'
_cell_length_a   5.91222300
_cell_length_b   7.79969800
_cell_length_c   10.71226300
_cell_angle_alpha   90.00000000
_cell_angle_beta   90.00000000
_cell_angle_gamma   90.00000000
_symmetry_Int_Tables_number   1
_chemical_formula_structural   Cu2NiC4
_chemical_formula_sum   'Cu8 Ni4 C16'
_cell_volume   493.98051733
_cell_formula_units_Z   4
loop_
 _symmetry_equiv_pos_site_id
 _symmetry_equiv_pos_as_xyz
  1  'x, y, z'
loop_
 _atom_site_type_symbol
 _atom_site_label
 _atom_site_symmetry_multiplicity
 _atom_site_fract_x
 _atom_site_fract_y
 _atom_site_fract_z
 _atom_site_occupancy
  Ni  Ni0  1  0.25000000  0.72965300  0.92289800  1
  Ni  Ni1  1  0.25000000  0.22965300  0.57710200  1
  Ni  Ni2  1  0.75000000  0.77034700  0.42289800  1
  Ni  Ni3  1  0.75000000  0.27034700  0.07710200  1
  Cu  Cu4  1  0.25000000  0.99062600  0.30491400  1
  Cu  Cu5  1  0.75000000  0.00937400  0.69508600  1
  Cu  Cu6  1  0.25000000  0.49062600  0.19508600  1
  Cu  Cu7  1  0.75000000  0.50937400  0.80491400  1
  Cu  Cu8  1  0.25000000  0.16831800  0.91704700  1
  Cu  Cu9  1  0.75000000  0.83168200  0.08295300  1
  Cu  Cu10  1  0.25000000  0.66831800  0.58295300  1
  Cu  Cu11  1  0.75000000  0.33168200  0.41704700  1
  C  C12  1  0.25000000  0.02927300  0.58211200  1
  C  C13  1  0.75000000  0.97072700  0.41788800  1
  C  C14  1  0.25000000  0.52927300  0.91788800  1
  C  C15  1  0.75000000  0.47072700  0.08211200  1
  C  C16  1  0.75000000  0.20518500  0.93664000  1
  C  C17  1  0.25000000  0.29481500  0.43664000  1
  C  C18  1  0.25000000  0.79481500  0.06336000  1
  C  C19  1  0.75000000  0.70518500  0.56336000  1
  C  C20  1  0.53135900  0.19668600  0.14102900  1
  C  C21  1  0.03135900  0.80331400  0.85897100  1
  C  C22  1  0.96864100  0.69668600  0.35897100  1
  C  C23  1  0.46864100  0.30331400  0.64102900  1
  C  C24  1  0.46864100  0.80331400  0.85897100  1
  C  C25  1  0.96864100  0.19668600  0.14102900  1
  C  C26  1  0.03135900  0.30331400  0.64102900  1
  C  C27  1  0.53135900  0.69668600  0.35897100  1
