# generated using pymatgen
data_CuNiC
_symmetry_space_group_name_H-M   'P 1'
_cell_length_a   4.21001600
_cell_length_b   7.12403800
_cell_length_c   15.87366700
_cell_angle_alpha   90.00000000
_cell_angle_beta   90.00000000
_cell_angle_gamma   90.00000000
_symmetry_Int_Tables_number   1
_chemical_formula_structural   CuNiC
_chemical_formula_sum   'Cu8 Ni8 C8'
_cell_volume   476.08800443
_cell_formula_units_Z   8
loop_
 _symmetry_equiv_pos_site_id
 _symmetry_equiv_pos_as_xyz
  1  'x, y, z'
loop_
 _atom_site_type_symbol
 _atom_site_label
 _atom_site_symmetry_multiplicity
 _atom_site_fract_x
 _atom_site_fract_y
 _atom_site_fract_z
 _atom_site_occupancy
  C  C0  1  0.25000000  0.15323900  0.55898600  1
  C  C1  1  0.75000000  0.84676100  0.44101400  1
  C  C2  1  0.25000000  0.65323900  0.94101400  1
  C  C3  1  0.75000000  0.34676100  0.05898600  1
  C  C4  1  0.25000000  0.02724300  0.77954200  1
  C  C5  1  0.75000000  0.97275700  0.22045800  1
  C  C6  1  0.25000000  0.52724300  0.72045800  1
  C  C7  1  0.75000000  0.47275700  0.27954200  1
  Ni  Ni8  1  0.25000000  0.14440900  0.35004500  1
  Ni  Ni9  1  0.75000000  0.85559100  0.64995500  1
  Ni  Ni10  1  0.25000000  0.64440900  0.14995500  1
  Ni  Ni11  1  0.75000000  0.35559100  0.85004500  1
  Ni  Ni12  1  0.25000000  0.00539000  0.06205000  1
  Ni  Ni13  1  0.75000000  0.99461000  0.93795000  1
  Ni  Ni14  1  0.25000000  0.50539000  0.43795000  1
  Ni  Ni15  1  0.75000000  0.49461000  0.56205000  1
  Cu  Cu16  1  0.75000000  0.27946800  0.42678000  1
  Cu  Cu17  1  0.25000000  0.72053200  0.57322000  1
  Cu  Cu18  1  0.75000000  0.77946800  0.07322000  1
  Cu  Cu19  1  0.25000000  0.22053200  0.92678000  1
  Cu  Cu20  1  0.75000000  0.73568000  0.81807800  1
  Cu  Cu21  1  0.25000000  0.26432000  0.18192200  1
  Cu  Cu22  1  0.75000000  0.23568000  0.68192200  1
  Cu  Cu23  1  0.25000000  0.76432000  0.31807800  1
