# generated using pymatgen
data_Cu2Ni2C7
_symmetry_space_group_name_H-M   'P 1'
_cell_length_a   3.75973900
_cell_length_b   7.79788800
_cell_length_c   10.90622500
_cell_angle_alpha   90.00000000
_cell_angle_beta   90.00000000
_cell_angle_gamma   90.00000000
_symmetry_Int_Tables_number   1
_chemical_formula_structural   Cu2Ni2C7
_chemical_formula_sum   'Cu4 Ni4 C14'
_cell_volume   319.74896228
_cell_formula_units_Z   2
loop_
 _symmetry_equiv_pos_site_id
 _symmetry_equiv_pos_as_xyz
  1  'x, y, z'
loop_
 _atom_site_type_symbol
 _atom_site_label
 _atom_site_symmetry_multiplicity
 _atom_site_fract_x
 _atom_site_fract_y
 _atom_site_fract_z
 _atom_site_occupancy
  Ni  Ni0  1  0.00000000  0.75000000  0.74552000  1
  Ni  Ni1  1  0.00000000  0.25000000  0.25448000  1
  Ni  Ni2  1  0.50000000  0.50000000  0.00000000  1
  Ni  Ni3  1  0.50000000  0.00000000  0.00000000  1
  Cu  Cu4  1  0.50000000  0.00000000  0.50000000  1
  Cu  Cu5  1  0.00000000  0.25000000  0.76917200  1
  Cu  Cu6  1  0.50000000  0.50000000  0.50000000  1
  Cu  Cu7  1  0.00000000  0.75000000  0.23082800  1
  C  C8  1  0.00000000  0.95623200  0.37452600  1
  C  C9  1  0.50000000  0.25000000  0.13472600  1
  C  C10  1  0.50000000  0.75000000  0.12649800  1
  C  C11  1  0.00000000  0.01131000  0.12239400  1
  C  C12  1  0.00000000  0.98869000  0.87760600  1
  C  C13  1  0.00000000  0.51131000  0.87760600  1
  C  C14  1  0.50000000  0.75000000  0.86527400  1
  C  C15  1  0.50000000  0.25000000  0.87350200  1
  C  C16  1  0.50000000  0.75000000  0.60811400  1
  C  C17  1  0.00000000  0.04376800  0.62547400  1
  C  C18  1  0.00000000  0.45623200  0.62547400  1
  C  C19  1  0.00000000  0.54376800  0.37452600  1
  C  C20  1  0.50000000  0.25000000  0.39188600  1
  C  C21  1  0.00000000  0.48869000  0.12239400  1
