# generated using pymatgen
data_Cu2NiC4
_symmetry_space_group_name_H-M   'P 1'
_cell_length_a   6.03800077
_cell_length_b   6.03800077
_cell_length_c   20.01395315
_cell_angle_alpha   81.23445120
_cell_angle_beta   81.23445120
_cell_angle_gamma   60.02425219
_symmetry_Int_Tables_number   1
_chemical_formula_structural   Cu2NiC4
_chemical_formula_sum   'Cu16 Ni8 C32'
_cell_volume   622.19156714
_cell_formula_units_Z   8
loop_
 _symmetry_equiv_pos_site_id
 _symmetry_equiv_pos_as_xyz
  1  'x, y, z'
loop_
 _atom_site_type_symbol
 _atom_site_label
 _atom_site_symmetry_multiplicity
 _atom_site_fract_x
 _atom_site_fract_y
 _atom_site_fract_z
 _atom_site_occupancy
  Ni  Ni0  1  0.84635000  0.84635000  0.96950400  1
  Ni  Ni1  1  0.37615600  0.37615600  0.87508000  1
  Ni  Ni2  1  0.59669100  0.59669100  0.71839900  1
  Ni  Ni3  1  0.12563000  0.12563000  0.62459600  1
  Ni  Ni4  1  0.87497900  0.87497900  0.37517500  1
  Ni  Ni5  1  0.99986500  0.99986500  0.50035000  1
  Ni  Ni6  1  0.62533000  0.62533000  0.12566300  1
  Ni  Ni7  1  0.74977800  0.74977800  0.25047800  1
  Cu  Cu8  1  0.37781200  0.86649200  0.87524400  1
  Cu  Cu9  1  0.25026900  0.25026900  0.74699800  1
  Cu  Cu10  1  0.86649200  0.37781200  0.87524400  1
  Cu  Cu11  1  0.34778300  0.34778300  0.46720900  1
  Cu  Cu12  1  0.12553900  0.62181400  0.62497100  1
  Cu  Cu13  1  0.90247700  0.90247700  0.78078100  1
  Cu  Cu14  1  0.09752200  0.09752200  0.21841100  1
  Cu  Cu15  1  0.62181400  0.12553900  0.62497100  1
  Cu  Cu16  1  0.87484600  0.37484700  0.37530000  1
  Cu  Cu17  1  0.65199700  0.65199700  0.53279100  1
  Cu  Cu18  1  0.37484700  0.87484600  0.37530000  1
  Cu  Cu19  1  0.12002300  0.62700000  0.12560300  1
  Cu  Cu20  1  0.62700000  0.12002300  0.12560300  1
  Cu  Cu21  1  0.40224600  0.40224600  0.28252900  1
  Cu  Cu22  1  0.49997900  0.49997900  0.99721700  1
  Cu  Cu23  1  0.15264200  0.15264200  0.03044900  1
  C  C24  1  0.67996400  0.21537200  0.93617300  1
  C  C25  1  0.56415100  0.56415100  0.81974500  1
  C  C26  1  0.21537200  0.67996400  0.93617300  1
  C  C27  1  0.67666700  0.67666700  0.93538100  1
  C  C28  1  0.07045400  0.07045400  0.81441700  1
  C  C29  1  0.42952400  0.96770500  0.68561100  1
  C  C30  1  0.54314500  0.06848200  0.81395300  1
  C  C31  1  0.31379300  0.31379300  0.56604900  1
  C  C32  1  0.96770500  0.42952400  0.68561100  1
  C  C33  1  0.18710000  0.18710000  0.93268500  1
  C  C34  1  0.42573000  0.42573000  0.68488600  1
  C  C35  1  0.06848200  0.54314500  0.81395300  1
  C  C36  1  0.18513200  0.70490900  0.43490700  1
  C  C37  1  0.81878800  0.81878800  0.56573900  1
  C  C38  1  0.29668400  0.81432800  0.56523700  1
  C  C39  1  0.06325800  0.06325800  0.31762500  1
  C  C40  1  0.70490900  0.18513200  0.43490700  1
  C  C41  1  0.93712900  0.93712900  0.68290900  1
  C  C42  1  0.18023600  0.18023600  0.43438400  1
  C  C43  1  0.81432800  0.29668400  0.56523700  1
  C  C44  1  0.56956600  0.56956600  0.31519900  1
  C  C45  1  0.93570400  0.45242400  0.18525500  1
  C  C46  1  0.04616000  0.56472200  0.31466200  1
  C  C47  1  0.81353800  0.81353800  0.07146200  1
  C  C48  1  0.45242400  0.93570400  0.18525500  1
  C  C49  1  0.68670800  0.68670800  0.43229500  1
  C  C50  1  0.93144600  0.93144600  0.18478900  1
  C  C51  1  0.56472200  0.04616000  0.31466200  1
  C  C52  1  0.32118500  0.32118500  0.06397400  1
  C  C53  1  0.79254300  0.31882000  0.06349200  1
  C  C54  1  0.43656400  0.43656400  0.18201700  1
  C  C55  1  0.31882000  0.79254300  0.06349200  1
