# generated using pymatgen
data_CuNiC8
_symmetry_space_group_name_H-M   'P 1'
_cell_length_a   9.08390000
_cell_length_b   5.51211600
_cell_length_c   10.02240370
_cell_angle_alpha   74.10933743
_cell_angle_beta   90.00000000
_cell_angle_gamma   90.00000000
_symmetry_Int_Tables_number   1
_chemical_formula_structural   CuNiC8
_chemical_formula_sum   'Cu4 Ni4 C32'
_cell_volume   482.65966913
_cell_formula_units_Z   4
loop_
 _symmetry_equiv_pos_site_id
 _symmetry_equiv_pos_as_xyz
  1  'x, y, z'
loop_
 _atom_site_type_symbol
 _atom_site_label
 _atom_site_symmetry_multiplicity
 _atom_site_fract_x
 _atom_site_fract_y
 _atom_site_fract_z
 _atom_site_occupancy
  C  C0  1  0.81055400  0.75140600  0.99694600  1
  C  C1  1  0.31055400  0.24859400  0.50305400  1
  C  C2  1  0.68944600  0.75140600  0.49694600  1
  C  C3  1  0.18944600  0.24859400  0.00305400  1
  C  C4  1  0.90246800  0.26056700  0.49771700  1
  C  C5  1  0.40246800  0.73943300  0.00228300  1
  C  C6  1  0.59753200  0.26056700  0.99771700  1
  C  C7  1  0.09753200  0.73943300  0.50228300  1
  Ni  Ni8  1  0.59011900  0.44475800  0.28849300  1
  Ni  Ni9  1  0.90988100  0.44475800  0.78849300  1
  Ni  Ni10  1  0.09011900  0.55524200  0.21150700  1
  Ni  Ni11  1  0.40988100  0.55524200  0.71150700  1
  Cu  Cu12  1  0.59281500  0.05936500  0.70706200  1
  Cu  Cu13  1  0.09281500  0.94063500  0.79293800  1
  Cu  Cu14  1  0.90718500  0.05936500  0.20706200  1
  Cu  Cu15  1  0.40718500  0.94063500  0.29293800  1
  C  C16  1  0.98426200  0.13360200  0.85078100  1
  C  C17  1  0.47451400  0.65197000  0.35495300  1
  C  C18  1  0.75568300  0.46776100  0.37079200  1
  C  C19  1  0.59103700  0.53507700  0.10619900  1
  C  C20  1  0.59173200  0.98324300  0.87864200  1
  C  C21  1  0.25209900  0.96374800  0.86327200  1
  C  C22  1  0.97451400  0.34803000  0.14504700  1
  C  C23  1  0.75209900  0.03625200  0.63672800  1
  C  C24  1  0.09173200  0.01675700  0.62135800  1
  C  C25  1  0.74431700  0.46776100  0.87079200  1
  C  C26  1  0.51573800  0.13360200  0.35078100  1
  C  C27  1  0.09103700  0.46492300  0.39380100  1
  C  C28  1  0.90896300  0.53507700  0.60619900  1
  C  C29  1  0.48426200  0.86639800  0.64921900  1
  C  C30  1  0.25568300  0.53223900  0.12920800  1
  C  C31  1  0.90826800  0.98324300  0.37864200  1
  C  C32  1  0.24790100  0.96374800  0.36327200  1
  C  C33  1  0.02548600  0.65197000  0.85495300  1
  C  C34  1  0.74790100  0.03625200  0.13672800  1
  C  C35  1  0.40826800  0.01675700  0.12135800  1
  C  C36  1  0.40896300  0.46492300  0.89380100  1
  C  C37  1  0.24431700  0.53223900  0.62920800  1
  C  C38  1  0.52548600  0.34803000  0.64504700  1
  C  C39  1  0.01573800  0.86639800  0.14921900  1
