# generated using pymatgen
data_Cu2NiC
_symmetry_space_group_name_H-M   'P 1'
_cell_length_a   9.15915705
_cell_length_b   9.15915705
_cell_length_c   9.15915752
_cell_angle_alpha   109.14910609
_cell_angle_beta   109.14910609
_cell_angle_gamma   109.14909931
_symmetry_Int_Tables_number   1
_chemical_formula_structural   Cu2NiC
_chemical_formula_sum   'Cu12 Ni6 C6'
_cell_volume   598.43638973
_cell_formula_units_Z   6
loop_
 _symmetry_equiv_pos_site_id
 _symmetry_equiv_pos_as_xyz
  1  'x, y, z'
loop_
 _atom_site_type_symbol
 _atom_site_label
 _atom_site_symmetry_multiplicity
 _atom_site_fract_x
 _atom_site_fract_y
 _atom_site_fract_z
 _atom_site_occupancy
  C  C0  1  0.38274200  0.73503400  0.25803900  1
  C  C1  1  0.73503400  0.25803900  0.38274200  1
  C  C2  1  0.25803900  0.38274200  0.73503400  1
  C  C3  1  0.75803900  0.23503400  0.88274200  1
  C  C4  1  0.23503400  0.88274200  0.75803900  1
  C  C5  1  0.88274200  0.75803900  0.23503400  1
  Ni  Ni6  1  0.79397300  0.64535900  0.81095300  1
  Ni  Ni7  1  0.64535900  0.81095300  0.79397300  1
  Ni  Ni8  1  0.81095300  0.79397300  0.64535900  1
  Ni  Ni9  1  0.31095300  0.14535900  0.29397300  1
  Ni  Ni10  1  0.14535900  0.29397300  0.31095300  1
  Ni  Ni11  1  0.29397300  0.31095300  0.14535900  1
  Cu  Cu12  1  0.39965300  0.33233700  0.11322700  1
  Cu  Cu13  1  0.11322700  0.39965300  0.33233700  1
  Cu  Cu14  1  0.33233700  0.11322700  0.39965300  1
  Cu  Cu15  1  0.83233700  0.89965300  0.61322700  1
  Cu  Cu16  1  0.61322700  0.83233700  0.89965300  1
  Cu  Cu17  1  0.89965300  0.61322700  0.83233700  1
  Cu  Cu18  1  0.52124900  0.35923600  0.07519900  1
  Cu  Cu19  1  0.07519900  0.52124900  0.35923600  1
  Cu  Cu20  1  0.35923600  0.07519900  0.52124900  1
  Cu  Cu21  1  0.85923600  0.02124900  0.57519900  1
  Cu  Cu22  1  0.57519900  0.85923600  0.02124900  1
  Cu  Cu23  1  0.02124900  0.57519900  0.85923600  1
