# generated using pymatgen
data_CuNiC3
_symmetry_space_group_name_H-M   'P 1'
_cell_length_a   5.47043304
_cell_length_b   5.47043304
_cell_length_c   5.47043359
_cell_angle_alpha   54.54174208
_cell_angle_beta   54.54174208
_cell_angle_gamma   54.54174264
_symmetry_Int_Tables_number   1
_chemical_formula_structural   CuNiC3
_chemical_formula_sum   'Cu2 Ni2 C6'
_cell_volume   101.02990577
_cell_formula_units_Z   2
loop_
 _symmetry_equiv_pos_site_id
 _symmetry_equiv_pos_as_xyz
  1  'x, y, z'
loop_
 _atom_site_type_symbol
 _atom_site_label
 _atom_site_symmetry_multiplicity
 _atom_site_fract_x
 _atom_site_fract_y
 _atom_site_fract_z
 _atom_site_occupancy
  Ni  Ni0  1  0.64103600  0.64103600  0.64103600  1
  Ni  Ni1  1  0.35896400  0.35896400  0.35896400  1
  Cu  Cu2  1  0.84667200  0.84667200  0.84667200  1
  Cu  Cu3  1  0.15332800  0.15332800  0.15332800  1
  C  C4  1  0.55948300  0.95399600  0.21934500  1
  C  C5  1  0.95399600  0.21934500  0.55948300  1
  C  C6  1  0.21934500  0.55948300  0.95399600  1
  C  C7  1  0.44051700  0.04600400  0.78065500  1
  C  C8  1  0.78065500  0.44051700  0.04600400  1
  C  C9  1  0.04600400  0.78065500  0.44051700  1
