# generated using pymatgen
data_Cu3NiC4
_symmetry_space_group_name_H-M   'P 1'
_cell_length_a   8.78860128
_cell_length_b   8.78860128
_cell_length_c   8.78860128
_cell_angle_alpha   119.92286408
_cell_angle_beta   119.92286408
_cell_angle_gamma   90.13365534
_symmetry_Int_Tables_number   1
_chemical_formula_structural   Cu3NiC4
_chemical_formula_sum   'Cu6 Ni2 C8'
_cell_volume   480.56159588
_cell_formula_units_Z   2
loop_
 _symmetry_equiv_pos_site_id
 _symmetry_equiv_pos_as_xyz
  1  'x, y, z'
loop_
 _atom_site_type_symbol
 _atom_site_label
 _atom_site_symmetry_multiplicity
 _atom_site_fract_x
 _atom_site_fract_y
 _atom_site_fract_z
 _atom_site_occupancy
  C  C0  1  0.69359500  0.19359500  0.20425300  1
  C  C1  1  0.48934100  0.69359500  0.50000000  1
  C  C2  1  0.19359500  0.98934100  0.50000000  1
  C  C3  1  0.01065900  0.51065900  0.20425300  1
  C  C4  1  0.98934100  0.48934100  0.79574700  1
  C  C5  1  0.80640500  0.01065900  0.50000000  1
  C  C6  1  0.51065900  0.30640500  0.50000000  1
  C  C7  1  0.30640500  0.80640500  0.79574700  1
  Ni  Ni8  1  0.00000000  0.00000000  0.00000000  1
  Ni  Ni9  1  0.50000000  0.50000000  0.00000000  1
  Cu  Cu10  1  0.25000000  0.25000000  0.00000000  1
  Cu  Cu11  1  0.33980400  0.83980400  0.17960900  1
  Cu  Cu12  1  0.16019600  0.33980400  0.50000000  1
  Cu  Cu13  1  0.83980400  0.66019600  0.50000000  1
  Cu  Cu14  1  0.66019600  0.16019600  0.82039100  1
  Cu  Cu15  1  0.75000000  0.75000000  0.00000000  1
