# generated using pymatgen
data_Cu2NiC4
_symmetry_space_group_name_H-M   'P 1'
_cell_length_a   7.43120282
_cell_length_b   7.43120282
_cell_length_c   7.43120282
_cell_angle_alpha   109.64327397
_cell_angle_beta   109.64327397
_cell_angle_gamma   109.12765926
_symmetry_Int_Tables_number   1
_chemical_formula_structural   Cu2NiC4
_chemical_formula_sum   'Cu4 Ni2 C8'
_cell_volume   315.89572625
_cell_formula_units_Z   2
loop_
 _symmetry_equiv_pos_site_id
 _symmetry_equiv_pos_as_xyz
  1  'x, y, z'
loop_
 _atom_site_type_symbol
 _atom_site_label
 _atom_site_symmetry_multiplicity
 _atom_site_fract_x
 _atom_site_fract_y
 _atom_site_fract_z
 _atom_site_occupancy
  Ni  Ni0  1  0.50000000  0.50000000  0.00000000  1
  Ni  Ni1  1  0.25000000  0.75000000  0.50000000  1
  Cu  Cu2  1  0.37500000  0.99615100  0.12115100  1
  Cu  Cu3  1  0.00384900  0.12500000  0.37884900  1
  Cu  Cu4  1  0.87500000  0.25384900  0.87884900  1
  Cu  Cu5  1  0.74615100  0.62500000  0.62115100  1
  C  C6  1  0.62608200  0.87821200  0.89559200  1
  C  C7  1  0.62821200  0.87608200  0.39559200  1
  C  C8  1  0.12178800  0.01737900  0.74786900  1
  C  C9  1  0.48049000  0.23262100  0.60440800  1
  C  C10  1  0.76737900  0.37178800  0.24786900  1
  C  C11  1  0.12391800  0.51951000  0.75213100  1
  C  C12  1  0.26951000  0.37391800  0.25213100  1
  C  C13  1  0.98262100  0.73049000  0.10440800  1
