# generated using pymatgen
data_Cu2Ni2C7
_symmetry_space_group_name_H-M   'P 1'
_cell_length_a   7.56035200
_cell_length_b   7.58168000
_cell_length_c   10.59337200
_cell_angle_alpha   90.00000000
_cell_angle_beta   90.00000000
_cell_angle_gamma   90.00000000
_symmetry_Int_Tables_number   1
_chemical_formula_structural   Cu2Ni2C7
_chemical_formula_sum   'Cu8 Ni8 C28'
_cell_volume   607.21387916
_cell_formula_units_Z   4
loop_
 _symmetry_equiv_pos_site_id
 _symmetry_equiv_pos_as_xyz
  1  'x, y, z'
loop_
 _atom_site_type_symbol
 _atom_site_label
 _atom_site_symmetry_multiplicity
 _atom_site_fract_x
 _atom_site_fract_y
 _atom_site_fract_z
 _atom_site_occupancy
  Ni  Ni0  1  0.50000000  0.00000000  0.50000000  1
  Ni  Ni1  1  0.50000000  0.50000000  0.00000000  1
  Ni  Ni2  1  0.73933700  0.75000000  0.25000000  1
  Ni  Ni3  1  0.00000000  0.00000000  0.00000000  1
  Ni  Ni4  1  0.73933700  0.25000000  0.25000000  1
  Ni  Ni5  1  0.26066300  0.25000000  0.75000000  1
  Ni  Ni6  1  0.00000000  0.50000000  0.50000000  1
  Ni  Ni7  1  0.26066300  0.75000000  0.75000000  1
  Cu  Cu8  1  0.25381300  0.75000000  0.25000000  1
  Cu  Cu9  1  0.74618700  0.25000000  0.75000000  1
  Cu  Cu10  1  0.25381300  0.25000000  0.25000000  1
  Cu  Cu11  1  0.50000000  0.50000000  0.50000000  1
  Cu  Cu12  1  0.00000000  0.50000000  0.00000000  1
  Cu  Cu13  1  0.74618700  0.75000000  0.75000000  1
  Cu  Cu14  1  0.50000000  0.00000000  0.00000000  1
  Cu  Cu15  1  0.00000000  0.00000000  0.50000000  1
  C  C16  1  0.47674200  0.74913500  0.37727700  1
  C  C17  1  0.52325800  0.25086500  0.62272300  1
  C  C18  1  0.47674200  0.25086500  0.37727700  1
  C  C19  1  0.94885200  0.28732000  0.87906100  1
  C  C20  1  0.52325800  0.24913500  0.87727700  1
  C  C21  1  0.24138100  0.50000000  0.89297500  1
  C  C22  1  0.75295100  0.50000000  0.66796800  1
  C  C23  1  0.75861900  0.50000000  0.10702500  1
  C  C24  1  0.25909600  0.50000000  0.61071300  1
  C  C25  1  0.52325800  0.75086500  0.87727700  1
  C  C26  1  0.47674200  0.75086500  0.12272300  1
  C  C27  1  0.94885200  0.71268000  0.87906100  1
  C  C28  1  0.05114800  0.71268000  0.12093900  1
  C  C29  1  0.52325800  0.74913500  0.62272300  1
  C  C30  1  0.05114800  0.78732000  0.37906100  1
  C  C31  1  0.75295100  0.00000000  0.83203200  1
  C  C32  1  0.24704900  0.00000000  0.16796800  1
  C  C33  1  0.75861900  0.00000000  0.39297500  1
  C  C34  1  0.24138100  0.00000000  0.60702500  1
  C  C35  1  0.74090400  0.00000000  0.11071300  1
  C  C36  1  0.05114800  0.21268000  0.37906100  1
  C  C37  1  0.94885200  0.21268000  0.62093900  1
  C  C38  1  0.47674200  0.24913500  0.12272300  1
  C  C39  1  0.05114800  0.28732000  0.12093900  1
  C  C40  1  0.24704900  0.50000000  0.33203200  1
  C  C41  1  0.74090400  0.50000000  0.38928700  1
  C  C42  1  0.94885200  0.78732000  0.62093900  1
  C  C43  1  0.25909600  0.00000000  0.88928700  1
