# generated using pymatgen
data_Cu2(NiC)3
_symmetry_space_group_name_H-M   'P 1'
_cell_length_a   4.59361300
_cell_length_b   14.35229600
_cell_length_c   17.55787400
_cell_angle_alpha   90.00000000
_cell_angle_beta   90.00000000
_cell_angle_gamma   90.00000000
_symmetry_Int_Tables_number   1
_chemical_formula_structural   Cu2(NiC)3
_chemical_formula_sum   'Cu8 Ni12 C12'
_cell_volume   1157.57120478
_cell_formula_units_Z   4
loop_
 _symmetry_equiv_pos_site_id
 _symmetry_equiv_pos_as_xyz
  1  'x, y, z'
loop_
 _atom_site_type_symbol
 _atom_site_label
 _atom_site_symmetry_multiplicity
 _atom_site_fract_x
 _atom_site_fract_y
 _atom_site_fract_z
 _atom_site_occupancy
  C  C0  1  0.25000000  0.45822900  0.64419500  1
  C  C1  1  0.75000000  0.54177100  0.35580500  1
  C  C2  1  0.75000000  0.95822900  0.85580500  1
  C  C3  1  0.25000000  0.04177100  0.14419500  1
  C  C4  1  0.25000000  0.71100300  0.15956400  1
  C  C5  1  0.75000000  0.28899700  0.84043600  1
  C  C6  1  0.75000000  0.21100300  0.34043600  1
  C  C7  1  0.25000000  0.78899700  0.65956400  1
  C  C8  1  0.25000000  0.61597800  0.87012900  1
  C  C9  1  0.75000000  0.38402200  0.12987100  1
  C  C10  1  0.75000000  0.11597800  0.62987100  1
  C  C11  1  0.25000000  0.88402200  0.37012900  1
  Ni  Ni12  1  0.25000000  0.37336200  0.28564700  1
  Ni  Ni13  1  0.75000000  0.62663800  0.71435300  1
  Ni  Ni14  1  0.75000000  0.87336200  0.21435300  1
  Ni  Ni15  1  0.25000000  0.12663800  0.78564700  1
  Ni  Ni16  1  0.25000000  0.25305800  0.21110600  1
  Ni  Ni17  1  0.75000000  0.74694200  0.78889400  1
  Ni  Ni18  1  0.75000000  0.75305800  0.28889400  1
  Ni  Ni19  1  0.25000000  0.24694200  0.71110600  1
  Ni  Ni20  1  0.25000000  0.50396900  0.22517600  1
  Ni  Ni21  1  0.75000000  0.49603100  0.77482400  1
  Ni  Ni22  1  0.75000000  0.00396900  0.27482400  1
  Ni  Ni23  1  0.25000000  0.99603100  0.72517600  1
  Cu  Cu24  1  0.25000000  0.11302600  0.47008300  1
  Cu  Cu25  1  0.75000000  0.88697400  0.52991700  1
  Cu  Cu26  1  0.75000000  0.61302600  0.02991700  1
  Cu  Cu27  1  0.25000000  0.38697400  0.97008300  1
  Cu  Cu28  1  0.25000000  0.63453000  0.49142700  1
  Cu  Cu29  1  0.75000000  0.36547000  0.50857300  1
  Cu  Cu30  1  0.75000000  0.13453000  0.00857300  1
  Cu  Cu31  1  0.25000000  0.86547000  0.99142700  1
