# generated using pymatgen
data_Cu5NiC
_symmetry_space_group_name_H-M   'P 1'
_cell_length_a   10.60600099
_cell_length_b   10.60600099
_cell_length_c   10.60600099
_cell_angle_alpha   129.97678447
_cell_angle_beta   117.36350644
_cell_angle_gamma   84.13923397
_symmetry_Int_Tables_number   1
_chemical_formula_structural   Cu5NiC
_chemical_formula_sum   'Cu20 Ni4 C4'
_cell_volume   778.53572292
_cell_formula_units_Z   4
loop_
 _symmetry_equiv_pos_site_id
 _symmetry_equiv_pos_as_xyz
  1  'x, y, z'
loop_
 _atom_site_type_symbol
 _atom_site_label
 _atom_site_symmetry_multiplicity
 _atom_site_fract_x
 _atom_site_fract_y
 _atom_site_fract_z
 _atom_site_occupancy
  C  C0  1  0.25000000  0.25000000  0.00000000  1
  C  C1  1  0.75000000  0.75000000  0.00000000  1
  C  C2  1  0.00000000  0.50000000  0.50000000  1
  C  C3  1  0.50000000  0.00000000  0.50000000  1
  Ni  Ni4  1  0.88686600  0.25000000  0.63686600  1
  Ni  Ni5  1  0.61313400  0.25000000  0.36313400  1
  Ni  Ni6  1  0.11313400  0.75000000  0.36313400  1
  Ni  Ni7  1  0.38686600  0.75000000  0.63686600  1
  Cu  Cu8  1  0.42329000  0.40205200  0.61102900  1
  Cu  Cu9  1  0.07671000  0.68773900  0.97876200  1
  Cu  Cu10  1  0.70897700  0.09794800  0.02123800  1
  Cu  Cu11  1  0.79102300  0.81226100  0.38897100  1
  Cu  Cu12  1  0.57671000  0.59794800  0.38897100  1
  Cu  Cu13  1  0.92329000  0.31226100  0.02123800  1
  Cu  Cu14  1  0.29102300  0.90205200  0.97876200  1
  Cu  Cu15  1  0.20897700  0.18773900  0.61102900  1
  Cu  Cu16  1  0.98738200  0.15686400  0.44533400  1
  Cu  Cu17  1  0.51261800  0.95795200  0.16948200  1
  Cu  Cu18  1  0.78847000  0.34313600  0.83051800  1
  Cu  Cu19  1  0.71153000  0.54204800  0.55466600  1
  Cu  Cu20  1  0.01261800  0.84313600  0.55466600  1
  Cu  Cu21  1  0.48738200  0.04204800  0.83051800  1
  Cu  Cu22  1  0.21153000  0.65686400  0.16948200  1
  Cu  Cu23  1  0.28847000  0.45795200  0.44533400  1
  Cu  Cu24  1  0.33716900  0.42717400  0.76434200  1
  Cu  Cu25  1  0.16283100  0.92717400  0.09000500  1
  Cu  Cu26  1  0.83716900  0.07282600  0.90999500  1
  Cu  Cu27  1  0.66283100  0.57282600  0.23565800  1
