# generated using pymatgen
data_Cu14NiC
_symmetry_space_group_name_H-M   'P 1'
_cell_length_a   7.26695596
_cell_length_b   7.26695596
_cell_length_c   7.26695596
_cell_angle_alpha   132.54114475
_cell_angle_beta   111.06628965
_cell_angle_gamma   87.96171294
_symmetry_Int_Tables_number   1
_chemical_formula_structural   Cu14NiC
_chemical_formula_sum   'Cu28 Ni2 C2'
_cell_volume   251.55410850
_cell_formula_units_Z   2
loop_
 _symmetry_equiv_pos_site_id
 _symmetry_equiv_pos_as_xyz
  1  'x, y, z'
loop_
 _atom_site_type_symbol
 _atom_site_label
 _atom_site_symmetry_multiplicity
 _atom_site_fract_x
 _atom_site_fract_y
 _atom_site_fract_z
 _atom_site_occupancy
  C  C0  1  0.09654900  0.75000000  0.34654900  1
  C  C1  1  0.90345100  0.25000000  0.65345100  1
  Ni  Ni2  1  0.50000000  0.50000000  0.50000000  1
  Ni  Ni3  1  0.50000000  0.00000000  0.00000000  1
  Cu  Cu4  1  0.89699200  0.22044700  0.99772300  1
  Cu  Cu5  1  0.46532200  0.17134600  0.79468000  1
  Cu  Cu6  1  0.87666600  0.17064300  0.20532000  1
  Cu  Cu7  1  0.72272500  0.39926900  0.00227700  1
  Cu  Cu8  1  0.58236600  0.41452000  0.16784600  1
  Cu  Cu9  1  0.72819800  0.35265400  0.37554300  1
  Cu  Cu10  1  0.30219000  0.33406900  0.96812100  1
  Cu  Cu11  1  0.72272500  0.72044700  0.32345500  1
  Cu  Cu12  1  0.87666600  0.67134600  0.70602300  1
  Cu  Cu13  1  0.46532200  0.67064300  0.29397700  1
  Cu  Cu14  1  0.10300800  0.10073100  0.32345500  1
  Cu  Cu15  1  0.89699200  0.89926900  0.67654500  1
  Cu  Cu16  1  0.53467800  0.32935700  0.70602300  1
  Cu  Cu17  1  0.12333400  0.32865400  0.29397700  1
  Cu  Cu18  1  0.27727500  0.27955300  0.67654500  1
  Cu  Cu19  1  0.74667300  0.91452000  0.83215400  1
  Cu  Cu20  1  0.47711100  0.85265400  0.62445700  1
  Cu  Cu21  1  0.86594800  0.83406900  0.03187900  1
  Cu  Cu22  1  0.69781000  0.66593100  0.03187900  1
  Cu  Cu23  1  0.27180200  0.64734600  0.62445700  1
  Cu  Cu24  1  0.41763400  0.58548000  0.83215400  1
  Cu  Cu25  1  0.27727500  0.60073100  0.99772300  1
  Cu  Cu26  1  0.12333400  0.82935700  0.79468000  1
  Cu  Cu27  1  0.53467800  0.82865400  0.20532000  1
  Cu  Cu28  1  0.10300800  0.77955300  0.00227700  1
  Cu  Cu29  1  0.13405200  0.16593100  0.96812100  1
  Cu  Cu30  1  0.52288900  0.14734600  0.37554300  1
  Cu  Cu31  1  0.25332700  0.08548000  0.16784600  1
