# generated using pymatgen
data_Cu(NiC2)2
_symmetry_space_group_name_H-M   'P 1'
_cell_length_a   6.18023194
_cell_length_b   6.18023194
_cell_length_c   6.18023194
_cell_angle_alpha   120.61164352
_cell_angle_beta   118.71278093
_cell_angle_gamma   90.59385428
_symmetry_Int_Tables_number   1
_chemical_formula_structural   Cu(NiC2)2
_chemical_formula_sum   'Cu2 Ni4 C8'
_cell_volume   167.70212672
_cell_formula_units_Z   2
loop_
 _symmetry_equiv_pos_site_id
 _symmetry_equiv_pos_as_xyz
  1  'x, y, z'
loop_
 _atom_site_type_symbol
 _atom_site_label
 _atom_site_symmetry_multiplicity
 _atom_site_fract_x
 _atom_site_fract_y
 _atom_site_fract_z
 _atom_site_occupancy
  Ni  Ni0  1  0.61236900  0.86236900  0.75000000  1
  Ni  Ni1  1  0.38763100  0.13763100  0.25000000  1
  Ni  Ni2  1  0.00000000  0.00000000  0.50000000  1
  Ni  Ni3  1  0.00000000  0.50000000  0.00000000  1
  Cu  Cu4  1  0.50000000  0.50000000  0.00000000  1
  Cu  Cu5  1  0.00000000  0.50000000  0.50000000  1
  C  C6  1  0.24627100  0.26189000  0.51561800  1
  C  C7  1  0.24536000  0.26373200  0.98162800  1
  C  C8  1  0.24627100  0.73065300  0.98438200  1
  C  C9  1  0.78210300  0.26373200  0.51837200  1
  C  C10  1  0.21789700  0.73626800  0.48162800  1
  C  C11  1  0.75464000  0.73626800  0.01837200  1
  C  C12  1  0.75372900  0.26934700  0.01561800  1
  C  C13  1  0.75372900  0.73811000  0.48438200  1
