# generated using pymatgen
data_Cu5NiC
_symmetry_space_group_name_H-M   'P 1'
_cell_length_a   11.15144449
_cell_length_b   11.15144449
_cell_length_c   11.15144449
_cell_angle_alpha   130.48801478
_cell_angle_beta   118.40494774
_cell_angle_gamma   82.81987136
_symmetry_Int_Tables_number   1
_chemical_formula_structural   Cu5NiC
_chemical_formula_sum   'Cu20 Ni4 C4'
_cell_volume   891.96356401
_cell_formula_units_Z   4
loop_
 _symmetry_equiv_pos_site_id
 _symmetry_equiv_pos_as_xyz
  1  'x, y, z'
loop_
 _atom_site_type_symbol
 _atom_site_label
 _atom_site_symmetry_multiplicity
 _atom_site_fract_x
 _atom_site_fract_y
 _atom_site_fract_z
 _atom_site_occupancy
  C  C0  1  0.50000000  0.50000000  0.00000000  1
  C  C1  1  0.00000000  0.00000000  0.00000000  1
  C  C2  1  0.75000000  0.25000000  0.50000000  1
  C  C3  1  0.25000000  0.75000000  0.50000000  1
  Ni  Ni4  1  0.61889200  0.75000000  0.86889200  1
  Ni  Ni5  1  0.88110800  0.75000000  0.13110800  1
  Ni  Ni6  1  0.38110800  0.25000000  0.13110800  1
  Ni  Ni7  1  0.11889200  0.25000000  0.86889200  1
  Cu  Cu8  1  0.21928100  0.14461100  0.67380300  1
  Cu  Cu9  1  0.28071900  0.95452200  0.92533000  1
  Cu  Cu10  1  0.02919200  0.35538900  0.07467000  1
  Cu  Cu11  1  0.47080800  0.54547800  0.32619700  1
  Cu  Cu12  1  0.78071900  0.85538900  0.32619700  1
  Cu  Cu13  1  0.71928100  0.04547800  0.07467000  1
  Cu  Cu14  1  0.97080800  0.64461100  0.92533000  1
  Cu  Cu15  1  0.52919200  0.45452200  0.67380300  1
  Cu  Cu16  1  0.94127200  0.84302300  0.55391300  1
  Cu  Cu17  1  0.55872800  0.11264100  0.90175100  1
  Cu  Cu18  1  0.21089100  0.65697700  0.09824900  1
  Cu  Cu19  1  0.28910900  0.38735900  0.44608700  1
  Cu  Cu20  1  0.05872800  0.15697700  0.44608700  1
  Cu  Cu21  1  0.44127200  0.88735900  0.09824900  1
  Cu  Cu22  1  0.78911000  0.34302300  0.90175100  1
  Cu  Cu23  1  0.71089100  0.61264100  0.55391300  1
  Cu  Cu24  1  0.64500700  0.08187100  0.72687800  1
  Cu  Cu25  1  0.85499300  0.58187100  0.43686400  1
  Cu  Cu26  1  0.14500700  0.41812900  0.56313600  1
  Cu  Cu27  1  0.35499300  0.91812900  0.27312200  1
