# generated using pymatgen
data_CuNiC9
_symmetry_space_group_name_H-M   'P 1'
_cell_length_a   7.46180821
_cell_length_b   7.46180821
_cell_length_c   7.46180821
_cell_angle_alpha   120.36437901
_cell_angle_beta   119.42572459
_cell_angle_gamma   90.18378804
_symmetry_Int_Tables_number   1
_chemical_formula_structural   CuNiC9
_chemical_formula_sum   'Cu2 Ni2 C18'
_cell_volume   294.21642702
_cell_formula_units_Z   2
loop_
 _symmetry_equiv_pos_site_id
 _symmetry_equiv_pos_as_xyz
  1  'x, y, z'
loop_
 _atom_site_type_symbol
 _atom_site_label
 _atom_site_symmetry_multiplicity
 _atom_site_fract_x
 _atom_site_fract_y
 _atom_site_fract_z
 _atom_site_occupancy
  Ni  Ni0  1  0.00000000  0.50000000  0.50000000  1
  Ni  Ni1  1  0.50000000  0.50000000  0.00000000  1
  Cu  Cu2  1  0.50000000  0.00000000  0.00000000  1
  Cu  Cu3  1  0.50000000  0.50000000  0.50000000  1
  C  C4  1  0.00000000  0.00000000  0.50000000  1
  C  C5  1  0.00000000  0.00000000  0.00000000  1
  C  C6  1  0.00000000  0.50000000  0.00000000  1
  C  C7  1  0.50000000  0.00000000  0.50000000  1
  C  C8  1  0.06351200  0.93054100  0.74537000  1
  C  C9  1  0.07111300  0.32111300  0.75000000  1
  C  C10  1  0.06351200  0.31814200  0.13297100  1
  C  C11  1  0.68517100  0.93054100  0.36702900  1
  C  C12  1  0.93648800  0.06945900  0.25463000  1
  C  C13  1  0.68860500  0.93860500  0.75000000  1
  C  C14  1  0.92888700  0.67888700  0.25000000  1
  C  C15  1  0.68517100  0.31814200  0.75463000  1
  C  C16  1  0.93648800  0.68185800  0.86702900  1
  C  C17  1  0.31482900  0.06945900  0.63297100  1
  C  C18  1  0.31482900  0.68185800  0.24537000  1
  C  C19  1  0.31139500  0.06139500  0.25000000  1
  C  C20  1  0.60063000  0.35063000  0.25000000  1
  C  C21  1  0.39937000  0.64937000  0.75000000  1
