# generated using pymatgen
data_Cu6Ni2C5
_symmetry_space_group_name_H-M   'P 1'
_cell_length_a   8.26392300
_cell_length_b   8.26392300
_cell_length_c   8.26392300
_cell_angle_alpha   90.00000000
_cell_angle_beta   90.00000000
_cell_angle_gamma   90.00000000
_symmetry_Int_Tables_number   1
_chemical_formula_structural   Cu6Ni2C5
_chemical_formula_sum   'Cu18 Ni6 C15'
_cell_volume   564.36332805
_cell_formula_units_Z   3
loop_
 _symmetry_equiv_pos_site_id
 _symmetry_equiv_pos_as_xyz
  1  'x, y, z'
loop_
 _atom_site_type_symbol
 _atom_site_label
 _atom_site_symmetry_multiplicity
 _atom_site_fract_x
 _atom_site_fract_y
 _atom_site_fract_z
 _atom_site_occupancy
  Ni  Ni0  1  0.67885600  0.00000000  0.50000000  1
  Ni  Ni1  1  0.50000000  0.32114400  0.00000000  1
  Ni  Ni2  1  0.00000000  0.50000000  0.32114400  1
  Ni  Ni3  1  0.50000000  0.67885600  0.00000000  1
  Ni  Ni4  1  0.00000000  0.50000000  0.67885600  1
  Ni  Ni5  1  0.32114400  0.00000000  0.50000000  1
  C  C6  1  0.50000000  0.00000000  0.83428400  1
  C  C7  1  0.21781500  0.21781500  0.21781500  1
  C  C8  1  0.78218500  0.78218500  0.21781500  1
  C  C9  1  0.21781500  0.78218500  0.78218500  1
  C  C10  1  0.83428400  0.50000000  0.00000000  1
  C  C11  1  0.78218500  0.78218500  0.78218500  1
  C  C12  1  0.21781500  0.21781500  0.78218500  1
  C  C13  1  0.78218500  0.21781500  0.21781500  1
  C  C14  1  0.21781500  0.78218500  0.21781500  1
  C  C15  1  0.00000000  0.83428400  0.50000000  1
  C  C16  1  0.50000000  0.00000000  0.16571600  1
  C  C17  1  0.00000000  0.16571600  0.50000000  1
  C  C18  1  0.16571600  0.50000000  0.00000000  1
  C  C19  1  0.50000000  0.50000000  0.50000000  1
  C  C20  1  0.78218500  0.21781500  0.78218500  1
  Cu  Cu21  1  0.50000000  0.24404400  0.33460400  1
  Cu  Cu22  1  0.33460400  0.50000000  0.24404400  1
  Cu  Cu23  1  0.24404400  0.33460400  0.50000000  1
  Cu  Cu24  1  0.75595600  0.66539600  0.50000000  1
  Cu  Cu25  1  0.33460400  0.50000000  0.75595600  1
  Cu  Cu26  1  0.75595600  0.33460400  0.50000000  1
  Cu  Cu27  1  0.66539600  0.50000000  0.24404400  1
  Cu  Cu28  1  0.66539600  0.50000000  0.75595600  1
  Cu  Cu29  1  0.24404400  0.66539600  0.50000000  1
  Cu  Cu30  1  0.50000000  0.75595600  0.66539600  1
  Cu  Cu31  1  0.50000000  0.24404400  0.66539600  1
  Cu  Cu32  1  0.50000000  0.75595600  0.33460400  1
  Cu  Cu33  1  0.77188600  0.00000000  0.00000000  1
  Cu  Cu34  1  0.00000000  0.77188600  0.00000000  1
  Cu  Cu35  1  0.00000000  0.00000000  0.22811400  1
  Cu  Cu36  1  0.00000000  0.22811400  0.00000000  1
  Cu  Cu37  1  0.22811400  0.00000000  0.00000000  1
  Cu  Cu38  1  0.00000000  0.00000000  0.77188600  1
