# generated using pymatgen
data_CuNiC4
_symmetry_space_group_name_H-M   'P 1'
_cell_length_a   8.20691700
_cell_length_b   8.64432300
_cell_length_c   12.08389588
_cell_angle_alpha   49.18468092
_cell_angle_beta   90.00000000
_cell_angle_gamma   90.00000000
_symmetry_Int_Tables_number   1
_chemical_formula_structural   CuNiC4
_chemical_formula_sum   'Cu4 Ni4 C16'
_cell_volume   648.79992126
_cell_formula_units_Z   4
loop_
 _symmetry_equiv_pos_site_id
 _symmetry_equiv_pos_as_xyz
  1  'x, y, z'
loop_
 _atom_site_type_symbol
 _atom_site_label
 _atom_site_symmetry_multiplicity
 _atom_site_fract_x
 _atom_site_fract_y
 _atom_site_fract_z
 _atom_site_occupancy
  Ni  Ni0  1  0.54415800  0.38680600  0.38369600  1
  Ni  Ni1  1  0.04415800  0.61319400  0.11630400  1
  Ni  Ni2  1  0.45584200  0.61319400  0.61630400  1
  Ni  Ni3  1  0.95584200  0.38680600  0.88369600  1
  Cu  Cu4  1  0.72747800  0.36852200  0.65234900  1
  Cu  Cu5  1  0.77252200  0.36852200  0.15234900  1
  Cu  Cu6  1  0.27252200  0.63147800  0.34765100  1
  Cu  Cu7  1  0.22747800  0.63147800  0.84765100  1
  C  C8  1  0.48656200  0.73248000  0.22917600  1
  C  C9  1  0.98656200  0.26752000  0.27082400  1
  C  C10  1  0.51343800  0.26752000  0.77082400  1
  C  C11  1  0.01343800  0.73248000  0.72917600  1
  C  C12  1  0.28146100  0.31740600  0.47742300  1
  C  C13  1  0.78146100  0.68259400  0.02257700  1
  C  C14  1  0.71853900  0.68259400  0.52257700  1
  C  C15  1  0.21853900  0.31740600  0.97742300  1
  C  C16  1  0.76257100  0.26746600  0.53879600  1
  C  C17  1  0.26257100  0.73253400  0.96120400  1
  C  C18  1  0.23742900  0.73253400  0.46120400  1
  C  C19  1  0.73742900  0.26746600  0.03879600  1
  C  C20  1  0.93543300  0.23956300  0.77996700  1
  C  C21  1  0.56456700  0.23956300  0.27996700  1
  C  C22  1  0.06456700  0.76043700  0.22003300  1
  C  C23  1  0.43543300  0.76043700  0.72003300  1
