# generated using pymatgen
data_Cu9Ni2C5
_symmetry_space_group_name_H-M   'P 1'
_cell_length_a   16.67085600
_cell_length_b   10.23896200
_cell_length_c   13.58268289
_cell_angle_alpha   58.29882398
_cell_angle_beta   90.00000000
_cell_angle_gamma   90.00000000
_symmetry_Int_Tables_number   1
_chemical_formula_structural   Cu9Ni2C5
_chemical_formula_sum   'Cu36 Ni8 C20'
_cell_volume   1972.54554370
_cell_formula_units_Z   4
loop_
 _symmetry_equiv_pos_site_id
 _symmetry_equiv_pos_as_xyz
  1  'x, y, z'
loop_
 _atom_site_type_symbol
 _atom_site_label
 _atom_site_symmetry_multiplicity
 _atom_site_fract_x
 _atom_site_fract_y
 _atom_site_fract_z
 _atom_site_occupancy
  C  C0  1  0.81436800  0.71362400  0.44402600  1
  C  C1  1  0.31436800  0.28637600  0.05597400  1
  C  C2  1  0.18563200  0.28637600  0.55597400  1
  C  C3  1  0.68563200  0.71362400  0.94402600  1
  C  C4  1  0.05504800  0.50865600  0.23715000  1
  C  C5  1  0.55504800  0.49134400  0.26285000  1
  C  C6  1  0.94495200  0.49134400  0.76285000  1
  C  C7  1  0.44495200  0.50865600  0.73715000  1
  C  C8  1  0.83772300  0.51288300  0.27865000  1
  C  C9  1  0.33772300  0.48711700  0.22135000  1
  C  C10  1  0.16227700  0.48711700  0.72135000  1
  C  C11  1  0.66227700  0.51288300  0.77865000  1
  C  C12  1  0.94179800  0.85834300  0.18714800  1
  C  C13  1  0.44179800  0.14165700  0.31285200  1
  C  C14  1  0.05820200  0.14165700  0.81285200  1
  C  C15  1  0.55820200  0.85834300  0.68714800  1
  C  C16  1  0.03990000  0.66089100  0.46550900  1
  C  C17  1  0.53990000  0.33910900  0.03449100  1
  C  C18  1  0.96010000  0.33910900  0.53449100  1
  C  C19  1  0.46010000  0.66089100  0.96550900  1
  Ni  Ni20  1  0.96902800  0.57352600  0.33055700  1
  Ni  Ni21  1  0.46902800  0.42647400  0.16944300  1
  Ni  Ni22  1  0.03097200  0.42647400  0.66944300  1
  Ni  Ni23  1  0.53097200  0.57352600  0.83055700  1
  Ni  Ni24  1  0.91201400  0.62844800  0.37952100  1
  Ni  Ni25  1  0.41201400  0.37155200  0.12047900  1
  Ni  Ni26  1  0.08798600  0.37155200  0.62047900  1
  Ni  Ni27  1  0.58798600  0.62844800  0.87952100  1
  Cu  Cu28  1  0.06288800  0.96345200  0.26456800  1
  Cu  Cu29  1  0.56288800  0.03654800  0.23543200  1
  Cu  Cu30  1  0.93711200  0.03654800  0.73543200  1
  Cu  Cu31  1  0.43711200  0.96345200  0.76456800  1
  Cu  Cu32  1  0.06810800  0.20351100  0.44164100  1
  Cu  Cu33  1  0.56810800  0.79648900  0.05835900  1
  Cu  Cu34  1  0.93189200  0.79648900  0.55835900  1
  Cu  Cu35  1  0.43189200  0.20351100  0.94164100  1
  Cu  Cu36  1  0.19863700  0.57878700  0.32982500  1
  Cu  Cu37  1  0.69863700  0.42121300  0.17017500  1
  Cu  Cu38  1  0.80136300  0.42121300  0.67017500  1
  Cu  Cu39  1  0.30136300  0.57878700  0.82982500  1
  Cu  Cu40  1  0.81753400  0.80246200  0.06244400  1
  Cu  Cu41  1  0.31753400  0.19753800  0.43755600  1
  Cu  Cu42  1  0.18246600  0.19753800  0.93755600  1
  Cu  Cu43  1  0.68246600  0.80246200  0.56244400  1
  Cu  Cu44  1  0.69358400  0.59822900  0.35827400  1
  Cu  Cu45  1  0.19358400  0.40177100  0.14172600  1
  Cu  Cu46  1  0.30641600  0.40177100  0.64172600  1
  Cu  Cu47  1  0.80641600  0.59822900  0.85827400  1
  Cu  Cu48  1  0.82128300  0.00396600  0.24723500  1
  Cu  Cu49  1  0.32128300  0.99603400  0.25276500  1
  Cu  Cu50  1  0.17871700  0.99603400  0.75276500  1
  Cu  Cu51  1  0.67871700  0.00396600  0.74723500  1
  Cu  Cu52  1  0.93181100  0.41117100  0.15451200  1
  Cu  Cu53  1  0.43181100  0.58882900  0.34548800  1
  Cu  Cu54  1  0.06818900  0.58882900  0.84548800  1
  Cu  Cu55  1  0.56818900  0.41117100  0.65451200  1
  Cu  Cu56  1  0.05741600  0.81868400  0.04135500  1
  Cu  Cu57  1  0.55741600  0.18131600  0.45864500  1
  Cu  Cu58  1  0.94258400  0.18131600  0.95864500  1
  Cu  Cu59  1  0.44258400  0.81868400  0.54135500  1
  Cu  Cu60  1  0.82755200  0.22025700  0.46803700  1
  Cu  Cu61  1  0.32755200  0.77974300  0.03196300  1
  Cu  Cu62  1  0.17244800  0.77974300  0.53196300  1
  Cu  Cu63  1  0.67244800  0.22025700  0.96803700  1
