# generated using pymatgen
data_CuNiC2
_symmetry_space_group_name_H-M   'P 1'
_cell_length_a   5.03054500
_cell_length_b   5.31004600
_cell_length_c   6.50364500
_cell_angle_alpha   90.00000000
_cell_angle_beta   90.00000000
_cell_angle_gamma   90.00000000
_symmetry_Int_Tables_number   1
_chemical_formula_structural   CuNiC2
_chemical_formula_sum   'Cu4 Ni4 C8'
_cell_volume   173.72813160
_cell_formula_units_Z   4
loop_
 _symmetry_equiv_pos_site_id
 _symmetry_equiv_pos_as_xyz
  1  'x, y, z'
loop_
 _atom_site_type_symbol
 _atom_site_label
 _atom_site_symmetry_multiplicity
 _atom_site_fract_x
 _atom_site_fract_y
 _atom_site_fract_z
 _atom_site_occupancy
  Ni  Ni0  1  0.98857600  0.58466800  0.87719900  1
  Ni  Ni1  1  0.48857600  0.91533200  0.37719900  1
  Ni  Ni2  1  0.48857600  0.41533200  0.12280100  1
  Ni  Ni3  1  0.98857600  0.08466800  0.62280100  1
  Cu  Cu4  1  0.00006700  0.06983900  0.12544600  1
  Cu  Cu5  1  0.50006700  0.93016100  0.87455400  1
  Cu  Cu6  1  0.50006700  0.43016100  0.62544600  1
  Cu  Cu7  1  0.00006700  0.56983900  0.37455400  1
  C  C8  1  0.41080000  0.60968800  0.84418200  1
  C  C9  1  0.91080000  0.39031200  0.15581800  1
  C  C10  1  0.91080000  0.89031200  0.34418200  1
  C  C11  1  0.41080000  0.10968800  0.65581800  1
  C  C12  1  0.34657700  0.54801400  0.40488100  1
  C  C13  1  0.34657700  0.04801400  0.09511900  1
  C  C14  1  0.84657700  0.95198600  0.90488100  1
  C  C15  1  0.84657700  0.45198600  0.59511900  1
