# generated using pymatgen
data_Cu(Ni2C5)2
_symmetry_space_group_name_H-M   'P 1'
_cell_length_a   7.29631072
_cell_length_b   7.29631072
_cell_length_c   7.29630981
_cell_angle_alpha   59.96536155
_cell_angle_beta   59.96536155
_cell_angle_gamma   59.96535855
_symmetry_Int_Tables_number   1
_chemical_formula_structural   Cu(Ni2C5)2
_chemical_formula_sum   'Cu1 Ni4 C10'
_cell_volume   274.44392548
_cell_formula_units_Z   1
loop_
 _symmetry_equiv_pos_site_id
 _symmetry_equiv_pos_as_xyz
  1  'x, y, z'
loop_
 _atom_site_type_symbol
 _atom_site_label
 _atom_site_symmetry_multiplicity
 _atom_site_fract_x
 _atom_site_fract_y
 _atom_site_fract_z
 _atom_site_occupancy
  Ni  Ni0  1  0.00007900  0.00007900  0.00007900  1
  Ni  Ni1  1  0.86635100  0.37581800  0.37581800  1
  Ni  Ni2  1  0.37581800  0.86635100  0.37581800  1
  Ni  Ni3  1  0.37581800  0.37581800  0.86635100  1
  Cu  Cu4  1  0.42682500  0.42682500  0.42682500  1
  C  C5  1  0.99638600  0.50545100  0.99638600  1
  C  C6  1  0.99638600  0.99638600  0.50545100  1
  C  C7  1  0.87320000  0.87320000  0.87320000  1
  C  C8  1  0.87491600  0.38053500  0.87491600  1
  C  C9  1  0.98836400  0.50482800  0.50482800  1
  C  C10  1  0.50545100  0.99638600  0.99638600  1
  C  C11  1  0.87491600  0.87491600  0.38053500  1
  C  C12  1  0.38053500  0.87491600  0.87491600  1
  C  C13  1  0.50482800  0.50482800  0.98836400  1
  C  C14  1  0.50482800  0.98836400  0.50482800  1
