# generated using pymatgen
data_CuNi3C5
_symmetry_space_group_name_H-M   'P 1'
_cell_length_a   8.14596000
_cell_length_b   17.33608800
_cell_length_c   17.45799600
_cell_angle_alpha   90.00000000
_cell_angle_beta   90.00000000
_cell_angle_gamma   90.00000000
_symmetry_Int_Tables_number   1
_chemical_formula_structural   CuNi3C5
_chemical_formula_sum   'Cu8 Ni24 C40'
_cell_volume   2465.40212337
_cell_formula_units_Z   8
loop_
 _symmetry_equiv_pos_site_id
 _symmetry_equiv_pos_as_xyz
  1  'x, y, z'
loop_
 _atom_site_type_symbol
 _atom_site_label
 _atom_site_symmetry_multiplicity
 _atom_site_fract_x
 _atom_site_fract_y
 _atom_site_fract_z
 _atom_site_occupancy
  Ni  Ni0  1  0.61731600  0.06526700  0.30367300  1
  Ni  Ni1  1  0.11731600  0.43473300  0.69632700  1
  Ni  Ni2  1  0.38268400  0.56526700  0.19632700  1
  Ni  Ni3  1  0.88268400  0.93473300  0.80367300  1
  Ni  Ni4  1  0.38268400  0.93473300  0.69632700  1
  Ni  Ni5  1  0.88268400  0.56526700  0.30367300  1
  Ni  Ni6  1  0.61731600  0.43473300  0.80367300  1
  Ni  Ni7  1  0.11731600  0.06526700  0.19632700  1
  Ni  Ni8  1  0.41913300  0.20028200  0.64705300  1
  Ni  Ni9  1  0.91913300  0.29971800  0.35294700  1
  Ni  Ni10  1  0.58086700  0.70028200  0.85294700  1
  Ni  Ni11  1  0.08086700  0.79971800  0.14705300  1
  Ni  Ni12  1  0.58086700  0.79971800  0.35294700  1
  Ni  Ni13  1  0.08086700  0.70028200  0.64705300  1
  Ni  Ni14  1  0.41913300  0.29971800  0.14705300  1
  Ni  Ni15  1  0.91913300  0.20028200  0.85294700  1
  Ni  Ni16  1  0.89526100  0.09401900  0.58724400  1
  Ni  Ni17  1  0.39526100  0.40598100  0.41275600  1
  Ni  Ni18  1  0.10473900  0.59401900  0.91275600  1
  Ni  Ni19  1  0.60473900  0.90598100  0.08724400  1
  Ni  Ni20  1  0.10473900  0.90598100  0.41275600  1
  Ni  Ni21  1  0.60473900  0.59401900  0.58724400  1
  Ni  Ni22  1  0.89526100  0.40598100  0.08724400  1
  Ni  Ni23  1  0.39526100  0.09401900  0.91275600  1
  Cu  Cu24  1  0.30861300  0.14349800  0.42756500  1
  Cu  Cu25  1  0.80861300  0.35650200  0.57243500  1
  Cu  Cu26  1  0.69138700  0.64349800  0.07243500  1
  Cu  Cu27  1  0.19138700  0.85650200  0.92756500  1
  Cu  Cu28  1  0.69138700  0.85650200  0.57243500  1
  Cu  Cu29  1  0.19138700  0.64349800  0.42756500  1
  Cu  Cu30  1  0.30861300  0.35650200  0.92756500  1
  Cu  Cu31  1  0.80861300  0.14349800  0.07243500  1
  C  C32  1  0.57222100  0.19796700  0.47369200  1
  C  C33  1  0.07222100  0.30203300  0.52630800  1
  C  C34  1  0.42777900  0.69796700  0.02630800  1
  C  C35  1  0.92777900  0.80203300  0.97369200  1
  C  C36  1  0.42777900  0.80203300  0.52630800  1
  C  C37  1  0.92777900  0.69796700  0.47369200  1
  C  C38  1  0.57222100  0.30203300  0.97369200  1
  C  C39  1  0.07222100  0.19796700  0.02630800  1
  C  C40  1  0.29190600  0.05471600  0.53812800  1
  C  C41  1  0.79190600  0.44528400  0.46187200  1
  C  C42  1  0.70809400  0.55471600  0.96187200  1
  C  C43  1  0.20809400  0.94528400  0.03812800  1
  C  C44  1  0.70809400  0.94528400  0.46187200  1
  C  C45  1  0.20809400  0.55471600  0.53812800  1
  C  C46  1  0.29190600  0.44528400  0.03812800  1
  C  C47  1  0.79190600  0.05471600  0.96187200  1
  C  C48  1  0.31633800  0.23055300  0.31630900  1
  C  C49  1  0.81633800  0.26944700  0.68369100  1
  C  C50  1  0.68366200  0.73055300  0.18369100  1
  C  C51  1  0.18366200  0.76944700  0.81630900  1
  C  C52  1  0.68366200  0.76944700  0.68369100  1
  C  C53  1  0.18366200  0.73055300  0.31630900  1
  C  C54  1  0.31633800  0.26944700  0.81630900  1
  C  C55  1  0.81633800  0.23055300  0.18369100  1
  C  C56  1  0.03854400  0.09496000  0.38283300  1
  C  C57  1  0.53854400  0.40504000  0.61716700  1
  C  C58  1  0.96145600  0.59496000  0.11716700  1
  C  C59  1  0.46145600  0.90504000  0.88283300  1
  C  C60  1  0.96145600  0.90504000  0.61716700  1
  C  C61  1  0.46145600  0.59496000  0.38283300  1
  C  C62  1  0.03854400  0.40504000  0.88283300  1
  C  C63  1  0.53854400  0.09496000  0.11716700  1
  C  C64  1  0.36863000  0.93199700  0.26258100  1
  C  C65  1  0.86863000  0.56800300  0.73741900  1
  C  C66  1  0.63137000  0.43199700  0.23741900  1
  C  C67  1  0.13137000  0.06800300  0.76258100  1
  C  C68  1  0.63137000  0.06800300  0.73741900  1
  C  C69  1  0.13137000  0.43199700  0.26258100  1
  C  C70  1  0.36863000  0.56800300  0.76258100  1
  C  C71  1  0.86863000  0.93199700  0.23741900  1
