# generated using pymatgen
data_Cu(NiC2)2
_symmetry_space_group_name_H-M   'P 1'
_cell_length_a   7.51560884
_cell_length_b   7.51560884
_cell_length_c   7.51560884
_cell_angle_alpha   109.43674103
_cell_angle_beta   109.43674103
_cell_angle_gamma   109.54020188
_symmetry_Int_Tables_number   1
_chemical_formula_structural   Cu(NiC2)2
_chemical_formula_sum   'Cu2 Ni4 C8'
_cell_volume   326.79104157
_cell_formula_units_Z   2
loop_
 _symmetry_equiv_pos_site_id
 _symmetry_equiv_pos_as_xyz
  1  'x, y, z'
loop_
 _atom_site_type_symbol
 _atom_site_label
 _atom_site_symmetry_multiplicity
 _atom_site_fract_x
 _atom_site_fract_y
 _atom_site_fract_z
 _atom_site_occupancy
  Ni  Ni0  1  0.99743000  0.37500000  0.12243000  1
  Ni  Ni1  1  0.12500000  0.00257000  0.37757000  1
  Ni  Ni2  1  0.25257000  0.87500000  0.87757000  1
  Ni  Ni3  1  0.62500000  0.74743000  0.62243000  1
  Cu  Cu4  1  0.50000000  0.50000000  0.00000000  1
  Cu  Cu5  1  0.75000000  0.25000000  0.50000000  1
  C  C6  1  0.87934700  0.62911600  0.90015100  1
  C  C7  1  0.87911600  0.62934700  0.40015100  1
  C  C8  1  0.02080300  0.12065300  0.74976800  1
  C  C9  1  0.22919700  0.47896500  0.59984900  1
  C  C10  1  0.52103500  0.12088400  0.75023200  1
  C  C11  1  0.37065300  0.77080300  0.24976800  1
  C  C12  1  0.37088400  0.27103500  0.25023200  1
  C  C13  1  0.72896500  0.97919700  0.09984900  1
