# generated using pymatgen
data_CuNiC
_symmetry_space_group_name_H-M   'P 1'
_cell_length_a   4.92989945
_cell_length_b   4.92989945
_cell_length_c   10.77890400
_cell_angle_alpha   90.00000000
_cell_angle_beta   90.00000000
_cell_angle_gamma   119.99999258
_symmetry_Int_Tables_number   1
_chemical_formula_structural   CuNiC
_chemical_formula_sum   'Cu3 Ni3 C3'
_cell_volume   226.87225655
_cell_formula_units_Z   3
loop_
 _symmetry_equiv_pos_site_id
 _symmetry_equiv_pos_as_xyz
  1  'x, y, z'
loop_
 _atom_site_type_symbol
 _atom_site_label
 _atom_site_symmetry_multiplicity
 _atom_site_fract_x
 _atom_site_fract_y
 _atom_site_fract_z
 _atom_site_occupancy
  Ni  Ni0  1  0.33333300  0.66666700  0.80144400  1
  Ni  Ni1  1  0.66666700  0.33333300  0.48056900  1
  Ni  Ni2  1  0.33333300  0.66666700  0.19444800  1
  Cu  Cu3  1  0.00000000  0.00000000  0.66330500  1
  Cu  Cu4  1  0.00000000  0.00000000  0.32846800  1
  Cu  Cu5  1  0.00000000  0.00000000  0.99614100  1
  C  C6  1  0.66666700  0.33333300  0.84722400  1
  C  C7  1  0.66666700  0.33333300  0.14822400  1
  C  C8  1  0.33333300  0.66666700  0.49617800  1
