# generated using pymatgen
data_Cu10Ni6C
_symmetry_space_group_name_H-M   'P 1'
_cell_length_a   7.77524717
_cell_length_b   7.77524717
_cell_length_c   7.77524717
_cell_angle_alpha   60.00000000
_cell_angle_beta   60.00000000
_cell_angle_gamma   60.00000000
_symmetry_Int_Tables_number   1
_chemical_formula_structural   Cu10Ni6C
_chemical_formula_sum   'Cu20 Ni12 C2'
_cell_volume   332.37443638
_cell_formula_units_Z   2
loop_
 _symmetry_equiv_pos_site_id
 _symmetry_equiv_pos_as_xyz
  1  'x, y, z'
loop_
 _atom_site_type_symbol
 _atom_site_label
 _atom_site_symmetry_multiplicity
 _atom_site_fract_x
 _atom_site_fract_y
 _atom_site_fract_z
 _atom_site_occupancy
  Ni  Ni0  1  0.05049000  0.94951000  0.21173800  1
  Ni  Ni1  1  0.21173800  0.78826200  0.05049000  1
  Ni  Ni2  1  0.94951000  0.05049000  0.78826200  1
  Ni  Ni3  1  0.78826200  0.94951000  0.05049000  1
  Ni  Ni4  1  0.78826200  0.05049000  0.21173800  1
  Ni  Ni5  1  0.94951000  0.78826200  0.21173800  1
  Ni  Ni6  1  0.21173800  0.94951000  0.78826200  1
  Ni  Ni7  1  0.05049000  0.78826200  0.94951000  1
  Ni  Ni8  1  0.21173800  0.05049000  0.94951000  1
  Ni  Ni9  1  0.05049000  0.21173800  0.78826200  1
  Ni  Ni10  1  0.94951000  0.21173800  0.05049000  1
  Ni  Ni11  1  0.78826200  0.21173800  0.94951000  1
  Cu  Cu12  1  0.19571300  0.19571300  0.41286000  1
  Cu  Cu13  1  0.19571300  0.19571300  0.19571300  1
  Cu  Cu14  1  0.41286000  0.19571300  0.19571300  1
  Cu  Cu15  1  0.19571300  0.41286000  0.19571300  1
  Cu  Cu16  1  0.80428700  0.80428700  0.58714000  1
  Cu  Cu17  1  0.80428700  0.80428700  0.80428700  1
  Cu  Cu18  1  0.58714000  0.80428700  0.80428700  1
  Cu  Cu19  1  0.80428700  0.58714000  0.80428700  1
  Cu  Cu20  1  0.08736300  0.91263700  0.36209300  1
  Cu  Cu21  1  0.36209300  0.63790700  0.08736300  1
  Cu  Cu22  1  0.91263700  0.08736300  0.63790700  1
  Cu  Cu23  1  0.63790700  0.91263700  0.08736300  1
  Cu  Cu24  1  0.63790700  0.08736300  0.36209300  1
  Cu  Cu25  1  0.91263700  0.63790700  0.36209300  1
  Cu  Cu26  1  0.63790700  0.36209300  0.91263700  1
  Cu  Cu27  1  0.91263700  0.36209300  0.08736300  1
  Cu  Cu28  1  0.08736300  0.36209300  0.63790700  1
  Cu  Cu29  1  0.36209300  0.08736300  0.91263700  1
  Cu  Cu30  1  0.08736300  0.63790700  0.91263700  1
  Cu  Cu31  1  0.36209300  0.91263700  0.63790700  1
  C  C32  1  0.25000000  0.25000000  0.25000000  1
  C  C33  1  0.75000000  0.75000000  0.75000000  1
