# generated using pymatgen
data_Cu19Ni4
_symmetry_space_group_name_H-M   'P 1'
_cell_length_a   12.71267600
_cell_length_b   12.71267600
_cell_length_c   12.71267600
_cell_angle_alpha   90.00000000
_cell_angle_beta   90.00000000
_cell_angle_gamma   90.00000000
_symmetry_Int_Tables_number   1
_chemical_formula_structural   Cu19Ni4
_chemical_formula_sum   'Cu114 Ni24'
_cell_volume   2054.52266010
_cell_formula_units_Z   6
loop_
 _symmetry_equiv_pos_site_id
 _symmetry_equiv_pos_as_xyz
  1  'x, y, z'
loop_
 _atom_site_type_symbol
 _atom_site_label
 _atom_site_symmetry_multiplicity
 _atom_site_fract_x
 _atom_site_fract_y
 _atom_site_fract_z
 _atom_site_occupancy
  Ni  Ni0  1  0.32770900  0.20278700  0.00000000  1
  Ni  Ni1  1  0.00000000  0.32770900  0.20278700  1
  Ni  Ni2  1  0.20278700  0.00000000  0.32770900  1
  Ni  Ni3  1  0.79721300  0.00000000  0.32770900  1
  Ni  Ni4  1  0.00000000  0.67229100  0.79721300  1
  Ni  Ni5  1  0.79721300  0.00000000  0.67229100  1
  Ni  Ni6  1  0.00000000  0.67229100  0.20278700  1
  Ni  Ni7  1  0.00000000  0.32770900  0.79721300  1
  Ni  Ni8  1  0.20278700  0.00000000  0.67229100  1
  Ni  Ni9  1  0.32770900  0.79721300  0.00000000  1
  Ni  Ni10  1  0.67229100  0.20278700  0.00000000  1
  Ni  Ni11  1  0.67229100  0.79721300  0.00000000  1
  Ni  Ni12  1  0.17512400  0.29699100  0.50000000  1
  Ni  Ni13  1  0.50000000  0.17512400  0.29699100  1
  Ni  Ni14  1  0.29699100  0.50000000  0.17512400  1
  Ni  Ni15  1  0.70300900  0.50000000  0.17512400  1
  Ni  Ni16  1  0.50000000  0.82487600  0.70300900  1
  Ni  Ni17  1  0.70300900  0.50000000  0.82487600  1
  Ni  Ni18  1  0.50000000  0.82487600  0.29699100  1
  Ni  Ni19  1  0.50000000  0.17512400  0.70300900  1
  Ni  Ni20  1  0.29699100  0.50000000  0.82487600  1
  Ni  Ni21  1  0.17512400  0.70300900  0.50000000  1
  Ni  Ni22  1  0.82487600  0.29699100  0.50000000  1
  Ni  Ni23  1  0.82487600  0.70300900  0.50000000  1
  Cu  Cu24  1  0.36252200  0.00000000  0.00000000  1
  Cu  Cu25  1  0.00000000  0.36252200  0.00000000  1
  Cu  Cu26  1  0.00000000  0.00000000  0.36252200  1
  Cu  Cu27  1  0.00000000  0.63747800  0.00000000  1
  Cu  Cu28  1  0.00000000  0.00000000  0.63747800  1
  Cu  Cu29  1  0.63747800  0.00000000  0.00000000  1
  Cu  Cu30  1  0.11854600  0.50000000  0.50000000  1
  Cu  Cu31  1  0.50000000  0.11854600  0.50000000  1
  Cu  Cu32  1  0.50000000  0.50000000  0.11854600  1
  Cu  Cu33  1  0.50000000  0.88145400  0.50000000  1
  Cu  Cu34  1  0.50000000  0.50000000  0.88145400  1
  Cu  Cu35  1  0.88145400  0.50000000  0.50000000  1
  Cu  Cu36  1  0.30118000  0.00000000  0.50000000  1
  Cu  Cu37  1  0.50000000  0.30118000  0.00000000  1
  Cu  Cu38  1  0.00000000  0.50000000  0.30118000  1
  Cu  Cu39  1  0.50000000  0.69882000  0.00000000  1
  Cu  Cu40  1  0.00000000  0.50000000  0.69882000  1
  Cu  Cu41  1  0.69882000  0.00000000  0.50000000  1
  Cu  Cu42  1  0.16876300  0.10502700  0.00000000  1
  Cu  Cu43  1  0.00000000  0.16876300  0.10502700  1
  Cu  Cu44  1  0.10502700  0.00000000  0.16876300  1
  Cu  Cu45  1  0.89497300  0.00000000  0.16876300  1
  Cu  Cu46  1  0.00000000  0.83123700  0.89497300  1
  Cu  Cu47  1  0.89497300  0.00000000  0.83123700  1
  Cu  Cu48  1  0.00000000  0.83123700  0.10502700  1
  Cu  Cu49  1  0.00000000  0.16876300  0.89497300  1
  Cu  Cu50  1  0.10502700  0.00000000  0.83123700  1
  Cu  Cu51  1  0.16876300  0.89497300  0.00000000  1
  Cu  Cu52  1  0.83123700  0.10502700  0.00000000  1
  Cu  Cu53  1  0.83123700  0.89497300  0.00000000  1
  Cu  Cu54  1  0.32907600  0.39569000  0.50000000  1
  Cu  Cu55  1  0.50000000  0.32907600  0.39569000  1
  Cu  Cu56  1  0.39569000  0.50000000  0.32907600  1
  Cu  Cu57  1  0.60431000  0.50000000  0.32907600  1
  Cu  Cu58  1  0.50000000  0.67092400  0.60431000  1
  Cu  Cu59  1  0.60431000  0.50000000  0.67092400  1
  Cu  Cu60  1  0.50000000  0.67092400  0.39569000  1
  Cu  Cu61  1  0.50000000  0.32907600  0.60431000  1
  Cu  Cu62  1  0.39569000  0.50000000  0.67092400  1
  Cu  Cu63  1  0.32907600  0.60431000  0.50000000  1
  Cu  Cu64  1  0.67092400  0.39569000  0.50000000  1
  Cu  Cu65  1  0.67092400  0.60431000  0.50000000  1
  Cu  Cu66  1  0.32163000  0.40318500  0.00000000  1
  Cu  Cu67  1  0.00000000  0.32163000  0.40318500  1
  Cu  Cu68  1  0.40318500  0.00000000  0.32163000  1
  Cu  Cu69  1  0.59681500  0.00000000  0.32163000  1
  Cu  Cu70  1  0.00000000  0.67837000  0.59681500  1
  Cu  Cu71  1  0.59681500  0.00000000  0.67837000  1
  Cu  Cu72  1  0.00000000  0.67837000  0.40318500  1
  Cu  Cu73  1  0.00000000  0.32163000  0.59681500  1
  Cu  Cu74  1  0.40318500  0.00000000  0.67837000  1
  Cu  Cu75  1  0.32163000  0.59681500  0.00000000  1
  Cu  Cu76  1  0.67837000  0.40318500  0.00000000  1
  Cu  Cu77  1  0.67837000  0.59681500  0.00000000  1
  Cu  Cu78  1  0.12620600  0.11011900  0.50000000  1
  Cu  Cu79  1  0.50000000  0.12620600  0.11011900  1
  Cu  Cu80  1  0.11011900  0.50000000  0.12620600  1
  Cu  Cu81  1  0.88988100  0.50000000  0.12620600  1
  Cu  Cu82  1  0.50000000  0.87379400  0.88988100  1
  Cu  Cu83  1  0.88988100  0.50000000  0.87379400  1
  Cu  Cu84  1  0.50000000  0.87379400  0.11011900  1
  Cu  Cu85  1  0.50000000  0.12620600  0.88988100  1
  Cu  Cu86  1  0.11011900  0.50000000  0.87379400  1
  Cu  Cu87  1  0.12620600  0.88988100  0.50000000  1
  Cu  Cu88  1  0.87379400  0.11011900  0.50000000  1
  Cu  Cu89  1  0.87379400  0.88988100  0.50000000  1
  Cu  Cu90  1  0.11883800  0.18584100  0.30039000  1
  Cu  Cu91  1  0.30039000  0.11883800  0.18584100  1
  Cu  Cu92  1  0.18584100  0.30039000  0.11883800  1
  Cu  Cu93  1  0.81415900  0.69961000  0.11883800  1
  Cu  Cu94  1  0.30039000  0.88116200  0.81415900  1
  Cu  Cu95  1  0.81415900  0.30039000  0.88116200  1
  Cu  Cu96  1  0.69961000  0.88116200  0.18584100  1
  Cu  Cu97  1  0.69961000  0.11883800  0.81415900  1
  Cu  Cu98  1  0.18584100  0.69961000  0.88116200  1
  Cu  Cu99  1  0.11883800  0.81415900  0.69961000  1
  Cu  Cu100  1  0.88116200  0.18584100  0.69961000  1
  Cu  Cu101  1  0.88116200  0.81415900  0.30039000  1
  Cu  Cu102  1  0.88116200  0.81415900  0.69961000  1
  Cu  Cu103  1  0.69961000  0.88116200  0.81415900  1
  Cu  Cu104  1  0.81415900  0.69961000  0.88116200  1
  Cu  Cu105  1  0.18584100  0.30039000  0.88116200  1
  Cu  Cu106  1  0.69961000  0.11883800  0.18584100  1
  Cu  Cu107  1  0.18584100  0.69961000  0.11883800  1
  Cu  Cu108  1  0.30039000  0.11883800  0.81415900  1
  Cu  Cu109  1  0.30039000  0.88116200  0.18584100  1
  Cu  Cu110  1  0.81415900  0.30039000  0.11883800  1
  Cu  Cu111  1  0.88116200  0.18584100  0.30039000  1
  Cu  Cu112  1  0.11883800  0.81415900  0.30039000  1
  Cu  Cu113  1  0.11883800  0.18584100  0.69961000  1
  Cu  Cu114  1  0.38814800  0.31500400  0.19427600  1
  Cu  Cu115  1  0.19427600  0.38814800  0.31500400  1
  Cu  Cu116  1  0.31500400  0.19427600  0.38814800  1
  Cu  Cu117  1  0.68499600  0.80572400  0.38814800  1
  Cu  Cu118  1  0.19427600  0.61185200  0.68499600  1
  Cu  Cu119  1  0.68499600  0.19427600  0.61185200  1
  Cu  Cu120  1  0.80572400  0.61185200  0.31500400  1
  Cu  Cu121  1  0.80572400  0.38814800  0.68499600  1
  Cu  Cu122  1  0.31500400  0.80572400  0.61185200  1
  Cu  Cu123  1  0.38814800  0.68499600  0.80572400  1
  Cu  Cu124  1  0.61185200  0.31500400  0.80572400  1
  Cu  Cu125  1  0.61185200  0.68499600  0.19427600  1
  Cu  Cu126  1  0.61185200  0.68499600  0.80572400  1
  Cu  Cu127  1  0.80572400  0.61185200  0.68499600  1
  Cu  Cu128  1  0.68499600  0.80572400  0.61185200  1
  Cu  Cu129  1  0.31500400  0.19427600  0.61185200  1
  Cu  Cu130  1  0.80572400  0.38814800  0.31500400  1
  Cu  Cu131  1  0.31500400  0.80572400  0.38814800  1
  Cu  Cu132  1  0.19427600  0.38814800  0.68499600  1
  Cu  Cu133  1  0.19427600  0.61185200  0.31500400  1
  Cu  Cu134  1  0.68499600  0.19427600  0.38814800  1
  Cu  Cu135  1  0.61185200  0.31500400  0.19427600  1
  Cu  Cu136  1  0.38814800  0.68499600  0.19427600  1
  Cu  Cu137  1  0.38814800  0.31500400  0.80572400  1
