# generated using pymatgen
data_Cu4NiC4
_symmetry_space_group_name_H-M   'P 1'
_cell_length_a   6.19493900
_cell_length_b   7.81391100
_cell_length_c   14.16110800
_cell_angle_alpha   90.00000000
_cell_angle_beta   90.00000000
_cell_angle_gamma   90.00000000
_symmetry_Int_Tables_number   1
_chemical_formula_structural   Cu4NiC4
_chemical_formula_sum   'Cu16 Ni4 C16'
_cell_volume   685.49253490
_cell_formula_units_Z   4
loop_
 _symmetry_equiv_pos_site_id
 _symmetry_equiv_pos_as_xyz
  1  'x, y, z'
loop_
 _atom_site_type_symbol
 _atom_site_label
 _atom_site_symmetry_multiplicity
 _atom_site_fract_x
 _atom_site_fract_y
 _atom_site_fract_z
 _atom_site_occupancy
  C  C0  1  0.62964000  0.25000000  0.41323400  1
  C  C1  1  0.12964000  0.75000000  0.08676600  1
  C  C2  1  0.37036000  0.75000000  0.58676600  1
  C  C3  1  0.87036000  0.25000000  0.91323400  1
  C  C4  1  0.69258900  0.00028900  0.17704300  1
  C  C5  1  0.19258900  0.99971100  0.32295700  1
  C  C6  1  0.30741100  0.50028900  0.82295700  1
  C  C7  1  0.80741100  0.49971100  0.67704300  1
  C  C8  1  0.30741100  0.99971100  0.82295700  1
  C  C9  1  0.80741100  0.00028900  0.67704300  1
  C  C10  1  0.69258900  0.49971100  0.17704300  1
  C  C11  1  0.19258900  0.50028900  0.32295700  1
  C  C12  1  0.50000000  0.00000000  0.00000000  1
  C  C13  1  0.00000000  0.00000000  0.50000000  1
  C  C14  1  0.50000000  0.50000000  0.00000000  1
  C  C15  1  0.00000000  0.50000000  0.50000000  1
  Ni  Ni16  1  0.84979000  0.75000000  0.91086900  1
  Ni  Ni17  1  0.15021000  0.25000000  0.08913100  1
  Ni  Ni18  1  0.65021000  0.75000000  0.41086900  1
  Ni  Ni19  1  0.34979000  0.25000000  0.58913100  1
  Cu  Cu20  1  0.26937600  0.25000000  0.93776600  1
  Cu  Cu21  1  0.23062400  0.25000000  0.43776600  1
  Cu  Cu22  1  0.76937600  0.75000000  0.56223400  1
  Cu  Cu23  1  0.73062400  0.75000000  0.06223400  1
  Cu  Cu24  1  0.78352500  0.98625400  0.34376700  1
  Cu  Cu25  1  0.28352500  0.01374600  0.15623300  1
  Cu  Cu26  1  0.21647500  0.48625400  0.65623300  1
  Cu  Cu27  1  0.71647500  0.51374600  0.84376700  1
  Cu  Cu28  1  0.21647500  0.01374600  0.65623300  1
  Cu  Cu29  1  0.71647500  0.98625400  0.84376700  1
  Cu  Cu30  1  0.78352500  0.51374600  0.34376700  1
  Cu  Cu31  1  0.28352500  0.48625400  0.15623300  1
  Cu  Cu32  1  0.79025700  0.25000000  0.08580300  1
  Cu  Cu33  1  0.29025700  0.75000000  0.41419700  1
  Cu  Cu34  1  0.20974300  0.75000000  0.91419700  1
  Cu  Cu35  1  0.70974300  0.25000000  0.58580300  1
