# generated using pymatgen
data_CuNiC8
_symmetry_space_group_name_H-M   'P 1'
_cell_length_a   5.66717500
_cell_length_b   9.81577371
_cell_length_c   9.81532669
_cell_angle_alpha   70.70136550
_cell_angle_beta   90.00000000
_cell_angle_gamma   90.00000000
_symmetry_Int_Tables_number   1
_chemical_formula_structural   CuNiC8
_chemical_formula_sum   'Cu4 Ni4 C32'
_cell_volume   515.32350955
_cell_formula_units_Z   4
loop_
 _symmetry_equiv_pos_site_id
 _symmetry_equiv_pos_as_xyz
  1  'x, y, z'
loop_
 _atom_site_type_symbol
 _atom_site_label
 _atom_site_symmetry_multiplicity
 _atom_site_fract_x
 _atom_site_fract_y
 _atom_site_fract_z
 _atom_site_occupancy
  C  C0  1  0.48739800  0.12345700  0.62621200  1
  C  C1  1  0.48739800  0.62345700  0.12621200  1
  C  C2  1  0.98739800  0.87654300  0.87378800  1
  C  C3  1  0.98739800  0.37654300  0.37378800  1
  C  C4  1  0.01260200  0.12345700  0.12621200  1
  C  C5  1  0.01260200  0.62345700  0.62621200  1
  C  C6  1  0.51260200  0.87654300  0.37378800  1
  C  C7  1  0.51260200  0.37654300  0.87378800  1
  Ni  Ni8  1  0.00000000  0.75000000  0.25000000  1
  Ni  Ni9  1  0.00000000  0.25000000  0.75000000  1
  Ni  Ni10  1  0.50000000  0.25000000  0.25000000  1
  Ni  Ni11  1  0.50000000  0.75000000  0.75000000  1
  Cu  Cu12  1  0.00000000  0.50000000  0.00000000  1
  Cu  Cu13  1  0.50000000  0.50000000  0.50000000  1
  Cu  Cu14  1  0.00000000  0.00000000  0.50000000  1
  Cu  Cu15  1  0.50000000  0.00000000  0.00000000  1
  C  C16  1  0.49492600  0.65131100  0.60123900  1
  C  C17  1  0.49492600  0.15131100  0.10123900  1
  C  C18  1  0.99492600  0.84868900  0.39876100  1
  C  C19  1  0.99492600  0.34868900  0.89876100  1
  C  C20  1  0.50507400  0.34868900  0.39876100  1
  C  C21  1  0.50507400  0.84868900  0.89876100  1
  C  C22  1  0.00507400  0.15131100  0.60123900  1
  C  C23  1  0.00507400  0.65131100  0.10123900  1
  C  C24  1  0.23382700  0.87752900  0.64861300  1
  C  C25  1  0.23382700  0.37752900  0.14861300  1
  C  C26  1  0.73382700  0.12247100  0.85138700  1
  C  C27  1  0.73382700  0.62247100  0.35138700  1
  C  C28  1  0.76617300  0.12247100  0.35138700  1
  C  C29  1  0.76617300  0.62247100  0.85138700  1
  C  C30  1  0.26617300  0.87752900  0.14861300  1
  C  C31  1  0.26617300  0.37752900  0.64861300  1
  C  C32  1  0.77069600  0.89569100  0.13010500  1
  C  C33  1  0.77069600  0.39569100  0.63010500  1
  C  C34  1  0.27069600  0.10430900  0.36989500  1
  C  C35  1  0.27069600  0.60430900  0.86989500  1
  C  C36  1  0.22930400  0.10430900  0.86989500  1
  C  C37  1  0.22930400  0.60430900  0.36989500  1
  C  C38  1  0.72930400  0.89569100  0.63010500  1
  C  C39  1  0.72930400  0.39569100  0.13010500  1
