# generated using pymatgen
data_Cu2NiC4
_symmetry_space_group_name_H-M   'P 1'
_cell_length_a   8.07045564
_cell_length_b   8.07045564
_cell_length_c   8.07045564
_cell_angle_alpha   109.30331527
_cell_angle_beta   109.30331527
_cell_angle_gamma   109.80755579
_symmetry_Int_Tables_number   1
_chemical_formula_structural   Cu2NiC4
_chemical_formula_sum   'Cu4 Ni2 C8'
_cell_volume   404.63276037
_cell_formula_units_Z   2
loop_
 _symmetry_equiv_pos_site_id
 _symmetry_equiv_pos_as_xyz
  1  'x, y, z'
loop_
 _atom_site_type_symbol
 _atom_site_label
 _atom_site_symmetry_multiplicity
 _atom_site_fract_x
 _atom_site_fract_y
 _atom_site_fract_z
 _atom_site_occupancy
  Ni  Ni0  1  0.75000000  0.25000000  0.50000000  1
  Ni  Ni1  1  0.50000000  0.50000000  0.00000000  1
  Cu  Cu2  1  0.99865100  0.37500000  0.12365100  1
  Cu  Cu3  1  0.62500000  0.74865100  0.62365100  1
  Cu  Cu4  1  0.25134900  0.87500000  0.87634900  1
  Cu  Cu5  1  0.12500000  0.00134900  0.37634900  1
  C  C6  1  0.51642600  0.10613000  0.74628900  1
  C  C7  1  0.89387000  0.64015900  0.41029600  1
  C  C8  1  0.35613000  0.26642600  0.24628900  1
  C  C9  1  0.73357400  0.97986300  0.08970400  1
  C  C10  1  0.89015900  0.64387000  0.91029600  1
  C  C11  1  0.22986300  0.48357400  0.58970400  1
  C  C12  1  0.35984100  0.77013700  0.25371100  1
  C  C13  1  0.02013700  0.10984100  0.75371100  1
