# generated using pymatgen
data_Cu2NiC4
_symmetry_space_group_name_H-M   'P 1'
_cell_length_a   7.22600001
_cell_length_b   7.22600001
_cell_length_c   7.22600001
_cell_angle_alpha   109.29535445
_cell_angle_beta   109.29535445
_cell_angle_gamma   109.82352847
_symmetry_Int_Tables_number   1
_chemical_formula_structural   Cu2NiC4
_chemical_formula_sum   'Cu4 Ni2 C8'
_cell_volume   290.44216027
_cell_formula_units_Z   2
loop_
 _symmetry_equiv_pos_site_id
 _symmetry_equiv_pos_as_xyz
  1  'x, y, z'
loop_
 _atom_site_type_symbol
 _atom_site_label
 _atom_site_symmetry_multiplicity
 _atom_site_fract_x
 _atom_site_fract_y
 _atom_site_fract_z
 _atom_site_occupancy
  Ni  Ni0  1  0.25000000  0.75000000  0.50000000  1
  Ni  Ni1  1  0.00000000  0.00000000  0.00000000  1
  Cu  Cu2  1  0.62500000  0.25647000  0.13147000  1
  Cu  Cu3  1  0.50647000  0.37500000  0.63147000  1
  Cu  Cu4  1  0.12500000  0.49353000  0.86853000  1
  Cu  Cu5  1  0.74353000  0.87500000  0.36853000  1
  C  C6  1  0.73948600  0.13708900  0.74574400  1
  C  C7  1  0.85865500  0.61291100  0.10239700  1
  C  C8  1  0.00625700  0.26051400  0.39760300  1
  C  C9  1  0.86291100  0.60865500  0.60239700  1
  C  C10  1  0.38708900  0.48948600  0.24574400  1
  C  C11  1  0.51051400  0.75625700  0.89760300  1
  C  C12  1  0.39134500  0.99374300  0.25425600  1
  C  C13  1  0.24374300  0.14134500  0.75425600  1
