# generated using pymatgen
data_Cu8NiC5
_symmetry_space_group_name_H-M   'P 1'
_cell_length_a   9.27303069
_cell_length_b   9.27303069
_cell_length_c   12.21018997
_cell_angle_alpha   51.06012307
_cell_angle_beta   51.06012307
_cell_angle_gamma   22.03662611
_symmetry_Int_Tables_number   1
_chemical_formula_structural   Cu8NiC5
_chemical_formula_sum   'Cu8 Ni1 C5'
_cell_volume   302.59091080
_cell_formula_units_Z   1
loop_
 _symmetry_equiv_pos_site_id
 _symmetry_equiv_pos_as_xyz
  1  'x, y, z'
loop_
 _atom_site_type_symbol
 _atom_site_label
 _atom_site_symmetry_multiplicity
 _atom_site_fract_x
 _atom_site_fract_y
 _atom_site_fract_z
 _atom_site_occupancy
  C  C0  1  0.15810100  0.15810100  0.32976500  1
  C  C1  1  0.84189900  0.84189900  0.67023500  1
  C  C2  1  0.51160400  0.51160400  0.61299000  1
  C  C3  1  0.48839600  0.48839600  0.38701000  1
  C  C4  1  0.00000000  0.00000000  0.00000000  1
  Ni  Ni5  1  0.00000000  0.00000000  0.50000000  1
  Cu  Cu6  1  0.97173100  0.97173100  0.23584100  1
  Cu  Cu7  1  0.02826900  0.02826900  0.76415900  1
  Cu  Cu8  1  0.66981500  0.66981500  0.16884700  1
  Cu  Cu9  1  0.33018500  0.33018500  0.83115300  1
  Cu  Cu10  1  0.30243700  0.30243700  0.56476500  1
  Cu  Cu11  1  0.69756300  0.69756300  0.43523500  1
  Cu  Cu12  1  0.62907800  0.62907800  0.89864700  1
  Cu  Cu13  1  0.37092200  0.37092200  0.10135300  1
