# generated using pymatgen
data_Cu3Ni27C20
_symmetry_space_group_name_H-M   'P 1'
_cell_length_a   3.99204300
_cell_length_b   3.99204300
_cell_length_c   40.86762300
_cell_angle_alpha   90.00000000
_cell_angle_beta   90.00000000
_cell_angle_gamma   90.00000000
_symmetry_Int_Tables_number   1
_chemical_formula_structural   Cu3Ni27C20
_chemical_formula_sum   'Cu3 Ni27 C20'
_cell_volume   651.28308608
_cell_formula_units_Z   1
loop_
 _symmetry_equiv_pos_site_id
 _symmetry_equiv_pos_as_xyz
  1  'x, y, z'
loop_
 _atom_site_type_symbol
 _atom_site_label
 _atom_site_symmetry_multiplicity
 _atom_site_fract_x
 _atom_site_fract_y
 _atom_site_fract_z
 _atom_site_occupancy
  C  C0  1  0.00000000  0.00000000  0.60006800  1
  C  C1  1  0.00000000  0.00000000  0.80075400  1
  C  C2  1  0.00000000  0.00000000  0.89915100  1
  C  C3  1  0.00000000  0.00000000  0.99928700  1
  C  C4  1  0.00000000  0.00000000  0.09998500  1
  C  C5  1  0.00000000  0.00000000  0.20000900  1
  C  C6  1  0.00000000  0.00000000  0.29998400  1
  C  C7  1  0.00000000  0.00000000  0.40003400  1
  C  C8  1  0.00000000  0.00000000  0.50074000  1
  C  C9  1  0.00000000  0.00000000  0.69997000  1
  C  C10  1  0.50000000  0.50000000  0.05077800  1
  C  C11  1  0.50000000  0.50000000  0.24998400  1
  C  C12  1  0.50000000  0.50000000  0.15020800  1
  C  C13  1  0.50000000  0.50000000  0.44929700  1
  C  C14  1  0.50000000  0.50000000  0.34978400  1
  C  C15  1  0.50000000  0.50000000  0.54736900  1
  C  C16  1  0.50000000  0.50000000  0.74772300  1
  C  C17  1  0.50000000  0.50000000  0.65178100  1
  C  C18  1  0.50000000  0.50000000  0.85009400  1
  C  C19  1  0.50000000  0.50000000  0.95290300  1
  Ni  Ni20  1  0.00000000  0.50000000  0.05048000  1
  Ni  Ni21  1  0.00000000  0.50000000  0.15011200  1
  Ni  Ni22  1  0.00000000  0.50000000  0.25000000  1
  Ni  Ni23  1  0.00000000  0.50000000  0.34990400  1
  Ni  Ni24  1  0.00000000  0.50000000  0.44959400  1
  Ni  Ni25  1  0.00000000  0.50000000  0.54883400  1
  Ni  Ni26  1  0.00000000  0.50000000  0.65064400  1
  Ni  Ni27  1  0.00000000  0.50000000  0.74904200  1
  Ni  Ni28  1  0.00000000  0.50000000  0.85006400  1
  Ni  Ni29  1  0.00000000  0.50000000  0.95133800  1
  Ni  Ni30  1  0.50000000  0.00000000  0.05048000  1
  Ni  Ni31  1  0.50000000  0.50000000  0.00051200  1
  Ni  Ni32  1  0.50000000  0.00000000  0.15011200  1
  Ni  Ni33  1  0.50000000  0.00000000  0.25000000  1
  Ni  Ni34  1  0.50000000  0.50000000  0.20002300  1
  Ni  Ni35  1  0.50000000  0.50000000  0.10017400  1
  Ni  Ni36  1  0.50000000  0.00000000  0.34990400  1
  Ni  Ni37  1  0.50000000  0.00000000  0.44959400  1
  Ni  Ni38  1  0.50000000  0.50000000  0.39988400  1
  Ni  Ni39  1  0.50000000  0.50000000  0.30000300  1
  Ni  Ni40  1  0.50000000  0.00000000  0.54883400  1
  Ni  Ni41  1  0.50000000  0.50000000  0.49962400  1
  Ni  Ni42  1  0.50000000  0.00000000  0.74904200  1
  Ni  Ni43  1  0.50000000  0.50000000  0.69984000  1
  Ni  Ni44  1  0.50000000  0.00000000  0.65064400  1
  Ni  Ni45  1  0.50000000  0.00000000  0.85006400  1
  Ni  Ni46  1  0.50000000  0.00000000  0.95133800  1
  Cu  Cu47  1  0.50000000  0.50000000  0.59982800  1
  Cu  Cu48  1  0.50000000  0.50000000  0.79984700  1
  Cu  Cu49  1  0.50000000  0.50000000  0.90033600  1
