# generated using pymatgen
data_Cu2NiC6
_symmetry_space_group_name_H-M   'P 1'
_cell_length_a   7.79552329
_cell_length_b   7.79552329
_cell_length_c   13.76840600
_cell_angle_alpha   90.00000000
_cell_angle_beta   90.00000000
_cell_angle_gamma   119.99999397
_symmetry_Int_Tables_number   1
_chemical_formula_structural   Cu2NiC6
_chemical_formula_sum   'Cu4 Ni2 C12'
_cell_volume   724.61091015
_cell_formula_units_Z   2
loop_
 _symmetry_equiv_pos_site_id
 _symmetry_equiv_pos_as_xyz
  1  'x, y, z'
loop_
 _atom_site_type_symbol
 _atom_site_label
 _atom_site_symmetry_multiplicity
 _atom_site_fract_x
 _atom_site_fract_y
 _atom_site_fract_z
 _atom_site_occupancy
  Ni  Ni0  1  0.33333300  0.66666700  0.87099500  1
  Ni  Ni1  1  0.66666700  0.33333300  0.37099500  1
  Cu  Cu2  1  0.00000000  0.00000000  0.12589700  1
  Cu  Cu3  1  0.00000000  0.00000000  0.37643500  1
  Cu  Cu4  1  0.00000000  0.00000000  0.62589700  1
  Cu  Cu5  1  0.00000000  0.00000000  0.87643500  1
  C  C6  1  0.99215100  0.69143300  0.00144000  1
  C  C7  1  0.29713900  0.98573400  0.25069400  1
  C  C8  1  0.01426600  0.31140500  0.25069400  1
  C  C9  1  0.30856700  0.30071800  0.00144000  1
  C  C10  1  0.30071800  0.30856700  0.50144000  1
  C  C11  1  0.69928200  0.00784900  0.00144000  1
  C  C12  1  0.31140500  0.01426600  0.75069400  1
  C  C13  1  0.68859500  0.70286100  0.25069400  1
  C  C14  1  0.70286100  0.68859500  0.75069400  1
  C  C15  1  0.00784900  0.69928200  0.50144000  1
  C  C16  1  0.69143300  0.99215100  0.50144000  1
  C  C17  1  0.98573400  0.29713900  0.75069400  1
