# generated using pymatgen
data_CuNiC6
_symmetry_space_group_name_H-M   'P 1'
_cell_length_a   9.10603564
_cell_length_b   9.10603564
_cell_length_c   9.10603560
_cell_angle_alpha   90.01472928
_cell_angle_beta   90.01472928
_cell_angle_gamma   90.01472673
_symmetry_Int_Tables_number   1
_chemical_formula_structural   CuNiC6
_chemical_formula_sum   'Cu6 Ni6 C36'
_cell_volume   755.07135133
_cell_formula_units_Z   6
loop_
 _symmetry_equiv_pos_site_id
 _symmetry_equiv_pos_as_xyz
  1  'x, y, z'
loop_
 _atom_site_type_symbol
 _atom_site_label
 _atom_site_symmetry_multiplicity
 _atom_site_fract_x
 _atom_site_fract_y
 _atom_site_fract_z
 _atom_site_occupancy
  C  C0  1  0.17596400  0.17681300  0.81879400  1
  C  C1  1  0.81879400  0.17596400  0.17681300  1
  C  C2  1  0.77864100  0.22742200  0.77903500  1
  C  C3  1  0.29918900  0.29918900  0.29918900  1
  C  C4  1  0.22742200  0.77903500  0.77864100  1
  C  C5  1  0.77903500  0.77864100  0.22742200  1
  C  C6  1  0.80040900  0.80040900  0.80040900  1
  C  C7  1  0.17681300  0.81879400  0.17596400  1
  Ni  Ni8  1  0.49974600  0.00245900  0.75024500  1
  Ni  Ni9  1  0.49871500  0.00035700  0.25172300  1
  Ni  Ni10  1  0.00035700  0.25172300  0.49871500  1
  Ni  Ni11  1  0.25172300  0.49871500  0.00035700  1
  Ni  Ni12  1  0.75024500  0.49974600  0.00245900  1
  Ni  Ni13  1  0.00245900  0.75024500  0.49974600  1
  Cu  Cu14  1  0.24960600  0.00263100  0.49915000  1
  Cu  Cu15  1  0.75125200  0.00151200  0.50082000  1
  Cu  Cu16  1  0.49915000  0.24960600  0.00263100  1
  Cu  Cu17  1  0.00151200  0.50082000  0.75125200  1
  Cu  Cu18  1  0.00263100  0.49915000  0.24960600  1
  Cu  Cu19  1  0.50082000  0.75125200  0.00151200  1
  C  C20  1  0.99428900  0.99428900  0.99428900  1
  C  C21  1  0.34733900  0.05669900  0.35766700  1
  C  C22  1  0.65610600  0.04879700  0.64645300  1
  C  C23  1  0.93485100  0.11189000  0.93826800  1
  C  C24  1  0.44747900  0.15132500  0.86131900  1
  C  C25  1  0.55218100  0.15167200  0.14402100  1
  C  C26  1  0.15167200  0.14402100  0.55218100  1
  C  C27  1  0.84987700  0.14237000  0.44842000  1
  C  C28  1  0.64015400  0.34960700  0.95316700  1
  C  C29  1  0.35766700  0.34733900  0.05669900  1
  C  C30  1  0.95179900  0.36095700  0.64995100  1
  C  C31  1  0.05669900  0.35766700  0.34733900  1
  C  C32  1  0.14237000  0.44842000  0.84987700  1
  C  C33  1  0.86131900  0.44747900  0.15132500  1
  C  C34  1  0.86016900  0.55024500  0.85144600  1
  C  C35  1  0.14402100  0.55218100  0.15167200  1
  C  C36  1  0.95316700  0.64015400  0.34960700  1
  C  C37  1  0.04879700  0.64645300  0.65610600  1
  C  C38  1  0.36095700  0.64995100  0.95179900  1
  C  C39  1  0.64645300  0.65610600  0.04879700  1
  C  C40  1  0.15132500  0.86131900  0.44747900  1
  C  C41  1  0.85144600  0.86016900  0.55024500  1
  C  C42  1  0.55024500  0.85144600  0.86016900  1
  C  C43  1  0.44842000  0.84987700  0.14237000  1
  C  C44  1  0.93826800  0.93485100  0.11189000  1
  C  C45  1  0.11189000  0.93826800  0.93485100  1
  C  C46  1  0.34960700  0.95316700  0.64015400  1
  C  C47  1  0.64995100  0.95179900  0.36095700  1
