# generated using pymatgen
data_Cu9Ni3C
_symmetry_space_group_name_H-M   'P 1'
_cell_length_a   8.62533000
_cell_length_b   7.23748400
_cell_length_c   13.58456277
_cell_angle_alpha   79.68201602
_cell_angle_beta   90.00000000
_cell_angle_gamma   90.00000000
_symmetry_Int_Tables_number   1
_chemical_formula_structural   Cu9Ni3C
_chemical_formula_sum   'Cu36 Ni12 C4'
_cell_volume   834.31213942
_cell_formula_units_Z   4
loop_
 _symmetry_equiv_pos_site_id
 _symmetry_equiv_pos_as_xyz
  1  'x, y, z'
loop_
 _atom_site_type_symbol
 _atom_site_label
 _atom_site_symmetry_multiplicity
 _atom_site_fract_x
 _atom_site_fract_y
 _atom_site_fract_z
 _atom_site_occupancy
  C  C0  1  0.75478100  0.32770100  0.64646700  1
  C  C1  1  0.25478100  0.67229900  0.85353300  1
  C  C2  1  0.24521900  0.67229900  0.35353300  1
  C  C3  1  0.74521900  0.32770100  0.14646700  1
  Ni  Ni4  1  0.29490800  0.33366900  0.60961000  1
  Ni  Ni5  1  0.79490800  0.66633100  0.89039000  1
  Ni  Ni6  1  0.70509200  0.66633100  0.39039000  1
  Ni  Ni7  1  0.20509200  0.33366900  0.10961000  1
  Ni  Ni8  1  0.52035500  0.23453600  0.89015800  1
  Ni  Ni9  1  0.02035500  0.76546400  0.60984200  1
  Ni  Ni10  1  0.47964500  0.76546400  0.10984200  1
  Ni  Ni11  1  0.97964500  0.23453600  0.39015800  1
  Ni  Ni12  1  0.04415900  0.16699900  0.85658600  1
  Ni  Ni13  1  0.54415900  0.83300100  0.64341400  1
  Ni  Ni14  1  0.95584100  0.83300100  0.14341400  1
  Ni  Ni15  1  0.45584100  0.16699900  0.35658600  1
  Cu  Cu16  1  0.47429500  0.34213200  0.68111500  1
  Cu  Cu17  1  0.97429500  0.65786800  0.81888500  1
  Cu  Cu18  1  0.52570500  0.65786800  0.31888500  1
  Cu  Cu19  1  0.02570500  0.34213200  0.18111500  1
  Cu  Cu20  1  0.33580100  0.13795400  0.54513300  1
  Cu  Cu21  1  0.83580100  0.86204600  0.95486700  1
  Cu  Cu22  1  0.66419900  0.86204600  0.45486700  1
  Cu  Cu23  1  0.16419900  0.13795400  0.04513300  1
  Cu  Cu24  1  0.33091000  0.53392000  0.50963700  1
  Cu  Cu25  1  0.83091000  0.46608000  0.99036300  1
  Cu  Cu26  1  0.66909000  0.46608000  0.49036300  1
  Cu  Cu27  1  0.16909000  0.53392000  0.00963700  1
  Cu  Cu28  1  0.70821800  0.27258500  0.82425400  1
  Cu  Cu29  1  0.20821800  0.72741500  0.67574600  1
  Cu  Cu30  1  0.29178200  0.72741500  0.17574600  1
  Cu  Cu31  1  0.79178200  0.27258500  0.32425400  1
  Cu  Cu32  1  0.30848000  0.35125000  0.32296700  1
  Cu  Cu33  1  0.80848000  0.64875000  0.17703300  1
  Cu  Cu34  1  0.69152000  0.64875000  0.67703300  1
  Cu  Cu35  1  0.19152000  0.35125000  0.82296700  1
  Cu  Cu36  1  0.32511800  0.96930100  0.36186000  1
  Cu  Cu37  1  0.82511800  0.03069900  0.13814000  1
  Cu  Cu38  1  0.67488200  0.03069900  0.63814000  1
  Cu  Cu39  1  0.17488200  0.96930100  0.86186000  1
  Cu  Cu40  1  0.53301300  0.16085400  0.23145600  1
  Cu  Cu41  1  0.03301300  0.83914600  0.26854400  1
  Cu  Cu42  1  0.46698700  0.83914600  0.76854400  1
  Cu  Cu43  1  0.96698700  0.16085400  0.73145600  1
  Cu  Cu44  1  0.92200000  0.18013900  0.52096200  1
  Cu  Cu45  1  0.42200000  0.81986100  0.97903800  1
  Cu  Cu46  1  0.07800000  0.81986100  0.47903800  1
  Cu  Cu47  1  0.57800000  0.18013900  0.02096200  1
  Cu  Cu48  1  0.02833400  0.48178000  0.38595100  1
  Cu  Cu49  1  0.52833400  0.51822000  0.11404900  1
  Cu  Cu50  1  0.97166600  0.51822000  0.61404900  1
  Cu  Cu51  1  0.47166600  0.48178000  0.88595100  1
