# generated using pymatgen
data_Cu2NiC7
_symmetry_space_group_name_H-M   'P 1'
_cell_length_a   8.26719062
_cell_length_b   8.26719062
_cell_length_c   12.02089668
_cell_angle_alpha   59.76341548
_cell_angle_beta   59.76341548
_cell_angle_gamma   58.31698947
_symmetry_Int_Tables_number   1
_chemical_formula_structural   Cu2NiC7
_chemical_formula_sum   'Cu8 Ni4 C28'
_cell_volume   571.19437334
_cell_formula_units_Z   4
loop_
 _symmetry_equiv_pos_site_id
 _symmetry_equiv_pos_as_xyz
  1  'x, y, z'
loop_
 _atom_site_type_symbol
 _atom_site_label
 _atom_site_symmetry_multiplicity
 _atom_site_fract_x
 _atom_site_fract_y
 _atom_site_fract_z
 _atom_site_occupancy
  Ni  Ni0  1  0.76199000  0.76199000  0.98081100  1
  Ni  Ni1  1  0.23801000  0.23801000  0.01918900  1
  Ni  Ni2  1  0.73525300  0.73525300  0.34699900  1
  Ni  Ni3  1  0.26474700  0.26474700  0.65300100  1
  Cu  Cu4  1  0.26218700  0.73696800  0.68041300  1
  Cu  Cu5  1  0.24081900  0.75918100  0.00000000  1
  Cu  Cu6  1  0.26303200  0.73781300  0.31958700  1
  Cu  Cu7  1  0.75918100  0.24081900  0.00000000  1
  Cu  Cu8  1  0.73696800  0.26218700  0.68041300  1
  Cu  Cu9  1  0.74178000  0.74178000  0.67873900  1
  Cu  Cu10  1  0.73781300  0.26303200  0.31958700  1
  Cu  Cu11  1  0.25822000  0.25822000  0.32126100  1
  C  C12  1  0.83580600  0.36548100  0.08479500  1
  C  C13  1  0.61851100  0.14675400  0.23659700  1
  C  C14  1  0.10404600  0.10404600  0.92674200  1
  C  C15  1  0.67902000  0.32098000  0.50000000  1
  C  C16  1  0.99668400  0.99668400  0.73068500  1
  C  C17  1  0.99872800  0.65744000  0.73855400  1
  C  C18  1  0.32098000  0.67902000  0.50000000  1
  C  C19  1  0.00127200  0.34256000  0.26144600  1
  C  C20  1  0.99638700  0.33157600  0.49874600  1
  C  C21  1  0.85324600  0.38148900  0.76340300  1
  C  C22  1  0.38148900  0.85324600  0.76340300  1
  C  C23  1  0.61442000  0.61442000  0.61873400  1
  C  C24  1  0.39446700  0.39446700  0.08747600  1
  C  C25  1  0.16419400  0.63451900  0.91520500  1
  C  C26  1  0.33157600  0.99638700  0.49874600  1
  C  C27  1  0.63451900  0.16419400  0.91520500  1
  C  C28  1  0.14675400  0.61851100  0.23659700  1
  C  C29  1  0.65744000  0.99872800  0.73855400  1
  C  C30  1  0.60311800  0.60311800  0.25140500  1
  C  C31  1  0.00331600  0.00331600  0.26931500  1
  C  C32  1  0.66842400  0.00361300  0.50125400  1
  C  C33  1  0.39688200  0.39688200  0.74859500  1
  C  C34  1  0.38558000  0.38558000  0.38126600  1
  C  C35  1  0.34256000  0.00127200  0.26144600  1
  C  C36  1  0.36548100  0.83580600  0.08479500  1
  C  C37  1  0.89595400  0.89595400  0.07325800  1
  C  C38  1  0.00361300  0.66842400  0.50125400  1
  C  C39  1  0.60553300  0.60553300  0.91252400  1
