# generated using pymatgen
data_Cu6NiC4
_symmetry_space_group_name_H-M   'P 1'
_cell_length_a   7.92679042
_cell_length_b   7.92679042
_cell_length_c   6.16816100
_cell_angle_alpha   90.00000000
_cell_angle_beta   90.00000000
_cell_angle_gamma   120.00000354
_symmetry_Int_Tables_number   1
_chemical_formula_structural   Cu6NiC4
_chemical_formula_sum   'Cu12 Ni2 C8'
_cell_volume   335.64568579
_cell_formula_units_Z   2
loop_
 _symmetry_equiv_pos_site_id
 _symmetry_equiv_pos_as_xyz
  1  'x, y, z'
loop_
 _atom_site_type_symbol
 _atom_site_label
 _atom_site_symmetry_multiplicity
 _atom_site_fract_x
 _atom_site_fract_y
 _atom_site_fract_z
 _atom_site_occupancy
  C  C0  1  0.63544800  0.81772400  0.50026500  1
  C  C1  1  0.81772400  0.63544800  0.00026500  1
  C  C2  1  0.81772400  0.18227600  0.00026500  1
  C  C3  1  0.18227600  0.81772400  0.50026500  1
  C  C4  1  0.18227600  0.36455200  0.50026500  1
  C  C5  1  0.36455200  0.18227600  0.00026500  1
  C  C6  1  0.33333300  0.66666700  0.97591900  1
  C  C7  1  0.66666700  0.33333300  0.47591900  1
  Ni  Ni8  1  0.66666700  0.33333300  0.12766600  1
  Ni  Ni9  1  0.33333300  0.66666700  0.62766600  1
  Cu  Cu10  1  0.91992000  0.45996000  0.72664900  1
  Cu  Cu11  1  0.08008000  0.54004000  0.22664900  1
  Cu  Cu12  1  0.45996000  0.54004000  0.22664900  1
  Cu  Cu13  1  0.54004000  0.08008000  0.72664900  1
  Cu  Cu14  1  0.74521400  0.87260700  0.89552400  1
  Cu  Cu15  1  0.87260700  0.74521400  0.39552400  1
  Cu  Cu16  1  0.45996000  0.91992000  0.22664900  1
  Cu  Cu17  1  0.54004000  0.45996000  0.72664900  1
  Cu  Cu18  1  0.25478600  0.12739300  0.39552400  1
  Cu  Cu19  1  0.12739300  0.25478600  0.89552400  1
  Cu  Cu20  1  0.12739300  0.87260700  0.89552400  1
  Cu  Cu21  1  0.87260700  0.12739300  0.39552400  1
