# generated using pymatgen
data_Cu(Ni3C2)6
_symmetry_space_group_name_H-M   'P 1'
_cell_length_a   7.43991878
_cell_length_b   7.43991878
_cell_length_c   11.99662520
_cell_angle_alpha   71.95958253
_cell_angle_beta   71.95958253
_cell_angle_gamma   89.99015450
_symmetry_Int_Tables_number   1
_chemical_formula_structural   Cu(Ni3C2)6
_chemical_formula_sum   'Cu2 Ni36 C24'
_cell_volume   596.98062511
_cell_formula_units_Z   2
loop_
 _symmetry_equiv_pos_site_id
 _symmetry_equiv_pos_as_xyz
  1  'x, y, z'
loop_
 _atom_site_type_symbol
 _atom_site_label
 _atom_site_symmetry_multiplicity
 _atom_site_fract_x
 _atom_site_fract_y
 _atom_site_fract_z
 _atom_site_occupancy
  Ni  Ni0  1  0.84326500  0.31489400  0.61273300  1
  Ni  Ni1  1  0.31489400  0.84326500  0.11273300  1
  Ni  Ni2  1  0.94682600  0.15833500  0.55336600  1
  Ni  Ni3  1  0.15833500  0.94682600  0.05336600  1
  Ni  Ni4  1  0.15678000  0.67754400  0.88742100  1
  Ni  Ni5  1  0.67754400  0.15678000  0.38742100  1
  Ni  Ni6  1  0.05309400  0.46184600  0.94679600  1
  Ni  Ni7  1  0.46184600  0.05309400  0.44679600  1
  Ni  Ni8  1  0.10339300  0.35380600  0.54191800  1
  Ni  Ni9  1  0.35380600  0.10339300  0.04191800  1
  Ni  Ni10  1  0.25024000  0.53757900  0.55341500  1
  Ni  Ni11  1  0.53757900  0.25024000  0.05341500  1
  Ni  Ni12  1  0.29358300  0.32097100  0.61206100  1
  Ni  Ni13  1  0.32097100  0.29358300  0.11206100  1
  Ni  Ni14  1  0.70672500  0.68328300  0.88765800  1
  Ni  Ni15  1  0.68328300  0.70672500  0.38765800  1
  Ni  Ni16  1  0.74990700  0.84144000  0.94633000  1
  Ni  Ni17  1  0.84144000  0.74990700  0.44633000  1
  Ni  Ni18  1  0.89642900  0.64623500  0.95802800  1
  Ni  Ni19  1  0.64623500  0.89642900  0.45802800  1
  Ni  Ni20  1  0.55172200  0.27496500  0.73756000  1
  Ni  Ni21  1  0.27496500  0.55172200  0.23756000  1
  Ni  Ni22  1  0.70820300  0.23545000  0.80633000  1
  Ni  Ni23  1  0.23545000  0.70820300  0.30633000  1
  Ni  Ni24  1  0.29172600  0.79163800  0.69367100  1
  Ni  Ni25  1  0.79163800  0.29172600  0.19367100  1
  Ni  Ni26  1  0.54763100  0.66526200  0.25405800  1
  Ni  Ni27  1  0.66526200  0.54763100  0.75405800  1
  Ni  Ni28  1  0.76129800  0.76675400  0.19313900  1
  Ni  Ni29  1  0.76675400  0.76129800  0.69313900  1
  Ni  Ni30  1  0.20454800  0.23332000  0.30677000  1
  Ni  Ni31  1  0.23332000  0.20454800  0.80677000  1
  Ni  Ni32  1  0.05167600  0.33481200  0.24590500  1
  Ni  Ni33  1  0.33481200  0.05167600  0.74590500  1
  Ni  Ni34  1  0.76253000  0.44828400  0.26237200  1
  Ni  Ni35  1  0.44828400  0.76253000  0.76237200  1
  Cu  Cu36  1  0.12499400  0.87466600  0.50002100  1
  Cu  Cu37  1  0.87466600  0.12499400  0.00002100  1
  C  C38  1  0.95076700  0.29867900  0.54095200  1
  C  C39  1  0.29867900  0.95076700  0.04095200  1
  C  C40  1  0.04930700  0.58976600  0.95921000  1
  C  C41  1  0.58976600  0.04930700  0.45921000  1
  C  C42  1  0.25827900  0.40990600  0.54061600  1
  C  C43  1  0.40990600  0.25827900  0.04061600  1
  C  C44  1  0.74202500  0.70097400  0.95910900  1
  C  C45  1  0.70097400  0.74202500  0.45910900  1
  C  C46  1  0.67813500  0.32614600  0.73525500  1
  C  C47  1  0.32614600  0.67813500  0.23525500  1
  C  C48  1  0.32185400  0.81139800  0.76470400  1
  C  C49  1  0.81139800  0.32185400  0.26470400  1
  C  C50  1  0.33849400  0.19083200  0.73546900  1
  C  C51  1  0.19083200  0.33849400  0.23546900  1
  C  C52  1  0.66163100  0.67635400  0.76450000  1
  C  C53  1  0.67635400  0.66163100  0.26450000  1
  C  C54  1  0.94887000  0.92731500  0.57922900  1
  C  C55  1  0.92731500  0.94887000  0.07922900  1
  C  C56  1  0.25666700  0.05088900  0.42093200  1
  C  C57  1  0.05088900  0.25666700  0.92093200  1
  C  C58  1  0.22212800  0.74275700  0.57908500  1
  C  C59  1  0.74275700  0.22212800  0.07908500  1
  C  C60  1  0.07216900  0.77778300  0.42078600  1
  C  C61  1  0.77778300  0.07216900  0.92078600  1
