# generated using pymatgen
data_Cu8Ni4C
_symmetry_space_group_name_H-M   'P 1'
_cell_length_a   6.65189941
_cell_length_b   6.65189941
_cell_length_c   6.65189941
_cell_angle_alpha   98.64380205
_cell_angle_beta   98.64380205
_cell_angle_gamma   134.38029759
_symmetry_Int_Tables_number   1
_chemical_formula_structural   Cu8Ni4C
_chemical_formula_sum   'Cu8 Ni4 C1'
_cell_volume   193.91165038
_cell_formula_units_Z   1
loop_
 _symmetry_equiv_pos_site_id
 _symmetry_equiv_pos_as_xyz
  1  'x, y, z'
loop_
 _atom_site_type_symbol
 _atom_site_label
 _atom_site_symmetry_multiplicity
 _atom_site_fract_x
 _atom_site_fract_y
 _atom_site_fract_z
 _atom_site_occupancy
  C  C0  1  0.00000000  0.00000000  0.00000000  1
  Ni  Ni1  1  0.50000000  0.00000000  0.00000000  1
  Ni  Ni2  1  0.00000000  0.00000000  0.50000000  1
  Ni  Ni3  1  0.50000000  0.50000000  0.50000000  1
  Ni  Ni4  1  0.00000000  0.50000000  0.00000000  1
  Cu  Cu5  1  0.66854700  0.00000000  0.66854700  1
  Cu  Cu6  1  0.00000000  0.33145300  0.33145300  1
  Cu  Cu7  1  0.00000000  0.66854700  0.66854700  1
  Cu  Cu8  1  0.33145300  0.00000000  0.33145300  1
  Cu  Cu9  1  0.72284700  0.50000000  0.22284700  1
  Cu  Cu10  1  0.50000000  0.27715300  0.77715300  1
  Cu  Cu11  1  0.50000000  0.72284700  0.22284700  1
  Cu  Cu12  1  0.27715300  0.50000000  0.77715300  1
