# generated using pymatgen
data_Cu4Ni2C
_symmetry_space_group_name_H-M   'P 1'
_cell_length_a   7.74238900
_cell_length_b   7.41964900
_cell_length_c   11.23233754
_cell_angle_alpha   59.96220653
_cell_angle_beta   90.00000000
_cell_angle_gamma   90.00000000
_symmetry_Int_Tables_number   1
_chemical_formula_structural   Cu4Ni2C
_chemical_formula_sum   'Cu16 Ni8 C4'
_cell_volume   558.59057904
_cell_formula_units_Z   4
loop_
 _symmetry_equiv_pos_site_id
 _symmetry_equiv_pos_as_xyz
  1  'x, y, z'
loop_
 _atom_site_type_symbol
 _atom_site_label
 _atom_site_symmetry_multiplicity
 _atom_site_fract_x
 _atom_site_fract_y
 _atom_site_fract_z
 _atom_site_occupancy
  C  C0  1  0.74184900  0.59519600  0.58390900  1
  C  C1  1  0.24184900  0.40480400  0.91609100  1
  C  C2  1  0.25815100  0.40480400  0.41609100  1
  C  C3  1  0.75815100  0.59519600  0.08390900  1
  Ni  Ni4  1  0.51727400  0.12168300  0.71273400  1
  Ni  Ni5  1  0.01727400  0.87831700  0.78726600  1
  Ni  Ni6  1  0.48272600  0.87831700  0.28726600  1
  Ni  Ni7  1  0.98272600  0.12168300  0.21273400  1
  Ni  Ni8  1  0.68063100  0.19141700  0.50920400  1
  Ni  Ni9  1  0.18063100  0.80858300  0.99079600  1
  Ni  Ni10  1  0.31936900  0.80858300  0.49079600  1
  Ni  Ni11  1  0.81936900  0.19141700  0.00920400  1
  Cu  Cu12  1  0.34226100  0.19228900  0.64063400  1
  Cu  Cu13  1  0.84226100  0.80771100  0.85936600  1
  Cu  Cu14  1  0.65773900  0.80771100  0.35936600  1
  Cu  Cu15  1  0.15773900  0.19228900  0.14063400  1
  Cu  Cu16  1  0.52767600  0.27123200  0.41000900  1
  Cu  Cu17  1  0.02767600  0.72876800  0.08999100  1
  Cu  Cu18  1  0.47232400  0.72876800  0.58999100  1
  Cu  Cu19  1  0.97232400  0.27123200  0.91000900  1
  Cu  Cu20  1  0.60110400  0.29382500  0.73004100  1
  Cu  Cu21  1  0.10110400  0.70617500  0.76995900  1
  Cu  Cu22  1  0.39889600  0.70617500  0.26995900  1
  Cu  Cu23  1  0.89889600  0.29382500  0.23004100  1
  Cu  Cu24  1  0.71366300  0.37140600  0.00103600  1
  Cu  Cu25  1  0.21366300  0.62859400  0.49896400  1
  Cu  Cu26  1  0.28633700  0.62859400  0.99896400  1
  Cu  Cu27  1  0.78633700  0.37140600  0.50103600  1
