# generated using pymatgen
data_Cu(NiC4)2
_symmetry_space_group_name_H-M   'P 1'
_cell_length_a   7.99158066
_cell_length_b   7.99158066
_cell_length_c   7.76254027
_cell_angle_alpha   82.67026659
_cell_angle_beta   82.67026659
_cell_angle_gamma   67.07249506
_symmetry_Int_Tables_number   1
_chemical_formula_structural   Cu(NiC4)2
_chemical_formula_sum   'Cu1 Ni2 C8'
_cell_volume   451.21193904
_cell_formula_units_Z   1
loop_
 _symmetry_equiv_pos_site_id
 _symmetry_equiv_pos_as_xyz
  1  'x, y, z'
loop_
 _atom_site_type_symbol
 _atom_site_label
 _atom_site_symmetry_multiplicity
 _atom_site_fract_x
 _atom_site_fract_y
 _atom_site_fract_z
 _atom_site_occupancy
  Ni  Ni0  1  0.21199800  0.21199800  0.66992800  1
  Ni  Ni1  1  0.78800200  0.78800200  0.33007200  1
  Cu  Cu2  1  0.00000000  0.00000000  0.00000000  1
  C  C3  1  0.69264500  0.08470500  0.15547700  1
  C  C4  1  0.08470500  0.69264500  0.15547700  1
  C  C5  1  0.30735500  0.91529500  0.84452300  1
  C  C6  1  0.62113400  0.62113400  0.28848100  1
  C  C7  1  0.91529500  0.30735500  0.84452300  1
  C  C8  1  0.18012500  0.18012500  0.38587400  1
  C  C9  1  0.81987500  0.81987500  0.61412600  1
  C  C10  1  0.37886600  0.37886600  0.71151900  1
