# generated using pymatgen
data_Cu2Ni2C
_symmetry_space_group_name_H-M   'P 1'
_cell_length_a   3.87457900
_cell_length_b   7.72434600
_cell_length_c   8.32216400
_cell_angle_alpha   90.00000000
_cell_angle_beta   90.00000000
_cell_angle_gamma   90.00000000
_symmetry_Int_Tables_number   1
_chemical_formula_structural   Cu2Ni2C
_chemical_formula_sum   'Cu4 Ni4 C2'
_cell_volume   249.07062428
_cell_formula_units_Z   2
loop_
 _symmetry_equiv_pos_site_id
 _symmetry_equiv_pos_as_xyz
  1  'x, y, z'
loop_
 _atom_site_type_symbol
 _atom_site_label
 _atom_site_symmetry_multiplicity
 _atom_site_fract_x
 _atom_site_fract_y
 _atom_site_fract_z
 _atom_site_occupancy
  C  C0  1  0.52883000  0.52318100  0.00000000  1
  C  C1  1  0.47117000  0.02318100  0.00000000  1
  Ni  Ni2  1  0.49021700  0.54096300  0.27904100  1
  Ni  Ni3  1  0.49021700  0.54096300  0.72095900  1
  Ni  Ni4  1  0.50978300  0.04096300  0.27904100  1
  Ni  Ni5  1  0.50978300  0.04096300  0.72095900  1
  Cu  Cu6  1  0.00427400  0.53333500  0.00000000  1
  Cu  Cu7  1  0.99572600  0.03333500  0.00000000  1
  Cu  Cu8  1  0.50180800  0.28355900  0.00000000  1
  Cu  Cu9  1  0.49819200  0.78355900  0.00000000  1
