# generated using pymatgen
data_Cu2NiC
_symmetry_space_group_name_H-M   'P 1'
_cell_length_a   6.74337600
_cell_length_b   9.26317700
_cell_length_c   14.53127400
_cell_angle_alpha   90.00000000
_cell_angle_beta   90.00000000
_cell_angle_gamma   90.00000000
_symmetry_Int_Tables_number   1
_chemical_formula_structural   Cu2NiC
_chemical_formula_sum   'Cu16 Ni8 C8'
_cell_volume   907.69727233
_cell_formula_units_Z   8
loop_
 _symmetry_equiv_pos_site_id
 _symmetry_equiv_pos_as_xyz
  1  'x, y, z'
loop_
 _atom_site_type_symbol
 _atom_site_label
 _atom_site_symmetry_multiplicity
 _atom_site_fract_x
 _atom_site_fract_y
 _atom_site_fract_z
 _atom_site_occupancy
  C  C0  1  0.75000000  0.35861500  0.31828900  1
  C  C1  1  0.25000000  0.64138500  0.68171100  1
  C  C2  1  0.75000000  0.85861500  0.18171100  1
  C  C3  1  0.25000000  0.14138500  0.81828900  1
  C  C4  1  0.75000000  0.01690700  0.62271800  1
  C  C5  1  0.25000000  0.98309300  0.37728200  1
  C  C6  1  0.75000000  0.51690700  0.87728200  1
  C  C7  1  0.25000000  0.48309300  0.12271800  1
  Ni  Ni8  1  0.25000000  0.58426900  0.45716500  1
  Ni  Ni9  1  0.25000000  0.25640100  0.57318100  1
  Ni  Ni10  1  0.75000000  0.74359900  0.42681900  1
  Ni  Ni11  1  0.25000000  0.75640100  0.92681900  1
  Ni  Ni12  1  0.75000000  0.24359900  0.07318100  1
  Ni  Ni13  1  0.25000000  0.08426900  0.04283500  1
  Ni  Ni14  1  0.75000000  0.91573100  0.95716500  1
  Ni  Ni15  1  0.75000000  0.41573100  0.54283500  1
  Cu  Cu16  1  0.49507900  0.14434900  0.15442600  1
  Cu  Cu17  1  0.49507900  0.64434900  0.34557400  1
  Cu  Cu18  1  0.99507900  0.35565100  0.65442600  1
  Cu  Cu19  1  0.00492100  0.14434900  0.15442600  1
  Cu  Cu20  1  0.50492100  0.85565100  0.84557400  1
  Cu  Cu21  1  0.50492100  0.35565100  0.65442600  1
  Cu  Cu22  1  0.00492100  0.64434900  0.34557400  1
  Cu  Cu23  1  0.99507900  0.85565100  0.84557400  1
  Cu  Cu24  1  0.75000000  0.47827600  0.08679500  1
  Cu  Cu25  1  0.25000000  0.52172400  0.91320500  1
  Cu  Cu26  1  0.75000000  0.97827600  0.41320500  1
  Cu  Cu27  1  0.25000000  0.32894900  0.42574000  1
  Cu  Cu28  1  0.75000000  0.17105100  0.92574000  1
  Cu  Cu29  1  0.25000000  0.82894900  0.07426000  1
  Cu  Cu30  1  0.75000000  0.67105100  0.57426000  1
  Cu  Cu31  1  0.25000000  0.02172400  0.58679500  1
