# generated using pymatgen
data_CuNi13C6
_symmetry_space_group_name_H-M   'P 1'
_cell_length_a   13.04773110
_cell_length_b   13.04773110
_cell_length_c   13.04773110
_cell_angle_alpha   143.94720864
_cell_angle_beta   143.94720864
_cell_angle_gamma   51.90624118
_symmetry_Int_Tables_number   1
_chemical_formula_structural   CuNi13C6
_chemical_formula_sum   'Cu2 Ni26 C12'
_cell_volume   765.05667022
_cell_formula_units_Z   2
loop_
 _symmetry_equiv_pos_site_id
 _symmetry_equiv_pos_as_xyz
  1  'x, y, z'
loop_
 _atom_site_type_symbol
 _atom_site_label
 _atom_site_symmetry_multiplicity
 _atom_site_fract_x
 _atom_site_fract_y
 _atom_site_fract_z
 _atom_site_occupancy
  C  C0  1  0.34721900  0.84721900  0.82552400  1
  C  C1  1  0.47830500  0.65278100  0.50000000  1
  C  C2  1  0.15278100  0.97830500  0.50000000  1
  C  C3  1  0.97830500  0.47830500  0.82552400  1
  C  C4  1  0.65278100  0.15278100  0.17447600  1
  C  C5  1  0.52169500  0.34721900  0.50000000  1
  C  C6  1  0.02169500  0.52169500  0.17447600  1
  C  C7  1  0.84721900  0.02169500  0.50000000  1
  C  C8  1  0.10513000  0.10513000  0.00000000  1
  C  C9  1  0.39487000  0.39487000  0.00000000  1
  C  C10  1  0.89487000  0.89487000  0.00000000  1
  C  C11  1  0.60513000  0.60513000  0.00000000  1
  Ni  Ni12  1  0.20999300  0.93347900  0.14347200  1
  Ni  Ni13  1  0.12047100  0.62047100  0.85731400  1
  Ni  Ni14  1  0.20700800  0.47964000  0.50000000  1
  Ni  Ni15  1  0.79299200  0.52036000  0.50000000  1
  Ni  Ni16  1  0.02036000  0.29299200  0.50000000  1
  Ni  Ni17  1  0.29299200  0.79299200  0.27263200  1
  Ni  Ni18  1  0.52036000  0.02036000  0.72736800  1
  Ni  Ni19  1  0.47964000  0.97964000  0.27263200  1
  Ni  Ni20  1  0.70700800  0.20700800  0.72736800  1
  Ni  Ni21  1  0.97964000  0.70700800  0.50000000  1
  Ni  Ni22  1  0.37952900  0.23684200  0.50000000  1
  Ni  Ni23  1  0.62047100  0.76315800  0.50000000  1
  Ni  Ni24  1  0.50000000  0.00000000  0.50000000  1
  Ni  Ni25  1  0.76315800  0.26315800  0.14268600  1
  Ni  Ni26  1  0.56652100  0.29000700  0.85652800  1
  Ni  Ni27  1  0.29000700  0.43347900  0.72348600  1
  Ni  Ni28  1  0.70999300  0.56652100  0.27651400  1
  Ni  Ni29  1  0.93347900  0.79000700  0.72348600  1
  Ni  Ni30  1  0.06652100  0.20999300  0.27651400  1
  Ni  Ni31  1  0.79000700  0.06652100  0.85652800  1
  Ni  Ni32  1  0.00000000  0.50000000  0.50000000  1
  Ni  Ni33  1  0.43347900  0.70999300  0.14347200  1
  Ni  Ni34  1  0.73684200  0.87952900  0.50000000  1
  Ni  Ni35  1  0.87952900  0.37952900  0.14268600  1
  Ni  Ni36  1  0.23684200  0.73684200  0.85731400  1
  Ni  Ni37  1  0.26315800  0.12047100  0.50000000  1
  Cu  Cu38  1  0.75000000  0.75000000  0.00000000  1
  Cu  Cu39  1  0.25000000  0.25000000  0.00000000  1
