# generated using pymatgen
data_Cu2Ni
_symmetry_space_group_name_H-M   'P 1'
_cell_length_a   6.15815487
_cell_length_b   6.15815487
_cell_length_c   5.67677800
_cell_angle_alpha   90.00000000
_cell_angle_beta   90.00000000
_cell_angle_gamma   125.12634772
_symmetry_Int_Tables_number   1
_chemical_formula_structural   Cu2Ni
_chemical_formula_sum   'Cu8 Ni4'
_cell_volume   176.07410101
_cell_formula_units_Z   4
loop_
 _symmetry_equiv_pos_site_id
 _symmetry_equiv_pos_as_xyz
  1  'x, y, z'
loop_
 _atom_site_type_symbol
 _atom_site_label
 _atom_site_symmetry_multiplicity
 _atom_site_fract_x
 _atom_site_fract_y
 _atom_site_fract_z
 _atom_site_occupancy
  Ni  Ni0  1  0.38319600  0.61680400  0.00000000  1
  Ni  Ni1  1  0.88319600  0.11680400  0.50000000  1
  Ni  Ni2  1  0.61680400  0.38319600  0.00000000  1
  Ni  Ni3  1  0.11680400  0.88319600  0.50000000  1
  Cu  Cu4  1  0.34113300  0.34113300  0.65883400  1
  Cu  Cu5  1  0.65886700  0.65886700  0.34116600  1
  Cu  Cu6  1  0.15886700  0.15886700  0.15883400  1
  Cu  Cu7  1  0.84113300  0.84113300  0.84116600  1
  Cu  Cu8  1  0.99897800  0.49897800  0.75000000  1
  Cu  Cu9  1  0.50102200  0.00102200  0.25000000  1
  Cu  Cu10  1  0.00102200  0.50102200  0.25000000  1
  Cu  Cu11  1  0.49897800  0.99897800  0.75000000  1
