# generated using pymatgen
data_CuNiC9
_symmetry_space_group_name_H-M   'P 1'
_cell_length_a   7.32377600
_cell_length_b   7.32377600
_cell_length_c   10.39218000
_cell_angle_alpha   90.00000000
_cell_angle_beta   90.00000000
_cell_angle_gamma   90.00000000
_symmetry_Int_Tables_number   1
_chemical_formula_structural   CuNiC9
_chemical_formula_sum   'Cu4 Ni4 C36'
_cell_volume   557.41258017
_cell_formula_units_Z   4
loop_
 _symmetry_equiv_pos_site_id
 _symmetry_equiv_pos_as_xyz
  1  'x, y, z'
loop_
 _atom_site_type_symbol
 _atom_site_label
 _atom_site_symmetry_multiplicity
 _atom_site_fract_x
 _atom_site_fract_y
 _atom_site_fract_z
 _atom_site_occupancy
  C  C0  1  0.00000000  0.73561300  0.00000000  1
  C  C1  1  0.00000000  0.26438700  0.50000000  1
  C  C2  1  0.26438700  0.00000000  0.25000000  1
  C  C3  1  0.73561300  0.00000000  0.75000000  1
  Ni  Ni4  1  0.76243700  0.00000000  0.25000000  1
  Ni  Ni5  1  0.00000000  0.76243700  0.50000000  1
  Ni  Ni6  1  0.23756300  0.00000000  0.75000000  1
  Ni  Ni7  1  0.00000000  0.23756300  0.00000000  1
  Cu  Cu8  1  0.50000000  0.74207900  0.00000000  1
  Cu  Cu9  1  0.25792100  0.50000000  0.25000000  1
  Cu  Cu10  1  0.50000000  0.25792100  0.50000000  1
  Cu  Cu11  1  0.74207900  0.50000000  0.75000000  1
  C  C12  1  0.24440000  0.50000000  0.75000000  1
  C  C13  1  0.50000000  0.75560000  0.50000000  1
  C  C14  1  0.50000000  0.24440000  0.00000000  1
  C  C15  1  0.75560000  0.50000000  0.25000000  1
  C  C16  1  0.25286900  0.74713100  0.12500000  1
  C  C17  1  0.55141600  0.94639500  0.36818300  1
  C  C18  1  0.76513100  0.75073900  0.17652300  1
  C  C19  1  0.74713100  0.25286900  0.62500000  1
  C  C20  1  0.95187200  0.95187200  0.37500000  1
  C  C21  1  0.04812800  0.04812800  0.87500000  1
  C  C22  1  0.05360500  0.44858400  0.88181700  1
  C  C23  1  0.04812800  0.95187200  0.62500000  1
  C  C24  1  0.24926100  0.23486900  0.07347700  1
  C  C25  1  0.23486900  0.24926100  0.67652300  1
  C  C26  1  0.24926100  0.76513100  0.42652300  1
  C  C27  1  0.44858400  0.94639500  0.63181700  1
  C  C28  1  0.44858400  0.05360500  0.86818300  1
  C  C29  1  0.45048400  0.45048400  0.87500000  1
  C  C30  1  0.54951600  0.54951600  0.37500000  1
  C  C31  1  0.55141600  0.05360500  0.13181700  1
  C  C32  1  0.54951600  0.45048400  0.12500000  1
  C  C33  1  0.75073900  0.76513100  0.57347700  1
  C  C34  1  0.76513100  0.24926100  0.32347700  1
  C  C35  1  0.74713100  0.74713100  0.87500000  1
  C  C36  1  0.75073900  0.23486900  0.92652300  1
  C  C37  1  0.94639500  0.55141600  0.38181700  1
  C  C38  1  0.95187200  0.04812800  0.12500000  1
  C  C39  1  0.94639500  0.44858400  0.11818300  1
  C  C40  1  0.05360500  0.55141600  0.61818300  1
  C  C41  1  0.23486900  0.75073900  0.82347700  1
  C  C42  1  0.25286900  0.25286900  0.37500000  1
  C  C43  1  0.45048400  0.54951600  0.62500000  1
