# generated using pymatgen
data_CuNiC3
_symmetry_space_group_name_H-M   'P 1'
_cell_length_a   5.45367000
_cell_length_b   5.74784200
_cell_length_c   7.98824700
_cell_angle_alpha   90.00000000
_cell_angle_beta   90.00000000
_cell_angle_gamma   90.00000000
_symmetry_Int_Tables_number   1
_chemical_formula_structural   CuNiC3
_chemical_formula_sum   'Cu4 Ni4 C12'
_cell_volume   250.40624851
_cell_formula_units_Z   4
loop_
 _symmetry_equiv_pos_site_id
 _symmetry_equiv_pos_as_xyz
  1  'x, y, z'
loop_
 _atom_site_type_symbol
 _atom_site_label
 _atom_site_symmetry_multiplicity
 _atom_site_fract_x
 _atom_site_fract_y
 _atom_site_fract_z
 _atom_site_occupancy
  Ni  Ni0  1  0.97988200  0.06215300  0.75000000  1
  Ni  Ni1  1  0.47988200  0.43784700  0.25000000  1
  Ni  Ni2  1  0.52011800  0.56215300  0.75000000  1
  Ni  Ni3  1  0.02011800  0.93784700  0.25000000  1
  Cu  Cu4  1  0.00000000  0.50000000  0.50000000  1
  Cu  Cu5  1  0.50000000  0.00000000  0.50000000  1
  Cu  Cu6  1  0.50000000  0.00000000  0.00000000  1
  Cu  Cu7  1  0.00000000  0.50000000  0.00000000  1
  C  C8  1  0.69105300  0.30636300  0.56838700  1
  C  C9  1  0.19105300  0.19363700  0.43161300  1
  C  C10  1  0.80894700  0.80636300  0.93161300  1
  C  C11  1  0.30894700  0.69363700  0.06838700  1
  C  C12  1  0.30894700  0.69363700  0.43161300  1
  C  C13  1  0.80894700  0.80636300  0.56838700  1
  C  C14  1  0.19105300  0.19363700  0.06838700  1
  C  C15  1  0.69105300  0.30636300  0.93161300  1
  C  C16  1  0.86930100  0.55737500  0.25000000  1
  C  C17  1  0.36930100  0.94262500  0.75000000  1
  C  C18  1  0.63069900  0.05737500  0.25000000  1
  C  C19  1  0.13069900  0.44262500  0.75000000  1
