# generated using pymatgen
data_Cu2NiC4
_symmetry_space_group_name_H-M   'P 1'
_cell_length_a   3.48678200
_cell_length_b   10.25197600
_cell_length_c   12.15045900
_cell_angle_alpha   90.00000000
_cell_angle_beta   90.00000000
_cell_angle_gamma   90.00000000
_symmetry_Int_Tables_number   1
_chemical_formula_structural   Cu2NiC4
_chemical_formula_sum   'Cu8 Ni4 C16'
_cell_volume   434.33523298
_cell_formula_units_Z   4
loop_
 _symmetry_equiv_pos_site_id
 _symmetry_equiv_pos_as_xyz
  1  'x, y, z'
loop_
 _atom_site_type_symbol
 _atom_site_label
 _atom_site_symmetry_multiplicity
 _atom_site_fract_x
 _atom_site_fract_y
 _atom_site_fract_z
 _atom_site_occupancy
  Ni  Ni0  1  0.75000000  0.74734800  0.14827600  1
  Ni  Ni1  1  0.25000000  0.25265200  0.85172400  1
  Ni  Ni2  1  0.75000000  0.24734800  0.35172400  1
  Ni  Ni3  1  0.25000000  0.75265200  0.64827600  1
  Cu  Cu4  1  0.25000000  0.42373400  0.11171300  1
  Cu  Cu5  1  0.75000000  0.57626600  0.88828700  1
  Cu  Cu6  1  0.25000000  0.92373400  0.38828700  1
  Cu  Cu7  1  0.75000000  0.07626600  0.61171300  1
  Cu  Cu8  1  0.75000000  0.07928800  0.11205100  1
  Cu  Cu9  1  0.25000000  0.92071200  0.88794900  1
  Cu  Cu10  1  0.75000000  0.57928800  0.38794900  1
  Cu  Cu11  1  0.25000000  0.42071200  0.61205100  1
  C  C12  1  0.25000000  0.42568200  0.42157200  1
  C  C13  1  0.75000000  0.57431800  0.57842800  1
  C  C14  1  0.25000000  0.92568200  0.07842800  1
  C  C15  1  0.75000000  0.07431800  0.92157200  1
  C  C16  1  0.25000000  0.51189700  0.78423400  1
  C  C17  1  0.75000000  0.48810300  0.21576600  1
  C  C18  1  0.25000000  0.01189700  0.71576600  1
  C  C19  1  0.75000000  0.98810300  0.28423400  1
  C  C20  1  0.25000000  0.12799800  0.47988700  1
  C  C21  1  0.75000000  0.87200200  0.52011300  1
  C  C22  1  0.25000000  0.62799800  0.02011300  1
  C  C23  1  0.75000000  0.37200200  0.97988700  1
  C  C24  1  0.75000000  0.28725200  0.67879700  1
  C  C25  1  0.25000000  0.71274800  0.32120300  1
  C  C26  1  0.75000000  0.78725200  0.82120300  1
  C  C27  1  0.25000000  0.21274800  0.17879700  1
