# generated using pymatgen
data_CuNiC4
_symmetry_space_group_name_H-M   'P 1'
_cell_length_a   6.57882284
_cell_length_b   6.57882284
_cell_length_c   6.57882284
_cell_angle_alpha   132.93477717
_cell_angle_beta   132.93477717
_cell_angle_gamma   68.75659490
_symmetry_Int_Tables_number   1
_chemical_formula_structural   CuNiC4
_chemical_formula_sum   'Cu2 Ni2 C8'
_cell_volume   149.85330537
_cell_formula_units_Z   2
loop_
 _symmetry_equiv_pos_site_id
 _symmetry_equiv_pos_as_xyz
  1  'x, y, z'
loop_
 _atom_site_type_symbol
 _atom_site_label
 _atom_site_symmetry_multiplicity
 _atom_site_fract_x
 _atom_site_fract_y
 _atom_site_fract_z
 _atom_site_occupancy
  Ni  Ni0  1  0.25000000  0.75000000  0.50000000  1
  Ni  Ni1  1  0.50000000  0.50000000  0.00000000  1
  Cu  Cu2  1  0.00000000  0.00000000  0.00000000  1
  Cu  Cu3  1  0.75000000  0.25000000  0.50000000  1
  C  C4  1  0.13651200  0.25252900  0.55140900  1
  C  C5  1  0.33510200  0.38651200  0.38398300  1
  C  C6  1  0.04888000  0.66489800  0.05140900  1
  C  C7  1  0.74747100  0.29888000  0.88398300  1
  C  C8  1  0.41489800  0.86348800  0.11601700  1
  C  C9  1  0.61348800  0.99747100  0.94859100  1
  C  C10  1  0.70112000  0.58510200  0.44859100  1
  C  C11  1  0.00252900  0.95112000  0.61601700  1
