# generated using pymatgen
data_Cu10(Ni3C8)3
_symmetry_space_group_name_H-M   'P 1'
_cell_length_a   6.00033978
_cell_length_b   6.00033978
_cell_length_c   15.30335820
_cell_angle_alpha   89.51299390
_cell_angle_beta   89.51299390
_cell_angle_gamma   59.88025258
_symmetry_Int_Tables_number   1
_chemical_formula_structural   Cu10(Ni3C8)3
_chemical_formula_sum   'Cu10 Ni9 C24'
_cell_volume   476.56578685
_cell_formula_units_Z   1
loop_
 _symmetry_equiv_pos_site_id
 _symmetry_equiv_pos_as_xyz
  1  'x, y, z'
loop_
 _atom_site_type_symbol
 _atom_site_label
 _atom_site_symmetry_multiplicity
 _atom_site_fract_x
 _atom_site_fract_y
 _atom_site_fract_z
 _atom_site_occupancy
  Ni  Ni0  1  0.33441100  0.33441100  0.20019800  1
  Ni  Ni1  1  0.66670600  0.66670600  0.54233900  1
  Ni  Ni2  1  0.00474500  0.00474500  0.84729800  1
  Ni  Ni3  1  0.33329400  0.33329400  0.45766100  1
  Ni  Ni4  1  0.00000000  0.00000000  0.00000000  1
  Ni  Ni5  1  0.00000000  0.50000000  0.00000000  1
  Ni  Ni6  1  0.66558900  0.66558900  0.79980200  1
  Ni  Ni7  1  0.50000000  0.00000000  0.00000000  1
  Ni  Ni8  1  0.99525500  0.99525500  0.15270200  1
  Cu  Cu9  1  0.33925900  0.83192800  0.33686200  1
  Cu  Cu10  1  0.83192800  0.33925900  0.33686200  1
  Cu  Cu11  1  0.00000000  0.00000000  0.50000000  1
  Cu  Cu12  1  0.66074100  0.16807200  0.66313800  1
  Cu  Cu13  1  0.83130100  0.83130100  0.33747900  1
  Cu  Cu14  1  0.16807200  0.66074100  0.66313800  1
  Cu  Cu15  1  0.33160200  0.33160200  0.83516400  1
  Cu  Cu16  1  0.16869900  0.16869900  0.66252100  1
  Cu  Cu17  1  0.66839800  0.66839800  0.16483600  1
  Cu  Cu18  1  0.50000000  0.50000000  0.00000000  1
  C  C19  1  0.97357000  0.51402700  0.25342800  1
  C  C20  1  0.51402700  0.97357000  0.25342800  1
  C  C21  1  0.66675300  0.66675300  0.40849800  1
  C  C22  1  0.51473700  0.51473700  0.25280900  1
  C  C23  1  0.15452300  0.15452300  0.41569500  1
  C  C24  1  0.30620000  0.84626400  0.58366500  1
  C  C25  1  0.15373600  0.69380000  0.41633500  1
  C  C26  1  0.84626400  0.30620000  0.58366500  1
  C  C27  1  0.00101500  0.00101500  0.27406700  1
  C  C28  1  0.99898500  0.99898500  0.72593300  1
  C  C29  1  0.84547700  0.84547700  0.58430500  1
  C  C30  1  0.69380000  0.15373600  0.41633500  1
  C  C31  1  0.48526300  0.48526300  0.74719100  1
  C  C32  1  0.66908300  0.16956600  0.91876700  1
  C  C33  1  0.48597300  0.02643000  0.74657200  1
  C  C34  1  0.33324700  0.33324700  0.59150200  1
  C  C35  1  0.33811800  0.33811800  0.06961000  1
  C  C36  1  0.16956600  0.66908300  0.91876700  1
  C  C37  1  0.17017700  0.17017700  0.91586000  1
  C  C38  1  0.02643000  0.48597300  0.74657200  1
  C  C39  1  0.82982300  0.82982300  0.08414000  1
  C  C40  1  0.83043400  0.33091700  0.08123300  1
  C  C41  1  0.66188200  0.66188200  0.93039000  1
  C  C42  1  0.33091700  0.83043400  0.08123300  1
