# generated using pymatgen
data_Cu(NiC2)2
_symmetry_space_group_name_H-M   'P 1'
_cell_length_a   5.86275732
_cell_length_b   5.97702936
_cell_length_c   8.33097924
_cell_angle_alpha   90.00026607
_cell_angle_beta   90.00002923
_cell_angle_gamma   90.00000214
_symmetry_Int_Tables_number   1
_chemical_formula_structural   Cu(NiC2)2
_chemical_formula_sum   'Cu4 Ni8 C16'
_cell_volume   291.93311344
_cell_formula_units_Z   4
loop_
 _symmetry_equiv_pos_site_id
 _symmetry_equiv_pos_as_xyz
  1  'x, y, z'
loop_
 _atom_site_type_symbol
 _atom_site_label
 _atom_site_symmetry_multiplicity
 _atom_site_fract_x
 _atom_site_fract_y
 _atom_site_fract_z
 _atom_site_occupancy
  Ni  Ni0  1  0.00000000  0.00000000  0.99228100  1
  Ni  Ni1  1  0.50000000  0.50000000  0.49228100  1
  Ni  Ni2  1  0.00000000  0.50000000  0.25771900  1
  Ni  Ni3  1  0.50000000  0.00000000  0.75771900  1
  Ni  Ni4  1  0.00000000  0.75000200  0.62500000  1
  Ni  Ni5  1  0.50000000  0.24999800  0.12500000  1
  Ni  Ni6  1  0.00000000  0.24999800  0.62500000  1
  Ni  Ni7  1  0.50000000  0.75000200  0.12500000  1
  Cu  Cu8  1  0.75000000  0.50000000  0.87500000  1
  Cu  Cu9  1  0.25000000  0.50000000  0.87500000  1
  Cu  Cu10  1  0.25000000  0.00000000  0.37500000  1
  Cu  Cu11  1  0.75000000  0.00000000  0.37500000  1
  C  C12  1  0.00000000  0.75789100  0.38692600  1
  C  C13  1  0.50000000  0.25789500  0.88692500  1
  C  C14  1  0.00000000  0.24210900  0.38692600  1
  C  C15  1  0.50000000  0.74210500  0.88692400  1
  C  C16  1  0.00000000  0.25789500  0.86307600  1
  C  C17  1  0.50000000  0.75789100  0.36307400  1
  C  C18  1  0.00000000  0.74210600  0.86307600  1
  C  C19  1  0.50000000  0.24210900  0.36307400  1
  C  C20  1  0.23511700  0.00000000  0.62379900  1
  C  C21  1  0.73511400  0.50000000  0.12379700  1
  C  C22  1  0.76488400  0.00000000  0.62379900  1
  C  C23  1  0.26488600  0.50000000  0.12379600  1
  C  C24  1  0.23511400  0.50000000  0.62620400  1
  C  C25  1  0.73511600  0.00000000  0.12620100  1
  C  C26  1  0.76488600  0.50000000  0.62620300  1
  C  C27  1  0.26488300  0.00000000  0.12620100  1
