# generated using pymatgen
data_CuNiC6
_symmetry_space_group_name_H-M   'P 1'
_cell_length_a   6.04769224
_cell_length_b   6.04769224
_cell_length_c   6.04769216
_cell_angle_alpha   55.42593412
_cell_angle_beta   55.42593412
_cell_angle_gamma   55.42592559
_symmetry_Int_Tables_number   1
_chemical_formula_structural   CuNiC6
_chemical_formula_sum   'Cu1 Ni1 C6'
_cell_volume   139.79035087
_cell_formula_units_Z   1
loop_
 _symmetry_equiv_pos_site_id
 _symmetry_equiv_pos_as_xyz
  1  'x, y, z'
loop_
 _atom_site_type_symbol
 _atom_site_label
 _atom_site_symmetry_multiplicity
 _atom_site_fract_x
 _atom_site_fract_y
 _atom_site_fract_z
 _atom_site_occupancy
  Ni  Ni0  1  0.00000000  0.00000000  0.00000000  1
  Cu  Cu1  1  0.50000000  0.50000000  0.50000000  1
  C  C2  1  0.23298100  0.88745200  0.65309300  1
  C  C3  1  0.88745200  0.65309300  0.23298100  1
  C  C4  1  0.65309300  0.23298100  0.88745200  1
  C  C5  1  0.34690700  0.76701900  0.11254800  1
  C  C6  1  0.11254800  0.34690700  0.76701900  1
  C  C7  1  0.76701900  0.11254800  0.34690700  1
