# generated using pymatgen
data_Cu6NiC
_symmetry_space_group_name_H-M   'P 1'
_cell_length_a   8.40971170
_cell_length_b   8.40971170
_cell_length_c   10.37134883
_cell_angle_alpha   59.93382104
_cell_angle_beta   59.93382104
_cell_angle_gamma   68.02273087
_symmetry_Int_Tables_number   1
_chemical_formula_structural   Cu6NiC
_chemical_formula_sum   'Cu36 Ni6 C6'
_cell_volume   541.89981500
_cell_formula_units_Z   6
loop_
 _symmetry_equiv_pos_site_id
 _symmetry_equiv_pos_as_xyz
  1  'x, y, z'
loop_
 _atom_site_type_symbol
 _atom_site_label
 _atom_site_symmetry_multiplicity
 _atom_site_fract_x
 _atom_site_fract_y
 _atom_site_fract_z
 _atom_site_occupancy
  C  C0  1  0.67777700  0.32222300  0.25000000  1
  C  C1  1  0.32222300  0.67777700  0.75000000  1
  C  C2  1  0.69953500  0.91981700  0.79053200  1
  C  C3  1  0.08018300  0.30046500  0.70946800  1
  C  C4  1  0.30046500  0.08018300  0.20946800  1
  C  C5  1  0.91981700  0.69953500  0.29053200  1
  Ni  Ni6  1  0.84201100  0.15798900  0.75000000  1
  Ni  Ni7  1  0.15798900  0.84201100  0.25000000  1
  Ni  Ni8  1  0.71609200  0.59135600  0.98930300  1
  Ni  Ni9  1  0.40864400  0.28390800  0.51069700  1
  Ni  Ni10  1  0.28390800  0.40864400  0.01069700  1
  Ni  Ni11  1  0.59135600  0.71609200  0.48930300  1
  Cu  Cu12  1  0.84215200  0.99001000  0.84375700  1
  Cu  Cu13  1  0.00999000  0.15784800  0.65624300  1
  Cu  Cu14  1  0.15784800  0.00999000  0.15624300  1
  Cu  Cu15  1  0.99001000  0.84215200  0.34375700  1
  Cu  Cu16  1  0.75827400  0.22006100  0.66277400  1
  Cu  Cu17  1  0.77993900  0.24172600  0.83722600  1
  Cu  Cu18  1  0.24172600  0.77993900  0.33722600  1
  Cu  Cu19  1  0.22006100  0.75827400  0.16277400  1
  Cu  Cu20  1  0.58805900  0.56334700  0.12750500  1
  Cu  Cu21  1  0.43665300  0.41194100  0.37249500  1
  Cu  Cu22  1  0.41194100  0.43665300  0.87249500  1
  Cu  Cu23  1  0.56334700  0.58805900  0.62750500  1
  Cu  Cu24  1  0.88296100  0.83459300  0.13602200  1
  Cu  Cu25  1  0.16540700  0.11703900  0.36397800  1
  Cu  Cu26  1  0.11703900  0.16540700  0.86397800  1
  Cu  Cu27  1  0.83459300  0.88296100  0.63602200  1
  Cu  Cu28  1  0.99181500  0.49387800  0.37455200  1
  Cu  Cu29  1  0.50612200  0.00818500  0.12544800  1
  Cu  Cu30  1  0.00818500  0.50612200  0.62544800  1
  Cu  Cu31  1  0.49387800  0.99181500  0.87455200  1
  Cu  Cu32  1  0.18549700  0.65590300  0.70448300  1
  Cu  Cu33  1  0.34409700  0.81450300  0.79551700  1
  Cu  Cu34  1  0.81450300  0.34409700  0.29551700  1
  Cu  Cu35  1  0.65590300  0.18549700  0.20448300  1
  Cu  Cu36  1  0.47176900  0.85375000  0.47790300  1
  Cu  Cu37  1  0.14625000  0.52823100  0.02209700  1
  Cu  Cu38  1  0.52823100  0.14625000  0.52209700  1
  Cu  Cu39  1  0.85375000  0.47176900  0.97790300  1
  Cu  Cu40  1  0.61697100  0.64321200  0.40342600  1
  Cu  Cu41  1  0.35678800  0.38302900  0.09657400  1
  Cu  Cu42  1  0.38302900  0.35678800  0.59657400  1
  Cu  Cu43  1  0.64321200  0.61697100  0.90342600  1
  Cu  Cu44  1  0.72776700  0.76853700  0.46582000  1
  Cu  Cu45  1  0.23146300  0.27223300  0.03418000  1
  Cu  Cu46  1  0.27223300  0.23146300  0.53418000  1
  Cu  Cu47  1  0.76853700  0.72776700  0.96582000  1
