# generated using pymatgen
data_Cu5NiC8
_symmetry_space_group_name_H-M   'P 1'
_cell_length_a   19.67596600
_cell_length_b   8.56401500
_cell_length_c   12.53067115
_cell_angle_alpha   47.14016187
_cell_angle_beta   90.00000000
_cell_angle_gamma   90.00000000
_symmetry_Int_Tables_number   1
_chemical_formula_structural   Cu5NiC8
_chemical_formula_sum   'Cu20 Ni4 C32'
_cell_volume   1547.75981096
_cell_formula_units_Z   4
loop_
 _symmetry_equiv_pos_site_id
 _symmetry_equiv_pos_as_xyz
  1  'x, y, z'
loop_
 _atom_site_type_symbol
 _atom_site_label
 _atom_site_symmetry_multiplicity
 _atom_site_fract_x
 _atom_site_fract_y
 _atom_site_fract_z
 _atom_site_occupancy
  Ni  Ni0  1  0.45081000  0.00929900  0.99839100  1
  Ni  Ni1  1  0.54919000  0.00929900  0.49839100  1
  Ni  Ni2  1  0.05214300  0.08146300  0.72694600  1
  Ni  Ni3  1  0.94785700  0.08146300  0.22694600  1
  Cu  Cu4  1  0.28616500  0.21511300  0.54404600  1
  Cu  Cu5  1  0.71383500  0.21511300  0.04404600  1
  Cu  Cu6  1  0.45806800  0.58225300  0.44702000  1
  Cu  Cu7  1  0.54193200  0.58225300  0.94702000  1
  Cu  Cu8  1  0.21520200  0.38780500  0.73506400  1
  Cu  Cu9  1  0.78479800  0.38780500  0.23506400  1
  Cu  Cu10  1  0.26449900  0.81290800  0.98440900  1
  Cu  Cu11  1  0.73550100  0.81290800  0.48440900  1
  Cu  Cu12  1  0.36904500  0.64301000  0.79095400  1
  Cu  Cu13  1  0.63095500  0.64301000  0.29095400  1
  Cu  Cu14  1  0.12933400  0.01398500  0.46321600  1
  Cu  Cu15  1  0.87066600  0.01398500  0.96321600  1
  Cu  Cu16  1  0.04377100  0.57996900  0.19173100  1
  Cu  Cu17  1  0.95622900  0.57996900  0.69173100  1
  Cu  Cu18  1  0.15402200  0.40483200  0.02912600  1
  Cu  Cu19  1  0.84597800  0.40483200  0.52912600  1
  Cu  Cu20  1  0.22942600  0.80347000  0.29203500  1
  Cu  Cu21  1  0.77057400  0.80347000  0.79203500  1
  Cu  Cu22  1  0.35031300  0.15783800  0.26532700  1
  Cu  Cu23  1  0.64968700  0.15783800  0.76532700  1
  C  C24  1  0.27751300  0.82725400  0.46381700  1
  C  C25  1  0.72248700  0.82725400  0.96381700  1
  C  C26  1  0.22904800  0.78172800  0.81242900  1
  C  C27  1  0.77095200  0.78172800  0.31242900  1
  C  C28  1  0.19768800  0.44608900  0.19470200  1
  C  C29  1  0.80231200  0.44608900  0.69470200  1
  C  C30  1  0.40440100  0.60694300  0.99517100  1
  C  C31  1  0.59559900  0.60694300  0.49517100  1
  C  C32  1  0.49247600  0.54774700  0.78168000  1
  C  C33  1  0.50752400  0.54774700  0.28168000  1
  C  C34  1  0.01703800  0.19873500  0.41268600  1
  C  C35  1  0.98296200  0.19873500  0.91268600  1
  C  C36  1  0.08359100  0.65047900  0.68332700  1
  C  C37  1  0.91640900  0.65047900  0.18332700  1
  C  C38  1  0.03702800  0.56255400  0.00425900  1
  C  C39  1  0.96297200  0.56255400  0.50425900  1
  C  C40  1  0.29222400  0.17124700  0.08359900  1
  C  C41  1  0.70777600  0.17124700  0.58359900  1
  C  C42  1  0.11182500  0.00748700  0.27031500  1
  C  C43  1  0.88817500  0.00748700  0.77031500  1
  C  C44  1  0.16783600  0.42911600  0.53664400  1
  C  C45  1  0.83216400  0.42911600  0.03664400  1
  C  C46  1  0.34075400  0.57328000  0.33392900  1
  C  C47  1  0.65924600  0.57328000  0.83392900  1
  C  C48  1  0.45959000  0.98094400  0.28553300  1
  C  C49  1  0.54041000  0.98094400  0.78553300  1
  C  C50  1  0.32342400  0.21551900  0.73698800  1
  C  C51  1  0.67657600  0.21551900  0.23698800  1
  C  C52  1  0.39768900  0.02628000  0.58116900  1
  C  C53  1  0.60231100  0.02628000  0.08116900  1
  C  C54  1  0.16293700  0.02975200  0.94778700  1
  C  C55  1  0.83706300  0.02975200  0.44778700  1
