# generated using pymatgen
data_Cu7NiC12
_symmetry_space_group_name_H-M   'P 1'
_cell_length_a   11.35040177
_cell_length_b   11.35040177
_cell_length_c   11.35040177
_cell_angle_alpha   114.84205682
_cell_angle_beta   114.84205682
_cell_angle_gamma   99.19316277
_symmetry_Int_Tables_number   1
_chemical_formula_structural   Cu7NiC12
_chemical_formula_sum   'Cu14 Ni2 C24'
_cell_volume   1099.23083218
_cell_formula_units_Z   2
loop_
 _symmetry_equiv_pos_site_id
 _symmetry_equiv_pos_as_xyz
  1  'x, y, z'
loop_
 _atom_site_type_symbol
 _atom_site_label
 _atom_site_symmetry_multiplicity
 _atom_site_fract_x
 _atom_site_fract_y
 _atom_site_fract_z
 _atom_site_occupancy
  C  C0  1  0.85018800  0.56925800  0.13405200  1
  C  C1  1  0.56479400  0.28386400  0.13405200  1
  C  C2  1  0.14981200  0.43074200  0.86594800  1
  C  C3  1  0.93520600  0.06925800  0.71907000  1
  C  C4  1  0.28386400  0.14981200  0.71907000  1
  C  C5  1  0.43074200  0.56479400  0.28093000  1
  C  C6  1  0.64981200  0.78386400  0.71907000  1
  C  C7  1  0.78386400  0.06479400  0.13405200  1
  C  C8  1  0.93074200  0.64981200  0.86594800  1
  C  C9  1  0.43520600  0.71613600  0.86594800  1
  C  C10  1  0.67497700  0.17497700  0.84995400  1
  C  C11  1  0.06479400  0.93074200  0.28093000  1
  C  C12  1  0.71613600  0.85018800  0.28093000  1
  C  C13  1  0.56925800  0.43520600  0.71907000  1
  C  C14  1  0.63592900  0.13592900  0.50000000  1
  C  C15  1  0.13592900  0.63592900  0.50000000  1
  C  C16  1  0.86407100  0.36407100  0.50000000  1
  C  C17  1  0.36407100  0.86407100  0.50000000  1
  C  C18  1  0.17497700  0.32502300  0.50000000  1
  C  C19  1  0.21613600  0.93520600  0.86594800  1
  C  C20  1  0.82502300  0.67497700  0.50000000  1
  C  C21  1  0.32502300  0.82502300  0.15004600  1
  C  C22  1  0.35018800  0.21613600  0.28093000  1
  C  C23  1  0.06925800  0.35018800  0.13405200  1
  Ni  Ni24  1  0.50000000  0.50000000  0.00000000  1
  Ni  Ni25  1  0.00000000  0.00000000  0.00000000  1
  Cu  Cu26  1  0.02070000  0.87003700  0.50000000  1
  Cu  Cu27  1  0.97930000  0.12996300  0.50000000  1
  Cu  Cu28  1  0.62996300  0.47930000  0.50000000  1
  Cu  Cu29  1  0.52070000  0.02070000  0.15066300  1
  Cu  Cu30  1  0.12996300  0.62996300  0.15066300  1
  Cu  Cu31  1  0.47930000  0.97930000  0.84933700  1
  Cu  Cu32  1  0.12560000  0.62560000  0.75120100  1
  Cu  Cu33  1  0.62560000  0.87440000  0.50000000  1
  Cu  Cu34  1  0.37440000  0.12560000  0.50000000  1
  Cu  Cu35  1  0.87440000  0.37440000  0.24879900  1
  Cu  Cu36  1  0.25000000  0.25000000  0.00000000  1
  Cu  Cu37  1  0.75000000  0.75000000  0.00000000  1
  Cu  Cu38  1  0.37003700  0.52070000  0.50000000  1
  Cu  Cu39  1  0.87003700  0.37003700  0.84933700  1
