# generated using pymatgen
data_CuNiC4
_symmetry_space_group_name_H-M   'P 1'
_cell_length_a   7.53639200
_cell_length_b   4.45460000
_cell_length_c   8.21256958
_cell_angle_alpha   86.54098197
_cell_angle_beta   90.00000000
_cell_angle_gamma   90.00000000
_symmetry_Int_Tables_number   1
_chemical_formula_structural   CuNiC4
_chemical_formula_sum   'Cu2 Ni2 C8'
_cell_volume   275.20691349
_cell_formula_units_Z   2
loop_
 _symmetry_equiv_pos_site_id
 _symmetry_equiv_pos_as_xyz
  1  'x, y, z'
loop_
 _atom_site_type_symbol
 _atom_site_label
 _atom_site_symmetry_multiplicity
 _atom_site_fract_x
 _atom_site_fract_y
 _atom_site_fract_z
 _atom_site_occupancy
  Ni  Ni0  1  0.25000000  0.97023900  0.65914000  1
  Ni  Ni1  1  0.75000000  0.02976100  0.34086000  1
  Cu  Cu2  1  0.50000000  0.50000000  0.00000000  1
  Cu  Cu3  1  0.00000000  0.50000000  0.00000000  1
  C  C4  1  0.00276300  0.59606100  0.69362700  1
  C  C5  1  0.50276300  0.40393900  0.30637300  1
  C  C6  1  0.99723700  0.40393900  0.30637300  1
  C  C7  1  0.49723700  0.59606100  0.69362700  1
  C  C8  1  0.75000000  0.92971900  0.63334600  1
  C  C9  1  0.25000000  0.07028100  0.36665400  1
  C  C10  1  0.75000000  0.85252300  0.06694000  1
  C  C11  1  0.25000000  0.14747700  0.93306000  1
