# generated using pymatgen
data_Cu5Ni
_symmetry_space_group_name_H-M   'P 1'
_cell_length_a   5.73343070
_cell_length_b   5.73343070
_cell_length_c   5.73343065
_cell_angle_alpha   53.97657159
_cell_angle_beta   53.97657159
_cell_angle_gamma   53.97658130
_symmetry_Int_Tables_number   1
_chemical_formula_structural   Cu5Ni
_chemical_formula_sum   'Cu5 Ni1'
_cell_volume   114.51733803
_cell_formula_units_Z   1
loop_
 _symmetry_equiv_pos_site_id
 _symmetry_equiv_pos_as_xyz
  1  'x, y, z'
loop_
 _atom_site_type_symbol
 _atom_site_label
 _atom_site_symmetry_multiplicity
 _atom_site_fract_x
 _atom_site_fract_y
 _atom_site_fract_z
 _atom_site_occupancy
  Ni  Ni0  1  0.00000000  0.00000000  0.00000000  1
  Cu  Cu1  1  0.67004500  0.67004500  0.67004500  1
  Cu  Cu2  1  0.17246800  0.50000000  0.82753200  1
  Cu  Cu3  1  0.50000000  0.82753200  0.17246800  1
  Cu  Cu4  1  0.82753200  0.17246800  0.50000000  1
  Cu  Cu5  1  0.32995500  0.32995500  0.32995500  1
