# generated using pymatgen
data_Cu4NiC3
_symmetry_space_group_name_H-M   'P 1'
_cell_length_a   9.53779700
_cell_length_b   9.86840000
_cell_length_c   11.04716400
_cell_angle_alpha   90.00000000
_cell_angle_beta   90.00000000
_cell_angle_gamma   90.00000000
_symmetry_Int_Tables_number   1
_chemical_formula_structural   Cu4NiC3
_chemical_formula_sum   'Cu16 Ni4 C12'
_cell_volume   1039.78996261
_cell_formula_units_Z   4
loop_
 _symmetry_equiv_pos_site_id
 _symmetry_equiv_pos_as_xyz
  1  'x, y, z'
loop_
 _atom_site_type_symbol
 _atom_site_label
 _atom_site_symmetry_multiplicity
 _atom_site_fract_x
 _atom_site_fract_y
 _atom_site_fract_z
 _atom_site_occupancy
  C  C0  1  0.44063100  0.30293600  0.04586300  1
  C  C1  1  0.05936900  0.80293600  0.54586300  1
  C  C2  1  0.94063100  0.19706400  0.04586300  1
  C  C3  1  0.55936900  0.69706400  0.95413700  1
  C  C4  1  0.44063100  0.30293600  0.45413700  1
  C  C5  1  0.55936900  0.69706400  0.54586300  1
  C  C6  1  0.05936900  0.80293600  0.95413700  1
  C  C7  1  0.94063100  0.19706400  0.45413700  1
  C  C8  1  0.86148300  0.41755700  0.75000000  1
  C  C9  1  0.36148300  0.08244300  0.75000000  1
  C  C10  1  0.63851700  0.91755700  0.25000000  1
  C  C11  1  0.13851700  0.58244300  0.25000000  1
  Ni  Ni12  1  0.27565700  0.52205900  0.75000000  1
  Ni  Ni13  1  0.72434300  0.47794100  0.25000000  1
  Ni  Ni14  1  0.22434300  0.02205900  0.25000000  1
  Ni  Ni15  1  0.77565700  0.97794100  0.75000000  1
  Cu  Cu16  1  0.31240800  0.74521000  0.75000000  1
  Cu  Cu17  1  0.81240800  0.75479000  0.75000000  1
  Cu  Cu18  1  0.18759200  0.24521000  0.25000000  1
  Cu  Cu19  1  0.68759200  0.25479000  0.25000000  1
  Cu  Cu20  1  0.48235700  0.41276500  0.75000000  1
  Cu  Cu21  1  0.98235700  0.08723500  0.75000000  1
  Cu  Cu22  1  0.01764300  0.91276500  0.25000000  1
  Cu  Cu23  1  0.51764300  0.58723500  0.25000000  1
  Cu  Cu24  1  0.84328600  0.53245300  0.08273800  1
  Cu  Cu25  1  0.34328600  0.96754700  0.41726200  1
  Cu  Cu26  1  0.65671400  0.03245300  0.91726200  1
  Cu  Cu27  1  0.15671400  0.46754700  0.58273800  1
  Cu  Cu28  1  0.15671400  0.46754700  0.91726200  1
  Cu  Cu29  1  0.65671400  0.03245300  0.58273800  1
  Cu  Cu30  1  0.34328600  0.96754700  0.08273800  1
  Cu  Cu31  1  0.84328600  0.53245300  0.41726200  1
