# generated using pymatgen
data_Cu(NiC2)2
_symmetry_space_group_name_H-M   'P 1'
_cell_length_a   6.86469496
_cell_length_b   6.86469496
_cell_length_c   6.86469496
_cell_angle_alpha   129.27737552
_cell_angle_beta   129.27737552
_cell_angle_gamma   74.56467243
_symmetry_Int_Tables_number   1
_chemical_formula_structural   Cu(NiC2)2
_chemical_formula_sum   'Cu1 Ni2 C4'
_cell_volume   188.88540235
_cell_formula_units_Z   1
loop_
 _symmetry_equiv_pos_site_id
 _symmetry_equiv_pos_as_xyz
  1  'x, y, z'
loop_
 _atom_site_type_symbol
 _atom_site_label
 _atom_site_symmetry_multiplicity
 _atom_site_fract_x
 _atom_site_fract_y
 _atom_site_fract_z
 _atom_site_occupancy
  Ni  Ni0  1  0.25000000  0.75000000  0.50000000  1
  Ni  Ni1  1  0.50000000  0.50000000  0.00000000  1
  Cu  Cu2  1  0.00000000  0.00000000  0.00000000  1
  C  C3  1  0.86551100  0.40813900  0.99739300  1
  C  C4  1  0.41074600  0.86811800  0.00260700  1
  C  C5  1  0.59186100  0.58925400  0.45737200  1
  C  C6  1  0.13188200  0.13448900  0.54262800  1
