# generated using pymatgen
data_Cu12NiC9
_symmetry_space_group_name_H-M   'P 1'
_cell_length_a   9.68110368
_cell_length_b   9.68110368
_cell_length_c   9.68110357
_cell_angle_alpha   54.13775103
_cell_angle_beta   54.13775103
_cell_angle_gamma   54.13774857
_symmetry_Int_Tables_number   1
_chemical_formula_structural   Cu12NiC9
_chemical_formula_sum   'Cu24 Ni2 C18'
_cell_volume   553.78594837
_cell_formula_units_Z   2
loop_
 _symmetry_equiv_pos_site_id
 _symmetry_equiv_pos_as_xyz
  1  'x, y, z'
loop_
 _atom_site_type_symbol
 _atom_site_label
 _atom_site_symmetry_multiplicity
 _atom_site_fract_x
 _atom_site_fract_y
 _atom_site_fract_z
 _atom_site_occupancy
  C  C0  1  0.15140900  0.15140900  0.15140900  1
  C  C1  1  0.34953700  0.34953700  0.34953700  1
  C  C2  1  0.65140900  0.65140900  0.65140900  1
  C  C3  1  0.84953700  0.84953700  0.84953700  1
  C  C4  1  0.74861300  0.03721000  0.46685100  1
  C  C5  1  0.03721000  0.46685100  0.74861300  1
  C  C6  1  0.46685100  0.74861300  0.03721000  1
  C  C7  1  0.53721000  0.24861300  0.96685100  1
  C  C8  1  0.96685100  0.53721000  0.24861300  1
  C  C9  1  0.24861300  0.96685100  0.53721000  1
  C  C10  1  0.46395200  0.46395200  0.46395200  1
  C  C11  1  0.64627400  0.45482400  0.46068900  1
  C  C12  1  0.45482400  0.46068900  0.64627400  1
  C  C13  1  0.46068900  0.64627400  0.45482400  1
  C  C14  1  0.95482400  0.14627400  0.96068900  1
  C  C15  1  0.96068900  0.95482400  0.14627400  1
  C  C16  1  0.14627400  0.96068900  0.95482400  1
  C  C17  1  0.96395200  0.96395200  0.96395200  1
  Ni  Ni18  1  0.00547500  0.00547500  0.00547500  1
  Ni  Ni19  1  0.50547500  0.50547500  0.50547500  1
  Cu  Cu20  1  0.24664900  0.13984200  0.51346700  1
  Cu  Cu21  1  0.51346700  0.24664900  0.13984200  1
  Cu  Cu22  1  0.13984200  0.51346700  0.24664900  1
  Cu  Cu23  1  0.92353600  0.07283800  0.30271300  1
  Cu  Cu24  1  0.57609300  0.20187100  0.42838600  1
  Cu  Cu25  1  0.74664900  0.01346700  0.63984200  1
  Cu  Cu26  1  0.07283800  0.30271300  0.92353600  1
  Cu  Cu27  1  0.20187100  0.42838600  0.57609300  1
  Cu  Cu28  1  0.42838600  0.57609300  0.20187100  1
  Cu  Cu29  1  0.70187100  0.07609300  0.92838600  1
  Cu  Cu30  1  0.36441200  0.25139200  0.98786700  1
  Cu  Cu31  1  0.01346700  0.63984200  0.74664900  1
  Cu  Cu32  1  0.98786700  0.36441200  0.25139200  1
  Cu  Cu33  1  0.63984200  0.74664900  0.01346700  1
  Cu  Cu34  1  0.30271300  0.92353600  0.07283800  1
  Cu  Cu35  1  0.57283800  0.42353600  0.80271300  1
  Cu  Cu36  1  0.80271300  0.57283800  0.42353600  1
  Cu  Cu37  1  0.92838600  0.70187100  0.07609300  1
  Cu  Cu38  1  0.25139200  0.98786700  0.36441200  1
  Cu  Cu39  1  0.42353600  0.80271300  0.57283800  1
  Cu  Cu40  1  0.07609300  0.92838600  0.70187100  1
  Cu  Cu41  1  0.86441200  0.48786700  0.75139200  1
  Cu  Cu42  1  0.48786700  0.75139200  0.86441200  1
  Cu  Cu43  1  0.75139200  0.86441200  0.48786700  1
