# generated using pymatgen
data_Cu2(NiC)3
_symmetry_space_group_name_H-M   'P 1'
_cell_length_a   5.81425279
_cell_length_b   5.81425279
_cell_length_c   13.92064600
_cell_angle_alpha   90.00000000
_cell_angle_beta   90.00000000
_cell_angle_gamma   136.99177634
_symmetry_Int_Tables_number   1
_chemical_formula_structural   Cu2(NiC)3
_chemical_formula_sum   'Cu4 Ni6 C6'
_cell_volume   320.99434054
_cell_formula_units_Z   2
loop_
 _symmetry_equiv_pos_site_id
 _symmetry_equiv_pos_as_xyz
  1  'x, y, z'
loop_
 _atom_site_type_symbol
 _atom_site_label
 _atom_site_symmetry_multiplicity
 _atom_site_fract_x
 _atom_site_fract_y
 _atom_site_fract_z
 _atom_site_occupancy
  C  C0  1  0.85342000  0.14658000  0.25000000  1
  C  C1  1  0.14658000  0.85342000  0.75000000  1
  C  C2  1  0.42179800  0.57820200  0.88687700  1
  C  C3  1  0.57820200  0.42179800  0.11312300  1
  C  C4  1  0.57820200  0.42179800  0.38687700  1
  C  C5  1  0.42179800  0.57820200  0.61312300  1
  Ni  Ni6  1  0.16393300  0.83606700  0.25000000  1
  Ni  Ni7  1  0.83606700  0.16393300  0.75000000  1
  Ni  Ni8  1  0.11567400  0.88432600  0.54056200  1
  Ni  Ni9  1  0.88432600  0.11567400  0.45943800  1
  Ni  Ni10  1  0.88432600  0.11567400  0.04056200  1
  Ni  Ni11  1  0.11567400  0.88432600  0.95943800  1
  Cu  Cu12  1  0.71333200  0.28666800  0.58267100  1
  Cu  Cu13  1  0.28666800  0.71333200  0.41732900  1
  Cu  Cu14  1  0.28666800  0.71333200  0.08267100  1
  Cu  Cu15  1  0.71333200  0.28666800  0.91732900  1
