# generated using pymatgen
data_Cu7NiC3
_symmetry_space_group_name_H-M   'P 1'
_cell_length_a   9.36733468
_cell_length_b   9.36733468
_cell_length_c   18.16619034
_cell_angle_alpha   77.26527380
_cell_angle_beta   77.26527380
_cell_angle_gamma   57.55442753
_symmetry_Int_Tables_number   1
_chemical_formula_structural   Cu7NiC3
_chemical_formula_sum   'Cu28 Ni4 C12'
_cell_volume   1301.96483708
_cell_formula_units_Z   4
loop_
 _symmetry_equiv_pos_site_id
 _symmetry_equiv_pos_as_xyz
  1  'x, y, z'
loop_
 _atom_site_type_symbol
 _atom_site_label
 _atom_site_symmetry_multiplicity
 _atom_site_fract_x
 _atom_site_fract_y
 _atom_site_fract_z
 _atom_site_occupancy
  C  C0  1  0.61413300  0.63833500  0.09296700  1
  C  C1  1  0.15178400  0.75873700  0.31288800  1
  C  C2  1  0.75873700  0.15178400  0.81288800  1
  C  C3  1  0.59807100  0.52975900  0.77851600  1
  C  C4  1  0.24126300  0.84821600  0.18711200  1
  C  C5  1  0.36166500  0.38586700  0.40703300  1
  C  C6  1  0.38586700  0.36166500  0.90703300  1
  C  C7  1  0.63833500  0.61413300  0.59296700  1
  C  C8  1  0.47024100  0.40192900  0.72148400  1
  C  C9  1  0.40192900  0.47024100  0.22148400  1
  C  C10  1  0.84821600  0.24126300  0.68711200  1
  C  C11  1  0.52975900  0.59807100  0.27851600  1
  Ni  Ni12  1  0.64175700  0.46130500  0.67940200  1
  Ni  Ni13  1  0.35824300  0.53869500  0.32059800  1
  Ni  Ni14  1  0.53869500  0.35824300  0.82059800  1
  Ni  Ni15  1  0.46130500  0.64175700  0.17940200  1
  Cu  Cu16  1  0.40506900  0.77680000  0.78420700  1
  Cu  Cu17  1  0.20627400  0.48864500  0.18047600  1
  Cu  Cu18  1  0.48864500  0.20627400  0.68047600  1
  Cu  Cu19  1  0.79372600  0.51135500  0.81952400  1
  Cu  Cu20  1  0.26025800  0.06036000  0.17479700  1
  Cu  Cu21  1  0.93964000  0.73974200  0.32520300  1
  Cu  Cu22  1  0.51135500  0.79372600  0.31952400  1
  Cu  Cu23  1  0.06036000  0.26025800  0.67479700  1
  Cu  Cu24  1  0.08560900  0.90018200  0.10914000  1
  Cu  Cu25  1  0.09981800  0.91439100  0.39086000  1
  Cu  Cu26  1  0.91439100  0.09981800  0.89086000  1
  Cu  Cu27  1  0.90018200  0.08560900  0.60914000  1
  Cu  Cu28  1  0.79915800  0.39761400  0.06968000  1
  Cu  Cu29  1  0.60238600  0.20084200  0.43032000  1
  Cu  Cu30  1  0.20084200  0.60238600  0.93032000  1
  Cu  Cu31  1  0.39761400  0.79915800  0.56968000  1
  Cu  Cu32  1  0.73325600  0.75708500  0.10967200  1
  Cu  Cu33  1  0.24291500  0.26674400  0.39032800  1
  Cu  Cu34  1  0.26674400  0.24291500  0.89032800  1
  Cu  Cu35  1  0.75708500  0.73325600  0.60967200  1
  Cu  Cu36  1  0.49184700  0.76435200  0.99840400  1
  Cu  Cu37  1  0.23564800  0.50815300  0.50159600  1
  Cu  Cu38  1  0.50815300  0.23564800  0.00159600  1
  Cu  Cu39  1  0.76435200  0.49184700  0.49840400  1
  Cu  Cu40  1  0.22320000  0.59493100  0.71579300  1
  Cu  Cu41  1  0.59493100  0.22320000  0.21579300  1
  Cu  Cu42  1  0.77680000  0.40506900  0.28420700  1
  Cu  Cu43  1  0.73974200  0.93964000  0.82520300  1
