# generated using pymatgen
data_Cu12Ni4C
_symmetry_space_group_name_H-M   'P 1'
_cell_length_a   14.04337700
_cell_length_b   8.01883000
_cell_length_c   10.72951334
_cell_angle_alpha   54.90506814
_cell_angle_beta   90.00000000
_cell_angle_gamma   90.00000000
_symmetry_Int_Tables_number   1
_chemical_formula_structural   Cu12Ni4C
_chemical_formula_sum   'Cu48 Ni16 C4'
_cell_volume   988.60400722
_cell_formula_units_Z   4
loop_
 _symmetry_equiv_pos_site_id
 _symmetry_equiv_pos_as_xyz
  1  'x, y, z'
loop_
 _atom_site_type_symbol
 _atom_site_label
 _atom_site_symmetry_multiplicity
 _atom_site_fract_x
 _atom_site_fract_y
 _atom_site_fract_z
 _atom_site_occupancy
  C  C0  1  0.67085800  0.18089800  0.53856600  1
  C  C1  1  0.17085800  0.81910200  0.96143400  1
  C  C2  1  0.32914200  0.81910200  0.46143400  1
  C  C3  1  0.82914200  0.18089800  0.03856600  1
  Ni  Ni4  1  0.93233400  0.48268600  0.84721700  1
  Ni  Ni5  1  0.74066700  0.87341600  0.55948300  1
  Ni  Ni6  1  0.24066700  0.12658400  0.94051700  1
  Ni  Ni7  1  0.25933300  0.12658400  0.44051700  1
  Ni  Ni8  1  0.75933300  0.87341600  0.05948300  1
  Ni  Ni9  1  0.43233400  0.51731400  0.65278300  1
  Ni  Ni10  1  0.06766600  0.51731400  0.15278300  1
  Ni  Ni11  1  0.56766600  0.48268600  0.34721700  1
  Ni  Ni12  1  0.67936000  0.39341200  0.97168200  1
  Ni  Ni13  1  0.17936000  0.60658800  0.52831800  1
  Ni  Ni14  1  0.32064000  0.60658800  0.02831800  1
  Ni  Ni15  1  0.82064000  0.39341200  0.47168200  1
  Ni  Ni16  1  0.94476400  0.99987600  0.26127000  1
  Ni  Ni17  1  0.44476400  0.00012400  0.23873000  1
  Ni  Ni18  1  0.05523600  0.00012400  0.73873000  1
  Ni  Ni19  1  0.55523600  0.99987600  0.76127000  1
  Cu  Cu20  1  0.13402000  0.91401400  0.73919400  1
  Cu  Cu21  1  0.72405900  0.72925800  0.06943400  1
  Cu  Cu22  1  0.22405900  0.27074200  0.43056600  1
  Cu  Cu23  1  0.27594100  0.27074200  0.93056600  1
  Cu  Cu24  1  0.91260200  0.33229400  0.83803500  1
  Cu  Cu25  1  0.41260200  0.66770600  0.66196500  1
  Cu  Cu26  1  0.08739800  0.66770600  0.16196500  1
  Cu  Cu27  1  0.58739800  0.33229400  0.33803500  1
  Cu  Cu28  1  0.89389000  0.45605600  0.96950700  1
  Cu  Cu29  1  0.39389000  0.54394400  0.53049300  1
  Cu  Cu30  1  0.10611000  0.54394400  0.03049300  1
  Cu  Cu31  1  0.60611000  0.45605600  0.46950700  1
  Cu  Cu32  1  0.97940400  0.62905100  0.75626000  1
  Cu  Cu33  1  0.47940400  0.37094900  0.74374000  1
  Cu  Cu34  1  0.02059600  0.37094900  0.24374000  1
  Cu  Cu35  1  0.52059600  0.62905100  0.25626000  1
  Cu  Cu36  1  0.72060600  0.35053700  0.88307200  1
  Cu  Cu37  1  0.22060600  0.64946300  0.61692800  1
  Cu  Cu38  1  0.27939400  0.64946300  0.11692800  1
  Cu  Cu39  1  0.77939400  0.35053700  0.38307200  1
  Cu  Cu40  1  0.72168100  0.30160300  0.10282400  1
  Cu  Cu41  1  0.22168100  0.69839700  0.39717600  1
  Cu  Cu42  1  0.27831900  0.69839700  0.89717600  1
  Cu  Cu43  1  0.77831900  0.30160300  0.60282400  1
  Cu  Cu44  1  0.61198500  0.50560400  0.93380500  1
  Cu  Cu45  1  0.11198500  0.49439600  0.56619500  1
  Cu  Cu46  1  0.38801500  0.49439600  0.06619500  1
  Cu  Cu47  1  0.88801500  0.50560400  0.43380500  1
  Cu  Cu48  1  0.86598000  0.08598600  0.26080600  1
  Cu  Cu49  1  0.36598000  0.91401400  0.23919400  1
  Cu  Cu50  1  0.77594100  0.72925800  0.56943400  1
  Cu  Cu51  1  0.63402100  0.08598600  0.76080600  1
  Cu  Cu52  1  0.95608900  0.01992900  0.13171100  1
  Cu  Cu53  1  0.45608900  0.98007100  0.36828900  1
  Cu  Cu54  1  0.04391100  0.98007100  0.86828900  1
  Cu  Cu55  1  0.68198200  0.00097600  0.45337800  1
  Cu  Cu56  1  0.99978400  0.91367000  0.36595900  1
  Cu  Cu57  1  0.49978400  0.08633000  0.13404100  1
  Cu  Cu58  1  0.00021600  0.08633000  0.63404100  1
  Cu  Cu59  1  0.50021600  0.91367000  0.86595900  1
  Cu  Cu60  1  0.74266800  0.92128000  0.15600600  1
  Cu  Cu61  1  0.24266800  0.07872000  0.34399400  1
  Cu  Cu62  1  0.25733200  0.07872000  0.84399400  1
  Cu  Cu63  1  0.75733200  0.92128000  0.65600600  1
  Cu  Cu64  1  0.81801800  0.00097600  0.95337800  1
  Cu  Cu65  1  0.31801800  0.99902400  0.54662200  1
  Cu  Cu66  1  0.18198200  0.99902400  0.04662200  1
  Cu  Cu67  1  0.54391100  0.01992900  0.63171100  1
