# generated using pymatgen
data_CuNiC4
_symmetry_space_group_name_H-M   'P 1'
_cell_length_a   9.28414810
_cell_length_b   9.28414810
_cell_length_c   7.56438582
_cell_angle_alpha   72.10839030
_cell_angle_beta   72.10839030
_cell_angle_gamma   111.01421814
_symmetry_Int_Tables_number   1
_chemical_formula_structural   CuNiC4
_chemical_formula_sum   'Cu2 Ni2 C8'
_cell_volume   511.30240818
_cell_formula_units_Z   2
loop_
 _symmetry_equiv_pos_site_id
 _symmetry_equiv_pos_as_xyz
  1  'x, y, z'
loop_
 _atom_site_type_symbol
 _atom_site_label
 _atom_site_symmetry_multiplicity
 _atom_site_fract_x
 _atom_site_fract_y
 _atom_site_fract_z
 _atom_site_occupancy
  Ni  Ni0  1  0.63430700  0.36569300  0.25000000  1
  Ni  Ni1  1  0.36569300  0.63430700  0.75000000  1
  Cu  Cu2  1  0.00070400  0.99929600  0.75000000  1
  Cu  Cu3  1  0.99929600  0.00070400  0.25000000  1
  C  C4  1  0.64173400  0.76769400  0.22018000  1
  C  C5  1  0.23230600  0.35826600  0.27982000  1
  C  C6  1  0.35826600  0.23230600  0.77982000  1
  C  C7  1  0.76769400  0.64173400  0.72018000  1
  C  C8  1  0.71091700  0.05743500  0.58491600  1
  C  C9  1  0.94256500  0.28908300  0.91508400  1
  C  C10  1  0.28908300  0.94256500  0.41508400  1
  C  C11  1  0.05743500  0.71091700  0.08491600  1
