# generated using pymatgen
data_Cu4Ni2C
_symmetry_space_group_name_H-M   'P 1'
_cell_length_a   6.98988000
_cell_length_b   7.11194679
_cell_length_c   10.11657249
_cell_angle_alpha   99.91526784
_cell_angle_beta   87.62763996
_cell_angle_gamma   104.61380459
_symmetry_Int_Tables_number   1
_chemical_formula_structural   Cu4Ni2C
_chemical_formula_sum   'Cu8 Ni4 C2'
_cell_volume   479.37172605
_cell_formula_units_Z   2
loop_
 _symmetry_equiv_pos_site_id
 _symmetry_equiv_pos_as_xyz
  1  'x, y, z'
loop_
 _atom_site_type_symbol
 _atom_site_label
 _atom_site_symmetry_multiplicity
 _atom_site_fract_x
 _atom_site_fract_y
 _atom_site_fract_z
 _atom_site_occupancy
  C  C0  1  0.31149300  0.67042000  0.92971600  1
  C  C1  1  0.68850700  0.32958000  0.07028400  1
  Ni  Ni2  1  0.35291600  0.68836600  0.45689600  1
  Ni  Ni3  1  0.64708400  0.31163400  0.54310400  1
  Ni  Ni4  1  0.09392600  0.10138100  0.33012200  1
  Ni  Ni5  1  0.90607400  0.89861900  0.66987800  1
  Cu  Cu6  1  0.28974400  0.34307800  0.59786800  1
  Cu  Cu7  1  0.71025600  0.65692200  0.40213200  1
  Cu  Cu8  1  0.41905800  0.97982800  0.28711700  1
  Cu  Cu9  1  0.58094200  0.02017200  0.71288300  1
  Cu  Cu10  1  0.91041800  0.91811200  0.08708400  1
  Cu  Cu11  1  0.08958200  0.08188800  0.91291600  1
  Cu  Cu12  1  0.80551500  0.56719500  0.76406300  1
  Cu  Cu13  1  0.19448500  0.43280500  0.23593700  1
