# generated using pymatgen
data_Cu12Ni3C
_symmetry_space_group_name_H-M   'P 1'
_cell_length_a   9.52112688
_cell_length_b   9.52112688
_cell_length_c   5.86479400
_cell_angle_alpha   90.00000000
_cell_angle_beta   90.00000000
_cell_angle_gamma   120.00000609
_symmetry_Int_Tables_number   1
_chemical_formula_structural   Cu12Ni3C
_chemical_formula_sum   'Cu24 Ni6 C2'
_cell_volume   460.42624617
_cell_formula_units_Z   2
loop_
 _symmetry_equiv_pos_site_id
 _symmetry_equiv_pos_as_xyz
  1  'x, y, z'
loop_
 _atom_site_type_symbol
 _atom_site_label
 _atom_site_symmetry_multiplicity
 _atom_site_fract_x
 _atom_site_fract_y
 _atom_site_fract_z
 _atom_site_occupancy
  C  C0  1  0.66666700  0.33333300  0.75000000  1
  C  C1  1  0.33333300  0.66666700  0.25000000  1
  Ni  Ni2  1  0.61360300  0.70661900  0.75000000  1
  Ni  Ni3  1  0.90698400  0.61360300  0.25000000  1
  Ni  Ni4  1  0.70661900  0.09301600  0.25000000  1
  Ni  Ni5  1  0.29338100  0.90698400  0.75000000  1
  Ni  Ni6  1  0.09301600  0.38639700  0.75000000  1
  Ni  Ni7  1  0.38639700  0.29338100  0.25000000  1
  Cu  Cu8  1  0.78482600  0.80626500  0.75000000  1
  Cu  Cu9  1  0.97856000  0.78482600  0.25000000  1
  Cu  Cu10  1  0.80626500  0.02144000  0.25000000  1
  Cu  Cu11  1  0.19373500  0.97856000  0.75000000  1
  Cu  Cu12  1  0.02144000  0.21517400  0.75000000  1
  Cu  Cu13  1  0.21517400  0.19373500  0.25000000  1
  Cu  Cu14  1  0.45639700  0.25917300  0.04830200  1
  Cu  Cu15  1  0.19722300  0.45639700  0.54830200  1
  Cu  Cu16  1  0.43926400  0.46714100  0.25000000  1
  Cu  Cu17  1  0.97212400  0.43926400  0.75000000  1
  Cu  Cu18  1  0.46714100  0.02787600  0.75000000  1
  Cu  Cu19  1  0.53285900  0.97212400  0.25000000  1
  Cu  Cu20  1  0.02787600  0.56073600  0.25000000  1
  Cu  Cu21  1  0.56073600  0.53285900  0.75000000  1
  Cu  Cu22  1  0.45639700  0.25917300  0.45169800  1
  Cu  Cu23  1  0.19722300  0.45639700  0.95169800  1
  Cu  Cu24  1  0.25917300  0.80277700  0.95169800  1
  Cu  Cu25  1  0.74082700  0.19722300  0.45169800  1
  Cu  Cu26  1  0.80277700  0.54360300  0.45169800  1
  Cu  Cu27  1  0.54360300  0.74082700  0.95169800  1
  Cu  Cu28  1  0.54360300  0.74082700  0.54830200  1
  Cu  Cu29  1  0.80277700  0.54360300  0.04830200  1
  Cu  Cu30  1  0.74082700  0.19722300  0.04830200  1
  Cu  Cu31  1  0.25917300  0.80277700  0.54830200  1
