# generated using pymatgen
data_Cu8Ni2C13
_symmetry_space_group_name_H-M   'P 1'
_cell_length_a   7.56432194
_cell_length_b   7.56432194
_cell_length_c   14.69033948
_cell_angle_alpha   84.10290676
_cell_angle_beta   84.10290676
_cell_angle_gamma   87.67348802
_symmetry_Int_Tables_number   1
_chemical_formula_structural   Cu8Ni2C13
_chemical_formula_sum   'Cu16 Ni4 C26'
_cell_volume   831.30972972
_cell_formula_units_Z   2
loop_
 _symmetry_equiv_pos_site_id
 _symmetry_equiv_pos_as_xyz
  1  'x, y, z'
loop_
 _atom_site_type_symbol
 _atom_site_label
 _atom_site_symmetry_multiplicity
 _atom_site_fract_x
 _atom_site_fract_y
 _atom_site_fract_z
 _atom_site_occupancy
  Ni  Ni0  1  0.25251800  0.74748200  0.50000000  1
  Ni  Ni1  1  0.74748200  0.25251800  0.50000000  1
  Ni  Ni2  1  0.15888700  0.15888700  0.90016300  1
  Ni  Ni3  1  0.84111300  0.84111300  0.09983700  1
  Cu  Cu4  1  0.07447800  0.54522100  0.29650200  1
  Cu  Cu5  1  0.45477900  0.92552200  0.70349800  1
  Cu  Cu6  1  0.92552200  0.45477900  0.70349800  1
  Cu  Cu7  1  0.54522100  0.07447800  0.29650200  1
  Cu  Cu8  1  0.15428700  0.67567000  0.90566500  1
  Cu  Cu9  1  0.32433000  0.84571300  0.09433500  1
  Cu  Cu10  1  0.84571300  0.32433000  0.09433500  1
  Cu  Cu11  1  0.67567000  0.15428700  0.90566500  1
  Cu  Cu12  1  0.43248100  0.43248100  0.71555700  1
  Cu  Cu13  1  0.56751900  0.56751900  0.28444300  1
  Cu  Cu14  1  0.73430400  0.73430400  0.51299300  1
  Cu  Cu15  1  0.26569600  0.26569600  0.48700700  1
  Cu  Cu16  1  0.33269600  0.33269600  0.11578600  1
  Cu  Cu17  1  0.66730400  0.66730400  0.88421400  1
  Cu  Cu18  1  0.92802300  0.92802300  0.69454700  1
  Cu  Cu19  1  0.07197700  0.07197700  0.30545300  1
  C  C20  1  0.92607100  0.26305500  0.43671000  1
  C  C21  1  0.73694500  0.07392900  0.56329000  1
  C  C22  1  0.07392900  0.73694500  0.56329000  1
  C  C23  1  0.26305500  0.92607100  0.43671000  1
  C  C24  1  0.29937800  0.29937800  0.86031100  1
  C  C25  1  0.70062200  0.70062200  0.13968900  1
  C  C26  1  0.02334500  0.77904500  0.13658800  1
  C  C27  1  0.22095500  0.97665500  0.86341200  1
  C  C28  1  0.97665500  0.22095500  0.86341200  1
  C  C29  1  0.77904500  0.02334500  0.13658800  1
  C  C30  1  0.14624700  0.14624700  0.00683600  1
  C  C31  1  0.85375300  0.85375300  0.99316400  1
  C  C32  1  0.32660000  0.60943600  0.20704500  1
  C  C33  1  0.39056400  0.67340000  0.79295500  1
  C  C34  1  0.67340000  0.39056400  0.79295500  1
  C  C35  1  0.60943600  0.32660000  0.20704500  1
  C  C36  1  0.72721900  0.72721900  0.66321900  1
  C  C37  1  0.27278100  0.27278100  0.33678100  1
  C  C38  1  0.26792100  0.58829500  0.43839600  1
  C  C39  1  0.41170500  0.73207900  0.56160400  1
  C  C40  1  0.32968700  0.04651300  0.19508700  1
  C  C41  1  0.95348700  0.67031300  0.80491300  1
  C  C42  1  0.67031300  0.95348700  0.80491300  1
  C  C43  1  0.04651300  0.32968700  0.19508700  1
  C  C44  1  0.58829500  0.26792100  0.43839600  1
  C  C45  1  0.73207900  0.41170500  0.56160400  1
