# generated using pymatgen
data_Cu5Ni3C
_symmetry_space_group_name_H-M   'P 1'
_cell_length_a   10.38486780
_cell_length_b   10.38486780
_cell_length_c   10.38486801
_cell_angle_alpha   90.03979480
_cell_angle_beta   90.03979480
_cell_angle_gamma   90.03979301
_symmetry_Int_Tables_number   1
_chemical_formula_structural   Cu5Ni3C
_chemical_formula_sum   'Cu20 Ni12 C4'
_cell_volume   1119.96025669
_cell_formula_units_Z   4
loop_
 _symmetry_equiv_pos_site_id
 _symmetry_equiv_pos_as_xyz
  1  'x, y, z'
loop_
 _atom_site_type_symbol
 _atom_site_label
 _atom_site_symmetry_multiplicity
 _atom_site_fract_x
 _atom_site_fract_y
 _atom_site_fract_z
 _atom_site_occupancy
  C  C0  1  0.73290000  0.26497500  0.00392100  1
  C  C1  1  0.55440400  0.55440400  0.55440400  1
  C  C2  1  0.00392100  0.73290000  0.26497500  1
  C  C3  1  0.26497500  0.00392100  0.73290000  1
  Ni  Ni4  1  0.42969200  0.12714800  0.15847600  1
  Ni  Ni5  1  0.12714800  0.15847600  0.42969200  1
  Ni  Ni6  1  0.75016900  0.16723000  0.33729500  1
  Ni  Ni7  1  0.83329800  0.24810900  0.65965800  1
  Ni  Ni8  1  0.16723000  0.33729500  0.75016900  1
  Ni  Ni9  1  0.15847600  0.42969200  0.12714800  1
  Ni  Ni10  1  0.87538000  0.57174000  0.84232200  1
  Ni  Ni11  1  0.24810900  0.65965800  0.83329800  1
  Ni  Ni12  1  0.33729500  0.75016900  0.16723000  1
  Ni  Ni13  1  0.65965800  0.83329800  0.24810900  1
  Ni  Ni14  1  0.57174000  0.84232200  0.87538000  1
  Ni  Ni15  1  0.84232200  0.87538000  0.57174000  1
  Cu  Cu16  1  0.83376200  0.99793200  0.16822500  1
  Cu  Cu17  1  0.67141000  0.06769700  0.56628600  1
  Cu  Cu18  1  0.49981500  0.08431800  0.91527900  1
  Cu  Cu19  1  0.99793200  0.16822500  0.83376200  1
  Cu  Cu20  1  0.17232400  0.17232400  0.17232400  1
  Cu  Cu21  1  0.32041600  0.24013000  0.57437700  1
  Cu  Cu22  1  0.57437700  0.32041600  0.24013000  1
  Cu  Cu23  1  0.93219200  0.32745900  0.43236900  1
  Cu  Cu24  1  0.68051400  0.42491600  0.76194000  1
  Cu  Cu25  1  0.32745900  0.43236900  0.93219200  1
  Cu  Cu26  1  0.91527900  0.49981500  0.08431800  1
  Cu  Cu27  1  0.06769700  0.56628600  0.67141000  1
  Cu  Cu28  1  0.24013000  0.57437700  0.32041600  1
  Cu  Cu29  1  0.56628600  0.67141000  0.06769700  1
  Cu  Cu30  1  0.76194000  0.68051400  0.42491600  1
  Cu  Cu31  1  0.42491600  0.76194000  0.68051400  1
  Cu  Cu32  1  0.82805900  0.82805900  0.82805900  1
  Cu  Cu33  1  0.16822500  0.83376200  0.99793200  1
  Cu  Cu34  1  0.08431800  0.91527900  0.49981500  1
  Cu  Cu35  1  0.43236900  0.93219200  0.32745900  1
