# generated using pymatgen
data_Cu10Ni16C5
_symmetry_space_group_name_H-M   'P 1'
_cell_length_a   8.97565993
_cell_length_b   8.97565993
_cell_length_c   8.97565993
_cell_angle_alpha   60.00000000
_cell_angle_beta   60.00000000
_cell_angle_gamma   60.00000000
_symmetry_Int_Tables_number   1
_chemical_formula_structural   Cu10Ni16C5
_chemical_formula_sum   'Cu10 Ni16 C5'
_cell_volume   511.30986361
_cell_formula_units_Z   1
loop_
 _symmetry_equiv_pos_site_id
 _symmetry_equiv_pos_as_xyz
  1  'x, y, z'
loop_
 _atom_site_type_symbol
 _atom_site_label
 _atom_site_symmetry_multiplicity
 _atom_site_fract_x
 _atom_site_fract_y
 _atom_site_fract_z
 _atom_site_occupancy
  C  C0  1  0.34419800  0.34419800  0.34419800  1
  C  C1  1  0.96740700  0.34419800  0.34419800  1
  C  C2  1  0.34419800  0.96740700  0.34419800  1
  C  C3  1  0.34419800  0.34419800  0.96740700  1
  C  C4  1  0.00000000  0.00000000  0.00000000  1
  Ni  Ni5  1  0.67708100  0.95566400  0.95566400  1
  Ni  Ni6  1  0.57263600  0.57263600  0.28209200  1
  Ni  Ni7  1  0.57263600  0.28209200  0.57263600  1
  Ni  Ni8  1  0.28209200  0.57263600  0.57263600  1
  Ni  Ni9  1  0.57263600  0.57263600  0.57263600  1
  Ni  Ni10  1  0.41159100  0.95566400  0.95566400  1
  Ni  Ni11  1  0.41159100  0.95566400  0.67708100  1
  Ni  Ni12  1  0.41159100  0.67708100  0.95566400  1
  Ni  Ni13  1  0.95566400  0.95566400  0.41159100  1
  Ni  Ni14  1  0.95566400  0.41159100  0.95566400  1
  Ni  Ni15  1  0.95566400  0.95566400  0.67708100  1
  Ni  Ni16  1  0.67708100  0.95566400  0.41159100  1
  Ni  Ni17  1  0.95566400  0.67708100  0.95566400  1
  Ni  Ni18  1  0.95566400  0.41159100  0.67708100  1
  Ni  Ni19  1  0.67708100  0.41159100  0.95566400  1
  Ni  Ni20  1  0.95566400  0.67708100  0.41159100  1
  Cu  Cu21  1  0.12671700  0.12671700  0.12671700  1
  Cu  Cu22  1  0.73212100  0.73212100  0.26787900  1
  Cu  Cu23  1  0.26787900  0.26787900  0.73212100  1
  Cu  Cu24  1  0.73212100  0.26787900  0.73212100  1
  Cu  Cu25  1  0.26787900  0.73212100  0.73212100  1
  Cu  Cu26  1  0.73212100  0.26787900  0.26787900  1
  Cu  Cu27  1  0.26787900  0.73212100  0.26787900  1
  Cu  Cu28  1  0.12671700  0.12671700  0.61984800  1
  Cu  Cu29  1  0.12671700  0.61984800  0.12671700  1
  Cu  Cu30  1  0.61984800  0.12671700  0.12671700  1
