# generated using pymatgen
data_Cu4NiC20
_symmetry_space_group_name_H-M   'P 1'
_cell_length_a   3.84749900
_cell_length_b   5.41785800
_cell_length_c   27.13807000
_cell_angle_alpha   90.00000000
_cell_angle_beta   90.00000000
_cell_angle_gamma   90.00000000
_symmetry_Int_Tables_number   1
_chemical_formula_structural   Cu4NiC20
_chemical_formula_sum   'Cu8 Ni2 C40'
_cell_volume   565.69858461
_cell_formula_units_Z   2
loop_
 _symmetry_equiv_pos_site_id
 _symmetry_equiv_pos_as_xyz
  1  'x, y, z'
loop_
 _atom_site_type_symbol
 _atom_site_label
 _atom_site_symmetry_multiplicity
 _atom_site_fract_x
 _atom_site_fract_y
 _atom_site_fract_z
 _atom_site_occupancy
  Ni  Ni0  1  0.00000000  0.25000000  0.05296900  1
  Ni  Ni1  1  0.00000000  0.75000000  0.94703100  1
  Cu  Cu2  1  0.00000000  0.25000000  0.84581900  1
  Cu  Cu3  1  0.00000000  0.75000000  0.74852200  1
  Cu  Cu4  1  0.00000000  0.25000000  0.64900000  1
  Cu  Cu5  1  0.00000000  0.75000000  0.54985000  1
  Cu  Cu6  1  0.00000000  0.25000000  0.45015000  1
  Cu  Cu7  1  0.00000000  0.75000000  0.35100000  1
  Cu  Cu8  1  0.00000000  0.25000000  0.25147800  1
  Cu  Cu9  1  0.00000000  0.75000000  0.15418100  1
  C  C10  1  0.50000000  0.75000000  0.05215600  1
  C  C11  1  0.50000000  0.25000000  0.94784400  1
  C  C12  1  0.50000000  0.75000000  0.84668200  1
  C  C13  1  0.50000000  0.25000000  0.74780700  1
  C  C14  1  0.50000000  0.75000000  0.64904500  1
  C  C15  1  0.50000000  0.25000000  0.54967500  1
  C  C16  1  0.50000000  0.75000000  0.45032500  1
  C  C17  1  0.50000000  0.25000000  0.35095500  1
  C  C18  1  0.50000000  0.75000000  0.25219300  1
  C  C19  1  0.50000000  0.25000000  0.15331800  1
  C  C20  1  0.00000000  0.75000000  0.05382100  1
  C  C21  1  0.00000000  0.25000000  0.94617900  1
  C  C22  1  0.00000000  0.75000000  0.84496700  1
  C  C23  1  0.00000000  0.25000000  0.74825500  1
  C  C24  1  0.00000000  0.75000000  0.64894700  1
  C  C25  1  0.00000000  0.25000000  0.54983000  1
  C  C26  1  0.00000000  0.75000000  0.45017000  1
  C  C27  1  0.50000000  0.50000000  0.00000000  1
  C  C28  1  0.50000000  0.00058300  0.89582200  1
  C  C29  1  0.50000000  0.49859000  0.79744200  1
  C  C30  1  0.50000000  0.00029800  0.69850000  1
  C  C31  1  0.50000000  0.50003500  0.59935400  1
  C  C32  1  0.50000000  0.00000000  0.50000000  1
  C  C33  1  0.50000000  0.49996500  0.40064600  1
  C  C34  1  0.50000000  0.99970200  0.30150000  1
  C  C35  1  0.50000000  0.49941700  0.89582200  1
  C  C36  1  0.50000000  0.50141000  0.20255800  1
  C  C37  1  0.50000000  0.00000000  0.00000000  1
  C  C38  1  0.50000000  0.99941700  0.10417800  1
  C  C39  1  0.50000000  0.49970200  0.69850000  1
  C  C40  1  0.50000000  0.00141000  0.79744200  1
  C  C41  1  0.50000000  0.99996500  0.59935400  1
  C  C42  1  0.50000000  0.00003500  0.40064600  1
  C  C43  1  0.50000000  0.50000000  0.50000000  1
  C  C44  1  0.50000000  0.99859000  0.20255800  1
  C  C45  1  0.50000000  0.50029800  0.30150000  1
  C  C46  1  0.50000000  0.50058300  0.10417800  1
  C  C47  1  0.00000000  0.25000000  0.35105300  1
  C  C48  1  0.00000000  0.75000000  0.25174500  1
  C  C49  1  0.00000000  0.25000000  0.15503300  1
