# generated using pymatgen
data_Cu2NiC
_symmetry_space_group_name_H-M   'P 1'
_cell_length_a   4.83130300
_cell_length_b   4.83130300
_cell_length_c   10.68837100
_cell_angle_alpha   90.00000000
_cell_angle_beta   90.00000000
_cell_angle_gamma   90.00000000
_symmetry_Int_Tables_number   1
_chemical_formula_structural   Cu2NiC
_chemical_formula_sum   'Cu8 Ni4 C4'
_cell_volume   249.48249068
_cell_formula_units_Z   4
loop_
 _symmetry_equiv_pos_site_id
 _symmetry_equiv_pos_as_xyz
  1  'x, y, z'
loop_
 _atom_site_type_symbol
 _atom_site_label
 _atom_site_symmetry_multiplicity
 _atom_site_fract_x
 _atom_site_fract_y
 _atom_site_fract_z
 _atom_site_occupancy
  C  C0  1  0.50000000  0.50000000  0.00000000  1
  C  C1  1  0.00000000  0.00000000  0.50000000  1
  C  C2  1  0.00000000  0.00000000  0.00000000  1
  C  C3  1  0.50000000  0.50000000  0.50000000  1
  Ni  Ni4  1  0.00000000  0.50000000  0.82507800  1
  Ni  Ni5  1  0.00000000  0.50000000  0.32507800  1
  Ni  Ni6  1  0.50000000  0.00000000  0.17492200  1
  Ni  Ni7  1  0.50000000  0.00000000  0.67492200  1
  Cu  Cu8  1  0.80836400  0.30836400  0.90975500  1
  Cu  Cu9  1  0.19163600  0.30836400  0.40975500  1
  Cu  Cu10  1  0.80836400  0.69163600  0.40975500  1
  Cu  Cu11  1  0.30836400  0.19163600  0.09024500  1
  Cu  Cu12  1  0.69163600  0.80836400  0.09024500  1
  Cu  Cu13  1  0.19163600  0.69163600  0.90975500  1
  Cu  Cu14  1  0.30836400  0.80836400  0.59024500  1
  Cu  Cu15  1  0.69163600  0.19163600  0.59024500  1
