# generated using pymatgen
data_Cu(Ni3C2)3
_symmetry_space_group_name_H-M   'P 1'
_cell_length_a   9.26580921
_cell_length_b   9.26580921
_cell_length_c   9.26580921
_cell_angle_alpha   122.29817428
_cell_angle_beta   122.29817428
_cell_angle_gamma   86.06350096
_symmetry_Int_Tables_number   1
_chemical_formula_structural   Cu(Ni3C2)3
_chemical_formula_sum   'Cu1 Ni9 C6'
_cell_volume   541.58360439
_cell_formula_units_Z   1
loop_
 _symmetry_equiv_pos_site_id
 _symmetry_equiv_pos_as_xyz
  1  'x, y, z'
loop_
 _atom_site_type_symbol
 _atom_site_label
 _atom_site_symmetry_multiplicity
 _atom_site_fract_x
 _atom_site_fract_y
 _atom_site_fract_z
 _atom_site_occupancy
  Ni  Ni0  1  0.79990300  0.00618500  0.50470400  1
  Ni  Ni1  1  0.98487300  0.47888200  0.79221600  1
  Ni  Ni2  1  0.99582300  0.99582300  0.00000000  1
  Ni  Ni3  1  0.68666600  0.19265700  0.20778400  1
  Ni  Ni4  1  0.50148100  0.29519900  0.49529600  1
  Ni  Ni5  1  0.29519900  0.79990300  0.79371800  1
  Ni  Ni6  1  0.47888200  0.68666600  0.49400900  1
  Ni  Ni7  1  0.19265700  0.98487300  0.50599100  1
  Ni  Ni8  1  0.00618500  0.50148100  0.20628200  1
  Cu  Cu9  1  0.50007400  0.50007400  0.00000000  1
  C  C10  1  0.72152700  0.72152700  0.00000000  1
  C  C11  1  0.81449400  0.64193200  0.47190300  1
  C  C12  1  0.64193200  0.17002900  0.82743800  1
  C  C13  1  0.24903700  0.24903700  0.00000000  1
  C  C14  1  0.34259100  0.81449400  0.17256200  1
  C  C15  1  0.17002900  0.34259100  0.52809700  1
