# generated using pymatgen
data_Cu3NiC5
_symmetry_space_group_name_H-M   'P 1'
_cell_length_a   7.32757693
_cell_length_b   7.32757693
_cell_length_c   8.54600969
_cell_angle_alpha   73.24727086
_cell_angle_beta   73.24727086
_cell_angle_gamma   48.42324012
_symmetry_Int_Tables_number   1
_chemical_formula_structural   Cu3NiC5
_chemical_formula_sum   'Cu6 Ni2 C10'
_cell_volume   325.66752307
_cell_formula_units_Z   2
loop_
 _symmetry_equiv_pos_site_id
 _symmetry_equiv_pos_as_xyz
  1  'x, y, z'
loop_
 _atom_site_type_symbol
 _atom_site_label
 _atom_site_symmetry_multiplicity
 _atom_site_fract_x
 _atom_site_fract_y
 _atom_site_fract_z
 _atom_site_occupancy
  C  C0  1  0.75108400  0.24891600  0.25000000  1
  C  C1  1  0.08927500  0.58552100  0.07183000  1
  C  C2  1  0.42076600  0.91229000  0.91192200  1
  C  C3  1  0.91072500  0.41447900  0.92817000  1
  C  C4  1  0.08771000  0.57923400  0.58807800  1
  C  C5  1  0.24891600  0.75108400  0.75000000  1
  C  C6  1  0.58552100  0.08927500  0.57183000  1
  C  C7  1  0.41447900  0.91072500  0.42817000  1
  C  C8  1  0.91229000  0.42076600  0.41192200  1
  C  C9  1  0.57923400  0.08771000  0.08807800  1
  Ni  Ni10  1  0.26245400  0.73754600  0.25000000  1
  Ni  Ni11  1  0.73754600  0.26245400  0.75000000  1
  Cu  Cu12  1  0.00000000  0.00000000  0.00000000  1
  Cu  Cu13  1  0.68567800  0.62852600  0.67614500  1
  Cu  Cu14  1  0.00000000  0.00000000  0.50000000  1
  Cu  Cu15  1  0.31432200  0.37147400  0.32385500  1
  Cu  Cu16  1  0.62852600  0.68567800  0.17614500  1
  Cu  Cu17  1  0.37147400  0.31432200  0.82385500  1
