# generated using pymatgen
data_Cu(NiC2)2
_symmetry_space_group_name_H-M   'P 1'
_cell_length_a   4.71436023
_cell_length_b   4.71436031
_cell_length_c   76.79696962
_cell_angle_alpha   60.58718722
_cell_angle_beta   60.58718711
_cell_angle_gamma   60.00000065
_symmetry_Int_Tables_number   1
_chemical_formula_structural   Cu(NiC2)2
_chemical_formula_sum   'Cu1 Ni2 C4'
_cell_volume   1217.51030651
_cell_formula_units_Z   1
loop_
 _symmetry_equiv_pos_site_id
 _symmetry_equiv_pos_as_xyz
  1  'x, y, z'
loop_
 _atom_site_type_symbol
 _atom_site_label
 _atom_site_symmetry_multiplicity
 _atom_site_fract_x
 _atom_site_fract_y
 _atom_site_fract_z
 _atom_site_occupancy
  Ni  Ni0  1  0.27391989  0.27391989  0.51114002  1
  Ni  Ni1  1  0.27248227  0.27248227  0.82390957  1
  Cu  Cu2  1  0.22276559  0.22276559  0.89573145  1
  C  C3  1  0.97573167  0.97573167  0.50455031  1
  C  C4  1  0.99452060  0.99452060  0.81352739  1
  C  C5  1  0.01131061  0.01131061  0.87287926  1
  C  C6  1  0.99926937  0.99926937  0.93763699  1
