# generated using pymatgen
data_CuNiC3
_symmetry_space_group_name_H-M   'P 1'
_cell_length_a   6.01046042
_cell_length_b   6.01046042
_cell_length_c   7.49258835
_cell_angle_alpha   82.38528955
_cell_angle_beta   82.38528955
_cell_angle_gamma   119.99643820
_symmetry_Int_Tables_number   1
_chemical_formula_structural   CuNiC3
_chemical_formula_sum   'Cu2 Ni2 C6'
_cell_volume   226.03806418
_cell_formula_units_Z   2
loop_
 _symmetry_equiv_pos_site_id
 _symmetry_equiv_pos_as_xyz
  1  'x, y, z'
loop_
 _atom_site_type_symbol
 _atom_site_label
 _atom_site_symmetry_multiplicity
 _atom_site_fract_x
 _atom_site_fract_y
 _atom_site_fract_z
 _atom_site_occupancy
  Ni  Ni0  1  0.33304100  0.66695900  0.00000000  1
  Ni  Ni1  1  0.66695900  0.33304100  0.00000000  1
  Cu  Cu2  1  0.94927500  0.94927500  0.15301700  1
  Cu  Cu3  1  0.05072500  0.05072500  0.84698300  1
  C  C4  1  0.92602500  0.59710900  0.22380100  1
  C  C5  1  0.40289100  0.07397500  0.77619900  1
  C  C6  1  0.74503100  0.74503100  0.77640300  1
  C  C7  1  0.25496900  0.25496900  0.22359700  1
  C  C8  1  0.07397500  0.40289100  0.77619900  1
  C  C9  1  0.59710900  0.92602500  0.22380100  1
