# generated using pymatgen
data_Cu(Ni5C3)2
_symmetry_space_group_name_H-M   'P 1'
_cell_length_a   7.77524717
_cell_length_b   7.77524717
_cell_length_c   7.77524717
_cell_angle_alpha   60.00000000
_cell_angle_beta   60.00000000
_cell_angle_gamma   60.00000000
_symmetry_Int_Tables_number   1
_chemical_formula_structural   Cu(Ni5C3)2
_chemical_formula_sum   'Cu2 Ni20 C12'
_cell_volume   332.37443638
_cell_formula_units_Z   2
loop_
 _symmetry_equiv_pos_site_id
 _symmetry_equiv_pos_as_xyz
  1  'x, y, z'
loop_
 _atom_site_type_symbol
 _atom_site_label
 _atom_site_symmetry_multiplicity
 _atom_site_fract_x
 _atom_site_fract_y
 _atom_site_fract_z
 _atom_site_occupancy
  C  C0  1  0.05049000  0.94951000  0.21173800  1
  C  C1  1  0.21173800  0.78826200  0.05049000  1
  C  C2  1  0.94951000  0.05049000  0.78826200  1
  C  C3  1  0.78826200  0.94951000  0.05049000  1
  C  C4  1  0.78826200  0.05049000  0.21173800  1
  C  C5  1  0.94951000  0.78826200  0.21173800  1
  C  C6  1  0.21173800  0.94951000  0.78826200  1
  C  C7  1  0.05049000  0.78826200  0.94951000  1
  C  C8  1  0.21173800  0.05049000  0.94951000  1
  C  C9  1  0.05049000  0.21173800  0.78826200  1
  C  C10  1  0.94951000  0.21173800  0.05049000  1
  C  C11  1  0.78826200  0.21173800  0.94951000  1
  Ni  Ni12  1  0.19571300  0.19571300  0.41286000  1
  Ni  Ni13  1  0.19571300  0.19571300  0.19571300  1
  Ni  Ni14  1  0.41286000  0.19571300  0.19571300  1
  Ni  Ni15  1  0.19571300  0.41286000  0.19571300  1
  Ni  Ni16  1  0.80428700  0.80428700  0.58714000  1
  Ni  Ni17  1  0.80428700  0.80428700  0.80428700  1
  Ni  Ni18  1  0.58714000  0.80428700  0.80428700  1
  Ni  Ni19  1  0.80428700  0.58714000  0.80428700  1
  Ni  Ni20  1  0.08736300  0.91263700  0.36209300  1
  Ni  Ni21  1  0.36209300  0.63790700  0.08736300  1
  Ni  Ni22  1  0.91263700  0.08736300  0.63790700  1
  Ni  Ni23  1  0.63790700  0.91263700  0.08736300  1
  Ni  Ni24  1  0.63790700  0.08736300  0.36209300  1
  Ni  Ni25  1  0.91263700  0.63790700  0.36209300  1
  Ni  Ni26  1  0.63790700  0.36209300  0.91263700  1
  Ni  Ni27  1  0.91263700  0.36209300  0.08736300  1
  Ni  Ni28  1  0.08736300  0.36209300  0.63790700  1
  Ni  Ni29  1  0.36209300  0.08736300  0.91263700  1
  Ni  Ni30  1  0.08736300  0.63790700  0.91263700  1
  Ni  Ni31  1  0.36209300  0.91263700  0.63790700  1
  Cu  Cu32  1  0.25000000  0.25000000  0.25000000  1
  Cu  Cu33  1  0.75000000  0.75000000  0.75000000  1
