# generated using pymatgen
data_Cu(Ni3C2)2
_symmetry_space_group_name_H-M   'P 1'
_cell_length_a   7.36969200
_cell_length_b   7.36969200
_cell_length_c   10.45683900
_cell_angle_alpha   90.00000000
_cell_angle_beta   90.00000000
_cell_angle_gamma   90.00000000
_symmetry_Int_Tables_number   1
_chemical_formula_structural   Cu(Ni3C2)2
_chemical_formula_sum   'Cu4 Ni24 C16'
_cell_volume   567.93560606
_cell_formula_units_Z   4
loop_
 _symmetry_equiv_pos_site_id
 _symmetry_equiv_pos_as_xyz
  1  'x, y, z'
loop_
 _atom_site_type_symbol
 _atom_site_label
 _atom_site_symmetry_multiplicity
 _atom_site_fract_x
 _atom_site_fract_y
 _atom_site_fract_z
 _atom_site_occupancy
  C  C0  1  0.00000000  0.76427800  0.00000000  1
  C  C1  1  0.00000000  0.23572200  0.50000000  1
  C  C2  1  0.76427800  0.00000000  0.25000000  1
  C  C3  1  0.23572200  0.00000000  0.75000000  1
  C  C4  1  0.50000000  0.76263400  0.00000000  1
  C  C5  1  0.50000000  0.23736600  0.50000000  1
  C  C6  1  0.23736600  0.50000000  0.75000000  1
  C  C7  1  0.76263400  0.50000000  0.25000000  1
  C  C8  1  0.50000000  0.74098500  0.50000000  1
  C  C9  1  0.50000000  0.25901500  0.00000000  1
  C  C10  1  0.25901500  0.50000000  0.25000000  1
  C  C11  1  0.74098500  0.50000000  0.75000000  1
  C  C12  1  0.74342700  0.00000000  0.75000000  1
  C  C13  1  0.00000000  0.25657300  0.00000000  1
  C  C14  1  0.00000000  0.74342700  0.50000000  1
  C  C15  1  0.25657300  0.00000000  0.25000000  1
  Ni  Ni16  1  0.06262000  0.93738000  0.37500000  1
  Ni  Ni17  1  0.44857500  0.94245700  0.38167000  1
  Ni  Ni18  1  0.55142500  0.05754300  0.88167000  1
  Ni  Ni19  1  0.55142500  0.94245700  0.61833000  1
  Ni  Ni20  1  0.54164200  0.45835800  0.87500000  1
  Ni  Ni21  1  0.74784900  0.27172600  0.07074900  1
  Ni  Ni22  1  0.72827400  0.25215100  0.67925100  1
  Ni  Ni23  1  0.74784900  0.72827400  0.42925100  1
  Ni  Ni24  1  0.94245700  0.44857500  0.86833000  1
  Ni  Ni25  1  0.93738000  0.06262000  0.87500000  1
  Ni  Ni26  1  0.93738000  0.93738000  0.62500000  1
  Ni  Ni27  1  0.05754300  0.55142500  0.36833000  1
  Ni  Ni28  1  0.05754300  0.44857500  0.13167000  1
  Ni  Ni29  1  0.06262000  0.06262000  0.12500000  1
  Ni  Ni30  1  0.25215100  0.72827400  0.57074900  1
  Ni  Ni31  1  0.27172600  0.74784900  0.17925100  1
  Ni  Ni32  1  0.25215100  0.27172600  0.92925100  1
  Ni  Ni33  1  0.27172600  0.25215100  0.32074900  1
  Ni  Ni34  1  0.45835800  0.54164200  0.37500000  1
  Ni  Ni35  1  0.44857500  0.05754300  0.11833000  1
  Ni  Ni36  1  0.45835800  0.45835800  0.12500000  1
  Ni  Ni37  1  0.54164200  0.54164200  0.62500000  1
  Ni  Ni38  1  0.72827400  0.74784900  0.82074900  1
  Ni  Ni39  1  0.94245700  0.55142500  0.63167000  1
  Cu  Cu40  1  0.75806600  0.75806600  0.12500000  1
  Cu  Cu41  1  0.24193400  0.24193400  0.62500000  1
  Cu  Cu42  1  0.24193400  0.75806600  0.87500000  1
  Cu  Cu43  1  0.75806600  0.24193400  0.37500000  1
