# generated using pymatgen
data_Cu8NiC
_symmetry_space_group_name_H-M   'P 1'
_cell_length_a   9.99298800
_cell_length_b   9.99298800
_cell_length_c   5.28192200
_cell_angle_alpha   90.00000000
_cell_angle_beta   90.00000000
_cell_angle_gamma   90.00000000
_symmetry_Int_Tables_number   1
_chemical_formula_structural   Cu8NiC
_chemical_formula_sum   'Cu32 Ni4 C4'
_cell_volume   527.45172296
_cell_formula_units_Z   4
loop_
 _symmetry_equiv_pos_site_id
 _symmetry_equiv_pos_as_xyz
  1  'x, y, z'
loop_
 _atom_site_type_symbol
 _atom_site_label
 _atom_site_symmetry_multiplicity
 _atom_site_fract_x
 _atom_site_fract_y
 _atom_site_fract_z
 _atom_site_occupancy
  C  C0  1  0.24405300  0.25594700  0.59888600  1
  C  C1  1  0.74405300  0.24405300  0.40111400  1
  C  C2  1  0.25594700  0.75594700  0.40111400  1
  C  C3  1  0.75594700  0.74405300  0.59888600  1
  Ni  Ni4  1  0.00000000  0.00000000  0.00000000  1
  Ni  Ni5  1  0.50000000  0.50000000  0.00000000  1
  Ni  Ni6  1  0.00000000  0.50000000  0.96277800  1
  Ni  Ni7  1  0.50000000  0.00000000  0.03722200  1
  Cu  Cu8  1  0.94247800  0.90693800  0.14674800  1
  Cu  Cu9  1  0.09306200  0.94247800  0.85325200  1
  Cu  Cu10  1  0.90693800  0.05752200  0.85325200  1
  Cu  Cu11  1  0.05752200  0.09306200  0.14674800  1
  Cu  Cu12  1  0.44247800  0.59306200  0.85325200  1
  Cu  Cu13  1  0.55752200  0.40693800  0.85325200  1
  Cu  Cu14  1  0.40693800  0.44247800  0.14674800  1
  Cu  Cu15  1  0.59306200  0.55752200  0.14674800  1
  Cu  Cu16  1  0.07771700  0.42228300  0.10851900  1
  Cu  Cu17  1  0.57771700  0.07771700  0.89148100  1
  Cu  Cu18  1  0.42228300  0.92228300  0.89148100  1
  Cu  Cu19  1  0.92228300  0.57771700  0.10851900  1
  Cu  Cu20  1  0.07736100  0.57736100  0.81596200  1
  Cu  Cu21  1  0.42263900  0.07736100  0.18403800  1
  Cu  Cu22  1  0.57736100  0.92263900  0.18403800  1
  Cu  Cu23  1  0.92263900  0.42263900  0.81596200  1
  Cu  Cu24  1  0.27877800  0.38516200  0.68913100  1
  Cu  Cu25  1  0.61483800  0.27877800  0.31086900  1
  Cu  Cu26  1  0.38516200  0.72122200  0.31086900  1
  Cu  Cu27  1  0.72122200  0.61483800  0.68913100  1
  Cu  Cu28  1  0.77877800  0.11483800  0.31086900  1
  Cu  Cu29  1  0.22122200  0.88516200  0.31086900  1
  Cu  Cu30  1  0.88516200  0.77877800  0.68913100  1
  Cu  Cu31  1  0.11483800  0.22122200  0.68913100  1
  Cu  Cu32  1  0.24201600  0.25798400  0.32928900  1
  Cu  Cu33  1  0.74201600  0.24201600  0.67071100  1
  Cu  Cu34  1  0.25798400  0.75798400  0.67071100  1
  Cu  Cu35  1  0.75798400  0.74201600  0.32928900  1
  Cu  Cu36  1  0.33897500  0.16102500  0.68360600  1
  Cu  Cu37  1  0.83897500  0.33897500  0.31639400  1
  Cu  Cu38  1  0.16102500  0.66102500  0.31639400  1
  Cu  Cu39  1  0.66102500  0.83897500  0.68360600  1
