# generated using pymatgen
data_Cu(Ni3C2)2
_symmetry_space_group_name_H-M   'P 1'
_cell_length_a   7.33522000
_cell_length_b   7.33522000
_cell_length_c   10.36882500
_cell_angle_alpha   90.00000000
_cell_angle_beta   90.00000000
_cell_angle_gamma   90.00000000
_symmetry_Int_Tables_number   1
_chemical_formula_structural   Cu(Ni3C2)2
_chemical_formula_sum   'Cu4 Ni24 C16'
_cell_volume   557.89932048
_cell_formula_units_Z   4
loop_
 _symmetry_equiv_pos_site_id
 _symmetry_equiv_pos_as_xyz
  1  'x, y, z'
loop_
 _atom_site_type_symbol
 _atom_site_label
 _atom_site_symmetry_multiplicity
 _atom_site_fract_x
 _atom_site_fract_y
 _atom_site_fract_z
 _atom_site_occupancy
  C  C0  1  0.00000000  0.23397400  0.50000000  1
  C  C1  1  0.00000000  0.76602600  0.00000000  1
  C  C2  1  0.23397400  0.00000000  0.25000000  1
  C  C3  1  0.76602600  0.00000000  0.75000000  1
  C  C4  1  0.50000000  0.21629600  0.50000000  1
  C  C5  1  0.50000000  0.78370400  0.00000000  1
  C  C6  1  0.78370400  0.50000000  0.75000000  1
  C  C7  1  0.21629600  0.50000000  0.25000000  1
  C  C8  1  0.26678400  0.50000000  0.75000000  1
  C  C9  1  0.50000000  0.26678400  0.00000000  1
  C  C10  1  0.73321600  0.50000000  0.25000000  1
  C  C11  1  0.50000000  0.73321600  0.50000000  1
  C  C12  1  0.73915100  0.00000000  0.25000000  1
  C  C13  1  0.00000000  0.26084900  0.00000000  1
  C  C14  1  0.00000000  0.73915100  0.50000000  1
  C  C15  1  0.26084900  0.00000000  0.75000000  1
  Ni  Ni16  1  0.05091400  0.45389600  0.86671400  1
  Ni  Ni17  1  0.25099100  0.27822800  0.07562500  1
  Ni  Ni18  1  0.45395000  0.45395000  0.87500000  1
  Ni  Ni19  1  0.54610400  0.94908600  0.38328600  1
  Ni  Ni20  1  0.54605000  0.45395000  0.12500000  1
  Ni  Ni21  1  0.54605000  0.54605000  0.37500000  1
  Ni  Ni22  1  0.72177200  0.74900900  0.17437500  1
  Ni  Ni23  1  0.72177200  0.25099100  0.32562500  1
  Ni  Ni24  1  0.74900900  0.72177200  0.57562500  1
  Ni  Ni25  1  0.94908600  0.54610400  0.36671400  1
  Ni  Ni26  1  0.94908600  0.45389600  0.13328600  1
  Ni  Ni27  1  0.93558600  0.93558600  0.37500000  1
  Ni  Ni28  1  0.05091400  0.54610400  0.63328600  1
  Ni  Ni29  1  0.06441400  0.93558600  0.62500000  1
  Ni  Ni30  1  0.06441400  0.06441400  0.87500000  1
  Ni  Ni31  1  0.27822800  0.25099100  0.67437500  1
  Ni  Ni32  1  0.25099100  0.72177200  0.42437500  1
  Ni  Ni33  1  0.27822800  0.74900900  0.82562500  1
  Ni  Ni34  1  0.45389600  0.05091400  0.88328600  1
  Ni  Ni35  1  0.45395000  0.54605000  0.62500000  1
  Ni  Ni36  1  0.45389600  0.94908600  0.61671400  1
  Ni  Ni37  1  0.54610400  0.05091400  0.11671400  1
  Ni  Ni38  1  0.74900900  0.27822800  0.92437500  1
  Ni  Ni39  1  0.93558600  0.06441400  0.12500000  1
  Cu  Cu40  1  0.74727900  0.25272100  0.62500000  1
  Cu  Cu41  1  0.25272100  0.74727900  0.12500000  1
  Cu  Cu42  1  0.25272100  0.25272100  0.37500000  1
  Cu  Cu43  1  0.74727900  0.74727900  0.87500000  1
