# generated using pymatgen
data_Cu8Ni4C33
_symmetry_space_group_name_H-M   'P 1'
_cell_length_a   8.09312657
_cell_length_b   8.60342902
_cell_length_c   10.60134688
_cell_angle_alpha   110.80118024
_cell_angle_beta   89.87638228
_cell_angle_gamma   117.86027337
_symmetry_Int_Tables_number   1
_chemical_formula_structural   Cu8Ni4C33
_chemical_formula_sum   'Cu8 Ni4 C33'
_cell_volume   597.95836526
_cell_formula_units_Z   1
loop_
 _symmetry_equiv_pos_site_id
 _symmetry_equiv_pos_as_xyz
  1  'x, y, z'
loop_
 _atom_site_type_symbol
 _atom_site_label
 _atom_site_symmetry_multiplicity
 _atom_site_fract_x
 _atom_site_fract_y
 _atom_site_fract_z
 _atom_site_occupancy
  C  C0  1  0.15714400  0.31698800  0.89127700  1
  C  C1  1  0.27812600  0.53989000  0.55748000  1
  C  C2  1  0.48084500  0.93207700  0.16529900  1
  C  C3  1  0.53931200  0.06700500  0.83411400  1
  C  C4  1  0.73696700  0.46012200  0.44268200  1
  C  C5  1  0.83735000  0.68347700  0.10877700  1
  Ni  Ni6  1  0.16021500  0.71210100  0.34766600  1
  Ni  Ni7  1  0.44698600  0.28807200  0.65122000  1
  Ni  Ni8  1  0.74874000  0.88101500  0.65736900  1
  Ni  Ni9  1  0.86933600  0.11929500  0.34476400  1
  C  C10  1  0.98959600  0.99987900  0.99912900  1
  Cu  Cu11  1  0.13720700  0.87937400  0.65755700  1
  Cu  Cu12  1  0.14913300  0.69739300  0.86682600  1
  Cu  Cu13  1  0.25911100  0.11994800  0.34051700  1
  Cu  Cu14  1  0.53273600  0.69609800  0.86894800  1
  Cu  Cu15  1  0.55449700  0.70695300  0.34940800  1
  Cu  Cu16  1  0.45485400  0.30178800  0.13099700  1
  Cu  Cu17  1  0.84070200  0.30520300  0.13326200  1
  Cu  Cu18  1  0.84604100  0.29267400  0.65187900  1
  C  C19  1  0.06281400  0.79675500  0.98170800  1
  C  C20  1  0.06057900  0.72479500  0.49744300  1
  C  C21  1  0.01563700  0.46103200  0.78988800  1
  C  C22  1  0.26084400  0.92469600  0.32045500  1
  C  C23  1  0.19853600  0.77903800  0.74318400  1
  C  C24  1  0.05033800  0.07628000  0.27810600  1
  C  C25  1  0.33543400  0.65026500  0.36581000  1
  C  C26  1  0.35632600  0.73398600  0.93395800  1
  C  C27  1  0.27541300  0.20300100  0.01235700  1
  C  C28  1  0.33774500  0.27551500  0.50055500  1
  C  C29  1  0.57501900  0.78190700  0.74860800  1
  C  C30  1  0.43275100  0.46201900  0.79334100  1
  C  C31  1  0.66419200  0.90301500  0.32343600  1
  C  C32  1  0.33299200  0.07437000  0.67723100  1
  C  C33  1  0.55692400  0.53827700  0.21135300  1
  C  C34  1  0.41870900  0.21774300  0.25332600  1
  C  C35  1  0.66297800  0.71506200  0.48370900  1
  C  C36  1  0.70616900  0.80186800  0.99622200  1
  C  C37  1  0.62838100  0.26614300  0.06616700  1
  C  C38  1  0.68419900  0.34987900  0.63434300  1
  C  C39  1  0.97283700  0.92344200  0.72240800  1
  C  C40  1  0.79678700  0.22156400  0.25479000  1
  C  C41  1  0.75898400  0.09755100  0.67909800  1
  C  C42  1  0.97342600  0.53912400  0.20559300  1
  C  C43  1  0.94891700  0.28422000  0.51849400  1
  C  C44  1  0.91416900  0.19910300  0.00924600  1
