# generated using pymatgen
data_Cu(Ni3C2)2
_symmetry_space_group_name_H-M   'P 1'
_cell_length_a   7.37955400
_cell_length_b   7.37955400
_cell_length_c   10.48438700
_cell_angle_alpha   90.00000000
_cell_angle_beta   90.00000000
_cell_angle_gamma   90.00000000
_symmetry_Int_Tables_number   1
_chemical_formula_structural   Cu(Ni3C2)2
_chemical_formula_sum   'Cu4 Ni24 C16'
_cell_volume   570.95683111
_cell_formula_units_Z   4
loop_
 _symmetry_equiv_pos_site_id
 _symmetry_equiv_pos_as_xyz
  1  'x, y, z'
loop_
 _atom_site_type_symbol
 _atom_site_label
 _atom_site_symmetry_multiplicity
 _atom_site_fract_x
 _atom_site_fract_y
 _atom_site_fract_z
 _atom_site_occupancy
  C  C0  1  0.50000000  0.72765500  0.00000000  1
  C  C1  1  0.50000000  0.27234500  0.50000000  1
  C  C2  1  0.72765500  0.50000000  0.75000000  1
  C  C3  1  0.27234500  0.50000000  0.25000000  1
  C  C4  1  0.00000000  0.72845700  0.00000000  1
  C  C5  1  0.27154300  0.00000000  0.25000000  1
  C  C6  1  0.00000000  0.27154300  0.50000000  1
  C  C7  1  0.72845700  0.00000000  0.75000000  1
  C  C8  1  0.00000000  0.76360900  0.50000000  1
  C  C9  1  0.23639100  0.00000000  0.75000000  1
  C  C10  1  0.76360900  0.00000000  0.25000000  1
  C  C11  1  0.00000000  0.23639100  0.00000000  1
  C  C12  1  0.50000000  0.75756800  0.50000000  1
  C  C13  1  0.50000000  0.24243200  0.00000000  1
  C  C14  1  0.75756800  0.50000000  0.25000000  1
  C  C15  1  0.24243200  0.50000000  0.75000000  1
  Ni  Ni16  1  0.55556100  0.94883300  0.36753500  1
  Ni  Ni17  1  0.95887500  0.95887500  0.37500000  1
  Ni  Ni18  1  0.05116700  0.44443900  0.88246500  1
  Ni  Ni19  1  0.04112500  0.04112500  0.87500000  1
  Ni  Ni20  1  0.04112500  0.95887500  0.62500000  1
  Ni  Ni21  1  0.24853100  0.22638700  0.07214600  1
  Ni  Ni22  1  0.24853100  0.77361300  0.42785400  1
  Ni  Ni23  1  0.22638700  0.24853100  0.67785400  1
  Ni  Ni24  1  0.44443900  0.94883300  0.63246500  1
  Ni  Ni25  1  0.43677100  0.43677100  0.87500000  1
  Ni  Ni26  1  0.44443900  0.05116700  0.86753500  1
  Ni  Ni27  1  0.56322900  0.56322900  0.37500000  1
  Ni  Ni28  1  0.56322900  0.43677100  0.12500000  1
  Ni  Ni29  1  0.55556100  0.05116700  0.13246500  1
  Ni  Ni30  1  0.75146900  0.77361300  0.57214600  1
  Ni  Ni31  1  0.75146900  0.22638700  0.92785400  1
  Ni  Ni32  1  0.77361300  0.24853100  0.32214600  1
  Ni  Ni33  1  0.77361300  0.75146900  0.17785400  1
  Ni  Ni34  1  0.94883300  0.44443900  0.11753500  1
  Ni  Ni35  1  0.95887500  0.04112500  0.12500000  1
  Ni  Ni36  1  0.94883300  0.55556100  0.38246500  1
  Ni  Ni37  1  0.05116700  0.55556100  0.61753500  1
  Ni  Ni38  1  0.22638700  0.75146900  0.82214600  1
  Ni  Ni39  1  0.43677100  0.56322900  0.62500000  1
  Cu  Cu40  1  0.26185600  0.73814400  0.12500000  1
  Cu  Cu41  1  0.73814400  0.26185600  0.62500000  1
  Cu  Cu42  1  0.73814400  0.73814400  0.87500000  1
  Cu  Cu43  1  0.26185600  0.26185600  0.37500000  1
