# generated using pymatgen
data_Cu2NiC2
_symmetry_space_group_name_H-M   'P 1'
_cell_length_a   5.34218552
_cell_length_b   5.34218552
_cell_length_c   9.47892033
_cell_angle_alpha   63.55758097
_cell_angle_beta   63.55758097
_cell_angle_gamma   42.77070833
_symmetry_Int_Tables_number   1
_chemical_formula_structural   Cu2NiC2
_chemical_formula_sum   'Cu4 Ni2 C4'
_cell_volume   161.33215169
_cell_formula_units_Z   2
loop_
 _symmetry_equiv_pos_site_id
 _symmetry_equiv_pos_as_xyz
  1  'x, y, z'
loop_
 _atom_site_type_symbol
 _atom_site_label
 _atom_site_symmetry_multiplicity
 _atom_site_fract_x
 _atom_site_fract_y
 _atom_site_fract_z
 _atom_site_occupancy
  C  C0  1  0.81261100  0.81261100  0.10226900  1
  C  C1  1  0.18738900  0.18738900  0.89773100  1
  C  C2  1  0.99677800  0.99677800  0.67577000  1
  C  C3  1  0.00322200  0.00322200  0.32423000  1
  Ni  Ni4  1  0.27718400  0.27718400  0.37267900  1
  Ni  Ni5  1  0.72281600  0.72281600  0.62732100  1
  Cu  Cu6  1  0.64368100  0.64368100  0.43101800  1
  Cu  Cu7  1  0.35631900  0.35631900  0.56898200  1
  Cu  Cu8  1  0.51266000  0.51266000  0.12356200  1
  Cu  Cu9  1  0.48734000  0.48734000  0.87643800  1
