# generated using pymatgen
data_Cu2NiC12
_symmetry_space_group_name_H-M   'P 1'
_cell_length_a   25.27657650
_cell_length_b   25.27657650
_cell_length_c   3.96824900
_cell_angle_alpha   90.00000000
_cell_angle_beta   90.00000000
_cell_angle_gamma   167.22251744
_symmetry_Int_Tables_number   1
_chemical_formula_structural   Cu2NiC12
_chemical_formula_sum   'Cu6 Ni3 C36'
_cell_volume   560.72806974
_cell_formula_units_Z   3
loop_
 _symmetry_equiv_pos_site_id
 _symmetry_equiv_pos_as_xyz
  1  'x, y, z'
loop_
 _atom_site_type_symbol
 _atom_site_label
 _atom_site_symmetry_multiplicity
 _atom_site_fract_x
 _atom_site_fract_y
 _atom_site_fract_z
 _atom_site_occupancy
  Ni  Ni0  1  0.05708200  0.94291800  0.50000000  1
  Ni  Ni1  1  0.50000000  0.50000000  0.50000000  1
  Ni  Ni2  1  0.94291800  0.05708200  0.50000000  1
  Cu  Cu3  1  0.38659100  0.61340900  0.50000000  1
  Cu  Cu4  1  0.83335100  0.16664900  0.50000000  1
  Cu  Cu5  1  0.27735800  0.72264200  0.50000000  1
  Cu  Cu6  1  0.72264200  0.27735800  0.50000000  1
  Cu  Cu7  1  0.16664900  0.83335100  0.50000000  1
  Cu  Cu8  1  0.61340900  0.38659100  0.50000000  1
  C  C9  1  0.55722000  0.44278000  0.00000000  1
  C  C10  1  0.00000000  0.00000000  0.00000000  1
  C  C11  1  0.44278000  0.55722000  0.00000000  1
  C  C12  1  0.88775400  0.11224600  0.00000000  1
  C  C13  1  0.33250700  0.66749300  0.00000000  1
  C  C14  1  0.77756400  0.22243600  0.00000000  1
  C  C15  1  0.22243600  0.77756400  0.00000000  1
  C  C16  1  0.66749300  0.33250700  0.00000000  1
  C  C17  1  0.11224600  0.88775400  0.00000000  1
  C  C18  1  0.11498900  0.88501100  0.50000000  1
  C  C19  1  0.27814700  0.22111600  0.00000000  1
  C  C20  1  0.72185300  0.77888400  0.00000000  1
  C  C21  1  0.17861300  0.34968500  0.00000000  1
  C  C22  1  0.05587700  0.44572900  0.00000000  1
  C  C23  1  0.61014900  0.88974600  0.00000000  1
  C  C24  1  0.50000000  0.00000000  0.00000000  1
  C  C25  1  0.94412300  0.55427100  0.00000000  1
  C  C26  1  0.38985100  0.11025400  0.00000000  1
  C  C27  1  0.82138700  0.65031500  0.00000000  1
  C  C28  1  0.77888400  0.72185300  0.00000000  1
  C  C29  1  0.22111600  0.27814700  0.00000000  1
  C  C30  1  0.65031500  0.82138700  0.00000000  1
  C  C31  1  0.11025400  0.38985100  0.00000000  1
  C  C32  1  0.55427100  0.94412300  0.00000000  1
  C  C33  1  0.44572900  0.05587700  0.00000000  1
  C  C34  1  0.00000000  0.50000000  0.00000000  1
  C  C35  1  0.34968500  0.17861300  0.00000000  1
  C  C36  1  0.88974600  0.61014900  0.00000000  1
  C  C37  1  0.55845200  0.44154800  0.50000000  1
  C  C38  1  0.00000000  0.00000000  0.50000000  1
  C  C39  1  0.44154800  0.55845200  0.50000000  1
  C  C40  1  0.88501100  0.11498900  0.50000000  1
  C  C41  1  0.33330900  0.66669100  0.50000000  1
  C  C42  1  0.77716000  0.22284000  0.50000000  1
  C  C43  1  0.22284000  0.77716000  0.50000000  1
  C  C44  1  0.66669100  0.33330900  0.50000000  1
