# generated using pymatgen
data_Cu3NiC18
_symmetry_space_group_name_H-M   'P 1'
_cell_length_a   7.38223500
_cell_length_b   7.43327700
_cell_length_c   12.80480594
_cell_angle_alpha   54.87344679
_cell_angle_beta   90.00000000
_cell_angle_gamma   90.00000000
_symmetry_Int_Tables_number   1
_chemical_formula_structural   Cu3NiC18
_chemical_formula_sum   'Cu6 Ni2 C36'
_cell_volume   574.68841758
_cell_formula_units_Z   2
loop_
 _symmetry_equiv_pos_site_id
 _symmetry_equiv_pos_as_xyz
  1  'x, y, z'
loop_
 _atom_site_type_symbol
 _atom_site_label
 _atom_site_symmetry_multiplicity
 _atom_site_fract_x
 _atom_site_fract_y
 _atom_site_fract_z
 _atom_site_occupancy
  Ni  Ni0  1  0.50000000  0.50000000  0.00000000  1
  Ni  Ni1  1  0.50000000  0.50000000  0.50000000  1
  Cu  Cu2  1  0.27055300  0.00000000  0.75000000  1
  Cu  Cu3  1  0.25797500  0.50000000  0.75000000  1
  Cu  Cu4  1  0.74202500  0.50000000  0.25000000  1
  Cu  Cu5  1  0.00000000  0.50000000  0.00000000  1
  Cu  Cu6  1  0.72944700  0.00000000  0.25000000  1
  Cu  Cu7  1  0.00000000  0.50000000  0.50000000  1
  C  C8  1  0.00000000  0.00000000  0.50000000  1
  C  C9  1  0.00000000  0.00000000  0.00000000  1
  C  C10  1  0.76213200  0.00000000  0.75000000  1
  C  C11  1  0.23786800  0.00000000  0.25000000  1
  C  C12  1  0.24493700  0.50000000  0.25000000  1
  C  C13  1  0.75506300  0.50000000  0.75000000  1
  C  C14  1  0.50000000  0.00000000  0.00000000  1
  C  C15  1  0.50000000  0.00000000  0.50000000  1
  C  C16  1  0.24861900  0.62856300  0.87289500  1
  C  C17  1  0.05330800  0.07159600  0.12240900  1
  C  C18  1  0.24989900  0.07559800  0.92444100  1
  C  C19  1  0.75138100  0.62856300  0.37289500  1
  C  C20  1  0.04626600  0.67815300  0.12282100  1
  C  C21  1  0.55486500  0.05646300  0.63092400  1
  C  C22  1  0.94669200  0.07159600  0.62240900  1
  C  C23  1  0.04626600  0.32184700  0.37717900  1
  C  C24  1  0.76819900  0.68105400  0.81924900  1
  C  C25  1  0.75010100  0.07559800  0.42444100  1
  C  C26  1  0.23180100  0.31894600  0.18075100  1
  C  C27  1  0.24989900  0.92440200  0.57555900  1
  C  C28  1  0.54899700  0.67288500  0.62771500  1
  C  C29  1  0.05330800  0.92840400  0.37759100  1
  C  C30  1  0.95373400  0.67815300  0.62282100  1
  C  C31  1  0.54899700  0.32711500  0.87228500  1
  C  C32  1  0.44513500  0.05646300  0.13092400  1
  C  C33  1  0.95373400  0.32184700  0.87717900  1
  C  C34  1  0.76819900  0.31894600  0.68075100  1
  C  C35  1  0.23180100  0.68105400  0.31924900  1
  C  C36  1  0.24861900  0.37143700  0.62710500  1
  C  C37  1  0.75010100  0.92440200  0.07555900  1
  C  C38  1  0.55486500  0.94353700  0.86907600  1
  C  C39  1  0.45100300  0.67288500  0.12771500  1
  C  C40  1  0.94669200  0.92840400  0.87759100  1
  C  C41  1  0.45100300  0.32711500  0.37228500  1
  C  C42  1  0.75138100  0.37143700  0.12710500  1
  C  C43  1  0.44513500  0.94353700  0.36907600  1
