# generated using pymatgen
data_Cu3NiC3
_symmetry_space_group_name_H-M   'P 1'
_cell_length_a   9.70668400
_cell_length_b   9.70668400
_cell_length_c   9.70668400
_cell_angle_alpha   90.00000000
_cell_angle_beta   90.00000000
_cell_angle_gamma   90.00000000
_symmetry_Int_Tables_number   1
_chemical_formula_structural   Cu3NiC3
_chemical_formula_sum   'Cu12 Ni4 C12'
_cell_volume   914.56099305
_cell_formula_units_Z   4
loop_
 _symmetry_equiv_pos_site_id
 _symmetry_equiv_pos_as_xyz
  1  'x, y, z'
loop_
 _atom_site_type_symbol
 _atom_site_label
 _atom_site_symmetry_multiplicity
 _atom_site_fract_x
 _atom_site_fract_y
 _atom_site_fract_z
 _atom_site_occupancy
  C  C0  1  0.68741500  0.81258500  0.18741500  1
  C  C1  1  0.81258500  0.18741500  0.68741500  1
  C  C2  1  0.18741500  0.68741500  0.81258500  1
  C  C3  1  0.31258500  0.31258500  0.31258500  1
  C  C4  1  0.45016700  0.04983300  0.95016700  1
  C  C5  1  0.04983300  0.95016700  0.45016700  1
  C  C6  1  0.95016700  0.45016700  0.04983300  1
  C  C7  1  0.54983300  0.54983300  0.54983300  1
  C  C8  1  0.91392800  0.58607200  0.41392800  1
  C  C9  1  0.58607200  0.41392800  0.91392800  1
  C  C10  1  0.41392800  0.91392800  0.58607200  1
  C  C11  1  0.08607200  0.08607200  0.08607200  1
  Ni  Ni12  1  0.79906800  0.79906800  0.79906800  1
  Ni  Ni13  1  0.70093200  0.20093200  0.29906800  1
  Ni  Ni14  1  0.29906800  0.70093200  0.20093200  1
  Ni  Ni15  1  0.20093200  0.29906800  0.70093200  1
  Cu  Cu16  1  0.89092900  0.55185900  0.74106500  1
  Cu  Cu17  1  0.39092900  0.94814100  0.25893500  1
  Cu  Cu18  1  0.10907100  0.05185900  0.75893500  1
  Cu  Cu19  1  0.94814100  0.25893500  0.39092900  1
  Cu  Cu20  1  0.75893500  0.10907100  0.05185900  1
  Cu  Cu21  1  0.25893500  0.39092900  0.94814100  1
  Cu  Cu22  1  0.55185900  0.74106500  0.89092900  1
  Cu  Cu23  1  0.74106500  0.89092900  0.55185900  1
  Cu  Cu24  1  0.05185900  0.75893500  0.10907100  1
  Cu  Cu25  1  0.44814100  0.24106500  0.60907100  1
  Cu  Cu26  1  0.24106500  0.60907100  0.44814100  1
  Cu  Cu27  1  0.60907100  0.44814100  0.24106500  1
