# generated using pymatgen
data_Cu5NiC4
_symmetry_space_group_name_H-M   'P 1'
_cell_length_a   5.99689063
_cell_length_b   5.99689063
_cell_length_c   5.99689063
_cell_angle_alpha   120.19657139
_cell_angle_beta   120.19657139
_cell_angle_gamma   89.65986424
_symmetry_Int_Tables_number   1
_chemical_formula_structural   Cu5NiC4
_chemical_formula_sum   'Cu5 Ni1 C4'
_cell_volume   152.04173195
_cell_formula_units_Z   1
loop_
 _symmetry_equiv_pos_site_id
 _symmetry_equiv_pos_as_xyz
  1  'x, y, z'
loop_
 _atom_site_type_symbol
 _atom_site_label
 _atom_site_symmetry_multiplicity
 _atom_site_fract_x
 _atom_site_fract_y
 _atom_site_fract_z
 _atom_site_occupancy
  C  C0  1  0.75273700  0.25273700  0.50000000  1
  C  C1  1  0.25273700  0.75273700  0.50000000  1
  C  C2  1  0.49999000  0.49999000  0.00000000  1
  C  C3  1  0.02019700  0.02019700  0.00000000  1
  Ni  Ni4  1  0.22189100  0.22189100  0.00000000  1
  Cu  Cu5  1  0.22575500  0.22575500  0.45998700  1
  Cu  Cu6  1  0.76576800  0.22575500  0.00000000  1
  Cu  Cu7  1  0.22575500  0.76576800  0.00000000  1
  Cu  Cu8  1  0.76576800  0.76576800  0.54001300  1
  Cu  Cu9  1  0.76940200  0.76940200  0.00000000  1
