# generated using pymatgen
data_Cu(NiC3)2
_symmetry_space_group_name_H-M   'P 1'
_cell_length_a   6.72964463
_cell_length_b   6.72964463
_cell_length_c   7.42427749
_cell_angle_alpha   89.67480968
_cell_angle_beta   89.67480968
_cell_angle_gamma   117.35503649
_symmetry_Int_Tables_number   1
_chemical_formula_structural   Cu(NiC3)2
_chemical_formula_sum   'Cu2 Ni4 C12'
_cell_volume   298.61507814
_cell_formula_units_Z   2
loop_
 _symmetry_equiv_pos_site_id
 _symmetry_equiv_pos_as_xyz
  1  'x, y, z'
loop_
 _atom_site_type_symbol
 _atom_site_label
 _atom_site_symmetry_multiplicity
 _atom_site_fract_x
 _atom_site_fract_y
 _atom_site_fract_z
 _atom_site_occupancy
  Ni  Ni0  1  0.68626400  0.36337900  0.99852200  1
  Ni  Ni1  1  0.63662100  0.31373600  0.50147800  1
  Ni  Ni2  1  0.36337900  0.68626400  0.49852200  1
  Ni  Ni3  1  0.31373600  0.63662100  0.00147800  1
  Cu  Cu4  1  0.96158000  0.03842000  0.75000000  1
  Cu  Cu5  1  0.03842000  0.96158000  0.25000000  1
  C  C6  1  0.06134600  0.84939800  0.95644500  1
  C  C7  1  0.15060200  0.93865400  0.54355500  1
  C  C8  1  0.93865400  0.15060200  0.04355500  1
  C  C9  1  0.84939800  0.06134600  0.45644500  1
  C  C10  1  0.39822100  0.01120700  0.22419700  1
  C  C11  1  0.98879300  0.60177900  0.27580300  1
  C  C12  1  0.32314100  0.29292800  0.79061500  1
  C  C13  1  0.70707200  0.67685900  0.70938500  1
  C  C14  1  0.67685900  0.70707200  0.20938500  1
  C  C15  1  0.29292800  0.32314100  0.29061500  1
  C  C16  1  0.01120700  0.39822100  0.72419700  1
  C  C17  1  0.60177900  0.98879300  0.77580300  1
