# generated using pymatgen
data_Cu2NiC5
_symmetry_space_group_name_H-M   'P 1'
_cell_length_a   7.03238936
_cell_length_b   7.03238936
_cell_length_c   7.03238936
_cell_angle_alpha   129.01607890
_cell_angle_beta   129.01607890
_cell_angle_gamma   74.98470351
_symmetry_Int_Tables_number   1
_chemical_formula_structural   Cu2NiC5
_chemical_formula_sum   'Cu4 Ni2 C10'
_cell_volume   204.45276282
_cell_formula_units_Z   2
loop_
 _symmetry_equiv_pos_site_id
 _symmetry_equiv_pos_as_xyz
  1  'x, y, z'
loop_
 _atom_site_type_symbol
 _atom_site_label
 _atom_site_symmetry_multiplicity
 _atom_site_fract_x
 _atom_site_fract_y
 _atom_site_fract_z
 _atom_site_occupancy
  Ni  Ni0  1  0.75000000  0.75000000  0.00000000  1
  Ni  Ni1  1  0.25000000  0.25000000  0.00000000  1
  Cu  Cu2  1  0.37904800  0.87904800  0.25809700  1
  Cu  Cu3  1  0.87904800  0.62095200  0.50000000  1
  Cu  Cu4  1  0.62095200  0.12095200  0.74190300  1
  Cu  Cu5  1  0.12095200  0.37904800  0.50000000  1
  C  C6  1  0.00000000  0.00000000  0.00000000  1
  C  C7  1  0.80380800  0.97570900  0.50000000  1
  C  C8  1  0.30380800  0.80380800  0.82809900  1
  C  C9  1  0.19619200  0.02429100  0.50000000  1
  C  C10  1  0.52429100  0.69619200  0.50000000  1
  C  C11  1  0.02429100  0.52429100  0.82809900  1
  C  C12  1  0.69619200  0.19619200  0.17190100  1
  C  C13  1  0.97570900  0.47570900  0.17190100  1
  C  C14  1  0.50000000  0.50000000  0.00000000  1
  C  C15  1  0.47570900  0.30380800  0.50000000  1
