# generated using pymatgen
data_Cu4Ni2C
_symmetry_space_group_name_H-M   'P 1'
_cell_length_a   21.30377400
_cell_length_b   8.78131600
_cell_length_c   12.68212174
_cell_angle_alpha   47.15177116
_cell_angle_beta   90.00000000
_cell_angle_gamma   90.00000000
_symmetry_Int_Tables_number   1
_chemical_formula_structural   Cu4Ni2C
_chemical_formula_sum   'Cu32 Ni16 C8'
_cell_volume   1739.42400911
_cell_formula_units_Z   8
loop_
 _symmetry_equiv_pos_site_id
 _symmetry_equiv_pos_as_xyz
  1  'x, y, z'
loop_
 _atom_site_type_symbol
 _atom_site_label
 _atom_site_symmetry_multiplicity
 _atom_site_fract_x
 _atom_site_fract_y
 _atom_site_fract_z
 _atom_site_occupancy
  C  C0  1  0.20463300  0.15602700  0.89835700  1
  C  C1  1  0.70463300  0.84397300  0.60164300  1
  C  C2  1  0.79536700  0.84397300  0.10164300  1
  C  C3  1  0.29536700  0.15602700  0.39835700  1
  C  C4  1  0.80548500  0.34460300  0.60049400  1
  C  C5  1  0.30548500  0.65539700  0.89950600  1
  C  C6  1  0.19451500  0.65539700  0.39950600  1
  C  C7  1  0.69451500  0.34460300  0.10049400  1
  Ni  Ni8  1  0.03401100  0.89570800  0.90945200  1
  Ni  Ni9  1  0.53401000  0.10429200  0.59054800  1
  Ni  Ni10  1  0.96598900  0.10429200  0.09054800  1
  Ni  Ni11  1  0.46598900  0.89570800  0.40945200  1
  Ni  Ni12  1  0.00532000  0.48653600  0.35479100  1
  Ni  Ni13  1  0.50532000  0.51346400  0.14520900  1
  Ni  Ni14  1  0.99468000  0.51346400  0.64520900  1
  Ni  Ni15  1  0.49468000  0.48653600  0.85479100  1
  Ni  Ni16  1  0.38785300  0.87027600  0.11989100  1
  Ni  Ni17  1  0.88785300  0.12972400  0.38010900  1
  Ni  Ni18  1  0.61214700  0.12972400  0.88010900  1
  Ni  Ni19  1  0.11214700  0.87027600  0.61989100  1
  Ni  Ni20  1  0.37853200  0.33758700  0.64732300  1
  Ni  Ni21  1  0.87853200  0.66241300  0.85267700  1
  Ni  Ni22  1  0.62146800  0.66241300  0.35267700  1
  Ni  Ni23  1  0.12146800  0.33758700  0.14732300  1
  Cu  Cu24  1  0.14579000  0.30423200  0.36594600  1
  Cu  Cu25  1  0.64579000  0.69576800  0.13405400  1
  Cu  Cu26  1  0.85421000  0.69576800  0.63405400  1
  Cu  Cu27  1  0.35421000  0.30423200  0.86594600  1
  Cu  Cu28  1  0.07514200  0.89393600  0.10696100  1
  Cu  Cu29  1  0.57514200  0.10606400  0.39303900  1
  Cu  Cu30  1  0.92485800  0.10606400  0.89303900  1
  Cu  Cu31  1  0.42485800  0.89393600  0.60696100  1
  Cu  Cu32  1  0.65298800  0.26724200  0.57175600  1
  Cu  Cu33  1  0.15298800  0.73275800  0.92824400  1
  Cu  Cu34  1  0.34701200  0.73275800  0.42824400  1
  Cu  Cu35  1  0.84701200  0.26724200  0.07175600  1
  Cu  Cu36  1  0.46668700  0.51944800  0.33684500  1
  Cu  Cu37  1  0.96668700  0.48055200  0.16315500  1
  Cu  Cu38  1  0.53331300  0.48055200  0.66315500  1
  Cu  Cu39  1  0.03331300  0.51944800  0.83684500  1
  Cu  Cu40  1  0.08664100  0.26895300  0.67987600  1
  Cu  Cu41  1  0.58664100  0.73104700  0.82012400  1
  Cu  Cu42  1  0.91335900  0.73104700  0.32012400  1
  Cu  Cu43  1  0.41335900  0.26895300  0.17987600  1
  Cu  Cu44  1  0.93777400  0.13995100  0.56955400  1
  Cu  Cu45  1  0.43777400  0.86004900  0.93044600  1
  Cu  Cu46  1  0.06222600  0.86004900  0.43044600  1
  Cu  Cu47  1  0.56222600  0.13995100  0.06955400  1
  Cu  Cu48  1  0.72820200  0.81567200  0.35262300  1
  Cu  Cu49  1  0.22820200  0.18432800  0.14737700  1
  Cu  Cu50  1  0.27179800  0.18432800  0.64737700  1
  Cu  Cu51  1  0.77179800  0.81567200  0.85262300  1
  Cu  Cu52  1  0.21831900  0.69595300  0.64861000  1
  Cu  Cu53  1  0.71831900  0.30404700  0.85139000  1
  Cu  Cu54  1  0.78168100  0.30404700  0.35139000  1
  Cu  Cu55  1  0.28168100  0.69595300  0.14861000  1
