# generated using pymatgen
data_Cu3NiC18
_symmetry_space_group_name_H-M   'P 1'
_cell_length_a   7.32399700
_cell_length_b   7.35683800
_cell_length_c   12.67799081
_cell_angle_alpha   54.94585857
_cell_angle_beta   90.00000000
_cell_angle_gamma   90.00000000
_symmetry_Int_Tables_number   1
_chemical_formula_structural   Cu3NiC18
_chemical_formula_sum   'Cu6 Ni2 C36'
_cell_volume   559.19935144
_cell_formula_units_Z   2
loop_
 _symmetry_equiv_pos_site_id
 _symmetry_equiv_pos_as_xyz
  1  'x, y, z'
loop_
 _atom_site_type_symbol
 _atom_site_label
 _atom_site_symmetry_multiplicity
 _atom_site_fract_x
 _atom_site_fract_y
 _atom_site_fract_z
 _atom_site_occupancy
  Ni  Ni0  1  0.50000000  0.50000000  0.50000000  1
  Ni  Ni1  1  0.50000000  0.50000000  0.00000000  1
  Cu  Cu2  1  0.26701600  0.00000000  0.75000000  1
  Cu  Cu3  1  0.73298400  0.00000000  0.25000000  1
  Cu  Cu4  1  0.25473500  0.50000000  0.75000000  1
  Cu  Cu5  1  0.74526500  0.50000000  0.25000000  1
  Cu  Cu6  1  0.00000000  0.50000000  0.00000000  1
  Cu  Cu7  1  0.00000000  0.50000000  0.50000000  1
  C  C8  1  0.00000000  0.00000000  0.00000000  1
  C  C9  1  0.00000000  0.00000000  0.50000000  1
  C  C10  1  0.23918200  0.00000000  0.25000000  1
  C  C11  1  0.76081800  0.00000000  0.75000000  1
  C  C12  1  0.24589800  0.50000000  0.25000000  1
  C  C13  1  0.50000000  0.00000000  0.50000000  1
  C  C14  1  0.75410200  0.50000000  0.75000000  1
  C  C15  1  0.50000000  0.00000000  0.00000000  1
  C  C16  1  0.23981100  0.63268400  0.86881300  1
  C  C17  1  0.05348100  0.07328800  0.12231500  1
  C  C18  1  0.23228800  0.67830300  0.32229900  1
  C  C19  1  0.76018900  0.63268400  0.36881300  1
  C  C20  1  0.24928500  0.07662700  0.92308800  1
  C  C21  1  0.04549700  0.67618100  0.12263500  1
  C  C22  1  0.55028200  0.05722800  0.63216600  1
  C  C23  1  0.04549700  0.32381900  0.37736500  1
  C  C24  1  0.94651900  0.07328800  0.62231500  1
  C  C25  1  0.24928500  0.92337300  0.57691200  1
  C  C26  1  0.75071500  0.07662700  0.42308800  1
  C  C27  1  0.76771200  0.67830300  0.82229900  1
  C  C28  1  0.05348100  0.92671200  0.37768500  1
  C  C29  1  0.95450300  0.67618100  0.62263500  1
  C  C30  1  0.54483300  0.67056300  0.62859000  1
  C  C31  1  0.95450300  0.32381900  0.87736500  1
  C  C32  1  0.54483300  0.32943700  0.87141000  1
  C  C33  1  0.44971800  0.05722800  0.13216600  1
  C  C34  1  0.76771200  0.32169700  0.67770100  1
  C  C35  1  0.75071500  0.92337300  0.07691200  1
  C  C36  1  0.94651900  0.92671200  0.87768500  1
  C  C37  1  0.45516700  0.67056300  0.12859000  1
  C  C38  1  0.55028200  0.94277200  0.86783400  1
  C  C39  1  0.45516700  0.32943700  0.37141000  1
  C  C40  1  0.76018900  0.36731600  0.13118700  1
  C  C41  1  0.23228800  0.32169700  0.17770100  1
  C  C42  1  0.44971800  0.94277200  0.36783400  1
  C  C43  1  0.23981100  0.36731600  0.63118700  1
