# generated using pymatgen
data_CuNi2C19
_symmetry_space_group_name_H-M   'P 1'
_cell_length_a   7.40752100
_cell_length_b   7.40769700
_cell_length_c   10.49008100
_cell_angle_alpha   90.00000000
_cell_angle_beta   90.00000000
_cell_angle_gamma   90.00000000
_symmetry_Int_Tables_number   1
_chemical_formula_structural   CuNi2C19
_chemical_formula_sum   'Cu2 Ni4 C38'
_cell_volume   575.61876441
_cell_formula_units_Z   2
loop_
 _symmetry_equiv_pos_site_id
 _symmetry_equiv_pos_as_xyz
  1  'x, y, z'
loop_
 _atom_site_type_symbol
 _atom_site_label
 _atom_site_symmetry_multiplicity
 _atom_site_fract_x
 _atom_site_fract_y
 _atom_site_fract_z
 _atom_site_occupancy
  C  C0  1  0.72927500  0.76970400  0.50210800  1
  C  C1  1  0.00000000  0.50000000  0.23143200  1
  C  C2  1  0.77072500  0.26970400  0.00210800  1
  C  C3  1  0.50000000  0.00000000  0.73143200  1
  C  C4  1  0.22927500  0.73029600  0.00210800  1
  C  C5  1  0.27072500  0.23029600  0.50210800  1
  C  C6  1  0.22762400  0.27204000  0.00189600  1
  C  C7  1  0.72762400  0.22796000  0.50189600  1
  C  C8  1  0.50000000  0.00000000  0.27417000  1
  C  C9  1  0.27237600  0.77204000  0.50189600  1
  C  C10  1  0.77237600  0.72796000  0.00189600  1
  C  C11  1  0.00000000  0.50000000  0.77417000  1
  Ni  Ni12  1  0.50000000  0.50000000  0.24695600  1
  Ni  Ni13  1  0.00000000  0.00000000  0.74695600  1
  Ni  Ni14  1  0.50000000  0.50000000  0.74601000  1
  Ni  Ni15  1  0.00000000  0.00000000  0.24601000  1
  Cu  Cu16  1  0.50000000  0.00000000  0.00378300  1
  Cu  Cu17  1  0.00000000  0.50000000  0.50378300  1
  C  C18  1  0.00000000  0.50000000  0.99136800  1
  C  C19  1  0.00890300  0.19967200  0.84629600  1
  C  C20  1  0.50000000  0.00000000  0.49136800  1
  C  C21  1  0.80366200  0.00921100  0.64774500  1
  C  C22  1  0.99109700  0.80032800  0.84629600  1
  C  C23  1  0.49109700  0.69967200  0.34629600  1
  C  C24  1  0.83514700  0.49318400  0.42462800  1
  C  C25  1  0.30366200  0.49078900  0.14774500  1
  C  C26  1  0.69633800  0.50921100  0.14774500  1
  C  C27  1  0.50890300  0.30032800  0.34629600  1
  C  C28  1  0.49446700  0.16286600  0.08871300  1
  C  C29  1  0.66485300  0.99318400  0.92462800  1
  C  C30  1  0.33514700  0.00681600  0.92462800  1
  C  C31  1  0.19633800  0.99078900  0.64774500  1
  C  C32  1  0.80324500  0.01346500  0.34343900  1
  C  C33  1  0.50553300  0.83713400  0.08871300  1
  C  C34  1  0.48576100  0.69353000  0.64834500  1
  C  C35  1  0.00553300  0.66286600  0.58871300  1
  C  C36  1  0.69675500  0.51346500  0.84343900  1
  C  C37  1  0.16485300  0.50681600  0.42462800  1
  C  C38  1  0.30324500  0.48653500  0.84343900  1
  C  C39  1  0.99446700  0.33713400  0.58871300  1
  C  C40  1  0.51423900  0.30647000  0.64834500  1
  C  C41  1  0.01423900  0.19353000  0.14834500  1
  C  C42  1  0.19675500  0.98653500  0.34343900  1
  C  C43  1  0.98576100  0.80647000  0.14834500  1
