# generated using pymatgen
data_Cu10Ni2C11
_symmetry_space_group_name_H-M   'P 1'
_cell_length_a   14.57016200
_cell_length_b   14.57016200
_cell_length_c   3.61379900
_cell_angle_alpha   90.00000000
_cell_angle_beta   90.00000000
_cell_angle_gamma   90.00000000
_symmetry_Int_Tables_number   1
_chemical_formula_structural   Cu10Ni2C11
_chemical_formula_sum   'Cu20 Ni4 C22'
_cell_volume   767.17201902
_cell_formula_units_Z   2
loop_
 _symmetry_equiv_pos_site_id
 _symmetry_equiv_pos_as_xyz
  1  'x, y, z'
loop_
 _atom_site_type_symbol
 _atom_site_label
 _atom_site_symmetry_multiplicity
 _atom_site_fract_x
 _atom_site_fract_y
 _atom_site_fract_z
 _atom_site_occupancy
  C  C0  1  0.60633900  0.88172500  0.00000000  1
  C  C1  1  0.39366100  0.11827500  0.00000000  1
  C  C2  1  0.61827500  0.10633900  0.50000000  1
  C  C3  1  0.38172500  0.89366100  0.50000000  1
  C  C4  1  0.88172500  0.60633900  0.00000000  1
  C  C5  1  0.10633900  0.61827500  0.50000000  1
  C  C6  1  0.89366100  0.38172500  0.50000000  1
  C  C7  1  0.11827500  0.39366100  0.00000000  1
  C  C8  1  0.16725200  0.83274800  0.00000000  1
  C  C9  1  0.33274800  0.33274800  0.50000000  1
  C  C10  1  0.66725200  0.66725200  0.50000000  1
  C  C11  1  0.83274800  0.16725200  0.00000000  1
  C  C12  1  0.70478800  0.48042800  0.00000000  1
  C  C13  1  0.29521200  0.51957200  0.00000000  1
  C  C14  1  0.01957200  0.20478800  0.50000000  1
  C  C15  1  0.98042800  0.79521200  0.50000000  1
  C  C16  1  0.48042800  0.70478800  0.00000000  1
  C  C17  1  0.20478800  0.01957200  0.50000000  1
  C  C18  1  0.79521200  0.98042800  0.50000000  1
  C  C19  1  0.51957200  0.29521200  0.00000000  1
  C  C20  1  0.50000000  0.50000000  0.50000000  1
  C  C21  1  0.00000000  0.00000000  0.00000000  1
  Ni  Ni22  1  0.81579800  0.81579800  0.00000000  1
  Ni  Ni23  1  0.31579800  0.68420200  0.50000000  1
  Ni  Ni24  1  0.68420200  0.31579800  0.50000000  1
  Ni  Ni25  1  0.18420200  0.18420200  0.00000000  1
  Cu  Cu26  1  0.87626500  0.87626500  0.00000000  1
  Cu  Cu27  1  0.37626500  0.62373500  0.50000000  1
  Cu  Cu28  1  0.62373500  0.37626500  0.50000000  1
  Cu  Cu29  1  0.12373500  0.12373500  0.00000000  1
  Cu  Cu30  1  0.75584100  0.75584100  0.00000000  1
  Cu  Cu31  1  0.25584100  0.74415900  0.50000000  1
  Cu  Cu32  1  0.74415900  0.25584100  0.50000000  1
  Cu  Cu33  1  0.24415900  0.24415900  0.00000000  1
  Cu  Cu34  1  0.31123000  0.97201100  0.00000000  1
  Cu  Cu35  1  0.68877000  0.02798900  0.00000000  1
  Cu  Cu36  1  0.52798900  0.81123000  0.50000000  1
  Cu  Cu37  1  0.47201100  0.18877000  0.50000000  1
  Cu  Cu38  1  0.97201100  0.31123000  0.00000000  1
  Cu  Cu39  1  0.81123000  0.52798900  0.50000000  1
  Cu  Cu40  1  0.18877000  0.47201100  0.50000000  1
  Cu  Cu41  1  0.02798900  0.68877000  0.00000000  1
  Cu  Cu42  1  0.58976900  0.58976900  0.00000000  1
  Cu  Cu43  1  0.08976900  0.91023100  0.50000000  1
  Cu  Cu44  1  0.41023100  0.41023100  0.00000000  1
  Cu  Cu45  1  0.91023100  0.08976900  0.50000000  1
