# generated using pymatgen
data_Cu4Ni8C
_symmetry_space_group_name_H-M   'P 1'
_cell_length_a   6.64481660
_cell_length_b   6.64481660
_cell_length_c   6.64481660
_cell_angle_alpha   98.21920079
_cell_angle_beta   98.21920079
_cell_angle_gamma   135.56775155
_symmetry_Int_Tables_number   1
_chemical_formula_structural   Cu4Ni8C
_chemical_formula_sum   'Cu4 Ni8 C1'
_cell_volume   190.14634281
_cell_formula_units_Z   1
loop_
 _symmetry_equiv_pos_site_id
 _symmetry_equiv_pos_as_xyz
  1  'x, y, z'
loop_
 _atom_site_type_symbol
 _atom_site_label
 _atom_site_symmetry_multiplicity
 _atom_site_fract_x
 _atom_site_fract_y
 _atom_site_fract_z
 _atom_site_occupancy
  C  C0  1  0.00000000  0.00000000  0.00000000  1
  Ni  Ni1  1  0.65968500  0.00000000  0.65968500  1
  Ni  Ni2  1  0.00000000  0.65968500  0.65968500  1
  Ni  Ni3  1  0.00000000  0.34031500  0.34031500  1
  Ni  Ni4  1  0.34031500  0.00000000  0.34031500  1
  Ni  Ni5  1  0.72104100  0.50000000  0.22104100  1
  Ni  Ni6  1  0.50000000  0.72104100  0.22104100  1
  Ni  Ni7  1  0.50000000  0.27895900  0.77895900  1
  Ni  Ni8  1  0.27895900  0.50000000  0.77895900  1
  Cu  Cu9  1  0.00000000  0.00000000  0.50000000  1
  Cu  Cu10  1  0.50000000  0.00000000  0.00000000  1
  Cu  Cu11  1  0.00000000  0.50000000  0.00000000  1
  Cu  Cu12  1  0.50000000  0.50000000  0.50000000  1
