# generated using pymatgen
data_Cu4NiC20
_symmetry_space_group_name_H-M   'P 1'
_cell_length_a   4.00890400
_cell_length_b   4.00890400
_cell_length_c   20.33079200
_cell_angle_alpha   90.00000000
_cell_angle_beta   90.00000000
_cell_angle_gamma   90.00000000
_symmetry_Int_Tables_number   1
_chemical_formula_structural   Cu4NiC20
_chemical_formula_sum   'Cu4 Ni1 C20'
_cell_volume   326.74248683
_cell_formula_units_Z   1
loop_
 _symmetry_equiv_pos_site_id
 _symmetry_equiv_pos_as_xyz
  1  'x, y, z'
loop_
 _atom_site_type_symbol
 _atom_site_label
 _atom_site_symmetry_multiplicity
 _atom_site_fract_x
 _atom_site_fract_y
 _atom_site_fract_z
 _atom_site_occupancy
  Ni  Ni0  1  0.00000000  0.00000000  0.50000000  1
  Cu  Cu1  1  0.00000000  0.00000000  0.69772900  1
  Cu  Cu2  1  0.00000000  0.00000000  0.89960100  1
  Cu  Cu3  1  0.00000000  0.00000000  0.10039900  1
  Cu  Cu4  1  0.00000000  0.00000000  0.30227100  1
  C  C5  1  0.50000000  0.50000000  0.80075100  1
  C  C6  1  0.50000000  0.50000000  0.19924900  1
  C  C7  1  0.50000000  0.50000000  0.00000000  1
  C  C8  1  0.50000000  0.50000000  0.60441200  1
  C  C9  1  0.50000000  0.50000000  0.39558800  1
  C  C10  1  0.00000000  0.50000000  0.80020300  1
  C  C11  1  0.00000000  0.50000000  0.00000000  1
  C  C12  1  0.00000000  0.50000000  0.19979700  1
  C  C13  1  0.00000000  0.50000000  0.39850300  1
  C  C14  1  0.00000000  0.50000000  0.60149700  1
  C  C15  1  0.50000000  0.00000000  0.80020300  1
  C  C16  1  0.50000000  0.50000000  0.70005700  1
  C  C17  1  0.50000000  0.00000000  0.00000000  1
  C  C18  1  0.50000000  0.00000000  0.19979700  1
  C  C19  1  0.50000000  0.50000000  0.10004500  1
  C  C20  1  0.50000000  0.50000000  0.89995500  1
  C  C21  1  0.50000000  0.00000000  0.39850300  1
  C  C22  1  0.50000000  0.00000000  0.60149700  1
  C  C23  1  0.50000000  0.50000000  0.29994300  1
  C  C24  1  0.50000000  0.50000000  0.50000000  1
