# generated using pymatgen
data_Cu4Ni3C31
_symmetry_space_group_name_H-M   'P 1'
_cell_length_a   7.68043500
_cell_length_b   7.68043500
_cell_length_c   8.00730100
_cell_angle_alpha   90.00000000
_cell_angle_beta   90.00000000
_cell_angle_gamma   90.00000000
_symmetry_Int_Tables_number   1
_chemical_formula_structural   Cu4Ni3C31
_chemical_formula_sum   'Cu4 Ni3 C31'
_cell_volume   472.34333360
_cell_formula_units_Z   1
loop_
 _symmetry_equiv_pos_site_id
 _symmetry_equiv_pos_as_xyz
  1  'x, y, z'
loop_
 _atom_site_type_symbol
 _atom_site_label
 _atom_site_symmetry_multiplicity
 _atom_site_fract_x
 _atom_site_fract_y
 _atom_site_fract_z
 _atom_site_occupancy
  C  C0  1  0.00000000  0.00000000  0.50000000  1
  C  C1  1  0.00000000  0.50000000  0.25098900  1
  C  C2  1  0.50000000  0.00000000  0.74901100  1
  C  C3  1  0.57167500  0.41572100  0.07456400  1
  C  C4  1  0.57196100  0.41612100  0.42546200  1
  C  C5  1  0.58387900  0.57196100  0.57453800  1
  C  C6  1  0.58427900  0.57167500  0.92543600  1
  C  C7  1  0.57384400  0.07465800  0.06646800  1
  C  C8  1  0.57355500  0.07500800  0.43130000  1
  C  C9  1  0.92534200  0.57384400  0.93353200  1
  C  C10  1  0.92499200  0.57355500  0.56870000  1
  C  C11  1  0.91628800  0.07226100  0.07436600  1
  C  C12  1  0.92773900  0.91628800  0.92563400  1
  C  C13  1  0.07226100  0.08371200  0.92563400  1
  C  C14  1  0.08371200  0.92773900  0.07436600  1
  C  C15  1  0.07465800  0.42615600  0.93353200  1
  C  C16  1  0.07500800  0.42644500  0.56870000  1
  C  C17  1  0.42615600  0.92534200  0.06646800  1
  C  C18  1  0.42644500  0.92499200  0.43130000  1
  C  C19  1  0.41572100  0.42832500  0.92543600  1
  C  C20  1  0.41612100  0.42803900  0.57453800  1
  C  C21  1  0.42832500  0.58427900  0.07456400  1
  C  C22  1  0.42803900  0.58387900  0.42546200  1
  Ni  Ni23  1  0.50000000  0.50000000  0.00000000  1
  Ni  Ni24  1  0.00000000  0.00000000  0.00000000  1
  Ni  Ni25  1  0.50000000  0.50000000  0.50000000  1
  C  C26  1  0.71348400  0.21775100  0.24784000  1
  C  C27  1  0.71437000  0.20379000  0.74604900  1
  C  C28  1  0.79621000  0.71437000  0.25395100  1
  C  C29  1  0.78224900  0.71348400  0.75216000  1
  C  C30  1  0.21775100  0.28651600  0.75216000  1
  C  C31  1  0.20379000  0.28563000  0.25395100  1
  C  C32  1  0.28563000  0.79621000  0.74604900  1
  C  C33  1  0.28651600  0.78224900  0.24784000  1
  Cu  Cu34  1  0.50000000  0.00000000  0.50333400  1
  Cu  Cu35  1  0.00000000  0.50000000  0.00555200  1
  Cu  Cu36  1  0.00000000  0.50000000  0.49666600  1
  Cu  Cu37  1  0.50000000  0.00000000  0.99444800  1
