# generated using pymatgen
data_Cu3Ni3C7
_symmetry_space_group_name_H-M   'P 1'
_cell_length_a   6.42232200
_cell_length_b   6.42232200
_cell_length_c   6.42232241
_cell_angle_alpha   96.23886619
_cell_angle_beta   96.23886619
_cell_angle_gamma   96.23886991
_symmetry_Int_Tables_number   1
_chemical_formula_structural   Cu3Ni3C7
_chemical_formula_sum   'Cu6 Ni6 C14'
_cell_volume   259.81517504
_cell_formula_units_Z   2
loop_
 _symmetry_equiv_pos_site_id
 _symmetry_equiv_pos_as_xyz
  1  'x, y, z'
loop_
 _atom_site_type_symbol
 _atom_site_label
 _atom_site_symmetry_multiplicity
 _atom_site_fract_x
 _atom_site_fract_y
 _atom_site_fract_z
 _atom_site_occupancy
  C  C0  1  0.00000000  0.00000000  0.00000000  1
  C  C1  1  0.50000000  0.50000000  0.50000000  1
  C  C2  1  0.94477200  0.60061200  0.79265200  1
  C  C3  1  0.81162900  0.31713800  0.19600400  1
  C  C4  1  0.80399600  0.18837100  0.68286200  1
  C  C5  1  0.79265200  0.94477200  0.60061200  1
  C  C6  1  0.68286200  0.80399600  0.18837100  1
  C  C7  1  0.60061200  0.79265200  0.94477200  1
  C  C8  1  0.39938800  0.20734800  0.05522800  1
  C  C9  1  0.31713800  0.19600400  0.81162900  1
  C  C10  1  0.20734800  0.05522800  0.39938800  1
  C  C11  1  0.19600400  0.81162900  0.31713800  1
  C  C12  1  0.18837100  0.68286200  0.80399600  1
  C  C13  1  0.05522800  0.39938800  0.20734800  1
  Ni  Ni14  1  0.93889500  0.30201300  0.12596800  1
  Ni  Ni15  1  0.87403200  0.06110500  0.69798700  1
  Ni  Ni16  1  0.69798700  0.87403200  0.06110500  1
  Ni  Ni17  1  0.30201300  0.12596800  0.93889500  1
  Ni  Ni18  1  0.12596800  0.93889500  0.30201300  1
  Ni  Ni19  1  0.06110500  0.69798700  0.87403200  1
  Cu  Cu20  1  0.72807200  0.44007000  0.63443800  1
  Cu  Cu21  1  0.63443800  0.72807200  0.44007000  1
  Cu  Cu22  1  0.55993000  0.36556200  0.27192800  1
  Cu  Cu23  1  0.44007000  0.63443800  0.72807200  1
  Cu  Cu24  1  0.36556200  0.27192800  0.55993000  1
  Cu  Cu25  1  0.27192800  0.55993000  0.36556200  1
