# generated using pymatgen
data_Cu12NiC8
_symmetry_space_group_name_H-M   'P 1'
_cell_length_a   7.67659500
_cell_length_b   10.28750700
_cell_length_c   10.40440316
_cell_angle_alpha   60.78365689
_cell_angle_beta   90.00000000
_cell_angle_gamma   90.00000000
_symmetry_Int_Tables_number   1
_chemical_formula_structural   Cu12NiC8
_chemical_formula_sum   'Cu24 Ni2 C16'
_cell_volume   717.13705900
_cell_formula_units_Z   2
loop_
 _symmetry_equiv_pos_site_id
 _symmetry_equiv_pos_as_xyz
  1  'x, y, z'
loop_
 _atom_site_type_symbol
 _atom_site_label
 _atom_site_symmetry_multiplicity
 _atom_site_fract_x
 _atom_site_fract_y
 _atom_site_fract_z
 _atom_site_occupancy
  C  C0  1  0.97566900  0.32132000  0.33157900  1
  C  C1  1  0.49108300  0.32839300  0.33814300  1
  C  C2  1  0.71948700  0.00784600  0.74943900  1
  C  C3  1  0.21948700  0.99215400  0.25056100  1
  C  C4  1  0.47566900  0.67868000  0.66842100  1
  C  C5  1  0.99108300  0.67160700  0.66185700  1
  C  C6  1  0.18567500  0.72953800  0.01333300  1
  C  C7  1  0.18497200  0.23341300  0.74476900  1
  C  C8  1  0.68497200  0.76658700  0.25523100  1
  C  C9  1  0.68567500  0.27046200  0.98666700  1
  C  C10  1  0.24446400  0.59326200  0.37309900  1
  C  C11  1  0.24559700  0.38956400  0.02241400  1
  C  C12  1  0.23031100  0.04302500  0.59630800  1
  C  C13  1  0.73031100  0.95697500  0.40369200  1
  C  C14  1  0.74559700  0.61043600  0.97758600  1
  C  C15  1  0.74446400  0.40673800  0.62690100  1
  Ni  Ni16  1  0.00256900  0.00322900  0.97925100  1
  Ni  Ni17  1  0.50256900  0.99677100  0.02074900  1
  Cu  Cu18  1  0.10329300  0.64556700  0.25507800  1
  Cu  Cu19  1  0.41677300  0.62960600  0.29290000  1
  Cu  Cu20  1  0.22859900  0.42856200  0.46557300  1
  Cu  Cu21  1  0.72679300  0.32986800  0.54015300  1
  Cu  Cu22  1  0.74025300  0.50582900  0.13693400  1
  Cu  Cu23  1  0.23774600  0.47491500  0.10787600  1
  Cu  Cu24  1  0.07043000  0.10838200  0.63523700  1
  Cu  Cu25  1  0.38290400  0.09571400  0.64826400  1
  Cu  Cu26  1  0.41839600  0.30608900  0.06446900  1
  Cu  Cu27  1  0.23426800  0.10627700  0.43485300  1
  Cu  Cu28  1  0.10255700  0.28082700  0.07319800  1
  Cu  Cu29  1  0.71846300  0.12088800  0.32711800  1
  Cu  Cu30  1  0.21846300  0.87911200  0.67288200  1
  Cu  Cu31  1  0.60255700  0.71917300  0.92680200  1
  Cu  Cu32  1  0.73426800  0.89372300  0.56514700  1
  Cu  Cu33  1  0.91839600  0.69391100  0.93553100  1
  Cu  Cu34  1  0.88290400  0.90428600  0.35173600  1
  Cu  Cu35  1  0.57043000  0.89161800  0.36476300  1
  Cu  Cu36  1  0.73774600  0.52508500  0.89212400  1
  Cu  Cu37  1  0.24025300  0.49417100  0.86306600  1
  Cu  Cu38  1  0.22679300  0.67013200  0.45984700  1
  Cu  Cu39  1  0.72859900  0.57143800  0.53442700  1
  Cu  Cu40  1  0.91677300  0.37039400  0.70710000  1
  Cu  Cu41  1  0.60329300  0.35443300  0.74492200  1
