# generated using pymatgen
data_CuNiC3
_symmetry_space_group_name_H-M   'P 1'
_cell_length_a   2.71635800
_cell_length_b   4.80212762
_cell_length_c   6.72953800
_cell_angle_alpha   90.00000000
_cell_angle_beta   90.00000000
_cell_angle_gamma   106.42909678
_symmetry_Int_Tables_number   1
_chemical_formula_structural   CuNiC3
_chemical_formula_sum   'Cu2 Ni2 C6'
_cell_volume   84.19799568
_cell_formula_units_Z   2
loop_
 _symmetry_equiv_pos_site_id
 _symmetry_equiv_pos_as_xyz
  1  'x, y, z'
loop_
 _atom_site_type_symbol
 _atom_site_label
 _atom_site_symmetry_multiplicity
 _atom_site_fract_x
 _atom_site_fract_y
 _atom_site_fract_z
 _atom_site_occupancy
  Ni  Ni0  1  0.26067000  0.52134000  0.75000000  1
  Ni  Ni1  1  0.73933000  0.47866000  0.25000000  1
  Cu  Cu2  1  0.00000000  0.00000000  0.00000000  1
  Cu  Cu3  1  0.00000000  0.00000000  0.50000000  1
  C  C4  1  0.62609500  0.25219000  0.94470700  1
  C  C5  1  0.37390500  0.74781000  0.05529300  1
  C  C6  1  0.37390500  0.74781000  0.44470700  1
  C  C7  1  0.62609500  0.25219000  0.55529300  1
  C  C8  1  0.92720500  0.85441000  0.75000000  1
  C  C9  1  0.07279500  0.14559000  0.25000000  1
