# generated using pymatgen
data_Cu4NiC2
_symmetry_space_group_name_H-M   'P 1'
_cell_length_a   5.98118400
_cell_length_b   7.97579400
_cell_length_c   10.93649100
_cell_angle_alpha   90.00000000
_cell_angle_beta   90.00000000
_cell_angle_gamma   90.00000000
_symmetry_Int_Tables_number   1
_chemical_formula_structural   Cu4NiC2
_chemical_formula_sum   'Cu16 Ni4 C8'
_cell_volume   521.72192881
_cell_formula_units_Z   4
loop_
 _symmetry_equiv_pos_site_id
 _symmetry_equiv_pos_as_xyz
  1  'x, y, z'
loop_
 _atom_site_type_symbol
 _atom_site_label
 _atom_site_symmetry_multiplicity
 _atom_site_fract_x
 _atom_site_fract_y
 _atom_site_fract_z
 _atom_site_occupancy
  C  C0  1  0.25000000  0.99255800  0.30144500  1
  C  C1  1  0.75000000  0.00744200  0.69855500  1
  C  C2  1  0.25000000  0.49255800  0.19855500  1
  C  C3  1  0.75000000  0.50744200  0.80144500  1
  C  C4  1  0.25000000  0.67027200  0.58265400  1
  C  C5  1  0.75000000  0.32972800  0.41734600  1
  C  C6  1  0.25000000  0.17027200  0.91734600  1
  C  C7  1  0.75000000  0.82972800  0.08265400  1
  Ni  Ni8  1  0.25000000  0.22201000  0.57724700  1
  Ni  Ni9  1  0.75000000  0.77799000  0.42275300  1
  Ni  Ni10  1  0.25000000  0.72201000  0.92275300  1
  Ni  Ni11  1  0.75000000  0.27799000  0.07724700  1
  Cu  Cu12  1  0.54473900  0.71130500  0.36063200  1
  Cu  Cu13  1  0.04473900  0.28869500  0.63936800  1
  Cu  Cu14  1  0.95526100  0.21130500  0.13936800  1
  Cu  Cu15  1  0.45526100  0.78869500  0.86063200  1
  Cu  Cu16  1  0.45526100  0.28869500  0.63936800  1
  Cu  Cu17  1  0.95526100  0.71130500  0.36063200  1
  Cu  Cu18  1  0.04473900  0.78869500  0.86063200  1
  Cu  Cu19  1  0.54473900  0.21130500  0.13936800  1
  Cu  Cu20  1  0.25000000  0.28259100  0.44651100  1
  Cu  Cu21  1  0.75000000  0.71740900  0.55348900  1
  Cu  Cu22  1  0.25000000  0.78259100  0.05348900  1
  Cu  Cu23  1  0.75000000  0.21740900  0.94651100  1
  Cu  Cu24  1  0.75000000  0.46490700  0.08064700  1
  Cu  Cu25  1  0.25000000  0.53509300  0.91935300  1
  Cu  Cu26  1  0.75000000  0.96490700  0.41935300  1
  Cu  Cu27  1  0.25000000  0.03509300  0.58064700  1
