# generated using pymatgen
data_Cu8Ni3C4
_symmetry_space_group_name_H-M   'P 1'
_cell_length_a   14.73955889
_cell_length_b   14.73955889
_cell_length_c   8.42020200
_cell_angle_alpha   90.00000000
_cell_angle_beta   90.00000000
_cell_angle_gamma   146.64409833
_symmetry_Int_Tables_number   1
_chemical_formula_structural   Cu8Ni3C4
_chemical_formula_sum   'Cu16 Ni6 C8'
_cell_volume   1005.83387113
_cell_formula_units_Z   2
loop_
 _symmetry_equiv_pos_site_id
 _symmetry_equiv_pos_as_xyz
  1  'x, y, z'
loop_
 _atom_site_type_symbol
 _atom_site_label
 _atom_site_symmetry_multiplicity
 _atom_site_fract_x
 _atom_site_fract_y
 _atom_site_fract_z
 _atom_site_occupancy
  C  C0  1  0.10314200  0.89685800  0.00000000  1
  C  C1  1  0.89685800  0.10314200  0.00000000  1
  C  C2  1  0.39685800  0.60314200  0.50000000  1
  C  C3  1  0.60314200  0.39685800  0.50000000  1
  C  C4  1  0.76700200  0.23299800  0.00000000  1
  C  C5  1  0.23299800  0.76700200  0.00000000  1
  C  C6  1  0.73299800  0.26700200  0.50000000  1
  C  C7  1  0.26700200  0.73299800  0.50000000  1
  Ni  Ni8  1  0.62640800  0.37359200  0.00000000  1
  Ni  Ni9  1  0.37359200  0.62640800  0.00000000  1
  Ni  Ni10  1  0.87359200  0.12640800  0.50000000  1
  Ni  Ni11  1  0.12640800  0.87359200  0.50000000  1
  Ni  Ni12  1  0.50000000  0.50000000  0.00000000  1
  Ni  Ni13  1  0.00000000  0.00000000  0.50000000  1
  Cu  Cu14  1  0.77773700  0.89999800  0.66149200  1
  Cu  Cu15  1  0.89999800  0.77773700  0.33850800  1
  Cu  Cu16  1  0.27773700  0.39999800  0.83850800  1
  Cu  Cu17  1  0.10000200  0.22226300  0.33850800  1
  Cu  Cu18  1  0.39999800  0.27773700  0.16149200  1
  Cu  Cu19  1  0.60000200  0.72226300  0.16149200  1
  Cu  Cu20  1  0.99330400  0.64736400  0.68030700  1
  Cu  Cu21  1  0.00669600  0.35263600  0.68030700  1
  Cu  Cu22  1  0.64736400  0.99330400  0.31969300  1
  Cu  Cu23  1  0.35263600  0.00669600  0.31969300  1
  Cu  Cu24  1  0.50669600  0.85263600  0.81969300  1
  Cu  Cu25  1  0.49330400  0.14736400  0.81969300  1
  Cu  Cu26  1  0.85263600  0.50669600  0.18030700  1
  Cu  Cu27  1  0.14736400  0.49330400  0.18030700  1
  Cu  Cu28  1  0.72226300  0.60000200  0.83850800  1
  Cu  Cu29  1  0.22226300  0.10000200  0.66149200  1
