# generated using pymatgen
data_Cu3(NiC)2
_symmetry_space_group_name_H-M   'P 1'
_cell_length_a   8.24209900
_cell_length_b   6.52238200
_cell_length_c   8.62056342
_cell_angle_alpha   82.66332221
_cell_angle_beta   90.00000000
_cell_angle_gamma   90.00000000
_symmetry_Int_Tables_number   1
_chemical_formula_structural   Cu3(NiC)2
_chemical_formula_sum   'Cu12 Ni8 C8'
_cell_volume   459.63115765
_cell_formula_units_Z   4
loop_
 _symmetry_equiv_pos_site_id
 _symmetry_equiv_pos_as_xyz
  1  'x, y, z'
loop_
 _atom_site_type_symbol
 _atom_site_label
 _atom_site_symmetry_multiplicity
 _atom_site_fract_x
 _atom_site_fract_y
 _atom_site_fract_z
 _atom_site_occupancy
  C  C0  1  0.19797700  0.87621600  0.54595800  1
  C  C1  1  0.69797700  0.62378400  0.45404200  1
  C  C2  1  0.62099200  0.29216000  0.91386700  1
  C  C3  1  0.30202300  0.37621600  0.54595800  1
  C  C4  1  0.87900800  0.79216000  0.91386700  1
  C  C5  1  0.37900800  0.70784000  0.08613300  1
  C  C6  1  0.12099200  0.20784000  0.08613300  1
  C  C7  1  0.80202300  0.12378400  0.45404200  1
  Ni  Ni8  1  0.54835800  0.79199700  0.73364900  1
  Ni  Ni9  1  0.45164200  0.20800300  0.26635100  1
  Ni  Ni10  1  0.95164200  0.29199700  0.73364900  1
  Ni  Ni11  1  0.39686200  0.01712900  0.78708100  1
  Ni  Ni12  1  0.89686200  0.48287100  0.21291900  1
  Ni  Ni13  1  0.60313800  0.98287100  0.21291900  1
  Ni  Ni14  1  0.10313800  0.51712900  0.78708100  1
  Ni  Ni15  1  0.04835800  0.70800300  0.26635100  1
  Cu  Cu16  1  0.58784400  0.65968300  0.88363800  1
  Cu  Cu17  1  0.96377000  0.82816100  0.37807700  1
  Cu  Cu18  1  0.53623000  0.32816100  0.37807700  1
  Cu  Cu19  1  0.03623000  0.17183900  0.62192300  1
  Cu  Cu20  1  0.79842300  0.37991300  0.66206300  1
  Cu  Cu21  1  0.46377000  0.67183900  0.62192300  1
  Cu  Cu22  1  0.29842300  0.12008700  0.33793700  1
  Cu  Cu23  1  0.20157700  0.62008700  0.33793700  1
  Cu  Cu24  1  0.08784400  0.84031700  0.11636200  1
  Cu  Cu25  1  0.41215600  0.34031700  0.11636200  1
  Cu  Cu26  1  0.91215600  0.15968300  0.88363800  1
  Cu  Cu27  1  0.70157700  0.87991300  0.66206300  1
