# generated using pymatgen
data_CuNiC9
_symmetry_space_group_name_H-M   'P 1'
_cell_length_a   7.37842900
_cell_length_b   7.37842900
_cell_length_c   10.47547700
_cell_angle_alpha   90.00000000
_cell_angle_beta   90.00000000
_cell_angle_gamma   90.00000000
_symmetry_Int_Tables_number   1
_chemical_formula_structural   CuNiC9
_chemical_formula_sum   'Cu4 Ni4 C36'
_cell_volume   570.29769043
_cell_formula_units_Z   4
loop_
 _symmetry_equiv_pos_site_id
 _symmetry_equiv_pos_as_xyz
  1  'x, y, z'
loop_
 _atom_site_type_symbol
 _atom_site_label
 _atom_site_symmetry_multiplicity
 _atom_site_fract_x
 _atom_site_fract_y
 _atom_site_fract_z
 _atom_site_occupancy
  C  C0  1  0.50000000  0.72960600  0.00000000  1
  C  C1  1  0.50000000  0.27039400  0.50000000  1
  C  C2  1  0.72960600  0.50000000  0.75000000  1
  C  C3  1  0.27039400  0.50000000  0.25000000  1
  C  C4  1  0.00000000  0.72599400  0.00000000  1
  C  C5  1  0.27400600  0.00000000  0.25000000  1
  C  C6  1  0.72599400  0.00000000  0.75000000  1
  C  C7  1  0.00000000  0.27400600  0.50000000  1
  Ni  Ni8  1  0.76467100  0.00000000  0.25000000  1
  Ni  Ni9  1  0.00000000  0.23532900  0.00000000  1
  Ni  Ni10  1  0.23532900  0.00000000  0.75000000  1
  Ni  Ni11  1  0.00000000  0.76467100  0.50000000  1
  Cu  Cu12  1  0.50000000  0.75748300  0.50000000  1
  Cu  Cu13  1  0.24251700  0.50000000  0.75000000  1
  Cu  Cu14  1  0.50000000  0.24251700  0.00000000  1
  Cu  Cu15  1  0.75748300  0.50000000  0.25000000  1
  C  C16  1  0.55672200  0.94810100  0.36771000  1
  C  C17  1  0.75146800  0.77319000  0.57173900  1
  C  C18  1  0.95836600  0.95836600  0.37500000  1
  C  C19  1  0.04163400  0.04163400  0.87500000  1
  C  C20  1  0.05189900  0.44327800  0.88229000  1
  C  C21  1  0.04163400  0.95836600  0.62500000  1
  C  C22  1  0.22681000  0.24853200  0.67826100  1
  C  C23  1  0.22681000  0.75146800  0.82173900  1
  C  C24  1  0.24853200  0.22681000  0.07173900  1
  C  C25  1  0.44327800  0.05189900  0.86771000  1
  C  C26  1  0.43784100  0.43784100  0.87500000  1
  C  C27  1  0.44327800  0.94810100  0.63229000  1
  C  C28  1  0.56215900  0.43784100  0.12500000  1
  C  C29  1  0.56215900  0.56215900  0.37500000  1
  C  C30  1  0.55672200  0.05189900  0.13229000  1
  C  C31  1  0.77319000  0.75146800  0.17826100  1
  C  C32  1  0.75146800  0.22681000  0.92826100  1
  C  C33  1  0.77319000  0.24853200  0.32173900  1
  C  C34  1  0.94810100  0.55672200  0.38229000  1
  C  C35  1  0.95836600  0.04163400  0.12500000  1
  C  C36  1  0.94810100  0.44327800  0.11771000  1
  C  C37  1  0.05189900  0.55672200  0.61771000  1
  C  C38  1  0.24853200  0.77319000  0.42826100  1
  C  C39  1  0.43784100  0.56215900  0.62500000  1
  C  C40  1  0.74128300  0.25871700  0.62500000  1
  C  C41  1  0.25871700  0.74128300  0.12500000  1
  C  C42  1  0.25871700  0.25871700  0.37500000  1
  C  C43  1  0.74128300  0.74128300  0.87500000  1
