# generated using pymatgen
data_Cu2NiC6
_symmetry_space_group_name_H-M   'P 1'
_cell_length_a   6.95288395
_cell_length_b   6.95288395
_cell_length_c   5.23574558
_cell_angle_alpha   70.74364817
_cell_angle_beta   70.74364817
_cell_angle_gamma   76.88737643
_symmetry_Int_Tables_number   1
_chemical_formula_structural   Cu2NiC6
_chemical_formula_sum   'Cu4 Ni2 C12'
_cell_volume   223.59073081
_cell_formula_units_Z   2
loop_
 _symmetry_equiv_pos_site_id
 _symmetry_equiv_pos_as_xyz
  1  'x, y, z'
loop_
 _atom_site_type_symbol
 _atom_site_label
 _atom_site_symmetry_multiplicity
 _atom_site_fract_x
 _atom_site_fract_y
 _atom_site_fract_z
 _atom_site_occupancy
  Ni  Ni0  1  0.18862100  0.81137900  0.25000000  1
  Ni  Ni1  1  0.81137900  0.18862100  0.75000000  1
  Cu  Cu2  1  0.35136500  0.18810200  0.44034900  1
  Cu  Cu3  1  0.81189800  0.64863500  0.05965100  1
  Cu  Cu4  1  0.64863500  0.81189800  0.55965100  1
  Cu  Cu5  1  0.18810100  0.35136500  0.94034900  1
  C  C6  1  0.39843000  0.88257700  0.46566600  1
  C  C7  1  0.11742300  0.60157000  0.03433400  1
  C  C8  1  0.60157000  0.11742300  0.53433400  1
  C  C9  1  0.88257700  0.39843000  0.96566600  1
  C  C10  1  0.45022900  0.27088400  0.03322700  1
  C  C11  1  0.72911600  0.54977100  0.46677300  1
  C  C12  1  0.90575700  0.82206000  0.65110000  1
  C  C13  1  0.17794000  0.09424300  0.84890000  1
  C  C14  1  0.09424300  0.17794000  0.34890000  1
  C  C15  1  0.82206000  0.90575700  0.15110000  1
  C  C16  1  0.27088400  0.45022900  0.53322700  1
  C  C17  1  0.54977100  0.72911600  0.96677300  1
