# generated using pymatgen
data_Cu(NiC5)4
_symmetry_space_group_name_H-M   'P 1'
_cell_length_a   11.16711947
_cell_length_b   11.16711947
_cell_length_c   6.97231300
_cell_angle_alpha   90.00000000
_cell_angle_beta   90.00000000
_cell_angle_gamma   119.99999689
_symmetry_Int_Tables_number   1
_chemical_formula_structural   Cu(NiC5)4
_chemical_formula_sum   'Cu2 Ni8 C40'
_cell_volume   752.99110442
_cell_formula_units_Z   2
loop_
 _symmetry_equiv_pos_site_id
 _symmetry_equiv_pos_as_xyz
  1  'x, y, z'
loop_
 _atom_site_type_symbol
 _atom_site_label
 _atom_site_symmetry_multiplicity
 _atom_site_fract_x
 _atom_site_fract_y
 _atom_site_fract_z
 _atom_site_occupancy
  C  C0  1  0.00000000  0.14214200  0.01516200  1
  C  C1  1  0.85785800  0.85785800  0.01516200  1
  C  C2  1  0.14214200  0.00000000  0.01516200  1
  C  C3  1  0.44952800  0.24626600  0.48735700  1
  C  C4  1  0.20326100  0.75373400  0.48735700  1
  C  C5  1  0.54807300  0.43238600  0.47840400  1
  C  C6  1  0.11568700  0.56761400  0.47840400  1
  C  C7  1  0.20607600  0.65655900  0.69286800  1
  C  C8  1  0.54951700  0.34344100  0.69286800  1
  C  C9  1  0.32771800  0.75741300  0.19770000  1
  C  C10  1  0.24258700  0.57030500  0.19770000  1
  C  C11  1  0.45192700  0.88431300  0.47840400  1
  C  C12  1  0.56761400  0.11568700  0.47840400  1
  C  C13  1  0.45048300  0.79392400  0.69286800  1
  C  C14  1  0.65655900  0.20607600  0.69286800  1
  C  C15  1  0.42969500  0.67228200  0.19770000  1
  C  C16  1  0.55047200  0.79673900  0.48735700  1
  C  C17  1  0.75373400  0.20326100  0.48735700  1
  C  C18  1  0.57030500  0.24258700  0.19770000  1
  C  C19  1  0.67228200  0.42969500  0.19770000  1
  C  C20  1  0.79673900  0.55047200  0.48735700  1
  C  C21  1  0.24626600  0.44952800  0.48735700  1
  C  C22  1  0.79392400  0.45048300  0.69286800  1
  C  C23  1  0.34344100  0.54951700  0.69286800  1
  C  C24  1  0.75741300  0.32771800  0.19770000  1
  C  C25  1  0.88431300  0.45192700  0.47840400  1
  C  C26  1  0.43238600  0.54807300  0.47840400  1
  Ni  Ni27  1  0.54338600  0.33880700  0.53569300  1
  Ni  Ni28  1  0.20457900  0.66119300  0.53569300  1
  Ni  Ni29  1  0.33333300  0.66666700  0.24588300  1
  Ni  Ni30  1  0.45661400  0.79542100  0.53569300  1
  Ni  Ni31  1  0.66119300  0.20457900  0.53569300  1
  Ni  Ni32  1  0.66666700  0.33333300  0.24588300  1
  Ni  Ni33  1  0.79542100  0.45661400  0.53569300  1
  Ni  Ni34  1  0.33880700  0.54338600  0.53569300  1
  C  C35  1  0.00000000  0.82612600  0.77541600  1
  C  C36  1  0.17387400  0.17387400  0.77541600  1
  C  C37  1  0.00000000  0.74213200  0.03389900  1
  C  C38  1  0.25786800  0.25786800  0.03389900  1
  C  C39  1  0.00000000  0.36284100  0.95144100  1
  C  C40  1  0.63715900  0.63715900  0.95144100  1
  C  C41  1  0.00000000  0.30923000  0.23535000  1
  C  C42  1  0.69077000  0.69077000  0.23535000  1
  C  C43  1  0.00000000  0.00000000  0.26984100  1
  C  C44  1  0.30923000  0.00000000  0.23535000  1
  C  C45  1  0.36284100  0.00000000  0.95144100  1
  C  C46  1  0.74213200  0.00000000  0.03389900  1
  C  C47  1  0.82612600  0.00000000  0.77541600  1
  Cu  Cu48  1  0.33333300  0.66666700  0.46198200  1
  Cu  Cu49  1  0.66666700  0.33333300  0.46198200  1
