# generated using pymatgen
data_Cu4NiC2
_symmetry_space_group_name_H-M   'P 1'
_cell_length_a   7.97520194
_cell_length_b   6.90161091
_cell_length_c   5.79473912
_cell_angle_alpha   77.28329091
_cell_angle_beta   57.58165432
_cell_angle_gamma   45.13505477
_symmetry_Int_Tables_number   1
_chemical_formula_structural   Cu4NiC2
_chemical_formula_sum   'Cu8 Ni2 C4'
_cell_volume   184.05495757
_cell_formula_units_Z   2
loop_
 _symmetry_equiv_pos_site_id
 _symmetry_equiv_pos_as_xyz
  1  'x, y, z'
loop_
 _atom_site_type_symbol
 _atom_site_label
 _atom_site_symmetry_multiplicity
 _atom_site_fract_x
 _atom_site_fract_y
 _atom_site_fract_z
 _atom_site_occupancy
  C  C0  1  0.81482600  0.18517400  0.81482600  1
  C  C1  1  0.18517400  0.81482600  0.18517400  1
  C  C2  1  0.06482600  0.43517400  0.06482600  1
  C  C3  1  0.43517400  0.06482600  0.43517400  1
  Ni  Ni4  1  0.50000000  0.50000000  0.50000000  1
  Ni  Ni5  1  0.75000000  0.75000000  0.75000000  1
  Cu  Cu6  1  0.76071400  0.87477200  0.91646800  1
  Cu  Cu7  1  0.44804600  0.91646800  0.87477200  1
  Cu  Cu8  1  0.91646800  0.44804600  0.76071400  1
  Cu  Cu9  1  0.87477200  0.76071400  0.44804600  1
  Cu  Cu10  1  0.48928600  0.37522800  0.33353200  1
  Cu  Cu11  1  0.80195400  0.33353200  0.37522800  1
  Cu  Cu12  1  0.37522800  0.48928600  0.80195400  1
  Cu  Cu13  1  0.33353200  0.80195400  0.48928600  1
