# generated using pymatgen
data_Cu3NiC18
_symmetry_space_group_name_H-M   'P 1'
_cell_length_a   7.34789000
_cell_length_b   7.38686500
_cell_length_c   12.72961603
_cell_angle_alpha   54.89425673
_cell_angle_beta   90.00000000
_cell_angle_gamma   90.00000000
_symmetry_Int_Tables_number   1
_chemical_formula_structural   Cu3NiC18
_chemical_formula_sum   'Cu6 Ni2 C36'
_cell_volume   565.24964488
_cell_formula_units_Z   2
loop_
 _symmetry_equiv_pos_site_id
 _symmetry_equiv_pos_as_xyz
  1  'x, y, z'
loop_
 _atom_site_type_symbol
 _atom_site_label
 _atom_site_symmetry_multiplicity
 _atom_site_fract_x
 _atom_site_fract_y
 _atom_site_fract_z
 _atom_site_occupancy
  Ni  Ni0  1  0.00000000  0.00000000  0.00000000  1
  Ni  Ni1  1  0.00000000  0.00000000  0.50000000  1
  Cu  Cu2  1  0.22778500  0.50000000  0.75000000  1
  Cu  Cu3  1  0.24303400  0.00000000  0.75000000  1
  Cu  Cu4  1  0.77221500  0.50000000  0.25000000  1
  Cu  Cu5  1  0.50000000  0.00000000  0.50000000  1
  Cu  Cu6  1  0.75696600  0.00000000  0.25000000  1
  Cu  Cu7  1  0.50000000  0.00000000  0.00000000  1
  C  C8  1  0.26286100  0.50000000  0.25000000  1
  C  C9  1  0.50000000  0.50000000  0.00000000  1
  C  C10  1  0.73713900  0.50000000  0.75000000  1
  C  C11  1  0.50000000  0.50000000  0.50000000  1
  C  C12  1  0.00000000  0.50000000  0.50000000  1
  C  C13  1  0.74492500  0.00000000  0.75000000  1
  C  C14  1  0.00000000  0.50000000  0.00000000  1
  C  C15  1  0.25507500  0.00000000  0.25000000  1
  C  C16  1  0.05291400  0.55670200  0.13165300  1
  C  C17  1  0.74428600  0.13074900  0.37095000  1
  C  C18  1  0.26897100  0.17951900  0.32088800  1
  C  C19  1  0.04687200  0.17142100  0.12831300  1
  C  C20  1  0.04687200  0.82857900  0.37168700  1
  C  C21  1  0.94708600  0.55670200  0.63165300  1
  C  C22  1  0.55295400  0.57328400  0.62198500  1
  C  C23  1  0.74983300  0.57669900  0.42307900  1
  C  C24  1  0.25571400  0.13074900  0.87095000  1
  C  C25  1  0.25016700  0.42330100  0.57692100  1
  C  C26  1  0.73102900  0.17951900  0.82088800  1
  C  C27  1  0.95312800  0.17142100  0.62831300  1
  C  C28  1  0.05291400  0.44329800  0.36834700  1
  C  C29  1  0.54494800  0.17676600  0.62274100  1
  C  C30  1  0.54494800  0.82323400  0.87725900  1
  C  C31  1  0.95312800  0.82857900  0.87168700  1
  C  C32  1  0.44704600  0.57328400  0.12198500  1
  C  C33  1  0.73102900  0.82048100  0.67911200  1
  C  C34  1  0.25571400  0.86925100  0.62905000  1
  C  C35  1  0.74983300  0.42330100  0.07692100  1
  C  C36  1  0.25016700  0.57669900  0.92307900  1
  C  C37  1  0.94708600  0.44329800  0.86834700  1
  C  C38  1  0.55295400  0.42671600  0.87801500  1
  C  C39  1  0.45505200  0.17676600  0.12274100  1
  C  C40  1  0.45505200  0.82323400  0.37725900  1
  C  C41  1  0.26897100  0.82048100  0.17911200  1
  C  C42  1  0.74428600  0.86925100  0.12905000  1
  C  C43  1  0.44704600  0.42671600  0.37801500  1
