# generated using pymatgen
data_Cu4NiC41
_symmetry_space_group_name_H-M   'P 1'
_cell_length_a   9.04334400
_cell_length_b   9.04334400
_cell_length_c   9.09371800
_cell_angle_alpha   90.00000000
_cell_angle_beta   90.00000000
_cell_angle_gamma   90.00000000
_symmetry_Int_Tables_number   1
_chemical_formula_structural   Cu4NiC41
_chemical_formula_sum   'Cu4 Ni1 C41'
_cell_volume   743.70308842
_cell_formula_units_Z   1
loop_
 _symmetry_equiv_pos_site_id
 _symmetry_equiv_pos_as_xyz
  1  'x, y, z'
loop_
 _atom_site_type_symbol
 _atom_site_label
 _atom_site_symmetry_multiplicity
 _atom_site_fract_x
 _atom_site_fract_y
 _atom_site_fract_z
 _atom_site_occupancy
  C  C0  1  0.19421000  0.31492200  0.05892100  1
  C  C1  1  0.68507800  0.19421000  0.94107900  1
  C  C2  1  0.31492200  0.80579000  0.94107900  1
  C  C3  1  0.80579000  0.68507800  0.05892100  1
  C  C4  1  0.70904200  0.81381600  0.55481000  1
  C  C5  1  0.18618400  0.70904200  0.44519000  1
  C  C6  1  0.81381600  0.29095800  0.44519000  1
  C  C7  1  0.29095800  0.18618400  0.55481000  1
  Ni  Ni8  1  0.00000000  0.00000000  0.50000000  1
  Cu  Cu9  1  0.75216700  0.49949900  0.75014300  1
  Cu  Cu10  1  0.50050100  0.75216700  0.24985700  1
  Cu  Cu11  1  0.49949900  0.24783300  0.24985700  1
  Cu  Cu12  1  0.24783300  0.50050100  0.75014300  1
  C  C13  1  0.00000000  0.00000000  0.00000000  1
  C  C14  1  0.50000000  0.50000000  0.00000000  1
  C  C15  1  0.75886100  0.99669500  0.25465200  1
  C  C16  1  0.24113900  0.00330500  0.25465200  1
  C  C17  1  0.50000000  0.50000000  0.50000000  1
  C  C18  1  0.99669500  0.24113900  0.74534800  1
  C  C19  1  0.00330500  0.75886100  0.74534800  1
  C  C20  1  0.50000000  0.00000000  0.75261200  1
  C  C21  1  0.00000000  0.50000000  0.24738800  1
  C  C22  1  0.35414700  0.45691800  0.90429900  1
  C  C23  1  0.85425100  0.34043200  0.79504300  1
  C  C24  1  0.14574900  0.65956800  0.79504300  1
  C  C25  1  0.96152600  0.85577300  0.89902100  1
  C  C26  1  0.64585300  0.54308200  0.90429900  1
  C  C27  1  0.54308200  0.35414700  0.09570100  1
  C  C28  1  0.14422700  0.96152600  0.10097900  1
  C  C29  1  0.03847400  0.14422700  0.89902100  1
  C  C30  1  0.85577300  0.03847400  0.10097900  1
  C  C31  1  0.45691800  0.64585300  0.09570100  1
  C  C32  1  0.65956800  0.85425100  0.20495700  1
  C  C33  1  0.85674400  0.96003500  0.39645000  1
  C  C34  1  0.34084100  0.85602800  0.28377200  1
  C  C35  1  0.65915900  0.14397200  0.28377200  1
  C  C36  1  0.34043200  0.14574900  0.20495700  1
  C  C37  1  0.45663700  0.35296300  0.40476700  1
  C  C38  1  0.14325600  0.03996500  0.39645000  1
  C  C39  1  0.03996500  0.85674400  0.60355000  1
  C  C40  1  0.64703700  0.45663700  0.59523300  1
  C  C41  1  0.54336300  0.64703700  0.40476700  1
  C  C42  1  0.96003500  0.14325600  0.60355000  1
  C  C43  1  0.35296300  0.54336300  0.59523300  1
  C  C44  1  0.14397200  0.34084100  0.71622800  1
  C  C45  1  0.85602800  0.65915900  0.71622800  1
