# generated using pymatgen
data_CuNiC8
_symmetry_space_group_name_H-M   'P 1'
_cell_length_a   7.94735851
_cell_length_b   9.40904655
_cell_length_c   7.94735851
_cell_angle_alpha   114.09030413
_cell_angle_beta   91.11377680
_cell_angle_gamma   114.09030413
_symmetry_Int_Tables_number   1
_chemical_formula_structural   CuNiC8
_chemical_formula_sum   'Cu4 Ni4 C32'
_cell_volume   482.76984589
_cell_formula_units_Z   4
loop_
 _symmetry_equiv_pos_site_id
 _symmetry_equiv_pos_as_xyz
  1  'x, y, z'
loop_
 _atom_site_type_symbol
 _atom_site_label
 _atom_site_symmetry_multiplicity
 _atom_site_fract_x
 _atom_site_fract_y
 _atom_site_fract_z
 _atom_site_occupancy
  C  C0  1  0.10625300  0.25093200  0.65474200  1
  C  C1  1  0.60625300  0.25093200  0.15474200  1
  C  C2  1  0.90474200  0.75093200  0.85625300  1
  C  C3  1  0.40474200  0.75093200  0.35625300  1
  C  C4  1  0.60098700  0.25002800  0.64060500  1
  C  C5  1  0.10098700  0.25002800  0.14060500  1
  C  C6  1  0.39060500  0.75002800  0.85098700  1
  C  C7  1  0.89060500  0.75002800  0.35098700  1
  Ni  Ni8  1  0.24931000  0.00118800  0.75074000  1
  Ni  Ni9  1  0.74931000  0.00118800  0.25074000  1
  Ni  Ni10  1  0.00074000  0.50118800  0.99931000  1
  Ni  Ni11  1  0.50074000  0.50118800  0.49931000  1
  Cu  Cu12  1  0.49928200  0.49929700  0.99988800  1
  Cu  Cu13  1  0.24988800  0.99929700  0.24928200  1
  Cu  Cu14  1  0.99928200  0.49929700  0.49988800  1
  Cu  Cu15  1  0.74988800  0.99929700  0.74928200  1
  C  C16  1  0.57239900  0.74536700  0.09584600  1
  C  C17  1  0.07239900  0.74536700  0.59584600  1
  C  C18  1  0.84584600  0.24536700  0.82239900  1
  C  C19  1  0.34584600  0.24536700  0.32239900  1
  C  C20  1  0.02630100  0.04047800  0.80986000  1
  C  C21  1  0.52630100  0.04047800  0.30986000  1
  C  C22  1  0.05986000  0.54047800  0.77630100  1
  C  C23  1  0.55986000  0.54047800  0.27630100  1
  C  C24  1  0.21926100  0.45809100  0.01690900  1
  C  C25  1  0.71926100  0.45809100  0.51690900  1
  C  C26  1  0.26690900  0.95809100  0.96926100  1
  C  C27  1  0.76690900  0.95809100  0.46926100  1
  C  C28  1  0.22920700  0.04404200  0.53295300  1
  C  C29  1  0.72920700  0.04404200  0.03295300  1
  C  C30  1  0.28295300  0.54404200  0.47920700  1
  C  C31  1  0.78295300  0.54404200  0.97920700  1
  C  C32  1  0.43699000  0.45638900  0.72030300  1
  C  C33  1  0.93699000  0.45638900  0.22030300  1
  C  C34  1  0.47030300  0.95638900  0.68699000  1
  C  C35  1  0.97030300  0.95638900  0.18699000  1
  C  C36  1  0.65910900  0.75418700  0.67905500  1
  C  C37  1  0.15910900  0.75418700  0.17905500  1
  C  C38  1  0.92905500  0.25418700  0.40910900  1
  C  C39  1  0.42905500  0.25418700  0.90910900  1
