# generated using pymatgen
data_Cu15Ni8C19
_symmetry_space_group_name_H-M   'P 1'
_cell_length_a   16.05675865
_cell_length_b   16.05675865
_cell_length_c   16.05675847
_cell_angle_alpha   26.01820213
_cell_angle_beta   26.01820213
_cell_angle_gamma   26.01820297
_symmetry_Int_Tables_number   1
_chemical_formula_structural   Cu15Ni8C19
_chemical_formula_sum   'Cu15 Ni8 C19'
_cell_volume   701.69334627
_cell_formula_units_Z   1
loop_
 _symmetry_equiv_pos_site_id
 _symmetry_equiv_pos_as_xyz
  1  'x, y, z'
loop_
 _atom_site_type_symbol
 _atom_site_label
 _atom_site_symmetry_multiplicity
 _atom_site_fract_x
 _atom_site_fract_y
 _atom_site_fract_z
 _atom_site_occupancy
  C  C0  1  0.14960100  0.14960100  0.14960100  1
  C  C1  1  0.70201200  0.19334400  0.19388700  1
  C  C2  1  0.19388700  0.70201200  0.19334400  1
  C  C3  1  0.19334400  0.19388700  0.70201200  1
  C  C4  1  0.60907600  0.58685900  0.09134000  1
  C  C5  1  0.09134000  0.60907600  0.58685900  1
  C  C6  1  0.58685900  0.09134000  0.60907600  1
  C  C7  1  0.90866000  0.39092400  0.41314100  1
  C  C8  1  0.41314100  0.90866000  0.39092400  1
  C  C9  1  0.39092400  0.41314100  0.90866000  1
  C  C10  1  0.80665600  0.80611300  0.29798800  1
  C  C11  1  0.80611300  0.29798800  0.80665600  1
  C  C12  1  0.29798800  0.80665600  0.80611300  1
  C  C13  1  0.85039900  0.85039900  0.85039900  1
  C  C14  1  0.30017600  0.30017600  0.30017600  1
  C  C15  1  0.50000000  0.50000000  0.50000000  1
  C  C16  1  0.69982400  0.69982400  0.69982400  1
  C  C17  1  0.39640900  0.39640900  0.39640900  1
  C  C18  1  0.60359100  0.60359100  0.60359100  1
  Ni  Ni19  1  0.25941600  0.25941600  0.25941600  1
  Ni  Ni20  1  0.59685800  0.17261700  0.17268000  1
  Ni  Ni21  1  0.17268000  0.59685800  0.17261700  1
  Ni  Ni22  1  0.17261700  0.17268000  0.59685800  1
  Ni  Ni23  1  0.82738300  0.82732000  0.40314200  1
  Ni  Ni24  1  0.40314200  0.82738300  0.82732000  1
  Ni  Ni25  1  0.82732000  0.40314200  0.82738300  1
  Ni  Ni26  1  0.74058400  0.74058400  0.74058400  1
  Cu  Cu27  1  0.00000000  0.00000000  0.00000000  1
  Cu  Cu28  1  0.05412400  0.05412400  0.05412400  1
  Cu  Cu29  1  0.54379200  0.06974000  0.04597100  1
  Cu  Cu30  1  0.04597100  0.54379200  0.06974000  1
  Cu  Cu31  1  0.06974000  0.04597100  0.54379200  1
  Cu  Cu32  1  0.63246400  0.57140600  0.22561200  1
  Cu  Cu33  1  0.22561200  0.63246400  0.57140600  1
  Cu  Cu34  1  0.57140600  0.22561200  0.63246400  1
  Cu  Cu35  1  0.42859400  0.77438800  0.36753600  1
  Cu  Cu36  1  0.77438800  0.36753600  0.42859400  1
  Cu  Cu37  1  0.36753600  0.42859400  0.77438800  1
  Cu  Cu38  1  0.93026000  0.95402900  0.45620800  1
  Cu  Cu39  1  0.45620800  0.93026000  0.95402900  1
  Cu  Cu40  1  0.95402900  0.45620800  0.93026000  1
  Cu  Cu41  1  0.94587600  0.94587600  0.94587600  1
