# generated using pymatgen
data_Cu6Ni23C4
_symmetry_space_group_name_H-M   'P 1'
_cell_length_a   8.16796840
_cell_length_b   8.16796840
_cell_length_c   18.33925324
_cell_angle_alpha   67.87414907
_cell_angle_beta   67.87414907
_cell_angle_gamma   28.85262306
_symmetry_Int_Tables_number   1
_chemical_formula_structural   Cu6Ni23C4
_chemical_formula_sum   'Cu6 Ni23 C4'
_cell_volume   543.93900844
_cell_formula_units_Z   1
loop_
 _symmetry_equiv_pos_site_id
 _symmetry_equiv_pos_as_xyz
  1  'x, y, z'
loop_
 _atom_site_type_symbol
 _atom_site_label
 _atom_site_symmetry_multiplicity
 _atom_site_fract_x
 _atom_site_fract_y
 _atom_site_fract_z
 _atom_site_occupancy
  C  C0  1  0.73461600  0.73461600  0.21903200  1
  C  C1  1  0.57193700  0.57193700  0.59356600  1
  C  C2  1  0.42806300  0.42806300  0.40643400  1
  C  C3  1  0.26538400  0.26538400  0.78096800  1
  Ni  Ni4  1  0.00000000  0.00000000  0.50000000  1
  Ni  Ni5  1  0.85521800  0.85521800  0.85708700  1
  Ni  Ni6  1  0.91898700  0.91898700  0.68584900  1
  Ni  Ni7  1  0.08101300  0.08101300  0.31415100  1
  Ni  Ni8  1  0.91031900  0.91031900  0.05233600  1
  Ni  Ni9  1  0.08968100  0.08968100  0.94766400  1
  Ni  Ni10  1  0.90932800  0.90932800  0.28178500  1
  Ni  Ni11  1  0.09067200  0.09067200  0.71821500  1
  Ni  Ni12  1  0.79943300  0.79943300  0.52029800  1
  Ni  Ni13  1  0.20056700  0.20056700  0.47970200  1
  Ni  Ni14  1  0.14478200  0.14478200  0.14291300  1
  Ni  Ni15  1  0.61065600  0.61065600  0.83576800  1
  Ni  Ni16  1  0.74391200  0.74391200  0.04648300  1
  Ni  Ni17  1  0.25608800  0.25608800  0.95351700  1
  Ni  Ni18  1  0.38934400  0.38934400  0.16423200  1
  Ni  Ni19  1  0.46747900  0.46747900  0.78147200  1
  Ni  Ni20  1  0.72611500  0.72611500  0.67502700  1
  Ni  Ni21  1  0.27388500  0.27388500  0.32497300  1
  Ni  Ni22  1  0.62185500  0.62185500  0.40534100  1
  Ni  Ni23  1  0.37814500  0.37814500  0.59465900  1
  Ni  Ni24  1  0.56570700  0.56570700  0.05934200  1
  Ni  Ni25  1  0.43429300  0.43429300  0.94065800  1
  Ni  Ni26  1  0.53252100  0.53252100  0.21852800  1
  Cu  Cu27  1  0.99160800  0.99160800  0.13901800  1
  Cu  Cu28  1  0.00839200  0.00839200  0.86098200  1
  Cu  Cu29  1  0.77256900  0.77256900  0.39925300  1
  Cu  Cu30  1  0.68901400  0.68901400  0.93178400  1
  Cu  Cu31  1  0.22743100  0.22743100  0.60074700  1
  Cu  Cu32  1  0.31098600  0.31098600  0.06821600  1
