# generated using pymatgen
data_CuNiC9
_symmetry_space_group_name_H-M   'P 1'
_cell_length_a   7.33522000
_cell_length_b   7.33522000
_cell_length_c   10.36882500
_cell_angle_alpha   90.00000000
_cell_angle_beta   90.00000000
_cell_angle_gamma   90.00000000
_symmetry_Int_Tables_number   1
_chemical_formula_structural   CuNiC9
_chemical_formula_sum   'Cu4 Ni4 C36'
_cell_volume   557.89932048
_cell_formula_units_Z   4
loop_
 _symmetry_equiv_pos_site_id
 _symmetry_equiv_pos_as_xyz
  1  'x, y, z'
loop_
 _atom_site_type_symbol
 _atom_site_label
 _atom_site_symmetry_multiplicity
 _atom_site_fract_x
 _atom_site_fract_y
 _atom_site_fract_z
 _atom_site_occupancy
  C  C0  1  0.00000000  0.23397400  0.50000000  1
  C  C1  1  0.00000000  0.76602600  0.00000000  1
  C  C2  1  0.23397400  0.00000000  0.25000000  1
  C  C3  1  0.76602600  0.00000000  0.75000000  1
  C  C4  1  0.50000000  0.21629600  0.50000000  1
  C  C5  1  0.50000000  0.78370400  0.00000000  1
  C  C6  1  0.78370400  0.50000000  0.75000000  1
  C  C7  1  0.21629600  0.50000000  0.25000000  1
  Ni  Ni8  1  0.26678400  0.50000000  0.75000000  1
  Ni  Ni9  1  0.50000000  0.26678400  0.00000000  1
  Ni  Ni10  1  0.73321600  0.50000000  0.25000000  1
  Ni  Ni11  1  0.50000000  0.73321600  0.50000000  1
  Cu  Cu12  1  0.73915100  0.00000000  0.25000000  1
  Cu  Cu13  1  0.00000000  0.26084900  0.00000000  1
  Cu  Cu14  1  0.00000000  0.73915100  0.50000000  1
  Cu  Cu15  1  0.26084900  0.00000000  0.75000000  1
  C  C16  1  0.05091400  0.45389600  0.86671400  1
  C  C17  1  0.25099100  0.27822800  0.07562500  1
  C  C18  1  0.45395000  0.45395000  0.87500000  1
  C  C19  1  0.54610400  0.94908600  0.38328600  1
  C  C20  1  0.54605000  0.45395000  0.12500000  1
  C  C21  1  0.54605000  0.54605000  0.37500000  1
  C  C22  1  0.72177200  0.74900900  0.17437500  1
  C  C23  1  0.72177200  0.25099100  0.32562500  1
  C  C24  1  0.74900900  0.72177200  0.57562500  1
  C  C25  1  0.94908600  0.54610400  0.36671400  1
  C  C26  1  0.94908600  0.45389600  0.13328600  1
  C  C27  1  0.93558600  0.93558600  0.37500000  1
  C  C28  1  0.05091400  0.54610400  0.63328600  1
  C  C29  1  0.06441400  0.93558600  0.62500000  1
  C  C30  1  0.06441400  0.06441400  0.87500000  1
  C  C31  1  0.27822800  0.25099100  0.67437500  1
  C  C32  1  0.25099100  0.72177200  0.42437500  1
  C  C33  1  0.27822800  0.74900900  0.82562500  1
  C  C34  1  0.45389600  0.05091400  0.88328600  1
  C  C35  1  0.45395000  0.54605000  0.62500000  1
  C  C36  1  0.45389600  0.94908600  0.61671400  1
  C  C37  1  0.54610400  0.05091400  0.11671400  1
  C  C38  1  0.74900900  0.27822800  0.92437500  1
  C  C39  1  0.93558600  0.06441400  0.12500000  1
  C  C40  1  0.74727900  0.25272100  0.62500000  1
  C  C41  1  0.25272100  0.74727900  0.12500000  1
  C  C42  1  0.25272100  0.25272100  0.37500000  1
  C  C43  1  0.74727900  0.74727900  0.87500000  1
