# generated using pymatgen
data_Cu2NiC7
_symmetry_space_group_name_H-M   'P 1'
_cell_length_a   6.40035800
_cell_length_b   4.81555000
_cell_length_c   14.98078602
_cell_angle_alpha   89.97882692
_cell_angle_beta   90.00000000
_cell_angle_gamma   90.00000000
_symmetry_Int_Tables_number   1
_chemical_formula_structural   Cu2NiC7
_chemical_formula_sum   'Cu8 Ni4 C28'
_cell_volume   461.72642930
_cell_formula_units_Z   4
loop_
 _symmetry_equiv_pos_site_id
 _symmetry_equiv_pos_as_xyz
  1  'x, y, z'
loop_
 _atom_site_type_symbol
 _atom_site_label
 _atom_site_symmetry_multiplicity
 _atom_site_fract_x
 _atom_site_fract_y
 _atom_site_fract_z
 _atom_site_occupancy
  Ni  Ni0  1  0.91476200  0.74964900  0.13501200  1
  Ni  Ni1  1  0.41476200  0.25035100  0.36498800  1
  Ni  Ni2  1  0.08523800  0.25035100  0.86498800  1
  Ni  Ni3  1  0.58523800  0.74964900  0.63501200  1
  Cu  Cu4  1  0.31093500  0.25312800  0.57287900  1
  Cu  Cu5  1  0.81093500  0.74687200  0.92712100  1
  Cu  Cu6  1  0.68906500  0.74687200  0.42712100  1
  Cu  Cu7  1  0.18906500  0.25312800  0.07287900  1
  Cu  Cu8  1  0.60304100  0.26077700  0.16880000  1
  Cu  Cu9  1  0.10304100  0.73922300  0.33120000  1
  Cu  Cu10  1  0.39695900  0.73922300  0.83120000  1
  Cu  Cu11  1  0.89695900  0.26077700  0.66880000  1
  C  C12  1  0.01033200  0.17040100  0.75312600  1
  C  C13  1  0.51033200  0.82959900  0.74687400  1
  C  C14  1  0.98966800  0.82959900  0.24687400  1
  C  C15  1  0.48966800  0.17040100  0.25312600  1
  C  C16  1  0.79733500  0.54662000  0.67765600  1
  C  C17  1  0.29733500  0.45338000  0.82234400  1
  C  C18  1  0.20266500  0.45338000  0.32234400  1
  C  C19  1  0.70266500  0.54662000  0.17765600  1
  C  C20  1  0.74562900  0.04488000  0.63375200  1
  C  C21  1  0.24562900  0.95512000  0.86624800  1
  C  C22  1  0.25437100  0.95512000  0.36624800  1
  C  C23  1  0.75437100  0.04488000  0.13375200  1
  C  C24  1  0.43419500  0.28307900  0.08989200  1
  C  C25  1  0.93419500  0.71692100  0.41010800  1
  C  C26  1  0.56580500  0.71692100  0.91010800  1
  C  C27  1  0.06580500  0.28307900  0.58989200  1
  C  C28  1  0.16855300  0.33202400  0.97516400  1
  C  C29  1  0.66855300  0.66797600  0.52483600  1
  C  C30  1  0.83144700  0.66797600  0.02483600  1
  C  C31  1  0.33144700  0.33202400  0.47516400  1
  C  C32  1  0.08106500  0.45779400  0.13540300  1
  C  C33  1  0.58106500  0.54220600  0.36459700  1
  C  C34  1  0.91893500  0.54220600  0.86459700  1
  C  C35  1  0.41893500  0.45779400  0.63540300  1
  C  C36  1  0.13051500  0.95200000  0.09305800  1
  C  C37  1  0.63051500  0.04800000  0.40694200  1
  C  C38  1  0.86948500  0.04800000  0.90694200  1
  C  C39  1  0.36948500  0.95200000  0.59305800  1
