# generated using pymatgen
data_Cu2(NiC2)3
_symmetry_space_group_name_H-M   'P 1'
_cell_length_a   7.09713136
_cell_length_b   7.09713136
_cell_length_c   7.09713162
_cell_angle_alpha   79.18854653
_cell_angle_beta   79.18854653
_cell_angle_gamma   79.18854244
_symmetry_Int_Tables_number   1
_chemical_formula_structural   Cu2(NiC2)3
_chemical_formula_sum   'Cu4 Ni6 C12'
_cell_volume   340.56990909
_cell_formula_units_Z   2
loop_
 _symmetry_equiv_pos_site_id
 _symmetry_equiv_pos_as_xyz
  1  'x, y, z'
loop_
 _atom_site_type_symbol
 _atom_site_label
 _atom_site_symmetry_multiplicity
 _atom_site_fract_x
 _atom_site_fract_y
 _atom_site_fract_z
 _atom_site_occupancy
  Ni  Ni0  1  0.75000000  0.10834600  0.39165400  1
  Ni  Ni1  1  0.39165400  0.75000000  0.10834600  1
  Ni  Ni2  1  0.10834600  0.39165400  0.75000000  1
  Ni  Ni3  1  0.25000000  0.89165400  0.60834600  1
  Ni  Ni4  1  0.60834600  0.25000000  0.89165400  1
  Ni  Ni5  1  0.89165400  0.60834600  0.25000000  1
  Cu  Cu6  1  0.10765200  0.10765200  0.10765200  1
  Cu  Cu7  1  0.89234800  0.89234800  0.89234800  1
  Cu  Cu8  1  0.60765200  0.60765200  0.60765200  1
  Cu  Cu9  1  0.39234800  0.39234800  0.39234800  1
  C  C10  1  0.71577700  0.96699600  0.99344800  1
  C  C11  1  0.99344800  0.71577700  0.96699600  1
  C  C12  1  0.96699600  0.99344800  0.71577700  1
  C  C13  1  0.53300400  0.78422300  0.50655200  1
  C  C14  1  0.78422300  0.50655200  0.53300400  1
  C  C15  1  0.50655200  0.53300400  0.78422300  1
  C  C16  1  0.00655200  0.28422300  0.03300400  1
  C  C17  1  0.28422300  0.03300400  0.00655200  1
  C  C18  1  0.03300400  0.00655200  0.28422300  1
  C  C19  1  0.21577700  0.49344800  0.46699600  1
  C  C20  1  0.49344800  0.46699600  0.21577700  1
  C  C21  1  0.46699600  0.21577700  0.49344800  1
