# generated using pymatgen
data_CuNi2C5
_symmetry_space_group_name_H-M   'P 1'
_cell_length_a   5.81749400
_cell_length_b   7.57317100
_cell_length_c   7.77819300
_cell_angle_alpha   90.00000000
_cell_angle_beta   90.00000000
_cell_angle_gamma   90.00000000
_symmetry_Int_Tables_number   1
_chemical_formula_structural   CuNi2C5
_chemical_formula_sum   'Cu4 Ni8 C20'
_cell_volume   342.68289114
_cell_formula_units_Z   4
loop_
 _symmetry_equiv_pos_site_id
 _symmetry_equiv_pos_as_xyz
  1  'x, y, z'
loop_
 _atom_site_type_symbol
 _atom_site_label
 _atom_site_symmetry_multiplicity
 _atom_site_fract_x
 _atom_site_fract_y
 _atom_site_fract_z
 _atom_site_occupancy
  Ni  Ni0  1  0.00000000  0.00000000  0.00000000  1
  Ni  Ni1  1  0.50000000  0.00000000  0.00000000  1
  Ni  Ni2  1  0.00000000  0.50000000  0.50000000  1
  Ni  Ni3  1  0.50000000  0.50000000  0.50000000  1
  Ni  Ni4  1  0.25000000  0.35695100  0.84619600  1
  Ni  Ni5  1  0.75000000  0.64304900  0.15380400  1
  Ni  Ni6  1  0.75000000  0.85695100  0.65380400  1
  Ni  Ni7  1  0.25000000  0.14304900  0.34619600  1
  Cu  Cu8  1  0.75000000  0.15266800  0.34105200  1
  Cu  Cu9  1  0.25000000  0.84733200  0.65894800  1
  Cu  Cu10  1  0.25000000  0.65266800  0.15894800  1
  Cu  Cu11  1  0.75000000  0.34733200  0.84105200  1
  C  C12  1  0.01379100  0.62546500  0.27631800  1
  C  C13  1  0.51379100  0.37453500  0.72368200  1
  C  C14  1  0.98620900  0.12546500  0.22368200  1
  C  C15  1  0.48620900  0.87453500  0.77631800  1
  C  C16  1  0.98620900  0.37453500  0.72368200  1
  C  C17  1  0.48620900  0.62546500  0.27631800  1
  C  C18  1  0.01379100  0.87453500  0.77631800  1
  C  C19  1  0.51379100  0.12546500  0.22368200  1
  C  C20  1  0.75000000  0.02166300  0.50108200  1
  C  C21  1  0.25000000  0.97833700  0.49891800  1
  C  C22  1  0.25000000  0.52166300  0.99891800  1
  C  C23  1  0.75000000  0.47833700  0.00108200  1
  C  C24  1  0.75000000  0.35928500  0.41026400  1
  C  C25  1  0.25000000  0.64071500  0.58973600  1
  C  C26  1  0.25000000  0.85928500  0.08973600  1
  C  C27  1  0.75000000  0.14071500  0.91026400  1
  C  C28  1  0.25000000  0.35744700  0.43440200  1
  C  C29  1  0.75000000  0.64255300  0.56559800  1
  C  C30  1  0.75000000  0.85744700  0.06559800  1
  C  C31  1  0.25000000  0.14255300  0.93440200  1
