# generated using pymatgen
data_Cu16Ni6C7
_symmetry_space_group_name_H-M   'P 1'
_cell_length_a   7.94259248
_cell_length_b   7.94259248
_cell_length_c   7.94259248
_cell_angle_alpha   60.00000000
_cell_angle_beta   60.00000000
_cell_angle_gamma   60.00000000
_symmetry_Int_Tables_number   1
_chemical_formula_structural   Cu16Ni6C7
_chemical_formula_sum   'Cu16 Ni6 C7'
_cell_volume   354.30056288
_cell_formula_units_Z   1
loop_
 _symmetry_equiv_pos_site_id
 _symmetry_equiv_pos_as_xyz
  1  'x, y, z'
loop_
 _atom_site_type_symbol
 _atom_site_label
 _atom_site_symmetry_multiplicity
 _atom_site_fract_x
 _atom_site_fract_y
 _atom_site_fract_z
 _atom_site_occupancy
  Ni  Ni0  1  0.79716000  0.20284000  0.79716000  1
  Ni  Ni1  1  0.20284100  0.20284100  0.79716000  1
  Ni  Ni2  1  0.79716000  0.79716000  0.20284100  1
  Ni  Ni3  1  0.79716000  0.20284000  0.20284000  1
  Ni  Ni4  1  0.20284000  0.79716000  0.79716000  1
  Ni  Ni5  1  0.20284000  0.79716000  0.20284100  1
  C  C6  1  0.50000000  0.50000000  0.50000000  1
  C  C7  1  0.50000000  0.50000000  0.00000000  1
  C  C8  1  0.00000000  0.00000000  0.50000000  1
  C  C9  1  0.50000000  0.00000000  0.50000000  1
  C  C10  1  0.00000000  0.50000000  0.50000000  1
  C  C11  1  0.50000000  0.00000000  0.00000000  1
  C  C12  1  0.00000000  0.50000000  0.00000000  1
  Cu  Cu13  1  0.50150000  0.83283300  0.83283300  1
  Cu  Cu14  1  0.83283300  0.50150000  0.83283300  1
  Cu  Cu15  1  0.83283300  0.83283300  0.50150000  1
  Cu  Cu16  1  0.16716700  0.49850000  0.16716700  1
  Cu  Cu17  1  0.16716700  0.16716700  0.49850000  1
  Cu  Cu18  1  0.49850000  0.16716700  0.16716700  1
  Cu  Cu19  1  0.83283300  0.83283300  0.83283300  1
  Cu  Cu20  1  0.38332700  0.38332700  0.38332700  1
  Cu  Cu21  1  0.14998100  0.61667300  0.61667300  1
  Cu  Cu22  1  0.61667300  0.14998100  0.61667300  1
  Cu  Cu23  1  0.61667300  0.61667300  0.14998100  1
  Cu  Cu24  1  0.38332700  0.85001900  0.38332700  1
  Cu  Cu25  1  0.38332700  0.38332700  0.85001900  1
  Cu  Cu26  1  0.85001900  0.38332700  0.38332700  1
  Cu  Cu27  1  0.61667300  0.61667300  0.61667300  1
  Cu  Cu28  1  0.16716700  0.16716700  0.16716700  1
