# generated using pymatgen
data_CuNi13C6
_symmetry_space_group_name_H-M   'P 1'
_cell_length_a   12.97892196
_cell_length_b   12.97892196
_cell_length_c   12.97892196
_cell_angle_alpha   143.83858437
_cell_angle_beta   143.83858437
_cell_angle_gamma   52.06873349
_symmetry_Int_Tables_number   1
_chemical_formula_structural   CuNi13C6
_chemical_formula_sum   'Cu2 Ni26 C12'
_cell_volume   756.88552050
_cell_formula_units_Z   2
loop_
 _symmetry_equiv_pos_site_id
 _symmetry_equiv_pos_as_xyz
  1  'x, y, z'
loop_
 _atom_site_type_symbol
 _atom_site_label
 _atom_site_symmetry_multiplicity
 _atom_site_fract_x
 _atom_site_fract_y
 _atom_site_fract_z
 _atom_site_occupancy
  C  C0  1  0.10658400  0.10658400  0.00000000  1
  C  C1  1  0.02212200  0.85017100  0.50000000  1
  C  C2  1  0.97787800  0.14982900  0.50000000  1
  C  C3  1  0.64982900  0.47787800  0.50000000  1
  C  C4  1  0.47787800  0.97787800  0.82804900  1
  C  C5  1  0.14982900  0.64982900  0.17195100  1
  C  C6  1  0.85017100  0.35017100  0.82804900  1
  C  C7  1  0.52212200  0.02212200  0.17195100  1
  C  C8  1  0.35017100  0.52212200  0.50000000  1
  C  C9  1  0.60658400  0.60658400  0.00000000  1
  C  C10  1  0.89341600  0.89341600  0.00000000  1
  C  C11  1  0.39341600  0.39341600  0.00000000  1
  Ni  Ni12  1  0.70962800  0.43361500  0.14324300  1
  Ni  Ni13  1  0.70738000  0.98039200  0.50000000  1
  Ni  Ni14  1  0.29262000  0.01960800  0.50000000  1
  Ni  Ni15  1  0.51960800  0.79262000  0.50000000  1
  Ni  Ni16  1  0.79262000  0.29262000  0.27301200  1
  Ni  Ni17  1  0.01960800  0.51960800  0.72698800  1
  Ni  Ni18  1  0.98039200  0.48039200  0.27301200  1
  Ni  Ni19  1  0.20738000  0.70738000  0.72698800  1
  Ni  Ni20  1  0.48039200  0.20738000  0.50000000  1
  Ni  Ni21  1  0.87989400  0.73739300  0.50000000  1
  Ni  Ni22  1  0.12010600  0.26260700  0.50000000  1
  Ni  Ni23  1  0.76260700  0.62010600  0.50000000  1
  Ni  Ni24  1  0.00000000  0.50000000  0.50000000  1
  Ni  Ni25  1  0.50000000  0.00000000  0.50000000  1
  Ni  Ni26  1  0.06638500  0.79037200  0.85675700  1
  Ni  Ni27  1  0.79037200  0.93361500  0.72398800  1
  Ni  Ni28  1  0.20962800  0.06638500  0.27601200  1
  Ni  Ni29  1  0.43361500  0.29037200  0.72398800  1
  Ni  Ni30  1  0.56638500  0.70962800  0.27601200  1
  Ni  Ni31  1  0.29037200  0.56638500  0.85675700  1
  Ni  Ni32  1  0.26260700  0.76260700  0.14250100  1
  Ni  Ni33  1  0.93361500  0.20962800  0.14324300  1
  Ni  Ni34  1  0.23739300  0.37989400  0.50000000  1
  Ni  Ni35  1  0.37989400  0.87989400  0.14250100  1
  Ni  Ni36  1  0.73739300  0.23739300  0.85749900  1
  Ni  Ni37  1  0.62010600  0.12010600  0.85749900  1
  Cu  Cu38  1  0.25000000  0.25000000  0.00000000  1
  Cu  Cu39  1  0.75000000  0.75000000  0.00000000  1
