# generated using pymatgen
data_Cu(Ni3C2)2
_symmetry_space_group_name_H-M   'P 1'
_cell_length_a   7.39259100
_cell_length_b   7.39259100
_cell_length_c   10.50183800
_cell_angle_alpha   90.00000000
_cell_angle_beta   90.00000000
_cell_angle_gamma   90.00000000
_symmetry_Int_Tables_number   1
_chemical_formula_structural   Cu(Ni3C2)2
_chemical_formula_sum   'Cu4 Ni24 C16'
_cell_volume   573.92966522
_cell_formula_units_Z   4
loop_
 _symmetry_equiv_pos_site_id
 _symmetry_equiv_pos_as_xyz
  1  'x, y, z'
loop_
 _atom_site_type_symbol
 _atom_site_label
 _atom_site_symmetry_multiplicity
 _atom_site_fract_x
 _atom_site_fract_y
 _atom_site_fract_z
 _atom_site_occupancy
  C  C0  1  0.50000000  0.27402600  0.00000000  1
  C  C1  1  0.50000000  0.72597400  0.50000000  1
  C  C2  1  0.72597400  0.50000000  0.25000000  1
  C  C3  1  0.27402600  0.50000000  0.75000000  1
  C  C4  1  0.00000000  0.72629600  0.50000000  1
  C  C5  1  0.27370400  0.00000000  0.75000000  1
  C  C6  1  0.00000000  0.27370400  0.00000000  1
  C  C7  1  0.72629600  0.00000000  0.25000000  1
  C  C8  1  0.76487500  0.00000000  0.75000000  1
  C  C9  1  0.00000000  0.23512500  0.50000000  1
  C  C10  1  0.23512500  0.00000000  0.25000000  1
  C  C11  1  0.00000000  0.76487500  0.00000000  1
  C  C12  1  0.24325400  0.50000000  0.25000000  1
  C  C13  1  0.50000000  0.24325400  0.50000000  1
  C  C14  1  0.50000000  0.75674600  0.00000000  1
  C  C15  1  0.75674600  0.50000000  0.75000000  1
  Ni  Ni16  1  0.55812900  0.94707900  0.86796100  1
  Ni  Ni17  1  0.75146400  0.77232400  0.07099600  1
  Ni  Ni18  1  0.95820000  0.95820000  0.87500000  1
  Ni  Ni19  1  0.05292100  0.44187100  0.38203900  1
  Ni  Ni20  1  0.04180000  0.95820000  0.12500000  1
  Ni  Ni21  1  0.04180000  0.04180000  0.37500000  1
  Ni  Ni22  1  0.24853600  0.22767600  0.57099600  1
  Ni  Ni23  1  0.22767600  0.75146400  0.32099600  1
  Ni  Ni24  1  0.22767600  0.24853600  0.17900400  1
  Ni  Ni25  1  0.24853600  0.77232400  0.92900400  1
  Ni  Ni26  1  0.44187100  0.05292100  0.36796100  1
  Ni  Ni27  1  0.43784500  0.43784500  0.37500000  1
  Ni  Ni28  1  0.44187100  0.94707900  0.13203900  1
  Ni  Ni29  1  0.56215500  0.43784500  0.62500000  1
  Ni  Ni30  1  0.55812900  0.05292100  0.63203900  1
  Ni  Ni31  1  0.56215500  0.56215500  0.87500000  1
  Ni  Ni32  1  0.77232400  0.75146400  0.67900400  1
  Ni  Ni33  1  0.75146400  0.22767600  0.42900400  1
  Ni  Ni34  1  0.77232400  0.24853600  0.82099600  1
  Ni  Ni35  1  0.94707900  0.55812900  0.88203900  1
  Ni  Ni36  1  0.95820000  0.04180000  0.62500000  1
  Ni  Ni37  1  0.94707900  0.44187100  0.61796100  1
  Ni  Ni38  1  0.05292100  0.55812900  0.11796100  1
  Ni  Ni39  1  0.43784500  0.56215500  0.12500000  1
  Cu  Cu40  1  0.73898200  0.26101800  0.12500000  1
  Cu  Cu41  1  0.26101800  0.73898200  0.62500000  1
  Cu  Cu42  1  0.73898200  0.73898200  0.37500000  1
  Cu  Cu43  1  0.26101800  0.26101800  0.87500000  1
