# generated using pymatgen
data_Cu2NiC4
_symmetry_space_group_name_H-M   'P 1'
_cell_length_a   8.67244037
_cell_length_b   8.67244037
_cell_length_c   8.67244037
_cell_angle_alpha   96.14129741
_cell_angle_beta   96.14129741
_cell_angle_gamma   141.81683125
_symmetry_Int_Tables_number   1
_chemical_formula_structural   Cu2NiC4
_chemical_formula_sum   'Cu12 Ni6 C24'
_cell_volume   381.03738211
_cell_formula_units_Z   6
loop_
 _symmetry_equiv_pos_site_id
 _symmetry_equiv_pos_as_xyz
  1  'x, y, z'
loop_
 _atom_site_type_symbol
 _atom_site_label
 _atom_site_symmetry_multiplicity
 _atom_site_fract_x
 _atom_site_fract_y
 _atom_site_fract_z
 _atom_site_occupancy
  Ni  Ni0  1  0.75000000  0.25000000  0.50000000  1
  Ni  Ni1  1  0.50000000  0.50000000  0.00000000  1
  Ni  Ni2  1  0.12500000  0.79288700  0.16788700  1
  Ni  Ni3  1  0.62500000  0.95711300  0.83211300  1
  Ni  Ni4  1  0.20711300  0.37500000  0.33211300  1
  Ni  Ni5  1  0.04288700  0.87500000  0.66788700  1
  Cu  Cu6  1  0.79944100  0.26264100  0.16747600  1
  Cu  Cu7  1  0.45055900  0.11803600  0.96320000  1
  Cu  Cu8  1  0.09516500  0.63196400  0.83252400  1
  Cu  Cu9  1  0.15483500  0.48735900  0.03680000  1
  Cu  Cu10  1  0.73735900  0.90483500  0.53680000  1
  Cu  Cu11  1  0.51264100  0.54944100  0.66747600  1
  Cu  Cu12  1  0.36803600  0.20055900  0.46320000  1
  Cu  Cu13  1  0.88196400  0.84516500  0.33252400  1
  Cu  Cu14  1  0.62500000  0.37581300  0.25081300  1
  Cu  Cu15  1  0.12500000  0.37418700  0.74918700  1
  Cu  Cu16  1  0.62418700  0.87500000  0.24918700  1
  Cu  Cu17  1  0.62581300  0.37500000  0.75081300  1
  C  C18  1  0.67360200  0.08482300  0.27025500  1
  C  C19  1  0.57639800  0.34665400  0.91122100  1
  C  C20  1  0.81456800  0.40334600  0.72974500  1
  C  C21  1  0.43543200  0.66517700  0.08877900  1
  C  C22  1  0.91517700  0.18543200  0.58877900  1
  C  C23  1  0.33482300  0.42360200  0.77025500  1
  C  C24  1  0.59665400  0.32639800  0.41122100  1
  C  C25  1  0.65334600  0.56456800  0.22974500  1
  C  C26  1  0.62500000  0.12291500  0.99791500  1
  C  C27  1  0.12500000  0.62708500  0.00208500  1
  C  C28  1  0.87708500  0.87500000  0.50208500  1
  C  C29  1  0.37291500  0.37500000  0.49791500  1
  C  C30  1  0.04081600  0.37500000  0.16581600  1
  C  C31  1  0.20918400  0.87500000  0.83418400  1
  C  C32  1  0.62500000  0.79081600  0.66581600  1
  C  C33  1  0.12500000  0.95918400  0.33418400  1
  C  C34  1  0.85965300  0.47360900  0.23955100  1
  C  C35  1  0.39034700  0.12989800  0.11395600  1
  C  C36  1  0.23405900  0.62010200  0.76044900  1
  C  C37  1  0.01594100  0.27639100  0.88604400  1
  C  C38  1  0.52639100  0.76594100  0.38604400  1
  C  C39  1  0.72360900  0.60965300  0.73955100  1
  C  C40  1  0.37989800  0.14034700  0.61395600  1
  C  C41  1  0.87010200  0.98405900  0.26044900  1
