# generated using pymatgen
data_Cu4NiC2
_symmetry_space_group_name_H-M   'P 1'
_cell_length_a   6.77126800
_cell_length_b   6.79484900
_cell_length_c   8.28602483
_cell_angle_alpha   72.02958512
_cell_angle_beta   90.00000000
_cell_angle_gamma   90.00000000
_symmetry_Int_Tables_number   1
_chemical_formula_structural   Cu4NiC2
_chemical_formula_sum   'Cu8 Ni2 C4'
_cell_volume   362.63955109
_cell_formula_units_Z   2
loop_
 _symmetry_equiv_pos_site_id
 _symmetry_equiv_pos_as_xyz
  1  'x, y, z'
loop_
 _atom_site_type_symbol
 _atom_site_label
 _atom_site_symmetry_multiplicity
 _atom_site_fract_x
 _atom_site_fract_y
 _atom_site_fract_z
 _atom_site_occupancy
  C  C0  1  0.75000000  0.23825700  0.56544700  1
  C  C1  1  0.25000000  0.76174300  0.43455300  1
  C  C2  1  0.75000000  0.27798000  0.05328800  1
  C  C3  1  0.25000000  0.72202000  0.94671200  1
  Ni  Ni4  1  0.75000000  0.73045200  0.19812400  1
  Ni  Ni5  1  0.25000000  0.26954800  0.80187600  1
  Cu  Cu6  1  0.50272100  0.49037300  0.74147100  1
  Cu  Cu7  1  0.00272100  0.50962700  0.25852900  1
  Cu  Cu8  1  0.49727900  0.50962700  0.25852900  1
  Cu  Cu9  1  0.99727900  0.49037300  0.74147100  1
  Cu  Cu10  1  0.75000000  0.92250300  0.37319000  1
  Cu  Cu11  1  0.25000000  0.07749700  0.62681000  1
  Cu  Cu12  1  0.25000000  0.09500200  0.07688500  1
  Cu  Cu13  1  0.75000000  0.90499800  0.92311500  1
