# generated using pymatgen
data_CuNiC3
_symmetry_space_group_name_H-M   'P 1'
_cell_length_a   5.42014600
_cell_length_b   9.07498700
_cell_length_c   19.07442400
_cell_angle_alpha   90.00000000
_cell_angle_beta   90.00000000
_cell_angle_gamma   90.00000000
_symmetry_Int_Tables_number   1
_chemical_formula_structural   CuNiC3
_chemical_formula_sum   'Cu16 Ni16 C48'
_cell_volume   938.22808471
_cell_formula_units_Z   16
loop_
 _symmetry_equiv_pos_site_id
 _symmetry_equiv_pos_as_xyz
  1  'x, y, z'
loop_
 _atom_site_type_symbol
 _atom_site_label
 _atom_site_symmetry_multiplicity
 _atom_site_fract_x
 _atom_site_fract_y
 _atom_site_fract_z
 _atom_site_occupancy
  Ni  Ni0  1  0.64736300  0.65574000  0.12346500  1
  Ni  Ni1  1  0.14736300  0.34426000  0.37653500  1
  Ni  Ni2  1  0.85263700  0.15574000  0.87653500  1
  Ni  Ni3  1  0.35263700  0.84426000  0.62346500  1
  Ni  Ni4  1  0.35263700  0.34426000  0.87653500  1
  Ni  Ni5  1  0.85263700  0.65574000  0.62346500  1
  Ni  Ni6  1  0.14736300  0.84426000  0.12346500  1
  Ni  Ni7  1  0.64736300  0.15574000  0.37653500  1
  Ni  Ni8  1  0.65523700  0.51162800  0.37771200  1
  Ni  Ni9  1  0.15523700  0.48837200  0.12228800  1
  Ni  Ni10  1  0.84476300  0.01162800  0.62228800  1
  Ni  Ni11  1  0.34476300  0.98837200  0.87771200  1
  Ni  Ni12  1  0.34476300  0.48837200  0.62228800  1
  Ni  Ni13  1  0.84476300  0.51162800  0.87771200  1
  Ni  Ni14  1  0.15523700  0.98837200  0.37771200  1
  Ni  Ni15  1  0.65523700  0.01162800  0.12228800  1
  Cu  Cu16  1  0.95685200  0.65490900  0.27073700  1
  Cu  Cu17  1  0.45685200  0.34509100  0.22926300  1
  Cu  Cu18  1  0.54314800  0.15490900  0.72926300  1
  Cu  Cu19  1  0.04314800  0.84509100  0.77073700  1
  Cu  Cu20  1  0.04314800  0.34509100  0.72926300  1
  Cu  Cu21  1  0.54314800  0.65490900  0.77073700  1
  Cu  Cu22  1  0.45685200  0.84509100  0.27073700  1
  Cu  Cu23  1  0.95685200  0.15490900  0.22926300  1
  Cu  Cu24  1  0.19482800  0.66011300  0.47263700  1
  Cu  Cu25  1  0.69482800  0.33988700  0.02736300  1
  Cu  Cu26  1  0.30517200  0.16011300  0.52736300  1
  Cu  Cu27  1  0.80517200  0.83988700  0.97263700  1
  Cu  Cu28  1  0.80517200  0.33988700  0.52736300  1
  Cu  Cu29  1  0.30517200  0.66011300  0.97263700  1
  Cu  Cu30  1  0.69482800  0.83988700  0.47263700  1
  Cu  Cu31  1  0.19482800  0.16011300  0.02736300  1
  C  C32  1  0.37253100  0.32180500  0.05514400  1
  C  C33  1  0.87253100  0.67819500  0.44485600  1
  C  C34  1  0.12746900  0.82180500  0.94485600  1
  C  C35  1  0.62746900  0.17819500  0.55514400  1
  C  C36  1  0.62746900  0.67819500  0.94485600  1
  C  C37  1  0.12746900  0.32180500  0.55514400  1
  C  C38  1  0.87253100  0.17819500  0.05514400  1
  C  C39  1  0.37253100  0.82180500  0.44485600  1
  C  C40  1  0.32841500  0.01273700  0.07000600  1
  C  C41  1  0.82841500  0.98726300  0.42999400  1
  C  C42  1  0.17158500  0.51273700  0.92999400  1
  C  C43  1  0.67158500  0.48726300  0.57000600  1
  C  C44  1  0.67158500  0.98726300  0.92999400  1
  C  C45  1  0.17158500  0.01273700  0.57000600  1
  C  C46  1  0.82841500  0.48726300  0.07000600  1
  C  C47  1  0.32841500  0.51273700  0.42999400  1
  C  C48  1  0.18676900  0.16192100  0.93489100  1
  C  C49  1  0.68676900  0.83807900  0.56510900  1
  C  C50  1  0.31323100  0.66192100  0.06510900  1
  C  C51  1  0.96180000  0.98668400  0.18672300  1
  C  C52  1  0.81323100  0.33807900  0.43489100  1
  C  C53  1  0.31323100  0.16192100  0.43489100  1
  C  C54  1  0.68676900  0.33807900  0.93489100  1
  C  C55  1  0.18676900  0.66192100  0.56510900  1
  C  C56  1  0.15863000  0.29171700  0.19328900  1
  C  C57  1  0.65863000  0.70828300  0.30671100  1
  C  C58  1  0.34137000  0.79171700  0.80671100  1
  C  C59  1  0.84137000  0.20828300  0.69328900  1
  C  C60  1  0.84137000  0.70828300  0.80671100  1
  C  C61  1  0.34137000  0.29171700  0.69328900  1
  C  C62  1  0.65863000  0.20828300  0.19328900  1
  C  C63  1  0.15863000  0.79171700  0.30671100  1
  C  C64  1  0.97690100  0.65969300  0.17902900  1
  C  C65  1  0.47690100  0.34030700  0.32097100  1
  C  C66  1  0.52309900  0.15969300  0.82097100  1
  C  C67  1  0.02309900  0.84030700  0.67902900  1
  C  C68  1  0.02309900  0.34030700  0.82097100  1
  C  C69  1  0.52309900  0.65969300  0.67902900  1
  C  C70  1  0.47690100  0.84030700  0.17902900  1
  C  C71  1  0.97690100  0.15969300  0.32097100  1
  C  C72  1  0.96180000  0.48668400  0.31327700  1
  C  C73  1  0.46180000  0.51331600  0.18672300  1
  C  C74  1  0.53820000  0.98668400  0.68672300  1
  C  C75  1  0.03820000  0.01331600  0.81327700  1
  C  C76  1  0.03820000  0.51331600  0.68672300  1
  C  C77  1  0.53820000  0.48668400  0.81327700  1
  C  C78  1  0.46180000  0.01331600  0.31327700  1
  C  C79  1  0.81323100  0.83807900  0.06510900  1
