# generated using pymatgen
data_CuNiC4
_symmetry_space_group_name_H-M   'P 1'
_cell_length_a   10.63808200
_cell_length_b   10.63808200
_cell_length_c   10.63808200
_cell_angle_alpha   90.00000000
_cell_angle_beta   90.00000000
_cell_angle_gamma   90.00000000
_symmetry_Int_Tables_number   1
_chemical_formula_structural   CuNiC4
_chemical_formula_sum   'Cu16 Ni16 C64'
_cell_volume   1203.89885338
_cell_formula_units_Z   16
loop_
 _symmetry_equiv_pos_site_id
 _symmetry_equiv_pos_as_xyz
  1  'x, y, z'
loop_
 _atom_site_type_symbol
 _atom_site_label
 _atom_site_symmetry_multiplicity
 _atom_site_fract_x
 _atom_site_fract_y
 _atom_site_fract_z
 _atom_site_occupancy
  Ni  Ni0  1  0.37300900  0.87354300  0.87697700  1
  Ni  Ni1  1  0.87300900  0.62645700  0.12302300  1
  Ni  Ni2  1  0.62699100  0.37354300  0.62302300  1
  Ni  Ni3  1  0.62645700  0.12302300  0.87300900  1
  Ni  Ni4  1  0.62302300  0.62699100  0.37354300  1
  Ni  Ni5  1  0.12302300  0.87300900  0.62645700  1
  Ni  Ni6  1  0.87354300  0.87697700  0.37300900  1
  Ni  Ni7  1  0.87697700  0.37300900  0.87354300  1
  Ni  Ni8  1  0.37354300  0.62302300  0.62699100  1
  Ni  Ni9  1  0.12645700  0.37697700  0.12699100  1
  Ni  Ni10  1  0.37697700  0.12699100  0.12645700  1
  Ni  Ni11  1  0.12699100  0.12645700  0.37697700  1
  Ni  Ni12  1  0.62348000  0.87652000  0.12348000  1
  Ni  Ni13  1  0.87652000  0.12348000  0.62348000  1
  Ni  Ni14  1  0.12348000  0.62348000  0.87652000  1
  Ni  Ni15  1  0.37652000  0.37652000  0.37652000  1
  Cu  Cu16  1  0.37096600  0.87222700  0.37492500  1
  Cu  Cu17  1  0.87096600  0.62777300  0.62507500  1
  Cu  Cu18  1  0.62903400  0.37222700  0.12507500  1
  Cu  Cu19  1  0.62777300  0.62507500  0.87096600  1
  Cu  Cu20  1  0.12507500  0.62903400  0.37222700  1
  Cu  Cu21  1  0.62507500  0.87096600  0.62777300  1
  Cu  Cu22  1  0.87222700  0.37492500  0.37096600  1
  Cu  Cu23  1  0.37492500  0.37096600  0.87222700  1
  Cu  Cu24  1  0.37222700  0.12507500  0.62903400  1
  Cu  Cu25  1  0.12777300  0.87492500  0.12903400  1
  Cu  Cu26  1  0.87492500  0.12903400  0.12777300  1
  Cu  Cu27  1  0.12903400  0.12777300  0.87492500  1
  Cu  Cu28  1  0.11357000  0.38643000  0.61357000  1
  Cu  Cu29  1  0.38643000  0.61357000  0.11357000  1
  Cu  Cu30  1  0.61357000  0.11357000  0.38643000  1
  Cu  Cu31  1  0.88643000  0.88643000  0.88643000  1
  C  C32  1  0.25181400  0.74802200  0.50131900  1
  C  C33  1  0.75181400  0.75197800  0.49868100  1
  C  C34  1  0.74818600  0.24802200  0.99868100  1
  C  C35  1  0.75197800  0.49868100  0.75181400  1
  C  C36  1  0.99868100  0.74818600  0.24802200  1
  C  C37  1  0.49868100  0.75181400  0.75197800  1
  C  C38  1  0.74802200  0.50131900  0.25181400  1
  C  C39  1  0.50131900  0.25181400  0.74802200  1
  C  C40  1  0.24802200  0.99868100  0.74818600  1
  C  C41  1  0.25197800  0.00131900  0.24818600  1
  C  C42  1  0.00131900  0.24818600  0.25197800  1
  C  C43  1  0.24818600  0.25197800  0.00131900  1
  C  C44  1  0.25686800  0.74799700  0.02012200  1
  C  C45  1  0.75686800  0.75200300  0.97987800  1
  C  C46  1  0.74313200  0.24799700  0.47987800  1
  C  C47  1  0.75200300  0.97987800  0.75686800  1
  C  C48  1  0.47987800  0.74313200  0.24799700  1
  C  C49  1  0.97987800  0.75686800  0.75200300  1
  C  C50  1  0.74799700  0.02012200  0.25686800  1
  C  C51  1  0.02012200  0.25686800  0.74799700  1
  C  C52  1  0.24799700  0.47987800  0.74313200  1
  C  C53  1  0.25200300  0.52012200  0.24313200  1
  C  C54  1  0.52012200  0.24313200  0.25200300  1
  C  C55  1  0.50048600  0.75916200  0.49986000  1
  C  C56  1  0.24313200  0.25200300  0.52012200  1
  C  C57  1  0.00014000  0.49951400  0.25916200  1
  C  C58  1  0.49986000  0.50048600  0.75916200  1
  C  C59  1  0.49951400  0.25916200  0.00014000  1
  C  C60  1  0.75916200  0.49986000  0.50048600  1
  C  C61  1  0.25916200  0.00014000  0.49951400  1
  C  C62  1  0.00048600  0.74083800  0.50014000  1
  C  C63  1  0.74083800  0.50014000  0.00048600  1
  C  C64  1  0.25575100  0.25575100  0.25575100  1
  C  C65  1  0.24424900  0.74424900  0.75575100  1
  C  C66  1  0.75575100  0.24424900  0.74424900  1
  C  C67  1  0.74424900  0.75575100  0.24424900  1
  C  C68  1  0.50003200  0.50003200  0.50003200  1
  C  C69  1  0.99996800  0.49996800  0.00003200  1
  C  C70  1  0.00003200  0.99996800  0.49996800  1
  C  C71  1  0.49996800  0.00003200  0.99996800  1
  C  C72  1  0.73076200  0.73076200  0.73076200  1
  C  C73  1  0.76923800  0.26923800  0.23076200  1
  C  C74  1  0.23076200  0.76923800  0.26923800  1
  C  C75  1  0.26923800  0.23076200  0.76923800  1
  C  C76  1  0.00015100  0.00015100  0.00015100  1
  C  C77  1  0.49984900  0.99984900  0.50015100  1
  C  C78  1  0.50015100  0.49984900  0.99984900  1
  C  C79  1  0.99984900  0.50015100  0.49984900  1
  C  C80  1  0.00178700  0.00813900  0.75984200  1
  C  C81  1  0.75984200  0.00178700  0.00813900  1
  C  C82  1  0.00813900  0.75984200  0.00178700  1
  C  C83  1  0.49186100  0.24015800  0.50178700  1
  C  C84  1  0.25984200  0.49821300  0.99186100  1
  C  C85  1  0.99186100  0.25984200  0.49821300  1
  C  C86  1  0.74015800  0.99821300  0.50813900  1
  C  C87  1  0.24015800  0.50178700  0.49186100  1
  C  C88  1  0.50813900  0.74015800  0.99821300  1
  C  C89  1  0.50178700  0.49186100  0.24015800  1
  C  C90  1  0.99821300  0.50813900  0.74015800  1
  C  C91  1  0.49821300  0.99186100  0.25984200  1
  C  C92  1  0.99986000  0.99951400  0.24083800  1
  C  C93  1  0.24083800  0.99986000  0.99951400  1
  C  C94  1  0.99951400  0.24083800  0.99986000  1
  C  C95  1  0.50014000  0.00048600  0.74083800  1
