# generated using pymatgen
data_Cu12NiC10
_symmetry_space_group_name_H-M   'P 1'
_cell_length_a   7.71393646
_cell_length_b   7.71393646
_cell_length_c   12.61334228
_cell_angle_alpha   89.95046724
_cell_angle_beta   89.95046724
_cell_angle_gamma   109.88090522
_symmetry_Int_Tables_number   1
_chemical_formula_structural   Cu12NiC10
_chemical_formula_sum   'Cu24 Ni2 C20'
_cell_volume   705.82188868
_cell_formula_units_Z   2
loop_
 _symmetry_equiv_pos_site_id
 _symmetry_equiv_pos_as_xyz
  1  'x, y, z'
loop_
 _atom_site_type_symbol
 _atom_site_label
 _atom_site_symmetry_multiplicity
 _atom_site_fract_x
 _atom_site_fract_y
 _atom_site_fract_z
 _atom_site_occupancy
  C  C0  1  0.18901700  0.70726500  0.82156700  1
  C  C1  1  0.13638100  0.02358300  0.48948600  1
  C  C2  1  0.66265000  0.17882800  0.69052000  1
  C  C3  1  0.70726500  0.18901700  0.32156700  1
  C  C4  1  0.17882800  0.66265000  0.19052000  1
  C  C5  1  0.48294400  0.62458400  0.49675000  1
  C  C6  1  0.02358300  0.13638100  0.98948600  1
  C  C7  1  0.62458400  0.48294400  0.99675000  1
  C  C8  1  0.37118500  0.12439600  0.87882600  1
  C  C9  1  0.12439600  0.37118500  0.37882600  1
  C  C10  1  0.87748400  0.63153800  0.62233300  1
  C  C11  1  0.63153800  0.87748400  0.12233300  1
  C  C12  1  0.00490400  0.00852500  0.74924900  1
  C  C13  1  0.61544800  0.87574800  0.87059000  1
  C  C14  1  0.48942500  0.49675200  0.25483000  1
  C  C15  1  0.12504100  0.37925800  0.62463800  1
  C  C16  1  0.87574800  0.61544800  0.37059000  1
  C  C17  1  0.49675200  0.48942500  0.75483000  1
  C  C18  1  0.00852500  0.00490400  0.24924900  1
  C  C19  1  0.37925800  0.12504100  0.12463800  1
  Ni  Ni20  1  0.49933600  0.99978000  0.50025500  1
  Ni  Ni21  1  0.99978000  0.49933600  0.00025500  1
  Cu  Cu22  1  0.50267900  0.69605500  0.79547200  1
  Cu  Cu23  1  0.83620500  0.95065100  0.83800000  1
  Cu  Cu24  1  0.53018500  0.03455700  0.84908800  1
  Cu  Cu25  1  0.00397600  0.21046000  0.70470300  1
  Cu  Cu26  1  0.01184600  0.18755900  0.30974000  1
  Cu  Cu27  1  0.18755900  0.01184600  0.80974000  1
  Cu  Cu28  1  0.10393500  0.31161300  0.50429600  1
  Cu  Cu29  1  0.34558000  0.44696200  0.35078400  1
  Cu  Cu30  1  0.03455700  0.53018500  0.34908800  1
  Cu  Cu31  1  0.44696200  0.34558000  0.85078400  1
  Cu  Cu32  1  0.50048400  0.69156100  0.20047900  1
  Cu  Cu33  1  0.06062800  0.55419800  0.65257500  1
  Cu  Cu34  1  0.69605500  0.50267900  0.29547200  1
  Cu  Cu35  1  0.60511800  0.79803600  0.99121500  1
  Cu  Cu36  1  0.69156100  0.50048400  0.70047900  1
  Cu  Cu37  1  0.34636600  0.44138500  0.65629700  1
  Cu  Cu38  1  0.79803600  0.60511800  0.49121500  1
  Cu  Cu39  1  0.86907500  0.95681400  0.14830600  1
  Cu  Cu40  1  0.95681400  0.86907500  0.64830600  1
  Cu  Cu41  1  0.55419800  0.06062800  0.15257500  1
  Cu  Cu42  1  0.95065100  0.83620500  0.33800000  1
  Cu  Cu43  1  0.21046000  0.00397600  0.20470300  1
  Cu  Cu44  1  0.31161300  0.10393500  0.00429600  1
  Cu  Cu45  1  0.44138500  0.34636600  0.15629700  1
