# generated using pymatgen
data_Cu2Ni7C
_symmetry_space_group_name_H-M   'P 1'
_cell_length_a   6.31984300
_cell_length_b   6.31984300
_cell_length_c   14.76901000
_cell_angle_alpha   90.00000000
_cell_angle_beta   90.00000000
_cell_angle_gamma   90.00000000
_symmetry_Int_Tables_number   1
_chemical_formula_structural   Cu2Ni7C
_chemical_formula_sum   'Cu8 Ni28 C4'
_cell_volume   589.88039658
_cell_formula_units_Z   4
loop_
 _symmetry_equiv_pos_site_id
 _symmetry_equiv_pos_as_xyz
  1  'x, y, z'
loop_
 _atom_site_type_symbol
 _atom_site_label
 _atom_site_symmetry_multiplicity
 _atom_site_fract_x
 _atom_site_fract_y
 _atom_site_fract_z
 _atom_site_occupancy
  Ni  Ni0  1  0.00000000  0.00000000  0.13372700  1
  Ni  Ni1  1  0.50000000  0.50000000  0.36627300  1
  Ni  Ni2  1  0.00000000  0.00000000  0.86627300  1
  Ni  Ni3  1  0.50000000  0.50000000  0.63372700  1
  Ni  Ni4  1  0.91451600  0.70608900  0.60059500  1
  Ni  Ni5  1  0.08548400  0.29391100  0.60059500  1
  Ni  Ni6  1  0.20608900  0.41451600  0.89940500  1
  Ni  Ni7  1  0.70608900  0.08548400  0.60059500  1
  Ni  Ni8  1  0.29391100  0.91451600  0.60059500  1
  Ni  Ni9  1  0.58548400  0.20608900  0.89940500  1
  Ni  Ni10  1  0.41451600  0.79391100  0.89940500  1
  Ni  Ni11  1  0.79391100  0.58548400  0.89940500  1
  Ni  Ni12  1  0.08548400  0.29391100  0.39940500  1
  Ni  Ni13  1  0.91451600  0.70608900  0.39940500  1
  Ni  Ni14  1  0.79391100  0.58548400  0.10059500  1
  Ni  Ni15  1  0.29391100  0.91451600  0.39940500  1
  Ni  Ni16  1  0.16208300  0.66208300  0.25000000  1
  Ni  Ni17  1  0.33791700  0.16208300  0.25000000  1
  Ni  Ni18  1  0.66208300  0.83791700  0.25000000  1
  Ni  Ni19  1  0.83791700  0.33791700  0.25000000  1
  Ni  Ni20  1  0.83791700  0.33791700  0.75000000  1
  Ni  Ni21  1  0.66208300  0.83791700  0.75000000  1
  Ni  Ni22  1  0.33791700  0.16208300  0.75000000  1
  Ni  Ni23  1  0.16208300  0.66208300  0.75000000  1
  Ni  Ni24  1  0.20608900  0.41451600  0.10059500  1
  Ni  Ni25  1  0.58548400  0.20608900  0.10059500  1
  Ni  Ni26  1  0.41451600  0.79391100  0.10059500  1
  Ni  Ni27  1  0.70608900  0.08548400  0.39940500  1
  C  C28  1  0.00000000  0.00000000  0.29935300  1
  C  C29  1  0.50000000  0.50000000  0.20064700  1
  C  C30  1  0.00000000  0.00000000  0.70064700  1
  C  C31  1  0.50000000  0.50000000  0.79935300  1
  Cu  Cu32  1  0.77306200  0.41505200  0.50000000  1
  Cu  Cu33  1  0.08494800  0.72693800  0.00000000  1
  Cu  Cu34  1  0.91505200  0.27306200  0.00000000  1
  Cu  Cu35  1  0.27306200  0.08494800  0.00000000  1
  Cu  Cu36  1  0.22693800  0.58494800  0.50000000  1
  Cu  Cu37  1  0.72693800  0.91505200  0.00000000  1
  Cu  Cu38  1  0.58494800  0.77306200  0.50000000  1
  Cu  Cu39  1  0.41505200  0.22693800  0.50000000  1
