# generated using pymatgen
data_Cu(NiC)3
_symmetry_space_group_name_H-M   'P 1'
_cell_length_a   7.09183868
_cell_length_b   7.09183868
_cell_length_c   7.09183848
_cell_angle_alpha   101.07735726
_cell_angle_beta   101.07735726
_cell_angle_gamma   101.07735639
_symmetry_Int_Tables_number   1
_chemical_formula_structural   Cu(NiC)3
_chemical_formula_sum   'Cu2 Ni6 C6'
_cell_volume   333.65483122
_cell_formula_units_Z   2
loop_
 _symmetry_equiv_pos_site_id
 _symmetry_equiv_pos_as_xyz
  1  'x, y, z'
loop_
 _atom_site_type_symbol
 _atom_site_label
 _atom_site_symmetry_multiplicity
 _atom_site_fract_x
 _atom_site_fract_y
 _atom_site_fract_z
 _atom_site_occupancy
  Ni  Ni0  1  0.25766700  0.04310300  0.58686500  1
  Ni  Ni1  1  0.58686500  0.25766700  0.04310300  1
  Ni  Ni2  1  0.54310300  0.75766700  0.08686500  1
  Ni  Ni3  1  0.75766700  0.08686500  0.54310300  1
  Ni  Ni4  1  0.04310300  0.58686500  0.25766700  1
  Ni  Ni5  1  0.08686500  0.54310300  0.75766700  1
  Cu  Cu6  1  0.49886500  0.49886500  0.49886500  1
  Cu  Cu7  1  0.99886500  0.99886500  0.99886500  1
  C  C8  1  0.23976900  0.24639500  0.90143700  1
  C  C9  1  0.24639500  0.90143700  0.23976900  1
  C  C10  1  0.40143700  0.74639500  0.73976900  1
  C  C11  1  0.74639500  0.73976900  0.40143700  1
  C  C12  1  0.90143700  0.23976900  0.24639500  1
  C  C13  1  0.73976900  0.40143700  0.74639500  1
