# generated using pymatgen
data_Cu3Ni14C25
_symmetry_space_group_name_H-M   'P 1'
_cell_length_a   16.05675865
_cell_length_b   16.05675865
_cell_length_c   16.05675847
_cell_angle_alpha   26.01820213
_cell_angle_beta   26.01820213
_cell_angle_gamma   26.01820297
_symmetry_Int_Tables_number   1
_chemical_formula_structural   Cu3Ni14C25
_chemical_formula_sum   'Cu3 Ni14 C25'
_cell_volume   701.69334627
_cell_formula_units_Z   1
loop_
 _symmetry_equiv_pos_site_id
 _symmetry_equiv_pos_as_xyz
  1  'x, y, z'
loop_
 _atom_site_type_symbol
 _atom_site_label
 _atom_site_symmetry_multiplicity
 _atom_site_fract_x
 _atom_site_fract_y
 _atom_site_fract_z
 _atom_site_occupancy
  Ni  Ni0  1  0.14960100  0.14960100  0.14960100  1
  Ni  Ni1  1  0.70201200  0.19334400  0.19388700  1
  Ni  Ni2  1  0.19388700  0.70201200  0.19334400  1
  Ni  Ni3  1  0.19334400  0.19388700  0.70201200  1
  Ni  Ni4  1  0.60907600  0.58685900  0.09134000  1
  Ni  Ni5  1  0.09134000  0.60907600  0.58685900  1
  Ni  Ni6  1  0.58685900  0.09134000  0.60907600  1
  Ni  Ni7  1  0.90866000  0.39092400  0.41314100  1
  Ni  Ni8  1  0.41314100  0.90866000  0.39092400  1
  Ni  Ni9  1  0.39092400  0.41314100  0.90866000  1
  Ni  Ni10  1  0.80665600  0.80611300  0.29798800  1
  Ni  Ni11  1  0.80611300  0.29798800  0.80665600  1
  Ni  Ni12  1  0.29798800  0.80665600  0.80611300  1
  Ni  Ni13  1  0.85039900  0.85039900  0.85039900  1
  Cu  Cu14  1  0.30017600  0.30017600  0.30017600  1
  Cu  Cu15  1  0.50000000  0.50000000  0.50000000  1
  Cu  Cu16  1  0.69982400  0.69982400  0.69982400  1
  C  C17  1  0.39640900  0.39640900  0.39640900  1
  C  C18  1  0.60359100  0.60359100  0.60359100  1
  C  C19  1  0.25941600  0.25941600  0.25941600  1
  C  C20  1  0.59685800  0.17261700  0.17268000  1
  C  C21  1  0.17268000  0.59685800  0.17261700  1
  C  C22  1  0.17261700  0.17268000  0.59685800  1
  C  C23  1  0.82738300  0.82732000  0.40314200  1
  C  C24  1  0.40314200  0.82738300  0.82732000  1
  C  C25  1  0.82732000  0.40314200  0.82738300  1
  C  C26  1  0.74058400  0.74058400  0.74058400  1
  C  C27  1  0.00000000  0.00000000  0.00000000  1
  C  C28  1  0.05412400  0.05412400  0.05412400  1
  C  C29  1  0.54379200  0.06974000  0.04597100  1
  C  C30  1  0.04597100  0.54379200  0.06974000  1
  C  C31  1  0.06974000  0.04597100  0.54379200  1
  C  C32  1  0.63246400  0.57140600  0.22561200  1
  C  C33  1  0.22561200  0.63246400  0.57140600  1
  C  C34  1  0.57140600  0.22561200  0.63246400  1
  C  C35  1  0.42859400  0.77438800  0.36753600  1
  C  C36  1  0.77438800  0.36753600  0.42859400  1
  C  C37  1  0.36753600  0.42859400  0.77438800  1
  C  C38  1  0.93026000  0.95402900  0.45620800  1
  C  C39  1  0.45620800  0.93026000  0.95402900  1
  C  C40  1  0.95402900  0.45620800  0.93026000  1
  C  C41  1  0.94587600  0.94587600  0.94587600  1
