# generated using pymatgen
data_Cu(NiC)3
_symmetry_space_group_name_H-M   'P 1'
_cell_length_a   3.95208400
_cell_length_b   12.20386700
_cell_length_c   13.10427800
_cell_angle_alpha   90.00000000
_cell_angle_beta   90.00000000
_cell_angle_gamma   90.00000000
_symmetry_Int_Tables_number   1
_chemical_formula_structural   Cu(NiC)3
_chemical_formula_sum   'Cu4 Ni12 C12'
_cell_volume   632.02859933
_cell_formula_units_Z   4
loop_
 _symmetry_equiv_pos_site_id
 _symmetry_equiv_pos_as_xyz
  1  'x, y, z'
loop_
 _atom_site_type_symbol
 _atom_site_label
 _atom_site_symmetry_multiplicity
 _atom_site_fract_x
 _atom_site_fract_y
 _atom_site_fract_z
 _atom_site_occupancy
  C  C0  1  0.25000000  0.54613300  0.64549200  1
  C  C1  1  0.75000000  0.45386700  0.35450800  1
  C  C2  1  0.25000000  0.04613300  0.85450800  1
  C  C3  1  0.75000000  0.95386700  0.14549200  1
  C  C4  1  0.25000000  0.71510900  0.36265500  1
  C  C5  1  0.75000000  0.28489100  0.63734500  1
  C  C6  1  0.25000000  0.21510900  0.13734500  1
  C  C7  1  0.75000000  0.78489100  0.86265500  1
  C  C8  1  0.25000000  0.07162500  0.36942200  1
  C  C9  1  0.75000000  0.92837500  0.63057800  1
  C  C10  1  0.25000000  0.57162500  0.13057800  1
  C  C11  1  0.75000000  0.42837500  0.86942200  1
  Ni  Ni12  1  0.75000000  0.72535700  0.19358100  1
  Ni  Ni13  1  0.75000000  0.91022300  0.39585800  1
  Ni  Ni14  1  0.25000000  0.58977700  0.89585800  1
  Ni  Ni15  1  0.25000000  0.08977700  0.60414200  1
  Ni  Ni16  1  0.25000000  0.86549400  0.99219800  1
  Ni  Ni17  1  0.75000000  0.13450600  0.00780200  1
  Ni  Ni18  1  0.25000000  0.36549400  0.50780200  1
  Ni  Ni19  1  0.75000000  0.63450600  0.49219800  1
  Ni  Ni20  1  0.25000000  0.27464300  0.80641900  1
  Ni  Ni21  1  0.75000000  0.22535700  0.30641900  1
  Ni  Ni22  1  0.25000000  0.77464300  0.69358100  1
  Ni  Ni23  1  0.75000000  0.41022300  0.10414200  1
  Cu  Cu24  1  0.75000000  0.96126700  0.79848600  1
  Cu  Cu25  1  0.25000000  0.53873300  0.29848600  1
  Cu  Cu26  1  0.75000000  0.46126700  0.70151400  1
  Cu  Cu27  1  0.25000000  0.03873300  0.20151400  1
