# generated using pymatgen
data_CuNi4C17
_symmetry_space_group_name_H-M   'P 1'
_cell_length_a   7.86420300
_cell_length_b   7.58671500
_cell_length_c   9.60663004
_cell_angle_alpha   68.06060747
_cell_angle_beta   90.00000000
_cell_angle_gamma   90.00000000
_symmetry_Int_Tables_number   1
_chemical_formula_structural   CuNi4C17
_chemical_formula_sum   'Cu2 Ni8 C34'
_cell_volume   531.65602216
_cell_formula_units_Z   2
loop_
 _symmetry_equiv_pos_site_id
 _symmetry_equiv_pos_as_xyz
  1  'x, y, z'
loop_
 _atom_site_type_symbol
 _atom_site_label
 _atom_site_symmetry_multiplicity
 _atom_site_fract_x
 _atom_site_fract_y
 _atom_site_fract_z
 _atom_site_occupancy
  C  C0  1  0.62522600  0.68595600  0.47257400  1
  C  C1  1  0.87477400  0.68595600  0.97257400  1
  C  C2  1  0.37477400  0.31404400  0.52742600  1
  C  C3  1  0.12522600  0.31404400  0.02742600  1
  C  C4  1  0.50000000  0.50000000  0.00000000  1
  C  C5  1  0.00000000  0.50000000  0.50000000  1
  Ni  Ni6  1  0.05540600  0.10544000  0.79896100  1
  Ni  Ni7  1  0.29692400  0.60980800  0.69379600  1
  Ni  Ni8  1  0.79692400  0.39019200  0.80620400  1
  Ni  Ni9  1  0.44459400  0.10544000  0.29896100  1
  Ni  Ni10  1  0.70307600  0.39019200  0.30620400  1
  Ni  Ni11  1  0.94459400  0.89456000  0.20103900  1
  Ni  Ni12  1  0.55540600  0.89456000  0.70103900  1
  Ni  Ni13  1  0.20307600  0.60980800  0.19379600  1
  Cu  Cu14  1  0.00000000  0.00000000  0.50000000  1
  Cu  Cu15  1  0.50000000  0.00000000  0.00000000  1
  C  C16  1  0.37086900  0.81496700  0.67791100  1
  C  C17  1  0.11435100  0.22947900  0.63648500  1
  C  C18  1  0.07766200  0.52534000  0.11260000  1
  C  C19  1  0.61435100  0.77052100  0.86351500  1
  C  C20  1  0.42233800  0.52534000  0.61260000  1
  C  C21  1  0.88564900  0.77052100  0.36351500  1
  C  C22  1  0.67568200  0.87377600  0.58338600  1
  C  C23  1  0.37457300  0.65276800  0.11309600  1
  C  C24  1  0.28994000  0.50008800  0.86434000  1
  C  C25  1  0.21006000  0.50008800  0.36434000  1
  C  C26  1  0.87086900  0.18503300  0.82208900  1
  C  C27  1  0.92233800  0.47466000  0.88740000  1
  C  C28  1  0.57766200  0.47466000  0.38740000  1
  C  C29  1  0.82431800  0.87377600  0.08338600  1
  C  C30  1  0.62913100  0.18503300  0.32208900  1
  C  C31  1  0.32431800  0.12622400  0.41661400  1
  C  C32  1  0.17568200  0.12622400  0.91661400  1
  C  C33  1  0.78994000  0.49991200  0.63566000  1
  C  C34  1  0.51795000  0.09701400  0.69063000  1
  C  C35  1  0.12542700  0.65276800  0.61309600  1
  C  C36  1  0.38564900  0.22947900  0.13648500  1
  C  C37  1  0.01795000  0.90298600  0.80937000  1
  C  C38  1  0.62542700  0.34723200  0.88690400  1
  C  C39  1  0.87457300  0.34723200  0.38690400  1
  C  C40  1  0.12913100  0.81496700  0.17791100  1
  C  C41  1  0.98205000  0.09701400  0.19063000  1
  C  C42  1  0.48205000  0.90298600  0.30937000  1
  C  C43  1  0.71006000  0.49991200  0.13566000  1
