# generated using pymatgen
data_CuNiC10
_symmetry_space_group_name_H-M   'P 1'
_cell_length_a   10.34267363
_cell_length_b   10.34267363
_cell_length_c   6.01709200
_cell_angle_alpha   90.00000000
_cell_angle_beta   90.00000000
_cell_angle_gamma   119.99999763
_symmetry_Int_Tables_number   1
_chemical_formula_structural   CuNiC10
_chemical_formula_sum   'Cu2 Ni2 C20'
_cell_volume   557.42049774
_cell_formula_units_Z   2
loop_
 _symmetry_equiv_pos_site_id
 _symmetry_equiv_pos_as_xyz
  1  'x, y, z'
loop_
 _atom_site_type_symbol
 _atom_site_label
 _atom_site_symmetry_multiplicity
 _atom_site_fract_x
 _atom_site_fract_y
 _atom_site_fract_z
 _atom_site_occupancy
  C  C0  1  0.35560000  0.22381100  0.24039200  1
  C  C1  1  0.13178900  0.35560000  0.74039200  1
  C  C2  1  0.22381100  0.86821100  0.74039200  1
  C  C3  1  0.86821100  0.64440000  0.24039200  1
  C  C4  1  0.64440000  0.77618900  0.74039200  1
  C  C5  1  0.77618900  0.13178900  0.24039200  1
  Ni  Ni6  1  0.00000000  0.00000000  0.68962300  1
  Ni  Ni7  1  0.00000000  0.00000000  0.18962300  1
  Cu  Cu8  1  0.33333300  0.66666700  0.32910800  1
  Cu  Cu9  1  0.66666700  0.33333300  0.82910800  1
  C  C10  1  0.66666700  0.33333300  0.45128500  1
  C  C11  1  0.89956900  0.42044200  0.98463400  1
  C  C12  1  0.33333300  0.66666700  0.95128500  1
  C  C13  1  0.90133300  0.73846200  0.71073000  1
  C  C14  1  0.26153800  0.16287200  0.71073000  1
  C  C15  1  0.16287200  0.90133300  0.21073000  1
  C  C16  1  0.09866700  0.26153800  0.21073000  1
  C  C17  1  0.10043100  0.57955800  0.48463400  1
  C  C18  1  0.57955800  0.47912700  0.98463400  1
  C  C19  1  0.42044200  0.52087300  0.48463400  1
  C  C20  1  0.83712800  0.09866700  0.71073000  1
  C  C21  1  0.73846200  0.83712800  0.21073000  1
  C  C22  1  0.52087300  0.10043100  0.98463400  1
  C  C23  1  0.47912700  0.89956900  0.48463400  1
