# generated using pymatgen
data_Cu4NiC5
_symmetry_space_group_name_H-M   'P 1'
_cell_length_a   8.83614711
_cell_length_b   8.83614711
_cell_length_c   8.83614711
_cell_angle_alpha   132.32384132
_cell_angle_beta   132.32384132
_cell_angle_gamma   69.71803312
_symmetry_Int_Tables_number   1
_chemical_formula_structural   Cu4NiC5
_chemical_formula_sum   'Cu8 Ni2 C10'
_cell_volume   369.87236894
_cell_formula_units_Z   2
loop_
 _symmetry_equiv_pos_site_id
 _symmetry_equiv_pos_as_xyz
  1  'x, y, z'
loop_
 _atom_site_type_symbol
 _atom_site_label
 _atom_site_symmetry_multiplicity
 _atom_site_fract_x
 _atom_site_fract_y
 _atom_site_fract_z
 _atom_site_occupancy
  C  C0  1  0.75000000  0.25000000  0.50000000  1
  C  C1  1  0.00000000  0.00000000  0.00000000  1
  Ni  Ni2  1  0.50000000  0.50000000  0.00000000  1
  Ni  Ni3  1  0.25000000  0.75000000  0.50000000  1
  Cu  Cu4  1  0.46426700  0.91384700  0.75378600  1
  Cu  Cu5  1  0.66384700  0.41006100  0.94958000  1
  Cu  Cu6  1  0.46048100  0.71426700  0.05042000  1
  Cu  Cu7  1  0.28951900  0.53573300  0.44958000  1
  Cu  Cu8  1  0.16006100  0.71048100  0.24621400  1
  Cu  Cu9  1  0.58993900  0.53951900  0.25378600  1
  Cu  Cu10  1  0.08615300  0.83993900  0.55042000  1
  Cu  Cu11  1  0.28573300  0.33615300  0.74621400  1
  C  C12  1  0.78297400  0.34035600  0.91056400  1
  C  C13  1  0.65964400  0.57020800  0.44261800  1
  C  C14  1  0.96702600  0.90964400  0.58943600  1
  C  C15  1  0.42979200  0.87241000  0.08943600  1
  C  C16  1  0.12759000  0.21702600  0.55738200  1
  C  C17  1  0.09035600  0.67979200  0.05738200  1
  C  C18  1  0.32020800  0.37759000  0.41056400  1
  C  C19  1  0.62241000  0.03297400  0.94261800  1
