# generated using pymatgen
data_Cu4Ni2C3
_symmetry_space_group_name_H-M   'P 1'
_cell_length_a   16.68894200
_cell_length_b   7.03229800
_cell_length_c   8.14926947
_cell_angle_alpha   75.73844060
_cell_angle_beta   90.00000000
_cell_angle_gamma   90.00000000
_symmetry_Int_Tables_number   1
_chemical_formula_structural   Cu4Ni2C3
_chemical_formula_sum   'Cu16 Ni8 C12'
_cell_volume   926.93598905
_cell_formula_units_Z   4
loop_
 _symmetry_equiv_pos_site_id
 _symmetry_equiv_pos_as_xyz
  1  'x, y, z'
loop_
 _atom_site_type_symbol
 _atom_site_label
 _atom_site_symmetry_multiplicity
 _atom_site_fract_x
 _atom_site_fract_y
 _atom_site_fract_z
 _atom_site_occupancy
  C  C0  1  0.35002100  0.60056900  0.35500900  1
  C  C1  1  0.85002100  0.39943100  0.14499100  1
  C  C2  1  0.64997900  0.39943100  0.64499100  1
  C  C3  1  0.14997900  0.60056900  0.85500900  1
  C  C4  1  0.39791800  0.14614300  0.07795500  1
  C  C5  1  0.44611200  0.03001600  0.75716900  1
  C  C6  1  0.94611200  0.96998400  0.74283100  1
  C  C7  1  0.89791800  0.85385700  0.42204500  1
  C  C8  1  0.05388800  0.03001600  0.25716900  1
  C  C9  1  0.55388800  0.96998400  0.24283100  1
  C  C10  1  0.60208200  0.85385700  0.92204500  1
  C  C11  1  0.10208200  0.14614300  0.57795500  1
  Ni  Ni12  1  0.90187600  0.88814700  0.60519500  1
  Ni  Ni13  1  0.52896700  0.92605400  0.80199900  1
  Ni  Ni14  1  0.59812400  0.88814700  0.10519500  1
  Ni  Ni15  1  0.40187600  0.11185300  0.89480500  1
  Ni  Ni16  1  0.47103300  0.07394600  0.19800100  1
  Ni  Ni17  1  0.09812400  0.11185300  0.39480500  1
  Ni  Ni18  1  0.97103300  0.92605400  0.30199900  1
  Ni  Ni19  1  0.02896700  0.07394600  0.69800100  1
  Cu  Cu20  1  0.92115000  0.39332200  0.37170000  1
  Cu  Cu21  1  0.42115000  0.60667800  0.12830000  1
  Cu  Cu22  1  0.26183200  0.82878500  0.27872000  1
  Cu  Cu23  1  0.19787400  0.31074300  0.94465000  1
  Cu  Cu24  1  0.42696100  0.67454400  0.54350100  1
  Cu  Cu25  1  0.80212600  0.68925700  0.05535000  1
  Cu  Cu26  1  0.07885000  0.60667800  0.62830000  1
  Cu  Cu27  1  0.57303900  0.32545600  0.45649900  1
  Cu  Cu28  1  0.73816800  0.17121500  0.72128000  1
  Cu  Cu29  1  0.57885000  0.39332200  0.87170000  1
  Cu  Cu30  1  0.92696100  0.32545600  0.95649900  1
  Cu  Cu31  1  0.23816800  0.82878500  0.77872000  1
  Cu  Cu32  1  0.07303900  0.67454400  0.04350100  1
  Cu  Cu33  1  0.69787400  0.68925700  0.55535000  1
  Cu  Cu34  1  0.30212600  0.31074300  0.44465000  1
  Cu  Cu35  1  0.76183200  0.17121500  0.22128000  1
