# generated using pymatgen
data_CuNiC8
_symmetry_space_group_name_H-M   'P 1'
_cell_length_a   5.52133002
_cell_length_b   11.48296424
_cell_length_c   7.70880400
_cell_angle_alpha   90.00000000
_cell_angle_beta   90.00000000
_cell_angle_gamma   86.11370277
_symmetry_Int_Tables_number   1
_chemical_formula_structural   CuNiC8
_chemical_formula_sum   'Cu4 Ni4 C32'
_cell_volume   487.62382799
_cell_formula_units_Z   4
loop_
 _symmetry_equiv_pos_site_id
 _symmetry_equiv_pos_as_xyz
  1  'x, y, z'
loop_
 _atom_site_type_symbol
 _atom_site_label
 _atom_site_symmetry_multiplicity
 _atom_site_fract_x
 _atom_site_fract_y
 _atom_site_fract_z
 _atom_site_occupancy
  C  C0  1  0.01795300  0.47629800  0.25000000  1
  C  C1  1  0.01795300  0.97629800  0.25000000  1
  C  C2  1  0.98204700  0.02370200  0.75000000  1
  C  C3  1  0.98204700  0.52370200  0.75000000  1
  C  C4  1  0.49402700  0.21684600  0.25000000  1
  C  C5  1  0.49402700  0.71684600  0.25000000  1
  C  C6  1  0.50597300  0.28315400  0.75000000  1
  C  C7  1  0.50597300  0.78315400  0.75000000  1
  Ni  Ni8  1  0.00000000  0.25000000  0.00000000  1
  Ni  Ni9  1  0.00000000  0.75000000  0.00000000  1
  Ni  Ni10  1  0.00000000  0.25000000  0.50000000  1
  Ni  Ni11  1  0.00000000  0.75000000  0.50000000  1
  Cu  Cu12  1  0.50000000  0.50000000  0.00000000  1
  Cu  Cu13  1  0.50000000  0.50000000  0.50000000  1
  Cu  Cu14  1  0.50000000  0.00000000  0.00000000  1
  Cu  Cu15  1  0.50000000  0.00000000  0.50000000  1
  C  C16  1  0.09771500  0.23600100  0.75000000  1
  C  C17  1  0.09771500  0.73600100  0.75000000  1
  C  C18  1  0.90228500  0.26399900  0.25000000  1
  C  C19  1  0.90228500  0.76399900  0.25000000  1
  C  C20  1  0.59510800  0.01396200  0.25000000  1
  C  C21  1  0.59510800  0.51396200  0.25000000  1
  C  C22  1  0.40489200  0.48603800  0.75000000  1
  C  C23  1  0.40489200  0.98603800  0.75000000  1
  C  C24  1  0.79809400  0.39858100  0.54835000  1
  C  C25  1  0.79809400  0.89858100  0.54835000  1
  C  C26  1  0.20190600  0.10141900  0.45165000  1
  C  C27  1  0.20190600  0.60141900  0.45165000  1
  C  C28  1  0.79809400  0.39858100  0.95165000  1
  C  C29  1  0.79809400  0.89858100  0.95165000  1
  C  C30  1  0.20190600  0.10141900  0.04835000  1
  C  C31  1  0.20190600  0.60141900  0.04835000  1
  C  C32  1  0.28083400  0.34257700  0.45147000  1
  C  C33  1  0.28083400  0.84257700  0.45147000  1
  C  C34  1  0.71916600  0.15742300  0.95147000  1
  C  C35  1  0.71916600  0.65742300  0.95147000  1
  C  C36  1  0.71916600  0.15742300  0.54853000  1
  C  C37  1  0.71916600  0.65742300  0.54853000  1
  C  C38  1  0.28083400  0.34257700  0.04853000  1
  C  C39  1  0.28083400  0.84257700  0.04853000  1
