# generated using pymatgen
data_Cu2NiC6
_symmetry_space_group_name_H-M   'P 1'
_cell_length_a   3.00063200
_cell_length_b   9.32574300
_cell_length_c   12.28843400
_cell_angle_alpha   90.00000000
_cell_angle_beta   90.00000000
_cell_angle_gamma   90.00000000
_symmetry_Int_Tables_number   1
_chemical_formula_structural   Cu2NiC6
_chemical_formula_sum   'Cu8 Ni4 C24'
_cell_volume   343.86875850
_cell_formula_units_Z   4
loop_
 _symmetry_equiv_pos_site_id
 _symmetry_equiv_pos_as_xyz
  1  'x, y, z'
loop_
 _atom_site_type_symbol
 _atom_site_label
 _atom_site_symmetry_multiplicity
 _atom_site_fract_x
 _atom_site_fract_y
 _atom_site_fract_z
 _atom_site_occupancy
  Ni  Ni0  1  0.00000000  0.23887200  0.11615700  1
  Ni  Ni1  1  0.00000000  0.76112800  0.88384300  1
  Ni  Ni2  1  0.00000000  0.73887200  0.38384300  1
  Ni  Ni3  1  0.00000000  0.26112800  0.61615700  1
  Cu  Cu4  1  0.50000000  0.00006900  0.28145800  1
  Cu  Cu5  1  0.50000000  0.99993100  0.71854200  1
  Cu  Cu6  1  0.50000000  0.50006900  0.21854200  1
  Cu  Cu7  1  0.50000000  0.49993100  0.78145800  1
  Cu  Cu8  1  0.50000000  0.00000000  0.00000000  1
  Cu  Cu9  1  0.50000000  0.50000000  0.50000000  1
  Cu  Cu10  1  0.00000000  0.50000000  0.00000000  1
  Cu  Cu11  1  0.00000000  0.00000000  0.50000000  1
  C  C12  1  0.00000000  0.27209800  0.36110200  1
  C  C13  1  0.00000000  0.72790200  0.63889800  1
  C  C14  1  0.00000000  0.77209800  0.13889800  1
  C  C15  1  0.00000000  0.22790200  0.86110200  1
  C  C16  1  0.00000000  0.15141600  0.95856300  1
  C  C17  1  0.00000000  0.84858400  0.04143700  1
  C  C18  1  0.00000000  0.65141600  0.54143700  1
  C  C19  1  0.00000000  0.34858400  0.45856300  1
  C  C20  1  0.50000000  0.11003600  0.14300800  1
  C  C21  1  0.50000000  0.88996400  0.85699200  1
  C  C22  1  0.50000000  0.61003600  0.35699200  1
  C  C23  1  0.50000000  0.38996400  0.64300800  1
  C  C24  1  0.00000000  0.12414500  0.35962300  1
  C  C25  1  0.00000000  0.87585500  0.64037700  1
  C  C26  1  0.00000000  0.62414500  0.14037700  1
  C  C27  1  0.00000000  0.37585500  0.85962300  1
  C  C28  1  0.50000000  0.38138700  0.07900200  1
  C  C29  1  0.50000000  0.61861300  0.92099800  1
  C  C30  1  0.50000000  0.88138700  0.42099800  1
  C  C31  1  0.50000000  0.11861300  0.57900200  1
  C  C32  1  0.00000000  0.34721800  0.26292800  1
  C  C33  1  0.00000000  0.65278200  0.73707200  1
  C  C34  1  0.00000000  0.84721800  0.23707200  1
  C  C35  1  0.00000000  0.15278200  0.76292800  1
