# generated using pymatgen
data_CuNiC5
_symmetry_space_group_name_H-M   'P 1'
_cell_length_a   9.22902243
_cell_length_b   9.22902243
_cell_length_c   8.78892100
_cell_angle_alpha   90.00000000
_cell_angle_beta   90.00000000
_cell_angle_gamma   120.00000308
_symmetry_Int_Tables_number   1
_chemical_formula_structural   CuNiC5
_chemical_formula_sum   'Cu6 Ni6 C30'
_cell_volume   648.30232923
_cell_formula_units_Z   6
loop_
 _symmetry_equiv_pos_site_id
 _symmetry_equiv_pos_as_xyz
  1  'x, y, z'
loop_
 _atom_site_type_symbol
 _atom_site_label
 _atom_site_symmetry_multiplicity
 _atom_site_fract_x
 _atom_site_fract_y
 _atom_site_fract_z
 _atom_site_occupancy
  C  C0  1  0.00000000  0.00000000  0.24950500  1
  C  C1  1  0.00000000  0.00000000  0.74950500  1
  C  C2  1  0.66666700  0.33333300  0.27957700  1
  C  C3  1  0.33333300  0.66666700  0.77957700  1
  C  C4  1  0.33333300  0.66666700  0.28175300  1
  C  C5  1  0.66666700  0.33333300  0.78175300  1
  Ni  Ni6  1  0.31719100  0.98873100  0.96721600  1
  Ni  Ni7  1  0.01126900  0.32845900  0.96721600  1
  Ni  Ni8  1  0.67154100  0.68280900  0.96721600  1
  Ni  Ni9  1  0.68280900  0.01126900  0.46721600  1
  Ni  Ni10  1  0.98873100  0.67154100  0.46721600  1
  Ni  Ni11  1  0.32845900  0.31719100  0.46721600  1
  Cu  Cu12  1  0.34040600  0.32899000  0.06976100  1
  Cu  Cu13  1  0.67101000  0.01141700  0.06976100  1
  Cu  Cu14  1  0.98858300  0.65959400  0.06976100  1
  Cu  Cu15  1  0.65959400  0.67101000  0.56976100  1
  Cu  Cu16  1  0.32899000  0.98858300  0.56976100  1
  Cu  Cu17  1  0.01141700  0.34040600  0.56976100  1
  C  C18  1  0.23583500  0.14956200  0.97775200  1
  C  C19  1  0.85043800  0.08627400  0.97775200  1
  C  C20  1  0.91372600  0.76416500  0.97775200  1
  C  C21  1  0.76416500  0.85043800  0.47775200  1
  C  C22  1  0.14956200  0.91372600  0.47775200  1
  C  C23  1  0.08627400  0.23583500  0.47775200  1
  C  C24  1  0.53593600  0.44071400  0.01094500  1
  C  C25  1  0.55928600  0.09522200  0.01094500  1
  C  C26  1  0.90477800  0.46406400  0.01094500  1
  C  C27  1  0.46406400  0.55928600  0.51094500  1
  C  C28  1  0.44071400  0.90477800  0.51094500  1
  C  C29  1  0.09522200  0.53593600  0.51094500  1
  C  C30  1  0.23964300  0.43402700  0.05445000  1
  C  C31  1  0.56597300  0.80561600  0.05445000  1
  C  C32  1  0.19438400  0.76035700  0.05445000  1
  C  C33  1  0.76035700  0.56597300  0.55445000  1
  C  C34  1  0.43402700  0.19438400  0.55445000  1
  C  C35  1  0.80561600  0.23964300  0.55445000  1
  C  C36  1  0.27789800  0.93101400  0.74909400  1
  C  C37  1  0.06898600  0.34688400  0.74909400  1
  C  C38  1  0.65311600  0.72210200  0.74909400  1
  C  C39  1  0.72210200  0.06898600  0.24909400  1
  C  C40  1  0.93101400  0.65311600  0.24909400  1
  C  C41  1  0.34688400  0.27789800  0.24909400  1
