# generated using pymatgen
data_Cu3NiC7
_symmetry_space_group_name_H-M   'P 1'
_cell_length_a   11.02160200
_cell_length_b   11.23221000
_cell_length_c   16.32738700
_cell_angle_alpha   90.00000000
_cell_angle_beta   90.00000000
_cell_angle_gamma   90.00000000
_symmetry_Int_Tables_number   1
_chemical_formula_structural   Cu3NiC7
_chemical_formula_sum   'Cu24 Ni8 C56'
_cell_volume   2021.28068269
_cell_formula_units_Z   8
loop_
 _symmetry_equiv_pos_site_id
 _symmetry_equiv_pos_as_xyz
  1  'x, y, z'
loop_
 _atom_site_type_symbol
 _atom_site_label
 _atom_site_symmetry_multiplicity
 _atom_site_fract_x
 _atom_site_fract_y
 _atom_site_fract_z
 _atom_site_occupancy
  Ni  Ni0  1  0.73418400  0.94426000  0.79633900  1
  Ni  Ni1  1  0.76581600  0.55574000  0.29633900  1
  Ni  Ni2  1  0.76581600  0.94426000  0.29633900  1
  Ni  Ni3  1  0.23418400  0.44426000  0.70366100  1
  Ni  Ni4  1  0.73418400  0.55574000  0.79633900  1
  Ni  Ni5  1  0.26581600  0.44426000  0.20366100  1
  Ni  Ni6  1  0.26581600  0.05574000  0.20366100  1
  Ni  Ni7  1  0.23418400  0.05574000  0.70366100  1
  Cu  Cu8  1  0.92171500  0.08561600  0.58626200  1
  Cu  Cu9  1  0.86057200  0.25000000  0.02493800  1
  Cu  Cu10  1  0.57828500  0.08561600  0.08626200  1
  Cu  Cu11  1  0.07828500  0.91438400  0.41373800  1
  Cu  Cu12  1  0.14110500  0.41671500  0.96575500  1
  Cu  Cu13  1  0.07828500  0.58561600  0.41373800  1
  Cu  Cu14  1  0.35889500  0.41671500  0.46575500  1
  Cu  Cu15  1  0.57828500  0.41438400  0.08626200  1
  Cu  Cu16  1  0.63942800  0.25000000  0.52493800  1
  Cu  Cu17  1  0.64110500  0.91671500  0.53424500  1
  Cu  Cu18  1  0.85889500  0.91671500  0.03424500  1
  Cu  Cu19  1  0.36057200  0.75000000  0.47506200  1
  Cu  Cu20  1  0.93012400  0.75000000  0.59314600  1
  Cu  Cu21  1  0.42171500  0.58561600  0.91373800  1
  Cu  Cu22  1  0.13942800  0.75000000  0.97506200  1
  Cu  Cu23  1  0.06987600  0.25000000  0.40685400  1
  Cu  Cu24  1  0.85889500  0.58328500  0.03424500  1
  Cu  Cu25  1  0.43012400  0.25000000  0.90685400  1
  Cu  Cu26  1  0.92171500  0.41438400  0.58626200  1
  Cu  Cu27  1  0.56987600  0.75000000  0.09314600  1
  Cu  Cu28  1  0.14110500  0.08328500  0.96575500  1
  Cu  Cu29  1  0.64110500  0.58328500  0.53424500  1
  Cu  Cu30  1  0.35889500  0.08328500  0.46575500  1
  Cu  Cu31  1  0.42171500  0.91438400  0.91373800  1
  C  C32  1  0.95681600  0.25000000  0.21174200  1
  C  C33  1  0.04920900  0.75000000  0.17681700  1
  C  C34  1  0.95079200  0.25000000  0.82318300  1
  C  C35  1  0.45079200  0.75000000  0.67681700  1
  C  C36  1  0.04318400  0.75000000  0.78825800  1
  C  C37  1  0.45681600  0.75000000  0.28825800  1
  C  C38  1  0.54920800  0.25000000  0.32318300  1
  C  C39  1  0.54318400  0.25000000  0.71174200  1
  C  C40  1  0.36487300  0.08374700  0.01447800  1
  C  C41  1  0.59075900  0.75000000  0.42734600  1
  C  C42  1  0.13512700  0.41625300  0.51447800  1
  C  C43  1  0.29645900  0.25000000  0.36291200  1
  C  C44  1  0.40924100  0.25000000  0.57265400  1
  C  C45  1  0.20354100  0.25000000  0.86291200  1
  C  C46  1  0.02090400  0.07809100  0.31062700  1
  C  C47  1  0.08576200  0.57865400  0.07532200  1
  C  C48  1  0.36344400  0.75000000  0.01913600  1
  C  C49  1  0.80108700  0.41181400  0.13107600  1
  C  C50  1  0.91423800  0.07865400  0.92467800  1
  C  C51  1  0.63512700  0.91625300  0.98552200  1
  C  C52  1  0.63655600  0.25000000  0.98086400  1
  C  C53  1  0.41423800  0.92134600  0.57532200  1
  C  C54  1  0.51009200  0.75000000  0.82111700  1
  C  C55  1  0.08576200  0.92134600  0.07532200  1
  C  C56  1  0.97909600  0.92190900  0.68937300  1
  C  C57  1  0.86487300  0.91625300  0.48552200  1
  C  C58  1  0.98990800  0.75000000  0.32111700  1
  C  C59  1  0.19891300  0.58818600  0.86892400  1
  C  C60  1  0.47909600  0.07809100  0.81062700  1
  C  C61  1  0.47909600  0.42190900  0.81062700  1
  C  C62  1  0.30108700  0.58818600  0.36892400  1
  C  C63  1  0.86344400  0.25000000  0.48086400  1
  C  C64  1  0.48990800  0.25000000  0.17888300  1
  C  C65  1  0.13512700  0.08374700  0.51447800  1
  C  C66  1  0.63512700  0.58374700  0.98552200  1
  C  C67  1  0.80108700  0.08818600  0.13107600  1
  C  C68  1  0.58576200  0.42134600  0.42467800  1
  C  C69  1  0.86487300  0.58374700  0.48552200  1
  C  C70  1  0.13655600  0.75000000  0.51913600  1
  C  C71  1  0.69891300  0.41181400  0.63107600  1
  C  C72  1  0.01009200  0.25000000  0.67888300  1
  C  C73  1  0.90924100  0.75000000  0.92734600  1
  C  C74  1  0.52090400  0.92190900  0.18937300  1
  C  C75  1  0.58576200  0.07865400  0.42467800  1
  C  C76  1  0.36487300  0.41625300  0.01447800  1
  C  C77  1  0.09075900  0.25000000  0.07265400  1
  C  C78  1  0.79645900  0.75000000  0.13708800  1
  C  C79  1  0.30108700  0.91181400  0.36892400  1
  C  C80  1  0.19891300  0.91181400  0.86892400  1
  C  C81  1  0.52090400  0.57809100  0.18937300  1
  C  C82  1  0.97909600  0.57809100  0.68937300  1
  C  C83  1  0.91423800  0.42134600  0.92467800  1
  C  C84  1  0.41423800  0.57865400  0.57532200  1
  C  C85  1  0.70354100  0.75000000  0.63708800  1
  C  C86  1  0.02090400  0.42190900  0.31062700  1
  C  C87  1  0.69891300  0.08818600  0.63107600  1
