# generated using pymatgen
data_Cu4NiC7
_symmetry_space_group_name_H-M   'P 1'
_cell_length_a   8.89890100
_cell_length_b   9.88089500
_cell_length_c   10.26400100
_cell_angle_alpha   90.00000000
_cell_angle_beta   90.00000000
_cell_angle_gamma   90.00000000
_symmetry_Int_Tables_number   1
_chemical_formula_structural   Cu4NiC7
_chemical_formula_sum   'Cu32 Ni8 C56'
_cell_volume   902.50443598
_cell_formula_units_Z   8
loop_
 _symmetry_equiv_pos_site_id
 _symmetry_equiv_pos_as_xyz
  1  'x, y, z'
loop_
 _atom_site_type_symbol
 _atom_site_label
 _atom_site_symmetry_multiplicity
 _atom_site_fract_x
 _atom_site_fract_y
 _atom_site_fract_z
 _atom_site_occupancy
  C  C0  1  0.14782800  0.18220700  0.12718700  1
  C  C1  1  0.64782800  0.31779300  0.87281300  1
  C  C2  1  0.85217200  0.68220700  0.37281300  1
  C  C3  1  0.35217200  0.81779300  0.62718700  1
  C  C4  1  0.85217200  0.81779300  0.87281300  1
  C  C5  1  0.35217200  0.68220700  0.12718700  1
  C  C6  1  0.14782800  0.31779300  0.62718700  1
  C  C7  1  0.64782800  0.18220700  0.37281300  1
  Ni  Ni8  1  0.03485400  0.86288200  0.15019000  1
  Ni  Ni9  1  0.53485400  0.63711800  0.84981000  1
  Ni  Ni10  1  0.96514600  0.36288200  0.34981000  1
  Ni  Ni11  1  0.46514600  0.13711800  0.65019000  1
  Ni  Ni12  1  0.96514600  0.13711800  0.84981000  1
  Ni  Ni13  1  0.46514600  0.36288200  0.15019000  1
  Ni  Ni14  1  0.03485400  0.63711800  0.65019000  1
  Ni  Ni15  1  0.53485400  0.86288200  0.34981000  1
  Cu  Cu16  1  0.18266200  0.17988200  0.36850000  1
  Cu  Cu17  1  0.68266200  0.32011800  0.63150000  1
  Cu  Cu18  1  0.81733800  0.67988200  0.13150000  1
  Cu  Cu19  1  0.31733800  0.82011800  0.86850000  1
  Cu  Cu20  1  0.81733800  0.82011800  0.63150000  1
  Cu  Cu21  1  0.31733800  0.67988200  0.36850000  1
  Cu  Cu22  1  0.18266200  0.32011800  0.86850000  1
  Cu  Cu23  1  0.68266200  0.17988200  0.13150000  1
  Cu  Cu24  1  0.33297800  0.10359600  0.31017700  1
  Cu  Cu25  1  0.83297800  0.39640400  0.68982300  1
  Cu  Cu26  1  0.66702200  0.60359600  0.18982300  1
  Cu  Cu27  1  0.16702200  0.89640400  0.81017700  1
  Cu  Cu28  1  0.66702200  0.89640400  0.68982300  1
  Cu  Cu29  1  0.16702200  0.60359600  0.31017700  1
  Cu  Cu30  1  0.33297800  0.39640400  0.81017700  1
  Cu  Cu31  1  0.83297800  0.10359600  0.18982300  1
  Cu  Cu32  1  0.35759400  0.09468900  0.97343300  1
  Cu  Cu33  1  0.85759400  0.40531100  0.02656700  1
  Cu  Cu34  1  0.64240600  0.59468900  0.52656700  1
  Cu  Cu35  1  0.14240600  0.90531100  0.47343300  1
  Cu  Cu36  1  0.64240600  0.90531100  0.02656700  1
  Cu  Cu37  1  0.14240600  0.59468900  0.97343300  1
  Cu  Cu38  1  0.35759400  0.40531100  0.47343300  1
  Cu  Cu39  1  0.85759400  0.09468900  0.52656700  1
  Cu  Cu40  1  0.29246200  0.97067100  0.06563900  1
  Cu  Cu41  1  0.79246200  0.52932900  0.93436100  1
  Cu  Cu42  1  0.70753800  0.47067100  0.43436100  1
  Cu  Cu43  1  0.20753800  0.02932900  0.56563900  1
  Cu  Cu44  1  0.70753800  0.02932900  0.93436100  1
  Cu  Cu45  1  0.20753800  0.47067100  0.06563900  1
  Cu  Cu46  1  0.29246200  0.52932900  0.56563900  1
  Cu  Cu47  1  0.79246200  0.97067100  0.43436100  1
  C  C48  1  0.00661200  0.03479100  0.14080600  1
  C  C49  1  0.50661200  0.46520900  0.85919400  1
  C  C50  1  0.99338800  0.53479100  0.35919400  1
  C  C51  1  0.49338800  0.96520900  0.64080600  1
  C  C52  1  0.99338800  0.96520900  0.85919400  1
  C  C53  1  0.49338800  0.53479100  0.14080600  1
  C  C54  1  0.00661200  0.46520900  0.64080600  1
  C  C55  1  0.50661200  0.03479100  0.35919400  1
  C  C56  1  0.99956900  0.80062900  0.30254900  1
  C  C57  1  0.49956900  0.69937100  0.69745100  1
  C  C58  1  0.00043100  0.30062900  0.19745100  1
  C  C59  1  0.50043100  0.19937100  0.80254900  1
  C  C60  1  0.00043100  0.19937100  0.69745100  1
  C  C61  1  0.50043100  0.30062900  0.30254900  1
  C  C62  1  0.99956900  0.69937100  0.80254900  1
  C  C63  1  0.49956900  0.80062900  0.19745100  1
  C  C64  1  0.21983700  0.83391700  0.10901500  1
  C  C65  1  0.71983700  0.66608300  0.89098500  1
  C  C66  1  0.78016300  0.33391700  0.39098500  1
  C  C67  1  0.28016300  0.16608300  0.60901500  1
  C  C68  1  0.78016300  0.16608300  0.89098500  1
  C  C69  1  0.28016300  0.33391700  0.10901500  1
  C  C70  1  0.21983700  0.66608300  0.60901500  1
  C  C71  1  0.71983700  0.83391700  0.39098500  1
  C  C72  1  0.91596700  0.77919600  0.04451000  1
  C  C73  1  0.41596700  0.72080400  0.95549000  1
  C  C74  1  0.08403300  0.27919600  0.45549000  1
  C  C75  1  0.58403300  0.22080400  0.54451000  1
  C  C76  1  0.08403300  0.22080400  0.95549000  1
  C  C77  1  0.58403300  0.27919600  0.04451000  1
  C  C78  1  0.91596700  0.72080400  0.54451000  1
  C  C79  1  0.41596700  0.77919600  0.45549000  1
  C  C80  1  0.22505800  0.12493700  0.29387400  1
  C  C81  1  0.72505800  0.37506300  0.70612600  1
  C  C82  1  0.77494200  0.62493700  0.20612600  1
  C  C83  1  0.27494200  0.87506300  0.79387400  1
  C  C84  1  0.77494200  0.87506300  0.70612600  1
  C  C85  1  0.27494200  0.62493700  0.29387400  1
  C  C86  1  0.22505800  0.37506300  0.79387400  1
  C  C87  1  0.72505800  0.12493700  0.20612600  1
  C  C88  1  0.31308300  0.07166300  0.05767300  1
  C  C89  1  0.81308300  0.42833700  0.94232700  1
  C  C90  1  0.68691700  0.57166300  0.44232700  1
  C  C91  1  0.18691700  0.92833700  0.55767300  1
  C  C92  1  0.68691700  0.92833700  0.94232700  1
  C  C93  1  0.18691700  0.57166300  0.05767300  1
  C  C94  1  0.31308300  0.42833700  0.55767300  1
  C  C95  1  0.81308300  0.07166300  0.44232700  1
