# generated using pymatgen
data_Cu3NiC11
_symmetry_space_group_name_H-M   'P 1'
_cell_length_a   24.34122500
_cell_length_b   6.90597400
_cell_length_c   10.99058614
_cell_angle_alpha   61.12564788
_cell_angle_beta   90.00000000
_cell_angle_gamma   90.00000000
_symmetry_Int_Tables_number   1
_chemical_formula_structural   Cu3NiC11
_chemical_formula_sum   'Cu12 Ni4 C44'
_cell_volume   1617.83430427
_cell_formula_units_Z   4
loop_
 _symmetry_equiv_pos_site_id
 _symmetry_equiv_pos_as_xyz
  1  'x, y, z'
loop_
 _atom_site_type_symbol
 _atom_site_label
 _atom_site_symmetry_multiplicity
 _atom_site_fract_x
 _atom_site_fract_y
 _atom_site_fract_z
 _atom_site_occupancy
  C  C0  1  0.54415400  0.49052500  0.73805200  1
  C  C1  1  0.80429900  0.79787800  0.37237700  1
  C  C2  1  0.19570100  0.20212200  0.62762300  1
  C  C3  1  0.69570100  0.79787800  0.87237700  1
  C  C4  1  0.30429900  0.20212200  0.12762300  1
  C  C5  1  0.95584600  0.49052500  0.23805200  1
  C  C6  1  0.04415400  0.50947500  0.76194800  1
  C  C7  1  0.45584600  0.50947500  0.26194800  1
  Ni  Ni8  1  0.89146400  0.73713700  0.69220200  1
  Ni  Ni9  1  0.39146400  0.26286300  0.80779800  1
  Ni  Ni10  1  0.10853600  0.26286300  0.30779800  1
  Ni  Ni11  1  0.60853600  0.73713700  0.19220200  1
  Cu  Cu12  1  0.59915400  0.27766500  0.16097400  1
  Cu  Cu13  1  0.90084600  0.27766500  0.66097400  1
  Cu  Cu14  1  0.89819100  0.24889200  0.98883500  1
  Cu  Cu15  1  0.27912300  0.59563700  0.71908400  1
  Cu  Cu16  1  0.40084600  0.72233500  0.83902600  1
  Cu  Cu17  1  0.77912300  0.40436300  0.78091600  1
  Cu  Cu18  1  0.22087700  0.59563700  0.21908400  1
  Cu  Cu19  1  0.10180900  0.75110800  0.01116500  1
  Cu  Cu20  1  0.09915400  0.72233500  0.33902600  1
  Cu  Cu21  1  0.39819100  0.75110800  0.51116500  1
  Cu  Cu22  1  0.72087700  0.40436300  0.28091600  1
  Cu  Cu23  1  0.60180900  0.24889200  0.48883500  1
  C  C24  1  0.41865100  0.96581900  0.31710400  1
  C  C25  1  0.29663100  0.27220500  0.80708100  1
  C  C26  1  0.92432100  0.55978700  0.91694800  1
  C  C27  1  0.57480200  0.09243100  0.07549100  1
  C  C28  1  0.81309500  0.25387700  0.66625100  1
  C  C29  1  0.18872600  0.78594300  0.01397500  1
  C  C30  1  0.07480200  0.90756900  0.42450900  1
  C  C31  1  0.68690500  0.25387700  0.16625100  1
  C  C32  1  0.43045600  0.89714400  0.63043700  1
  C  C33  1  0.57567900  0.55978700  0.41694800  1
  C  C34  1  0.57249500  0.59164200  0.05813300  1
  C  C35  1  0.81127400  0.21405700  0.98602500  1
  C  C36  1  0.18690500  0.74612300  0.33374900  1
  C  C37  1  0.42432100  0.44021300  0.58305200  1
  C  C38  1  0.31127400  0.78594300  0.51397500  1
  C  C39  1  0.58134900  0.03418100  0.68289600  1
  C  C40  1  0.56954400  0.10285600  0.36956300  1
  C  C41  1  0.92519800  0.09243100  0.57549100  1
  C  C42  1  0.20336900  0.27220500  0.30708100  1
  C  C43  1  0.42750500  0.40835800  0.94186700  1
  C  C44  1  0.70067300  0.32439900  0.80278500  1
  C  C45  1  0.92750500  0.59164200  0.55813300  1
  C  C46  1  0.08134900  0.96581900  0.81710400  1
  C  C47  1  0.20067300  0.67560100  0.69721500  1
  C  C48  1  0.79932700  0.32439900  0.30278500  1
  C  C49  1  0.07249500  0.40835800  0.44186700  1
  C  C50  1  0.29932700  0.67560100  0.19721500  1
  C  C51  1  0.91865100  0.03418100  0.18289600  1
  C  C52  1  0.93045600  0.10285600  0.86956300  1
  C  C53  1  0.42519800  0.90756900  0.92450900  1
  C  C54  1  0.68872600  0.21405700  0.48602500  1
  C  C55  1  0.06954400  0.89714400  0.13043700  1
  C  C56  1  0.31309500  0.74612300  0.83374900  1
  C  C57  1  0.79663100  0.72779500  0.69291900  1
  C  C58  1  0.07567900  0.44021300  0.08305200  1
  C  C59  1  0.70336900  0.72779500  0.19291900  1
