# generated using pymatgen
data_Cu8Ni9C4
_symmetry_space_group_name_H-M   'P 1'
_cell_length_a   13.66602300
_cell_length_b   15.04542100
_cell_length_c   15.52433100
_cell_angle_alpha   90.00000000
_cell_angle_beta   90.00000000
_cell_angle_gamma   90.00000000
_symmetry_Int_Tables_number   1
_chemical_formula_structural   Cu8Ni9C4
_chemical_formula_sum   'Cu32 Ni36 C16'
_cell_volume   3191.97429911
_cell_formula_units_Z   4
loop_
 _symmetry_equiv_pos_site_id
 _symmetry_equiv_pos_as_xyz
  1  'x, y, z'
loop_
 _atom_site_type_symbol
 _atom_site_label
 _atom_site_symmetry_multiplicity
 _atom_site_fract_x
 _atom_site_fract_y
 _atom_site_fract_z
 _atom_site_occupancy
  C  C0  1  0.26132100  0.31385600  0.49899900  1
  C  C1  1  0.38387900  0.82111000  0.19365500  1
  C  C2  1  0.26132100  0.81385600  0.00100100  1
  C  C3  1  0.88387900  0.17889000  0.80634500  1
  C  C4  1  0.88387900  0.67889000  0.69365500  1
  C  C5  1  0.04560300  0.79074300  0.10974000  1
  C  C6  1  0.16670200  0.79772200  0.29787500  1
  C  C7  1  0.66670200  0.70227800  0.79787500  1
  C  C8  1  0.16670200  0.29772200  0.20212500  1
  C  C9  1  0.76132100  0.18614400  0.99899900  1
  C  C10  1  0.04560300  0.29074300  0.39026000  1
  C  C11  1  0.38387900  0.32111000  0.30634500  1
  C  C12  1  0.66670200  0.20227800  0.70212500  1
  C  C13  1  0.54560300  0.20925700  0.89026000  1
  C  C14  1  0.76132100  0.68614400  0.50100100  1
  C  C15  1  0.54560300  0.70925700  0.60974000  1
  Ni  Ni16  1  0.58117400  0.71160700  0.43979200  1
  Ni  Ni17  1  0.08117400  0.78839300  0.93979200  1
  Ni  Ni18  1  0.97562300  0.77257900  0.26916600  1
  Ni  Ni19  1  0.10932800  0.42381600  0.48747300  1
  Ni  Ni20  1  0.28776000  0.93434200  0.29484000  1
  Ni  Ni21  1  0.35709100  0.94611800  0.07618200  1
  Ni  Ni22  1  0.34826700  0.80457100  0.36230800  1
  Ni  Ni23  1  0.84826700  0.69542900  0.86230800  1
  Ni  Ni24  1  0.22260400  0.73933500  0.14875700  1
  Ni  Ni25  1  0.97562300  0.27257900  0.23083400  1
  Ni  Ni26  1  0.72260400  0.26066500  0.85124300  1
  Ni  Ni27  1  0.84826700  0.19542900  0.63769200  1
  Ni  Ni28  1  0.35709100  0.44611800  0.42381800  1
  Ni  Ni29  1  0.78776000  0.06565800  0.70516000  1
  Ni  Ni30  1  0.54215200  0.58657400  0.73346000  1
  Ni  Ni31  1  0.47562300  0.72742100  0.76916600  1
  Ni  Ni32  1  0.78776000  0.56565800  0.79484000  1
  Ni  Ni33  1  0.85709100  0.05388200  0.92381800  1
  Ni  Ni34  1  0.85709100  0.55388200  0.57618200  1
  Ni  Ni35  1  0.45438500  0.32299300  0.46808900  1
  Ni  Ni36  1  0.95438500  0.17700700  0.96808900  1
  Ni  Ni37  1  0.08117400  0.28839300  0.56020800  1
  Ni  Ni38  1  0.04215200  0.41342600  0.26654000  1
  Ni  Ni39  1  0.54215200  0.08657400  0.76654000  1
  Ni  Ni40  1  0.95438500  0.67700700  0.53191100  1
  Ni  Ni41  1  0.45438500  0.82299300  0.03191100  1
  Ni  Ni42  1  0.60932800  0.07618400  0.98747300  1
  Ni  Ni43  1  0.10932800  0.92381600  0.01252700  1
  Ni  Ni44  1  0.22260400  0.23933500  0.35124300  1
  Ni  Ni45  1  0.60932800  0.57618400  0.51252700  1
  Ni  Ni46  1  0.04215200  0.91342600  0.23346000  1
  Ni  Ni47  1  0.58117400  0.21160700  0.06020800  1
  Ni  Ni48  1  0.72260400  0.76066500  0.64875700  1
  Ni  Ni49  1  0.47562300  0.22742100  0.73083400  1
  Ni  Ni50  1  0.28776000  0.43434200  0.20516000  1
  Ni  Ni51  1  0.34826700  0.30457100  0.13769200  1
  Cu  Cu52  1  0.85697600  0.33982400  0.43270300  1
  Cu  Cu53  1  0.05558900  0.59697900  0.74041000  1
  Cu  Cu54  1  0.67241400  0.88500700  0.84105700  1
  Cu  Cu55  1  0.29287200  0.64206100  0.94925200  1
  Cu  Cu56  1  0.11101000  0.34739600  0.03717500  1
  Cu  Cu57  1  0.80314100  0.10860400  0.15623900  1
  Cu  Cu58  1  0.17241400  0.11499300  0.15894300  1
  Cu  Cu59  1  0.55558900  0.90302100  0.24041000  1
  Cu  Cu60  1  0.01188000  0.11153000  0.40891900  1
  Cu  Cu61  1  0.80314100  0.60860400  0.34376100  1
  Cu  Cu62  1  0.51188000  0.88847000  0.59108100  1
  Cu  Cu63  1  0.61101000  0.65260400  0.96282500  1
  Cu  Cu64  1  0.55558900  0.40302100  0.25959000  1
  Cu  Cu65  1  0.95715900  0.84865800  0.70285100  1
  Cu  Cu66  1  0.67241400  0.38500700  0.65894300  1
  Cu  Cu67  1  0.79287200  0.85793900  0.44925200  1
  Cu  Cu68  1  0.35697600  0.66017600  0.56729700  1
  Cu  Cu69  1  0.51188000  0.38847000  0.90891900  1
  Cu  Cu70  1  0.30314100  0.39139600  0.65623900  1
  Cu  Cu71  1  0.79287200  0.35793900  0.05074800  1
  Cu  Cu72  1  0.30314100  0.89139600  0.84376100  1
  Cu  Cu73  1  0.35697600  0.16017600  0.93270300  1
  Cu  Cu74  1  0.45715900  0.65134200  0.20285100  1
  Cu  Cu75  1  0.05558900  0.09697900  0.75959000  1
  Cu  Cu76  1  0.11101000  0.84739600  0.46282500  1
  Cu  Cu77  1  0.61101000  0.15260400  0.53717500  1
  Cu  Cu78  1  0.45715900  0.15134200  0.29714900  1
  Cu  Cu79  1  0.29287200  0.14206100  0.55074800  1
  Cu  Cu80  1  0.95715900  0.34865800  0.79714900  1
  Cu  Cu81  1  0.85697600  0.83982400  0.06729700  1
  Cu  Cu82  1  0.01188000  0.61153000  0.09108100  1
  Cu  Cu83  1  0.17241400  0.61499300  0.34105700  1
