# generated using pymatgen
data_Cu3(Ni8C11)2
_symmetry_space_group_name_H-M   'P 1'
_cell_length_a   7.56117518
_cell_length_b   7.56117518
_cell_length_c   18.35007670
_cell_angle_alpha   78.84642497
_cell_angle_beta   78.84642497
_cell_angle_gamma   53.06556569
_symmetry_Int_Tables_number   1
_chemical_formula_structural   Cu3(Ni8C11)2
_chemical_formula_sum   'Cu6 Ni32 C44'
_cell_volume   818.73470084
_cell_formula_units_Z   2
loop_
 _symmetry_equiv_pos_site_id
 _symmetry_equiv_pos_as_xyz
  1  'x, y, z'
loop_
 _atom_site_type_symbol
 _atom_site_label
 _atom_site_symmetry_multiplicity
 _atom_site_fract_x
 _atom_site_fract_y
 _atom_site_fract_z
 _atom_site_occupancy
  C  C0  1  0.64549000  0.68939500  0.10723900  1
  C  C1  1  0.31060500  0.35451000  0.39276100  1
  C  C2  1  0.35451000  0.31060500  0.89276100  1
  C  C3  1  0.68939500  0.64549000  0.60723900  1
  Ni  Ni4  1  0.79886600  0.21296800  0.15891700  1
  Ni  Ni5  1  0.78703200  0.20113400  0.34108300  1
  Ni  Ni6  1  0.20113400  0.78703200  0.84108300  1
  Ni  Ni7  1  0.21296800  0.79886600  0.65891700  1
  Ni  Ni8  1  0.54003500  0.35162100  0.14761100  1
  Ni  Ni9  1  0.64837900  0.45996500  0.35238900  1
  Ni  Ni10  1  0.45996500  0.64837900  0.85238900  1
  Ni  Ni11  1  0.35162100  0.54003500  0.64761100  1
  Ni  Ni12  1  0.18023300  0.83550300  0.10562500  1
  Ni  Ni13  1  0.16449700  0.81976700  0.39437500  1
  Ni  Ni14  1  0.81976700  0.16449700  0.89437500  1
  Ni  Ni15  1  0.83550300  0.18023300  0.60562500  1
  Ni  Ni16  1  0.30978800  0.66638100  0.04399500  1
  Ni  Ni17  1  0.33361900  0.69021200  0.45600500  1
  Ni  Ni18  1  0.69021200  0.33361900  0.95600500  1
  Ni  Ni19  1  0.66638100  0.30978800  0.54399500  1
  Ni  Ni20  1  0.70643900  0.74605700  0.25469800  1
  Ni  Ni21  1  0.25394300  0.29356100  0.24530200  1
  Ni  Ni22  1  0.29356100  0.25394300  0.74530200  1
  Ni  Ni23  1  0.74605700  0.70643900  0.75469800  1
  Ni  Ni24  1  0.86648700  0.79206400  0.19701500  1
  Ni  Ni25  1  0.20793600  0.13351300  0.30298500  1
  Ni  Ni26  1  0.13351300  0.20793600  0.80298500  1
  Ni  Ni27  1  0.79206400  0.86648700  0.69701500  1
  Ni  Ni28  1  0.79095400  0.96099700  0.00809400  1
  Ni  Ni29  1  0.03900300  0.20904600  0.49190600  1
  Ni  Ni30  1  0.20904600  0.03900300  0.99190600  1
  Ni  Ni31  1  0.96099700  0.79095400  0.50809400  1
  Ni  Ni32  1  0.00135400  0.70857600  0.01737800  1
  Ni  Ni33  1  0.29142400  0.99864600  0.48262200  1
  Ni  Ni34  1  0.99864600  0.29142400  0.98262200  1
  Ni  Ni35  1  0.70857600  0.00135400  0.51737800  1
  Cu  Cu36  1  0.25282500  0.31067300  0.09054000  1
  Cu  Cu37  1  0.68932700  0.74717500  0.40946000  1
  Cu  Cu38  1  0.74717500  0.68932700  0.90946000  1
  Cu  Cu39  1  0.31067300  0.25282500  0.59054000  1
  Cu  Cu40  1  0.17257200  0.82742800  0.25000000  1
  Cu  Cu41  1  0.82742800  0.17257200  0.75000000  1
  C  C42  1  0.30414400  0.37043900  0.15158300  1
  C  C43  1  0.62956100  0.69585600  0.34841700  1
  C  C44  1  0.69585600  0.62956100  0.84841700  1
  C  C45  1  0.37043900  0.30414400  0.65158300  1
  C  C46  1  0.40951300  0.07057400  0.08167500  1
  C  C47  1  0.92942600  0.59048700  0.41832500  1
  C  C48  1  0.59048700  0.92942600  0.91832500  1
  C  C49  1  0.07057400  0.40951300  0.58167500  1
  C  C50  1  0.02186900  0.37584500  0.10397700  1
  C  C51  1  0.62415500  0.97813100  0.39602300  1
  C  C52  1  0.97813100  0.62415500  0.89602300  1
  C  C53  1  0.37584500  0.02186900  0.60397700  1
  C  C54  1  0.27619300  0.43433600  0.01774400  1
  C  C55  1  0.56566400  0.72380700  0.48225600  1
  C  C56  1  0.72380700  0.56566400  0.98225600  1
  C  C57  1  0.43433600  0.27619300  0.51774400  1
  C  C58  1  0.38509700  0.78493500  0.21222600  1
  C  C59  1  0.21506500  0.61490300  0.28777400  1
  C  C60  1  0.61490300  0.21506500  0.78777400  1
  C  C61  1  0.78493500  0.38509700  0.71222600  1
  C  C62  1  0.01241600  0.91901300  0.19299900  1
  C  C63  1  0.08098700  0.98758400  0.30700100  1
  C  C64  1  0.98758400  0.08098700  0.80700100  1
  C  C65  1  0.91901300  0.01241600  0.69299900  1
  C  C66  1  0.67027900  0.35814200  0.13973500  1
  C  C67  1  0.64185800  0.32972100  0.36026500  1
  C  C68  1  0.32972100  0.64185800  0.86026500  1
  C  C69  1  0.35814200  0.67027900  0.63973500  1
  C  C70  1  0.29959300  0.78540100  0.06317000  1
  C  C71  1  0.21459900  0.70040700  0.43683000  1
  C  C72  1  0.70040700  0.21459900  0.93683000  1
  C  C73  1  0.78540100  0.29959300  0.56317000  1
  C  C74  1  0.76285100  0.75104700  0.20139900  1
  C  C75  1  0.24895300  0.23714900  0.29860100  1
  C  C76  1  0.23714900  0.24895300  0.79860100  1
  C  C77  1  0.75104700  0.76285100  0.70139900  1
  C  C78  1  0.85854800  0.82374900  0.04276000  1
  C  C79  1  0.17625100  0.14145200  0.45724000  1
  C  C80  1  0.14145200  0.17625100  0.95724000  1
  C  C81  1  0.82374900  0.85854800  0.54276000  1
