# generated using pymatgen
data_Cu19(Ni8C5)2
_symmetry_space_group_name_H-M   'P 1'
_cell_length_a   9.21741841
_cell_length_b   9.21741841
_cell_length_c   9.21741841
_cell_angle_alpha   109.47122063
_cell_angle_beta   109.47122063
_cell_angle_gamma   109.47122063
_symmetry_Int_Tables_number   1
_chemical_formula_structural   Cu19(Ni8C5)2
_chemical_formula_sum   'Cu19 Ni16 C10'
_cell_volume   602.84548874
_cell_formula_units_Z   1
loop_
 _symmetry_equiv_pos_site_id
 _symmetry_equiv_pos_as_xyz
  1  'x, y, z'
loop_
 _atom_site_type_symbol
 _atom_site_label
 _atom_site_symmetry_multiplicity
 _atom_site_fract_x
 _atom_site_fract_y
 _atom_site_fract_z
 _atom_site_occupancy
  C  C0  1  0.34737300  0.34737300  0.00000000  1
  C  C1  1  0.00000000  0.00000000  0.33374900  1
  C  C2  1  0.00000000  0.34737300  0.34737300  1
  C  C3  1  0.65262700  0.65262700  0.00000000  1
  C  C4  1  0.66625100  0.66625100  0.66625100  1
  C  C5  1  0.00000000  0.33374900  0.00000000  1
  C  C6  1  0.00000000  0.65262700  0.65262700  1
  C  C7  1  0.33374900  0.00000000  0.00000000  1
  C  C8  1  0.65262700  0.00000000  0.65262700  1
  C  C9  1  0.34737300  0.00000000  0.34737300  1
  Ni  Ni10  1  0.00000000  0.75159000  0.42428100  1
  Ni  Ni11  1  0.32730800  0.57571900  0.57571900  1
  Ni  Ni12  1  0.00000000  0.42428100  0.75159000  1
  Ni  Ni13  1  0.00000000  0.77680700  0.00000000  1
  Ni  Ni14  1  0.22319300  0.22319300  0.22319300  1
  Ni  Ni15  1  0.24841000  0.67269200  0.24841000  1
  Ni  Ni16  1  0.42428100  0.00000000  0.75159000  1
  Ni  Ni17  1  0.42428100  0.75159000  0.00000000  1
  Ni  Ni18  1  0.77680700  0.00000000  0.00000000  1
  Ni  Ni19  1  0.24841000  0.24841000  0.67269200  1
  Ni  Ni20  1  0.57571900  0.32730800  0.57571900  1
  Ni  Ni21  1  0.00000000  0.00000000  0.77680700  1
  Ni  Ni22  1  0.75159000  0.00000000  0.42428100  1
  Ni  Ni23  1  0.57571900  0.57571900  0.32730800  1
  Ni  Ni24  1  0.67269200  0.24841000  0.24841000  1
  Ni  Ni25  1  0.75159000  0.42428100  0.00000000  1
  Cu  Cu26  1  0.67766400  0.00000000  0.18206900  1
  Cu  Cu27  1  0.00000000  0.18206900  0.67766400  1
  Cu  Cu28  1  0.50000000  0.25000000  0.75000000  1
  Cu  Cu29  1  0.50440500  0.32233600  0.32233600  1
  Cu  Cu30  1  0.67766400  0.18206900  0.00000000  1
  Cu  Cu31  1  0.81793100  0.81793100  0.49559500  1
  Cu  Cu32  1  0.00000000  0.67766400  0.18206900  1
  Cu  Cu33  1  0.49559500  0.81793100  0.81793100  1
  Cu  Cu34  1  0.18206900  0.67766400  0.00000000  1
  Cu  Cu35  1  0.32233600  0.50440500  0.32233600  1
  Cu  Cu36  1  0.50000000  0.75000000  0.25000000  1
  Cu  Cu37  1  0.18206900  0.00000000  0.67766400  1
  Cu  Cu38  1  0.75000000  0.50000000  0.25000000  1
  Cu  Cu39  1  0.32233600  0.32233600  0.50440500  1
  Cu  Cu40  1  0.25000000  0.75000000  0.50000000  1
  Cu  Cu41  1  0.81793100  0.49559500  0.81793100  1
  Cu  Cu42  1  0.75000000  0.25000000  0.50000000  1
  Cu  Cu43  1  0.00000000  0.00000000  0.00000000  1
  Cu  Cu44  1  0.25000000  0.50000000  0.75000000  1
