# generated using pymatgen
data_Cu4NiC
_symmetry_space_group_name_H-M   'P 1'
_cell_length_a   8.75854621
_cell_length_b   8.75854621
_cell_length_c   5.43221949
_cell_angle_alpha   88.23357015
_cell_angle_beta   88.23357015
_cell_angle_gamma   112.11093698
_symmetry_Int_Tables_number   1
_chemical_formula_structural   Cu4NiC
_chemical_formula_sum   'Cu16 Ni4 C4'
_cell_volume   385.48171248
_cell_formula_units_Z   4
loop_
 _symmetry_equiv_pos_site_id
 _symmetry_equiv_pos_as_xyz
  1  'x, y, z'
loop_
 _atom_site_type_symbol
 _atom_site_label
 _atom_site_symmetry_multiplicity
 _atom_site_fract_x
 _atom_site_fract_y
 _atom_site_fract_z
 _atom_site_occupancy
  C  C0  1  0.76059400  0.76059400  0.76720600  1
  C  C1  1  0.23940600  0.23940600  0.23279400  1
  C  C2  1  0.81360000  0.18640000  0.00000000  1
  C  C3  1  0.18640000  0.81360000  0.00000000  1
  Ni  Ni4  1  0.02585300  0.21307800  0.11907200  1
  Ni  Ni5  1  0.78692200  0.97414700  0.88092800  1
  Ni  Ni6  1  0.97414700  0.78692200  0.88092800  1
  Ni  Ni7  1  0.21307800  0.02585300  0.11907200  1
  Cu  Cu8  1  0.26541500  0.44800100  0.34828300  1
  Cu  Cu9  1  0.65850300  0.65850300  0.07152900  1
  Cu  Cu10  1  0.08691100  0.70873200  0.30463600  1
  Cu  Cu11  1  0.39324000  0.83522200  0.11947500  1
  Cu  Cu12  1  0.60676000  0.16477800  0.88052500  1
  Cu  Cu13  1  0.83522200  0.39324000  0.11947500  1
  Cu  Cu14  1  0.73458500  0.55199900  0.65171700  1
  Cu  Cu15  1  0.14345600  0.14345600  0.54514000  1
  Cu  Cu16  1  0.55199900  0.73458500  0.65171700  1
  Cu  Cu17  1  0.44800100  0.26541500  0.34828300  1
  Cu  Cu18  1  0.16477800  0.60676000  0.88052500  1
  Cu  Cu19  1  0.85654400  0.85654400  0.45486000  1
  Cu  Cu20  1  0.34149700  0.34149700  0.92847100  1
  Cu  Cu21  1  0.91308900  0.29126800  0.69536400  1
  Cu  Cu22  1  0.29126800  0.91308900  0.69536400  1
  Cu  Cu23  1  0.70873200  0.08691100  0.30463600  1
