# generated using pymatgen
data_Cu2Ni3C
_symmetry_space_group_name_H-M   'P 1'
_cell_length_a   9.13519796
_cell_length_b   9.13519796
_cell_length_c   9.13519796
_cell_angle_alpha   109.47122063
_cell_angle_beta   109.47122063
_cell_angle_gamma   109.47122063
_symmetry_Int_Tables_number   1
_chemical_formula_structural   Cu2Ni3C
_chemical_formula_sum   'Cu8 Ni12 C4'
_cell_volume   586.85660627
_cell_formula_units_Z   4
loop_
 _symmetry_equiv_pos_site_id
 _symmetry_equiv_pos_as_xyz
  1  'x, y, z'
loop_
 _atom_site_type_symbol
 _atom_site_label
 _atom_site_symmetry_multiplicity
 _atom_site_fract_x
 _atom_site_fract_y
 _atom_site_fract_z
 _atom_site_occupancy
  Ni  Ni0  1  0.60931000  0.75000000  0.35931000  1
  Ni  Ni1  1  0.25000000  0.60931000  0.35931000  1
  Ni  Ni2  1  0.75000000  0.89069000  0.14069000  1
  Ni  Ni3  1  0.60931000  0.35931000  0.25000000  1
  Ni  Ni4  1  0.89069000  0.14069000  0.75000000  1
  Ni  Ni5  1  0.35931000  0.25000000  0.60931000  1
  Ni  Ni6  1  0.35931000  0.60931000  0.75000000  1
  Ni  Ni7  1  0.25000000  0.14069000  0.89069000  1
  Ni  Ni8  1  0.14069000  0.89069000  0.25000000  1
  Ni  Ni9  1  0.75000000  0.35931000  0.60931000  1
  Ni  Ni10  1  0.89069000  0.25000000  0.14069000  1
  Ni  Ni11  1  0.14069000  0.75000000  0.89069000  1
  Cu  Cu12  1  0.50000000  0.00000000  0.95869100  1
  Cu  Cu13  1  0.54130900  0.50000000  0.00000000  1
  Cu  Cu14  1  0.95869100  0.95869100  0.95869100  1
  Cu  Cu15  1  0.00000000  0.54130900  0.50000000  1
  Cu  Cu16  1  0.50000000  0.00000000  0.54130900  1
  Cu  Cu17  1  0.95869100  0.50000000  0.00000000  1
  Cu  Cu18  1  0.00000000  0.95869100  0.50000000  1
  Cu  Cu19  1  0.54130900  0.54130900  0.54130900  1
  C  C20  1  0.25000000  0.25000000  0.25000000  1
  C  C21  1  0.00000000  0.25000000  0.50000000  1
  C  C22  1  0.25000000  0.50000000  0.00000000  1
  C  C23  1  0.50000000  0.00000000  0.25000000  1
