# generated using pymatgen
data_Cu4NiC4
_symmetry_space_group_name_H-M   'P 1'
_cell_length_a   7.47563400
_cell_length_b   7.47563400
_cell_length_c   5.37069700
_cell_angle_alpha   90.00000000
_cell_angle_beta   90.00000000
_cell_angle_gamma   90.00000000
_symmetry_Int_Tables_number   1
_chemical_formula_structural   Cu4NiC4
_chemical_formula_sum   'Cu8 Ni2 C8'
_cell_volume   300.14195880
_cell_formula_units_Z   2
loop_
 _symmetry_equiv_pos_site_id
 _symmetry_equiv_pos_as_xyz
  1  'x, y, z'
loop_
 _atom_site_type_symbol
 _atom_site_label
 _atom_site_symmetry_multiplicity
 _atom_site_fract_x
 _atom_site_fract_y
 _atom_site_fract_z
 _atom_site_occupancy
  C  C0  1  0.50000000  0.50000000  0.00000000  1
  C  C1  1  0.00000000  0.00000000  0.00000000  1
  C  C2  1  0.50000000  0.00000000  0.10389100  1
  C  C3  1  0.75000000  0.25000000  0.50000000  1
  C  C4  1  0.75000000  0.75000000  0.50000000  1
  C  C5  1  0.00000000  0.50000000  0.89610900  1
  C  C6  1  0.25000000  0.75000000  0.50000000  1
  C  C7  1  0.25000000  0.25000000  0.50000000  1
  Ni  Ni8  1  0.00000000  0.50000000  0.37239200  1
  Ni  Ni9  1  0.50000000  0.00000000  0.62760800  1
  Cu  Cu10  1  0.50000000  0.31876400  0.18625100  1
  Cu  Cu11  1  0.18123600  0.00000000  0.18625100  1
  Cu  Cu12  1  0.50000000  0.68123600  0.18625100  1
  Cu  Cu13  1  0.81876400  0.00000000  0.18625100  1
  Cu  Cu14  1  0.68123600  0.50000000  0.81374900  1
  Cu  Cu15  1  0.00000000  0.18123600  0.81374900  1
  Cu  Cu16  1  0.00000000  0.81876400  0.81374900  1
  Cu  Cu17  1  0.31876400  0.50000000  0.81374900  1
