# generated using pymatgen
data_Cu10Ni2C7
_symmetry_space_group_name_H-M   'P 1'
_cell_length_a   11.72969000
_cell_length_b   7.38522900
_cell_length_c   11.21632896
_cell_angle_alpha   84.60100465
_cell_angle_beta   90.00000000
_cell_angle_gamma   90.00000000
_symmetry_Int_Tables_number   1
_chemical_formula_structural   Cu10Ni2C7
_chemical_formula_sum   'Cu40 Ni8 C28'
_cell_volume   967.32019485
_cell_formula_units_Z   4
loop_
 _symmetry_equiv_pos_site_id
 _symmetry_equiv_pos_as_xyz
  1  'x, y, z'
loop_
 _atom_site_type_symbol
 _atom_site_label
 _atom_site_symmetry_multiplicity
 _atom_site_fract_x
 _atom_site_fract_y
 _atom_site_fract_z
 _atom_site_occupancy
  C  C0  1  0.76013500  0.98045000  0.90910600  1
  C  C1  1  0.26013500  0.51955000  0.09089400  1
  C  C2  1  0.23986500  0.01955000  0.09089400  1
  C  C3  1  0.73986500  0.48045000  0.90910600  1
  C  C4  1  0.90399700  0.31690900  0.60784500  1
  C  C5  1  0.40399700  0.18309100  0.39215500  1
  C  C6  1  0.09600300  0.68309100  0.39215500  1
  C  C7  1  0.59600300  0.81690900  0.60784500  1
  C  C8  1  0.91763300  0.08864000  0.23673000  1
  C  C9  1  0.41763300  0.41136000  0.76327000  1
  C  C10  1  0.08236700  0.91136000  0.76327000  1
  C  C11  1  0.58236700  0.58864000  0.23673000  1
  C  C12  1  0.52020500  0.79972700  0.09136300  1
  C  C13  1  0.02020500  0.70027300  0.90863700  1
  C  C14  1  0.47979500  0.20027300  0.90863700  1
  C  C15  1  0.97979500  0.29972700  0.09136300  1
  C  C16  1  0.58872200  0.90387400  0.19002200  1
  C  C17  1  0.08872200  0.59612600  0.80997800  1
  C  C18  1  0.41127800  0.09612600  0.80997800  1
  C  C19  1  0.91127800  0.40387400  0.19002200  1
  C  C20  1  0.76846300  0.60779100  0.29850600  1
  C  C21  1  0.26846300  0.89220900  0.70149400  1
  C  C22  1  0.81401800  0.02621600  0.41121000  1
  C  C23  1  0.73153700  0.10779100  0.29850600  1
  C  C24  1  0.68598200  0.52621600  0.41121000  1
  C  C25  1  0.18598200  0.97378400  0.58879000  1
  C  C26  1  0.31401800  0.47378400  0.58879000  1
  C  C27  1  0.23153700  0.39220900  0.70149400  1
  Ni  Ni28  1  0.94652500  0.74979300  0.12772800  1
  Ni  Ni29  1  0.44652500  0.75020700  0.87227200  1
  Ni  Ni30  1  0.05347500  0.25020700  0.87227200  1
  Ni  Ni31  1  0.55347500  0.24979300  0.12772800  1
  Ni  Ni32  1  0.88487300  0.82336700  0.63498800  1
  Ni  Ni33  1  0.38487300  0.67663300  0.36501200  1
  Ni  Ni34  1  0.11512700  0.17663300  0.36501200  1
  Ni  Ni35  1  0.61512700  0.32336700  0.63498800  1
  Cu  Cu36  1  0.39941500  0.87885200  0.77275100  1
  Cu  Cu37  1  0.57179300  0.74764800  0.86493100  1
  Cu  Cu38  1  0.92820700  0.24764800  0.86493100  1
  Cu  Cu39  1  0.42820700  0.25235200  0.13506900  1
  Cu  Cu40  1  0.90777300  0.69647300  0.00968100  1
  Cu  Cu41  1  0.40777300  0.80352700  0.99031900  1
  Cu  Cu42  1  0.09222700  0.30352700  0.99031900  1
  Cu  Cu43  1  0.59222700  0.19647300  0.00968100  1
  Cu  Cu44  1  0.89941500  0.62114800  0.22724900  1
  Cu  Cu45  1  0.07179300  0.75235200  0.13506900  1
  Cu  Cu46  1  0.10058500  0.37885200  0.77275100  1
  Cu  Cu47  1  0.60058500  0.12114800  0.22724900  1
  Cu  Cu48  1  0.89755900  0.93734200  0.13966400  1
  Cu  Cu49  1  0.39755900  0.56265800  0.86033600  1
  Cu  Cu50  1  0.10244100  0.06265800  0.86033600  1
  Cu  Cu51  1  0.60244100  0.43734200  0.13966400  1
  Cu  Cu52  1  0.95081600  0.68588200  0.57832000  1
  Cu  Cu53  1  0.45081600  0.81411800  0.42168000  1
  Cu  Cu54  1  0.04918400  0.31411800  0.42168000  1
  Cu  Cu55  1  0.54918400  0.18588200  0.57832000  1
  Cu  Cu56  1  0.81196800  0.74156500  0.73339700  1
  Cu  Cu57  1  0.31196800  0.75843500  0.26660300  1
  Cu  Cu58  1  0.18803200  0.25843500  0.26660300  1
  Cu  Cu59  1  0.68803200  0.24156500  0.73339700  1
  Cu  Cu60  1  0.81353600  0.93805900  0.54782800  1
  Cu  Cu61  1  0.31353600  0.56194100  0.45217200  1
  Cu  Cu62  1  0.18646400  0.06194100  0.45217200  1
  Cu  Cu63  1  0.68646400  0.43805900  0.54782800  1
  Cu  Cu64  1  0.96758400  0.95648300  0.68777900  1
  Cu  Cu65  1  0.46758400  0.54351700  0.31222100  1
  Cu  Cu66  1  0.03241600  0.04351700  0.31222100  1
  Cu  Cu67  1  0.53241600  0.45648300  0.68777900  1
  Cu  Cu68  1  0.81093700  0.09594100  0.32949900  1
  Cu  Cu69  1  0.31093700  0.40405900  0.67050100  1
  Cu  Cu70  1  0.18906300  0.90405900  0.67050100  1
  Cu  Cu71  1  0.68906300  0.59594100  0.32949900  1
  Cu  Cu72  1  0.91818300  0.28558500  0.15334500  1
  Cu  Cu73  1  0.58181700  0.78558500  0.15334500  1
  Cu  Cu74  1  0.08181700  0.71441500  0.84665500  1
  Cu  Cu75  1  0.41818300  0.21441500  0.84665500  1
