# generated using pymatgen
data_Cu6Ni2C5
_symmetry_space_group_name_H-M   'P 1'
_cell_length_a   11.45185700
_cell_length_b   6.65914900
_cell_length_c   7.60233014
_cell_angle_alpha   57.26136663
_cell_angle_beta   90.00000000
_cell_angle_gamma   90.00000000
_symmetry_Int_Tables_number   1
_chemical_formula_structural   Cu6Ni2C5
_chemical_formula_sum   'Cu12 Ni4 C10'
_cell_volume   487.65527011
_cell_formula_units_Z   2
loop_
 _symmetry_equiv_pos_site_id
 _symmetry_equiv_pos_as_xyz
  1  'x, y, z'
loop_
 _atom_site_type_symbol
 _atom_site_label
 _atom_site_symmetry_multiplicity
 _atom_site_fract_x
 _atom_site_fract_y
 _atom_site_fract_z
 _atom_site_occupancy
  C  C0  1  0.05017700  0.30341900  0.35831000  1
  C  C1  1  0.94982300  0.69658100  0.64169000  1
  C  C2  1  0.44982300  0.30341900  0.85831000  1
  C  C3  1  0.55017700  0.69658100  0.14169000  1
  C  C4  1  0.24676600  0.83883100  0.77823800  1
  C  C5  1  0.74676600  0.16116900  0.72176200  1
  C  C6  1  0.00000000  0.00000000  0.00000000  1
  C  C7  1  0.25323400  0.83883100  0.27823800  1
  C  C8  1  0.75323400  0.16116900  0.22176200  1
  C  C9  1  0.50000000  0.00000000  0.50000000  1
  Ni  Ni10  1  0.32982500  0.33163700  0.47435600  1
  Ni  Ni11  1  0.17017500  0.33163700  0.97435600  1
  Ni  Ni12  1  0.82982500  0.66836300  0.02564400  1
  Ni  Ni13  1  0.67017500  0.66836300  0.52564400  1
  Cu  Cu14  1  0.68743400  0.14338600  0.98277200  1
  Cu  Cu15  1  0.09112100  0.73979000  0.24747800  1
  Cu  Cu16  1  0.08390700  0.94337400  0.79405800  1
  Cu  Cu17  1  0.90887900  0.26021000  0.75252200  1
  Cu  Cu18  1  0.91609300  0.05662600  0.20594200  1
  Cu  Cu19  1  0.58390700  0.05662600  0.70594200  1
  Cu  Cu20  1  0.59112100  0.26021000  0.25252200  1
  Cu  Cu21  1  0.40887900  0.73979000  0.74747800  1
  Cu  Cu22  1  0.81256600  0.14338600  0.48277200  1
  Cu  Cu23  1  0.41609300  0.94337400  0.29405800  1
  Cu  Cu24  1  0.18743400  0.85661400  0.51722800  1
  Cu  Cu25  1  0.31256600  0.85661400  0.01722800  1
