# generated using pymatgen
data_Cu(Ni3C2)2
_symmetry_space_group_name_H-M   'P 1'
_cell_length_a   9.88731615
_cell_length_b   9.88731615
_cell_length_c   7.54958400
_cell_angle_alpha   90.00000000
_cell_angle_beta   90.00000000
_cell_angle_gamma   120.00000098
_symmetry_Int_Tables_number   1
_chemical_formula_structural   Cu(Ni3C2)2
_chemical_formula_sum   'Cu2 Ni12 C8'
_cell_volume   639.16132865
_cell_formula_units_Z   2
loop_
 _symmetry_equiv_pos_site_id
 _symmetry_equiv_pos_as_xyz
  1  'x, y, z'
loop_
 _atom_site_type_symbol
 _atom_site_label
 _atom_site_symmetry_multiplicity
 _atom_site_fract_x
 _atom_site_fract_y
 _atom_site_fract_z
 _atom_site_occupancy
  C  C0  1  0.40188900  0.20094400  0.50087200  1
  C  C1  1  0.59811100  0.79905600  0.00087200  1
  C  C2  1  0.33333300  0.66666700  0.41353300  1
  C  C3  1  0.20094400  0.79905600  0.00087200  1
  C  C4  1  0.66666700  0.33333300  0.91353300  1
  C  C5  1  0.79905600  0.59811100  0.50087200  1
  C  C6  1  0.79905600  0.20094400  0.50087200  1
  C  C7  1  0.20094400  0.40188900  0.00087200  1
  Ni  Ni8  1  0.53419800  0.46580200  0.20566000  1
  Ni  Ni9  1  0.72222300  0.86111200  0.38506700  1
  Ni  Ni10  1  0.93160300  0.46580200  0.20566000  1
  Ni  Ni11  1  0.13888800  0.27777700  0.38506700  1
  Ni  Ni12  1  0.06839700  0.53419800  0.70566000  1
  Ni  Ni13  1  0.53419800  0.06839700  0.20566000  1
  Ni  Ni14  1  0.27777700  0.13888800  0.88506700  1
  Ni  Ni15  1  0.13888800  0.86111200  0.38506700  1
  Ni  Ni16  1  0.46580200  0.53419800  0.70566000  1
  Ni  Ni17  1  0.46580200  0.93160300  0.70566000  1
  Ni  Ni18  1  0.86111200  0.13888800  0.88506700  1
  Ni  Ni19  1  0.86111200  0.72222300  0.88506700  1
  Cu  Cu20  1  0.33333300  0.66666700  0.10077100  1
  Cu  Cu21  1  0.66666700  0.33333300  0.60077100  1
