# generated using pymatgen
data_Cu3NiC2
_symmetry_space_group_name_H-M   'P 1'
_cell_length_a   10.29389739
_cell_length_b   10.29389739
_cell_length_c   11.09723200
_cell_angle_alpha   90.00000000
_cell_angle_beta   90.00000000
_cell_angle_gamma   90.43995526
_symmetry_Int_Tables_number   1
_chemical_formula_structural   Cu3NiC2
_chemical_formula_sum   'Cu18 Ni6 C12'
_cell_volume   1175.87601380
_cell_formula_units_Z   6
loop_
 _symmetry_equiv_pos_site_id
 _symmetry_equiv_pos_as_xyz
  1  'x, y, z'
loop_
 _atom_site_type_symbol
 _atom_site_label
 _atom_site_symmetry_multiplicity
 _atom_site_fract_x
 _atom_site_fract_y
 _atom_site_fract_z
 _atom_site_occupancy
  C  C0  1  0.43279300  0.79637600  0.75000000  1
  C  C1  1  0.00435600  0.00435600  0.50000000  1
  C  C2  1  0.48775300  0.29558500  0.75000000  1
  C  C3  1  0.79637600  0.43279300  0.25000000  1
  C  C4  1  0.00435600  0.00435600  0.00000000  1
  C  C5  1  0.29558500  0.48775300  0.25000000  1
  C  C6  1  0.91806700  0.63424900  0.75000000  1
  C  C7  1  0.01179700  0.44910700  0.63808500  1
  C  C8  1  0.01179700  0.44910700  0.86191500  1
  C  C9  1  0.44910700  0.01179700  0.13808500  1
  C  C10  1  0.63424900  0.91806700  0.25000000  1
  C  C11  1  0.44910700  0.01179700  0.36191500  1
  Ni  Ni12  1  0.25421200  0.11166100  0.25000000  1
  Ni  Ni13  1  0.63968800  0.91647200  0.48220000  1
  Ni  Ni14  1  0.91647200  0.63968800  0.98220000  1
  Ni  Ni15  1  0.63968800  0.91647200  0.01780000  1
  Ni  Ni16  1  0.91647200  0.63968800  0.51780000  1
  Ni  Ni17  1  0.11166100  0.25421200  0.75000000  1
  Cu  Cu18  1  0.52819800  0.22240000  0.10266600  1
  Cu  Cu19  1  0.82293400  0.32868800  0.89595000  1
  Cu  Cu20  1  0.32868800  0.82293400  0.39595000  1
  Cu  Cu21  1  0.06316400  0.33936700  0.07010300  1
  Cu  Cu22  1  0.33936700  0.06316400  0.57010300  1
  Cu  Cu23  1  0.22240000  0.52819800  0.60266600  1
  Cu  Cu24  1  0.80751800  0.86334600  0.75000000  1
  Cu  Cu25  1  0.22240000  0.52819800  0.89733400  1
  Cu  Cu26  1  0.06316400  0.33936700  0.42989700  1
  Cu  Cu27  1  0.32868800  0.82293400  0.10405000  1
  Cu  Cu28  1  0.86334600  0.80751900  0.25000000  1
  Cu  Cu29  1  0.09804500  0.77401100  0.75000000  1
  Cu  Cu30  1  0.52819800  0.22240000  0.39733400  1
  Cu  Cu31  1  0.69941900  0.57204400  0.75000000  1
  Cu  Cu32  1  0.77401100  0.09804500  0.25000000  1
  Cu  Cu33  1  0.33936700  0.06316400  0.92989700  1
  Cu  Cu34  1  0.57204400  0.69941900  0.25000000  1
  Cu  Cu35  1  0.82293400  0.32868800  0.60405000  1
