# generated using pymatgen
data_Cu5Ni7C16
_symmetry_space_group_name_H-M   'P 1'
_cell_length_a   5.90232458
_cell_length_b   12.17420101
_cell_length_c   10.59413563
_cell_angle_alpha   90.00810306
_cell_angle_beta   123.88526350
_cell_angle_gamma   89.99978605
_symmetry_Int_Tables_number   1
_chemical_formula_structural   Cu5Ni7C16
_chemical_formula_sum   'Cu10 Ni14 C32'
_cell_volume   631.95861472
_cell_formula_units_Z   2
loop_
 _symmetry_equiv_pos_site_id
 _symmetry_equiv_pos_as_xyz
  1  'x, y, z'
loop_
 _atom_site_type_symbol
 _atom_site_label
 _atom_site_symmetry_multiplicity
 _atom_site_fract_x
 _atom_site_fract_y
 _atom_site_fract_z
 _atom_site_occupancy
  Ni  Ni0  1  0.12099800  0.13010700  0.62086600  1
  Ni  Ni1  1  0.12508200  0.62495200  0.62499200  1
  Ni  Ni2  1  0.49323800  0.25127500  0.99328000  1
  Ni  Ni3  1  0.50676200  0.74872500  0.00672000  1
  Ni  Ni4  1  0.12100900  0.36988800  0.12087600  1
  Ni  Ni5  1  0.12508100  0.87503500  0.12498800  1
  Ni  Ni6  1  0.50000000  0.00000000  0.50000000  1
  Ni  Ni7  1  0.49323300  0.24872600  0.49327600  1
  Ni  Ni8  1  0.50676700  0.75127400  0.50672400  1
  Ni  Ni9  1  0.87491900  0.12496500  0.87501200  1
  Ni  Ni10  1  0.87899100  0.63011200  0.87912400  1
  Ni  Ni11  1  0.50000000  0.50000000  0.00000000  1
  Ni  Ni12  1  0.87491800  0.37504800  0.37500800  1
  Ni  Ni13  1  0.87900200  0.86989300  0.37913400  1
  Cu  Cu14  1  0.50524200  0.37806300  0.74612500  1
  Cu  Cu15  1  0.49475300  0.87806800  0.75388300  1
  Cu  Cu16  1  0.50000000  0.50000000  0.50000000  1
  Cu  Cu17  1  0.50524700  0.12193200  0.24611700  1
  Cu  Cu18  1  0.49475800  0.62193700  0.25387500  1
  Cu  Cu19  1  0.98675300  0.37812100  0.74604300  1
  Cu  Cu20  1  0.01324400  0.87812400  0.75395900  1
  Cu  Cu21  1  0.50000000  0.00000000  0.00000000  1
  Cu  Cu22  1  0.98675600  0.12187600  0.24604100  1
  Cu  Cu23  1  0.01324700  0.62187900  0.25395700  1
  C  C24  1  0.23975800  0.37697000  0.97454900  1
  C  C25  1  0.25957000  0.87702300  0.98610200  1
  C  C26  1  0.24839900  0.26837800  0.74847700  1
  C  C27  1  0.26563500  0.99727500  0.76555800  1
  C  C28  1  0.24767700  0.48564000  0.74773700  1
  C  C29  1  0.25864400  0.76103700  0.75853100  1
  C  C30  1  0.70943700  0.37704600  0.97457200  1
  C  C31  1  0.71272600  0.87710600  0.98597800  1
  C  C32  1  0.23977000  0.12302300  0.47455000  1
  C  C33  1  0.25957000  0.62297500  0.48610800  1
  C  C34  1  0.28726100  0.37711400  0.51402700  1
  C  C35  1  0.29057400  0.87705500  0.52543100  1
  C  C36  1  0.24768100  0.01436000  0.24772600  1
  C  C37  1  0.24840500  0.23162000  0.24848500  1
  C  C38  1  0.26563800  0.50272700  0.26554300  1
  C  C39  1  0.25865500  0.73896700  0.25854100  1
  C  C40  1  0.74134500  0.26103300  0.74145900  1
  C  C41  1  0.73436200  0.49727300  0.73445700  1
  C  C42  1  0.75159500  0.76838000  0.75151500  1
  C  C43  1  0.75231900  0.98564000  0.75227400  1
  C  C44  1  0.70942600  0.12294500  0.47456900  1
  C  C45  1  0.71273900  0.62288600  0.48597300  1
  C  C46  1  0.74043000  0.37702500  0.51389200  1
  C  C47  1  0.76023000  0.87697700  0.52545000  1
  C  C48  1  0.29056300  0.62295400  0.02542800  1
  C  C49  1  0.28727400  0.12289400  0.01402200  1
  C  C50  1  0.73436500  0.00272500  0.23444200  1
  C  C51  1  0.74135600  0.23896300  0.24146900  1
  C  C52  1  0.75232300  0.51436000  0.25226300  1
  C  C53  1  0.75160100  0.73162200  0.25152300  1
  C  C54  1  0.74043000  0.12297700  0.01389800  1
  C  C55  1  0.76024200  0.62303000  0.02545100  1
