# generated using pymatgen
data_Cu3(NiC6)2
_symmetry_space_group_name_H-M   'P 1'
_cell_length_a   9.64539700
_cell_length_b   9.64539700
_cell_length_c   9.64539700
_cell_angle_alpha   90.00000000
_cell_angle_beta   90.00000000
_cell_angle_gamma   90.00000000
_symmetry_Int_Tables_number   1
_chemical_formula_structural   Cu3(NiC6)2
_chemical_formula_sum   'Cu12 Ni8 C48'
_cell_volume   897.34680968
_cell_formula_units_Z   4
loop_
 _symmetry_equiv_pos_site_id
 _symmetry_equiv_pos_as_xyz
  1  'x, y, z'
loop_
 _atom_site_type_symbol
 _atom_site_label
 _atom_site_symmetry_multiplicity
 _atom_site_fract_x
 _atom_site_fract_y
 _atom_site_fract_z
 _atom_site_occupancy
  C  C0  1  0.25000000  0.25000000  0.75000000  1
  C  C1  1  0.75000000  0.75000000  0.75000000  1
  C  C2  1  0.75000000  0.25000000  0.25000000  1
  C  C3  1  0.25000000  0.75000000  0.25000000  1
  Ni  Ni4  1  0.87397000  0.87397000  0.12603000  1
  Ni  Ni5  1  0.37397000  0.62603000  0.62603000  1
  Ni  Ni6  1  0.37397000  0.37397000  0.37397000  1
  Ni  Ni7  1  0.87397000  0.12603000  0.87397000  1
  Ni  Ni8  1  0.62603000  0.37397000  0.62603000  1
  Ni  Ni9  1  0.12603000  0.12603000  0.12603000  1
  Ni  Ni10  1  0.12603000  0.87397000  0.87397000  1
  Ni  Ni11  1  0.62603000  0.62603000  0.37397000  1
  Cu  Cu12  1  0.50000000  0.83936300  0.00000000  1
  Cu  Cu13  1  0.00000000  0.33936300  0.50000000  1
  Cu  Cu14  1  0.33936300  0.50000000  0.00000000  1
  Cu  Cu15  1  0.50000000  0.00000000  0.66063700  1
  Cu  Cu16  1  0.66063700  0.50000000  0.00000000  1
  Cu  Cu17  1  0.16063700  0.00000000  0.50000000  1
  Cu  Cu18  1  0.00000000  0.66063700  0.50000000  1
  Cu  Cu19  1  0.50000000  0.00000000  0.33936300  1
  Cu  Cu20  1  0.00000000  0.50000000  0.16063700  1
  Cu  Cu21  1  0.00000000  0.50000000  0.83936300  1
  Cu  Cu22  1  0.83936300  0.00000000  0.50000000  1
  Cu  Cu23  1  0.50000000  0.16063700  0.00000000  1
  C  C24  1  0.00000000  0.63708800  0.00000000  1
  C  C25  1  0.83850700  0.21091000  0.50010800  1
  C  C26  1  0.71091000  0.99989200  0.33850700  1
  C  C27  1  0.50000000  0.86291200  0.50000000  1
  C  C28  1  0.00000000  0.00000000  0.63708800  1
  C  C29  1  0.66149300  0.71091000  0.00010800  1
  C  C30  1  0.28909000  0.99989200  0.66149300  1
  C  C31  1  0.86291200  0.50000000  0.50000000  1
  C  C32  1  0.78909000  0.50010800  0.16149300  1
  C  C33  1  0.50000000  0.50000000  0.13708800  1
  C  C34  1  0.21091000  0.50010800  0.83850700  1
  C  C35  1  0.99989200  0.66149300  0.28909000  1
  C  C36  1  0.63708800  0.00000000  0.00000000  1
  C  C37  1  0.83850700  0.78909000  0.49989200  1
  C  C38  1  0.39716500  0.60283500  0.39716500  1
  C  C39  1  0.50000000  0.13708800  0.50000000  1
  C  C40  1  0.50010800  0.83850700  0.21091000  1
  C  C41  1  0.89716500  0.10283500  0.10283500  1
  C  C42  1  0.13708800  0.50000000  0.50000000  1
  C  C43  1  0.50000000  0.50000000  0.86291200  1
  C  C44  1  0.33850700  0.28909000  0.00010800  1
  C  C45  1  0.00010800  0.33850700  0.28909000  1
  C  C46  1  0.36291200  0.00000000  0.00000000  1
  C  C47  1  0.66149300  0.28909000  0.99989200  1
  C  C48  1  0.10283500  0.89716500  0.10283500  1
  C  C49  1  0.28909000  0.00010800  0.33850700  1
  C  C50  1  0.71091000  0.00010800  0.66149300  1
  C  C51  1  0.33850700  0.71091000  0.99989200  1
  C  C52  1  0.89716500  0.89716500  0.89716500  1
  C  C53  1  0.99989200  0.33850700  0.71091000  1
  C  C54  1  0.60283500  0.39716500  0.39716500  1
  C  C55  1  0.16149300  0.21091000  0.49989200  1
  C  C56  1  0.16149300  0.78909000  0.50010800  1
  C  C57  1  0.49989200  0.83850700  0.78909000  1
  C  C58  1  0.00000000  0.36291200  0.00000000  1
  C  C59  1  0.50010800  0.16149300  0.78909000  1
  C  C60  1  0.00010800  0.66149300  0.71091000  1
  C  C61  1  0.21091000  0.49989200  0.16149300  1
  C  C62  1  0.78909000  0.49989200  0.83850700  1
  C  C63  1  0.39716500  0.39716500  0.60283500  1
  C  C64  1  0.60283500  0.60283500  0.60283500  1
  C  C65  1  0.10283500  0.10283500  0.89716500  1
  C  C66  1  0.00000000  0.00000000  0.36291200  1
  C  C67  1  0.49989200  0.16149300  0.21091000  1
