# generated using pymatgen
data_CuNiC16
_symmetry_space_group_name_H-M   'P 1'
_cell_length_a   13.24072800
_cell_length_b   7.28370200
_cell_length_c   12.25317497
_cell_angle_alpha   53.92962518
_cell_angle_beta   90.00000000
_cell_angle_gamma   90.00000000
_symmetry_Int_Tables_number   1
_chemical_formula_structural   CuNiC16
_chemical_formula_sum   'Cu4 Ni4 C64'
_cell_volume   955.17346890
_cell_formula_units_Z   4
loop_
 _symmetry_equiv_pos_site_id
 _symmetry_equiv_pos_as_xyz
  1  'x, y, z'
loop_
 _atom_site_type_symbol
 _atom_site_label
 _atom_site_symmetry_multiplicity
 _atom_site_fract_x
 _atom_site_fract_y
 _atom_site_fract_z
 _atom_site_occupancy
  Ni  Ni0  1  0.72147600  0.93583500  0.06310300  1
  Ni  Ni1  1  0.22147600  0.06416500  0.43689700  1
  Ni  Ni2  1  0.77852400  0.93583500  0.56310300  1
  Ni  Ni3  1  0.27852400  0.06416500  0.93689700  1
  Cu  Cu4  1  0.21951300  0.46434400  0.52291500  1
  Cu  Cu5  1  0.78048700  0.53565600  0.47708500  1
  Cu  Cu6  1  0.28048700  0.46434400  0.02291500  1
  Cu  Cu7  1  0.71951300  0.53565600  0.97708500  1
  C  C8  1  0.89801100  0.00625000  0.74394500  1
  C  C9  1  0.10198900  0.99375000  0.25605500  1
  C  C10  1  0.39801100  0.99375000  0.75605500  1
  C  C11  1  0.11454300  0.88667800  0.73644700  1
  C  C12  1  0.87238000  0.34268600  0.80369500  1
  C  C13  1  0.37238000  0.65731400  0.69630500  1
  C  C14  1  0.62762000  0.34268600  0.30369500  1
  C  C15  1  0.40858500  0.43278200  0.29912800  1
  C  C16  1  0.12762000  0.65731400  0.19630500  1
  C  C17  1  0.59141500  0.56721800  0.70087200  1
  C  C18  1  0.90858500  0.56721800  0.20087200  1
  C  C19  1  0.60198900  0.00625000  0.24394500  1
  C  C20  1  0.38545700  0.88667800  0.23644700  1
  C  C21  1  0.09141500  0.43278200  0.79912800  1
  C  C22  1  0.61454300  0.11332200  0.76355300  1
  C  C23  1  0.88545700  0.11332200  0.26355300  1
  C  C24  1  0.20873000  0.67488300  0.10484400  1
  C  C25  1  0.64693500  0.90282200  0.89701400  1
  C  C26  1  0.66608600  0.79814000  0.29688500  1
  C  C27  1  0.66190200  0.65428200  0.58398200  1
  C  C28  1  0.87542800  0.09435300  0.83474100  1
  C  C29  1  0.31227100  0.78047200  0.35137900  1
  C  C30  1  0.98732100  0.07430500  0.20977000  1
  C  C31  1  0.79127000  0.32511700  0.89515600  1
  C  C32  1  0.35306500  0.09717800  0.10298600  1
  C  C33  1  0.85306500  0.90282200  0.39701400  1
  C  C34  1  0.08079900  0.70634000  0.70729300  1
  C  C35  1  0.58079900  0.29366000  0.79270700  1
  C  C36  1  0.29127000  0.67488300  0.60484400  1
  C  C37  1  0.60989500  0.19222800  0.09488800  1
  C  C38  1  0.10989500  0.80777200  0.40511200  1
  C  C39  1  0.33809800  0.34571800  0.41601800  1
  C  C40  1  0.16190200  0.34571800  0.91601800  1
  C  C41  1  0.38761100  0.36796900  0.20542200  1
  C  C42  1  0.70873000  0.32511700  0.39515600  1
  C  C43  1  0.14693500  0.09717800  0.60298600  1
  C  C44  1  0.48732100  0.92569500  0.29023000  1
  C  C45  1  0.89010500  0.19222800  0.59488800  1
  C  C46  1  0.39010500  0.80777200  0.90511200  1
  C  C47  1  0.81227100  0.21952800  0.14862100  1
  C  C48  1  0.52072000  0.35290600  0.36303900  1
  C  C49  1  0.41920100  0.70634000  0.20729300  1
  C  C50  1  0.68772900  0.21952800  0.64862100  1
  C  C51  1  0.13386700  0.47721900  0.34566300  1
  C  C52  1  0.36613300  0.47721900  0.84566300  1
  C  C53  1  0.37542800  0.90564700  0.66525900  1
  C  C54  1  0.12457200  0.90564700  0.16525900  1
  C  C55  1  0.63386700  0.52278100  0.15433700  1
  C  C56  1  0.33391400  0.20186000  0.70311500  1
  C  C57  1  0.18772900  0.78047200  0.85137900  1
  C  C58  1  0.11238900  0.36796900  0.70542200  1
  C  C59  1  0.97928000  0.35290600  0.86303900  1
  C  C60  1  0.47928000  0.64709400  0.63696100  1
  C  C61  1  0.83391400  0.79814000  0.79688500  1
  C  C62  1  0.61238900  0.63203100  0.79457800  1
  C  C63  1  0.51267900  0.07430500  0.70977000  1
  C  C64  1  0.16608600  0.20186000  0.20311500  1
  C  C65  1  0.62457200  0.09435300  0.33474100  1
  C  C66  1  0.86613300  0.52278100  0.65433700  1
  C  C67  1  0.91920100  0.29366000  0.29270700  1
  C  C68  1  0.83809800  0.65428200  0.08398200  1
  C  C69  1  0.01267900  0.92569500  0.79023000  1
  C  C70  1  0.88761100  0.63203100  0.29457800  1
  C  C71  1  0.02072000  0.64709400  0.13696100  1
