# generated using pymatgen
data_Cu9Ni3C
_symmetry_space_group_name_H-M   'P 1'
_cell_length_a   6.04699800
_cell_length_b   8.94277100
_cell_length_c   17.01404686
_cell_angle_alpha   65.17827940
_cell_angle_beta   90.00000000
_cell_angle_gamma   90.00000000
_symmetry_Int_Tables_number   1
_chemical_formula_structural   Cu9Ni3C
_chemical_formula_sum   'Cu36 Ni12 C4'
_cell_volume   835.06994134
_cell_formula_units_Z   4
loop_
 _symmetry_equiv_pos_site_id
 _symmetry_equiv_pos_as_xyz
  1  'x, y, z'
loop_
 _atom_site_type_symbol
 _atom_site_label
 _atom_site_symmetry_multiplicity
 _atom_site_fract_x
 _atom_site_fract_y
 _atom_site_fract_z
 _atom_site_occupancy
  C  C0  1  0.23021200  0.13979800  0.89980700  1
  C  C1  1  0.26978800  0.13979800  0.39980700  1
  C  C2  1  0.73021200  0.86020200  0.60019300  1
  C  C3  1  0.76978800  0.86020200  0.10019300  1
  Ni  Ni4  1  0.18673400  0.06935200  0.64840200  1
  Ni  Ni5  1  0.63656100  0.35927000  0.47727100  1
  Ni  Ni6  1  0.08998100  0.58299600  0.30215200  1
  Ni  Ni7  1  0.13656100  0.64073000  0.02272900  1
  Ni  Ni8  1  0.81326600  0.93064800  0.35159800  1
  Ni  Ni9  1  0.36343900  0.64073000  0.52272900  1
  Ni  Ni10  1  0.91001900  0.41700400  0.69784800  1
  Ni  Ni11  1  0.58998100  0.41700400  0.19784800  1
  Ni  Ni12  1  0.31326600  0.06935200  0.14840200  1
  Ni  Ni13  1  0.68673400  0.93064800  0.85159800  1
  Ni  Ni14  1  0.41001900  0.58299600  0.80215200  1
  Ni  Ni15  1  0.86343900  0.35927000  0.97727100  1
  Cu  Cu16  1  0.41382800  0.66630400  0.88399500  1
  Cu  Cu17  1  0.46678000  0.40176200  0.38049600  1
  Cu  Cu18  1  0.08617200  0.66630400  0.38399500  1
  Cu  Cu19  1  0.53322000  0.59823800  0.61950400  1
  Cu  Cu20  1  0.08624000  0.35839900  0.05376900  1
  Cu  Cu21  1  0.31672300  0.34355600  0.24511700  1
  Cu  Cu22  1  0.90720400  0.90737500  0.45914800  1
  Cu  Cu23  1  0.03322000  0.40176200  0.88049600  1
  Cu  Cu24  1  0.89386500  0.09548900  0.82932200  1
  Cu  Cu25  1  0.39386500  0.90451100  0.67067800  1
  Cu  Cu26  1  0.40720400  0.09262500  0.04085200  1
  Cu  Cu27  1  0.96678000  0.59823800  0.11950400  1
  Cu  Cu28  1  0.00052900  0.63150400  0.63161600  1
  Cu  Cu29  1  0.99947100  0.36849600  0.36838400  1
  Cu  Cu30  1  0.41376000  0.35839900  0.55376900  1
  Cu  Cu31  1  0.55084000  0.93705500  0.20225500  1
  Cu  Cu32  1  0.58624000  0.64160100  0.44623100  1
  Cu  Cu33  1  0.49947100  0.63150400  0.13161600  1
  Cu  Cu34  1  0.59960700  0.13389700  0.50926900  1
  Cu  Cu35  1  0.58617200  0.33369600  0.11600500  1
  Cu  Cu36  1  0.91376000  0.64160100  0.94623100  1
  Cu  Cu37  1  0.09960700  0.86610300  0.99073100  1
  Cu  Cu38  1  0.18327700  0.34355600  0.74511700  1
  Cu  Cu39  1  0.81672300  0.65644400  0.25488300  1
  Cu  Cu40  1  0.05084000  0.06294500  0.29774500  1
  Cu  Cu41  1  0.44916000  0.06294500  0.79774500  1
  Cu  Cu42  1  0.94916000  0.93705500  0.70225500  1
  Cu  Cu43  1  0.90039300  0.13389700  0.00926900  1
  Cu  Cu44  1  0.40039300  0.86610300  0.49073100  1
  Cu  Cu45  1  0.60613500  0.09548900  0.32932200  1
  Cu  Cu46  1  0.68327700  0.65644400  0.75488300  1
  Cu  Cu47  1  0.09279600  0.09262500  0.54085200  1
  Cu  Cu48  1  0.50052900  0.36849600  0.86838400  1
  Cu  Cu49  1  0.10613500  0.90451100  0.17067800  1
  Cu  Cu50  1  0.91382800  0.33369600  0.61600500  1
  Cu  Cu51  1  0.59279600  0.90737500  0.95914800  1
