# generated using pymatgen
data_Cu2Ni5C14
_symmetry_space_group_name_H-M   'P 1'
_cell_length_a   9.59234755
_cell_length_b   9.59234755
_cell_length_c   9.59234755
_cell_angle_alpha   60.00000000
_cell_angle_beta   60.00000000
_cell_angle_gamma   60.00000000
_symmetry_Int_Tables_number   1
_chemical_formula_structural   Cu2Ni5C14
_chemical_formula_sum   'Cu4 Ni10 C28'
_cell_volume   624.10795664
_cell_formula_units_Z   2
loop_
 _symmetry_equiv_pos_site_id
 _symmetry_equiv_pos_as_xyz
  1  'x, y, z'
loop_
 _atom_site_type_symbol
 _atom_site_label
 _atom_site_symmetry_multiplicity
 _atom_site_fract_x
 _atom_site_fract_y
 _atom_site_fract_z
 _atom_site_occupancy
  C  C0  1  0.95677500  0.54322500  0.54322500  1
  C  C1  1  0.95677500  0.54322500  0.95677500  1
  C  C2  1  0.54322500  0.54322500  0.95677500  1
  C  C3  1  0.54322500  0.95677500  0.95677500  1
  C  C4  1  0.95677500  0.95677500  0.54322500  1
  C  C5  1  0.54322500  0.95677500  0.54322500  1
  Ni  Ni6  1  0.16699800  0.49900500  0.16699800  1
  Ni  Ni7  1  0.16699800  0.16699800  0.16699800  1
  Ni  Ni8  1  0.16699800  0.16699800  0.49900500  1
  Ni  Ni9  1  0.83164100  0.16835900  0.16835900  1
  Ni  Ni10  1  0.16835900  0.83164100  0.83164100  1
  Ni  Ni11  1  0.16835900  0.16835900  0.83164100  1
  Ni  Ni12  1  0.83164100  0.16835900  0.83164100  1
  Ni  Ni13  1  0.49900500  0.16699800  0.16699800  1
  Ni  Ni14  1  0.16835900  0.83164100  0.16835900  1
  Ni  Ni15  1  0.83164100  0.83164100  0.16835900  1
  Cu  Cu16  1  0.41532600  0.75402300  0.41532600  1
  Cu  Cu17  1  0.41532600  0.41532600  0.75402300  1
  Cu  Cu18  1  0.41532600  0.41532600  0.41532600  1
  Cu  Cu19  1  0.75402300  0.41532600  0.41532600  1
  C  C20  1  0.90808200  0.90808200  0.90808200  1
  C  C21  1  0.25250300  0.25250300  0.91639500  1
  C  C22  1  0.90808200  0.27575500  0.90808200  1
  C  C23  1  0.91639500  0.25250300  0.57859900  1
  C  C24  1  0.91639500  0.57859900  0.25250300  1
  C  C25  1  0.57859900  0.91639500  0.25250300  1
  C  C26  1  0.58134000  0.25598100  0.58134000  1
  C  C27  1  0.25250300  0.91639500  0.57859900  1
  C  C28  1  0.27575500  0.90808200  0.90808200  1
  C  C29  1  0.25250300  0.25250300  0.57859900  1
  C  C30  1  0.25250300  0.57859900  0.25250300  1
  C  C31  1  0.75000000  0.75000000  0.75000000  1
  C  C32  1  0.57859900  0.25250300  0.25250300  1
  C  C33  1  0.58134000  0.58134000  0.58134000  1
  C  C34  1  0.58134000  0.58134000  0.25598100  1
  C  C35  1  0.90808200  0.90808200  0.27575500  1
  C  C36  1  0.25250300  0.91639500  0.25250300  1
  C  C37  1  0.91639500  0.25250300  0.25250300  1
  C  C38  1  0.25000000  0.25000000  0.25000000  1
  C  C39  1  0.25250300  0.57859900  0.91639500  1
  C  C40  1  0.57859900  0.25250300  0.91639500  1
  C  C41  1  0.25598100  0.58134000  0.58134000  1
