# generated using pymatgen
data_Cu2(Ni2C7)3
_symmetry_space_group_name_H-M   'P 1'
_cell_length_a   5.92461641
_cell_length_b   5.92461714
_cell_length_c   30.19064554
_cell_angle_alpha   90.00000000
_cell_angle_beta   90.00000000
_cell_angle_gamma   120.00000143
_symmetry_Int_Tables_number   1
_chemical_formula_structural   Cu2(Ni2C7)3
_chemical_formula_sum   'Cu4 Ni12 C42'
_cell_volume   917.74822402
_cell_formula_units_Z   2
loop_
 _symmetry_equiv_pos_site_id
 _symmetry_equiv_pos_as_xyz
  1  'x, y, z'
loop_
 _atom_site_type_symbol
 _atom_site_label
 _atom_site_symmetry_multiplicity
 _atom_site_fract_x
 _atom_site_fract_y
 _atom_site_fract_z
 _atom_site_occupancy
  Ni  Ni0  1  0.66666700  0.33333300  0.09209629  1
  Ni  Ni1  1  0.33333300  0.66666700  0.31964156  1
  Ni  Ni2  1  0.33333300  0.66666700  0.18035844  1
  Ni  Ni3  1  0.66666700  0.33333300  0.68035844  1
  Ni  Ni4  1  0.33333300  0.66666700  0.90790371  1
  Ni  Ni5  1  0.66666700  0.33333300  0.40790371  1
  Ni  Ni6  1  0.33333300  0.66666700  0.59209629  1
  Ni  Ni7  1  0.00000000  0.00000000  0.25000000  1
  Ni  Ni8  1  0.66666700  0.33333300  0.81964156  1
  Ni  Ni9  1  0.00000000  0.00000000  0.75000000  1
  Ni  Ni10  1  0.00000000  0.00000000  0.50000000  1
  Ni  Ni11  1  0.00000000  0.00000000  0.00000000  1
  Cu  Cu12  1  0.00000000  0.00000000  0.12406580  1
  Cu  Cu13  1  0.00000000  0.00000000  0.87593420  1
  Cu  Cu14  1  0.00000000  0.00000000  0.37593420  1
  Cu  Cu15  1  0.00000000  0.00000000  0.62406580  1
  C  C16  1  0.66666700  0.33333300  0.55197912  1
  C  C17  1  0.33333300  0.66666700  0.44802088  1
  C  C18  1  0.33333300  0.66666700  0.05197912  1
  C  C19  1  0.66666700  0.33333300  0.94802088  1
  C  C20  1  0.66666700  0.33333300  0.20381438  1
  C  C21  1  0.33333300  0.66666700  0.79618562  1
  C  C22  1  0.66666700  0.33333300  0.29618562  1
  C  C23  1  0.33333300  0.66666700  0.70381438  1
  C  C24  1  0.35341838  0.17670919  0.17022186  1
  C  C25  1  0.48622307  0.97244513  0.75000000  1
  C  C26  1  0.35341838  0.17670919  0.32977814  1
  C  C27  1  0.82329081  0.17670919  0.32977814  1
  C  C28  1  0.17538781  0.35077563  0.07282941  1
  C  C29  1  0.64658162  0.82329081  0.67022186  1
  C  C30  1  0.33333300  0.66666700  0.99537220  1
  C  C31  1  0.17670919  0.82329081  0.67022186  1
  C  C32  1  0.17538781  0.82461219  0.07282941  1
  C  C33  1  0.17670919  0.35341838  0.67022186  1
  C  C34  1  0.82329081  0.64658162  0.17022186  1
  C  C35  1  0.35077563  0.17538781  0.57282941  1
  C  C36  1  0.82461219  0.64922437  0.92717059  1
  C  C37  1  0.51377693  0.48622307  0.25000000  1
  C  C38  1  0.66666700  0.33333300  0.49537220  1
  C  C39  1  0.17670919  0.35341838  0.82977814  1
  C  C40  1  0.82461219  0.64922437  0.57282941  1
  C  C41  1  0.51377693  0.02755487  0.25000000  1
  C  C42  1  0.66666700  0.33333300  0.00462780  1
  C  C43  1  0.35077563  0.17538781  0.92717059  1
  C  C44  1  0.64922437  0.82461219  0.07282941  1
  C  C45  1  0.33333300  0.66666700  0.50462780  1
  C  C46  1  0.17670919  0.82329081  0.82977814  1
  C  C47  1  0.97244513  0.48622307  0.25000000  1
  C  C48  1  0.17538781  0.35077563  0.42717059  1
  C  C49  1  0.64658162  0.82329081  0.82977814  1
  C  C50  1  0.82461219  0.17538781  0.57282941  1
  C  C51  1  0.82461219  0.17538781  0.92717059  1
  C  C52  1  0.64922437  0.82461219  0.42717059  1
  C  C53  1  0.17538781  0.82461219  0.42717059  1
  C  C54  1  0.82329081  0.64658162  0.32977814  1
  C  C55  1  0.48622307  0.51377693  0.75000000  1
  C  C56  1  0.02755487  0.51377693  0.75000000  1
  C  C57  1  0.82329081  0.17670919  0.17022186  1
