# generated using pymatgen
data_Cu3(NiC5)2
_symmetry_space_group_name_H-M   'P 1'
_cell_length_a   9.29309875
_cell_length_b   9.29309875
_cell_length_c   8.86195600
_cell_angle_alpha   90.00000000
_cell_angle_beta   90.00000000
_cell_angle_gamma   139.65791461
_symmetry_Int_Tables_number   1
_chemical_formula_structural   Cu3(NiC5)2
_chemical_formula_sum   'Cu6 Ni4 C20'
_cell_volume   495.43845936
_cell_formula_units_Z   2
loop_
 _symmetry_equiv_pos_site_id
 _symmetry_equiv_pos_as_xyz
  1  'x, y, z'
loop_
 _atom_site_type_symbol
 _atom_site_label
 _atom_site_symmetry_multiplicity
 _atom_site_fract_x
 _atom_site_fract_y
 _atom_site_fract_z
 _atom_site_occupancy
  Ni  Ni0  1  0.36543900  0.68198900  0.18334200  1
  Ni  Ni1  1  0.63456100  0.31801100  0.68334200  1
  Ni  Ni2  1  0.31801100  0.63456100  0.68334200  1
  Ni  Ni3  1  0.68198900  0.36543900  0.18334200  1
  Cu  Cu4  1  0.35620500  0.35620500  0.03983700  1
  Cu  Cu5  1  0.13291100  0.80480700  0.79774800  1
  Cu  Cu6  1  0.19519300  0.86708900  0.29774800  1
  Cu  Cu7  1  0.64379500  0.64379500  0.53983700  1
  Cu  Cu8  1  0.80480700  0.13291100  0.79774800  1
  Cu  Cu9  1  0.86708900  0.19519300  0.29774800  1
  C  C10  1  0.00910200  0.31479100  0.66100600  1
  C  C11  1  0.71860600  0.24080800  0.84949600  1
  C  C12  1  0.95513800  0.61862800  0.64984900  1
  C  C13  1  0.25834800  0.25834800  0.21064400  1
  C  C14  1  0.39403500  0.54992900  0.51720700  1
  C  C15  1  0.61862800  0.95513800  0.64984900  1
  C  C16  1  0.79567400  0.79567400  0.39132200  1
  C  C17  1  0.31479100  0.00910200  0.66100600  1
  C  C18  1  0.54992900  0.39403500  0.51720700  1
  C  C19  1  0.24080800  0.71860600  0.84949600  1
  C  C20  1  0.68520900  0.99089800  0.16100600  1
  C  C21  1  0.75919200  0.28139400  0.34949600  1
  C  C22  1  0.04486200  0.38137200  0.14984900  1
  C  C23  1  0.38137200  0.04486200  0.14984900  1
  C  C24  1  0.74165200  0.74165200  0.71064400  1
  C  C25  1  0.20432600  0.20432600  0.89132200  1
  C  C26  1  0.28139400  0.75919200  0.34949600  1
  C  C27  1  0.60596500  0.45007100  0.01720700  1
  C  C28  1  0.99089800  0.68520900  0.16100600  1
  C  C29  1  0.45007100  0.60596500  0.01720700  1
