# generated using pymatgen
data_CuNiC7
_symmetry_space_group_name_H-M   'P 1'
_cell_length_a   7.19280900
_cell_length_b   7.20399600
_cell_length_c   10.31484100
_cell_angle_alpha   90.00000000
_cell_angle_beta   90.00000000
_cell_angle_gamma   90.00000000
_symmetry_Int_Tables_number   1
_chemical_formula_structural   CuNiC7
_chemical_formula_sum   'Cu4 Ni4 C28'
_cell_volume   534.48377844
_cell_formula_units_Z   4
loop_
 _symmetry_equiv_pos_site_id
 _symmetry_equiv_pos_as_xyz
  1  'x, y, z'
loop_
 _atom_site_type_symbol
 _atom_site_label
 _atom_site_symmetry_multiplicity
 _atom_site_fract_x
 _atom_site_fract_y
 _atom_site_fract_z
 _atom_site_occupancy
  C  C0  1  0.48475500  0.25000000  0.12868700  1
  C  C1  1  0.98475500  0.25000000  0.37131300  1
  C  C2  1  0.51524500  0.75000000  0.87131300  1
  C  C3  1  0.01524500  0.75000000  0.62868700  1
  Ni  Ni4  1  0.00000000  0.00000000  0.00000000  1
  Ni  Ni5  1  0.50000000  0.50000000  0.50000000  1
  Ni  Ni6  1  0.00000000  0.50000000  0.00000000  1
  Ni  Ni7  1  0.50000000  0.00000000  0.50000000  1
  Cu  Cu8  1  0.27350900  0.25000000  0.75842200  1
  Cu  Cu9  1  0.77350900  0.25000000  0.74157800  1
  Cu  Cu10  1  0.72649100  0.75000000  0.24157800  1
  Cu  Cu11  1  0.22649100  0.75000000  0.25842200  1
  C  C12  1  0.02860100  0.25000000  0.67523000  1
  C  C13  1  0.52860100  0.25000000  0.82477000  1
  C  C14  1  0.97139900  0.75000000  0.32477000  1
  C  C15  1  0.47139900  0.75000000  0.17523000  1
  C  C16  1  0.47759200  0.25000000  0.45830500  1
  C  C17  1  0.97759200  0.25000000  0.04169500  1
  C  C18  1  0.52240800  0.75000000  0.54169500  1
  C  C19  1  0.02240800  0.75000000  0.95830500  1
  C  C20  1  0.15358300  0.97221900  0.13812100  1
  C  C21  1  0.65358300  0.52778100  0.36187900  1
  C  C22  1  0.84641700  0.47221900  0.86187900  1
  C  C23  1  0.34641700  0.02778100  0.63812100  1
  C  C24  1  0.84641700  0.02778100  0.86187900  1
  C  C25  1  0.34641700  0.47221900  0.63812100  1
  C  C26  1  0.15358300  0.52778100  0.13812100  1
  C  C27  1  0.65358300  0.97221900  0.36187900  1
  C  C28  1  0.20179700  0.04737900  0.89854600  1
  C  C29  1  0.70179700  0.45262100  0.60145400  1
  C  C30  1  0.79820300  0.54737900  0.10145400  1
  C  C31  1  0.29820300  0.95262100  0.39854600  1
  C  C32  1  0.79820300  0.95262100  0.10145400  1
  C  C33  1  0.29820300  0.54737900  0.39854600  1
  C  C34  1  0.20179700  0.45262100  0.89854600  1
  C  C35  1  0.70179700  0.04737900  0.60145400  1
