# generated using pymatgen
data_Cu6NiC2
_symmetry_space_group_name_H-M   'P 1'
_cell_length_a   5.38586036
_cell_length_b   5.38586036
_cell_length_c   12.73177200
_cell_angle_alpha   90.00000000
_cell_angle_beta   90.00000000
_cell_angle_gamma   120.00000445
_symmetry_Int_Tables_number   1
_chemical_formula_structural   Cu6NiC2
_chemical_formula_sum   'Cu12 Ni2 C4'
_cell_volume   319.83769265
_cell_formula_units_Z   2
loop_
 _symmetry_equiv_pos_site_id
 _symmetry_equiv_pos_as_xyz
  1  'x, y, z'
loop_
 _atom_site_type_symbol
 _atom_site_label
 _atom_site_symmetry_multiplicity
 _atom_site_fract_x
 _atom_site_fract_y
 _atom_site_fract_z
 _atom_site_occupancy
  C  C0  1  0.00000000  0.00000000  0.00000000  1
  C  C1  1  0.00000000  0.00000000  0.50000000  1
  C  C2  1  0.66666700  0.33333300  0.25000000  1
  C  C3  1  0.33333300  0.66666700  0.75000000  1
  Ni  Ni4  1  0.33333300  0.66666700  0.25000000  1
  Ni  Ni5  1  0.66666700  0.33333300  0.75000000  1
  Cu  Cu6  1  0.02567000  0.39754600  0.33778900  1
  Cu  Cu7  1  0.37187600  0.39754600  0.16221100  1
  Cu  Cu8  1  0.62812400  0.02567000  0.83778900  1
  Cu  Cu9  1  0.97433000  0.60245400  0.83778900  1
  Cu  Cu10  1  0.60245400  0.97433000  0.16221100  1
  Cu  Cu11  1  0.39754600  0.37187600  0.83778900  1
  Cu  Cu12  1  0.39754600  0.02567000  0.66221100  1
  Cu  Cu13  1  0.02567000  0.62812400  0.16221100  1
  Cu  Cu14  1  0.60245400  0.62812400  0.33778900  1
  Cu  Cu15  1  0.97433000  0.37187600  0.66221100  1
  Cu  Cu16  1  0.62812400  0.60245400  0.66221100  1
  Cu  Cu17  1  0.37187600  0.97433000  0.33778900  1
