# generated using pymatgen
data_Cu4(NiC)9
_symmetry_space_group_name_H-M   'P 1'
_cell_length_a   12.60143900
_cell_length_b   12.60143900
_cell_length_c   8.40530200
_cell_angle_alpha   90.00000000
_cell_angle_beta   90.00000000
_cell_angle_gamma   90.00000000
_symmetry_Int_Tables_number   1
_chemical_formula_structural   Cu4(NiC)9
_chemical_formula_sum   'Cu8 Ni18 C18'
_cell_volume   1334.73056271
_cell_formula_units_Z   2
loop_
 _symmetry_equiv_pos_site_id
 _symmetry_equiv_pos_as_xyz
  1  'x, y, z'
loop_
 _atom_site_type_symbol
 _atom_site_label
 _atom_site_symmetry_multiplicity
 _atom_site_fract_x
 _atom_site_fract_y
 _atom_site_fract_z
 _atom_site_occupancy
  C  C0  1  0.50000000  0.00000000  0.66819800  1
  C  C1  1  0.00000000  0.50000000  0.33180200  1
  C  C2  1  0.73156700  0.58370600  0.82272900  1
  C  C3  1  0.36287500  0.44480600  0.35430100  1
  C  C4  1  0.76843300  0.91629400  0.17727100  1
  C  C5  1  0.44480600  0.63712500  0.64569900  1
  C  C6  1  0.55519400  0.36287500  0.64569900  1
  C  C7  1  0.13712500  0.05519400  0.64569900  1
  C  C8  1  0.23156700  0.08370600  0.17727100  1
  C  C9  1  0.91629400  0.23156700  0.82272900  1
  C  C10  1  0.05519400  0.86287500  0.35430100  1
  C  C11  1  0.41629400  0.73156700  0.17727100  1
  C  C12  1  0.26843300  0.41629400  0.82272900  1
  C  C13  1  0.94480600  0.13712500  0.35430100  1
  C  C14  1  0.63712500  0.55519400  0.35430100  1
  C  C15  1  0.58370600  0.26843300  0.17727100  1
  C  C16  1  0.86287500  0.94480600  0.64569900  1
  C  C17  1  0.08370600  0.76843300  0.82272900  1
  Ni  Ni18  1  0.71182500  0.11754500  0.88562000  1
  Ni  Ni19  1  0.78817500  0.38245500  0.11438000  1
  Ni  Ni20  1  0.88245500  0.71182500  0.11438000  1
  Ni  Ni21  1  0.88024200  0.68198400  0.59854600  1
  Ni  Ni22  1  0.61975800  0.81801600  0.40145400  1
  Ni  Ni23  1  0.31801600  0.88024200  0.40145400  1
  Ni  Ni24  1  0.21182500  0.61754500  0.11438000  1
  Ni  Ni25  1  0.11754500  0.28817500  0.11438000  1
  Ni  Ni26  1  0.11975800  0.31801600  0.59854600  1
  Ni  Ni27  1  0.00000000  0.00000000  0.00000000  1
  Ni  Ni28  1  0.38245500  0.21182500  0.88562000  1
  Ni  Ni29  1  0.38024200  0.18198400  0.40145400  1
  Ni  Ni30  1  0.61754500  0.78817500  0.88562000  1
  Ni  Ni31  1  0.18198400  0.61975800  0.59854600  1
  Ni  Ni32  1  0.68198400  0.11975800  0.40145400  1
  Ni  Ni33  1  0.28817500  0.88245500  0.88562000  1
  Ni  Ni34  1  0.81801600  0.38024200  0.59854600  1
  Ni  Ni35  1  0.50000000  0.50000000  0.00000000  1
  Cu  Cu36  1  0.39176500  0.45428500  0.62824600  1
  Cu  Cu37  1  0.54571500  0.39176500  0.37175400  1
  Cu  Cu38  1  0.89176500  0.95428500  0.37175400  1
  Cu  Cu39  1  0.04571500  0.89176500  0.62824600  1
  Cu  Cu40  1  0.95428500  0.10823500  0.62824600  1
  Cu  Cu41  1  0.45428500  0.60823500  0.37175400  1
  Cu  Cu42  1  0.60823500  0.54571500  0.62824600  1
  Cu  Cu43  1  0.10823500  0.04571500  0.37175400  1
