# generated using pymatgen
data_Cu3Ni5C3
_symmetry_space_group_name_H-M   'P 1'
_cell_length_a   5.87387900
_cell_length_b   8.07695800
_cell_length_c   11.49151732
_cell_angle_alpha   45.83979441
_cell_angle_beta   90.00000000
_cell_angle_gamma   90.00000000
_symmetry_Int_Tables_number   1
_chemical_formula_structural   Cu3Ni5C3
_chemical_formula_sum   'Cu12 Ni20 C12'
_cell_volume   391.11847207
_cell_formula_units_Z   4
loop_
 _symmetry_equiv_pos_site_id
 _symmetry_equiv_pos_as_xyz
  1  'x, y, z'
loop_
 _atom_site_type_symbol
 _atom_site_label
 _atom_site_symmetry_multiplicity
 _atom_site_fract_x
 _atom_site_fract_y
 _atom_site_fract_z
 _atom_site_occupancy
  Ni  Ni0  1  0.40682000  0.67118500  0.80602100  1
  Ni  Ni1  1  0.53777700  0.29325100  0.65412700  1
  Ni  Ni2  1  0.97469200  0.06795000  0.75595900  1
  Ni  Ni3  1  0.79829000  0.07088800  0.86937500  1
  Ni  Ni4  1  0.29489000  0.72374700  0.45355300  1
  Ni  Ni5  1  0.96222300  0.29325100  0.15412700  1
  Ni  Ni6  1  0.79489000  0.27625300  0.04644700  1
  Ni  Ni7  1  0.70511000  0.27625300  0.54644700  1
  Ni  Ni8  1  0.46222300  0.70674900  0.34587300  1
  Ni  Ni9  1  0.09318000  0.67118500  0.30602100  1
  Ni  Ni10  1  0.20171000  0.92911200  0.13062500  1
  Ni  Ni11  1  0.47469200  0.93205000  0.74404100  1
  Ni  Ni12  1  0.90682000  0.32881500  0.69397900  1
  Ni  Ni13  1  0.03777700  0.70674900  0.84587300  1
  Ni  Ni14  1  0.70171000  0.07088800  0.36937500  1
  Ni  Ni15  1  0.20511000  0.72374700  0.95355300  1
  Ni  Ni16  1  0.02530800  0.93205000  0.24404100  1
  Ni  Ni17  1  0.29829000  0.92911200  0.63062500  1
  Ni  Ni18  1  0.59318000  0.32881500  0.19397900  1
  Ni  Ni19  1  0.52530800  0.06795000  0.25595900  1
  Cu  Cu20  1  0.65120800  0.18835200  0.66202900  1
  Cu  Cu21  1  0.83996800  0.69421400  0.63418600  1
  Cu  Cu22  1  0.15361200  0.83307500  0.25159600  1
  Cu  Cu23  1  0.66003200  0.69421400  0.13418600  1
  Cu  Cu24  1  0.15120800  0.81164800  0.83797100  1
  Cu  Cu25  1  0.65361200  0.16692500  0.24840400  1
  Cu  Cu26  1  0.84638800  0.16692500  0.74840400  1
  Cu  Cu27  1  0.34638800  0.83307500  0.75159600  1
  Cu  Cu28  1  0.84879200  0.18835200  0.16202900  1
  Cu  Cu29  1  0.34879200  0.81164800  0.33797100  1
  Cu  Cu30  1  0.33996800  0.30578600  0.86581400  1
  Cu  Cu31  1  0.16003200  0.30578600  0.36581400  1
  C  C32  1  0.39284200  0.46042600  0.71732800  1
  C  C33  1  0.60715800  0.53957400  0.28267200  1
  C  C34  1  0.73698700  0.88683400  0.07546700  1
  C  C35  1  0.89284200  0.53957400  0.78267200  1
  C  C36  1  0.13558800  0.34189000  0.45651000  1
  C  C37  1  0.23698700  0.11316600  0.42453300  1
  C  C38  1  0.36441200  0.34189000  0.95651000  1
  C  C39  1  0.10715800  0.46042600  0.21732800  1
  C  C40  1  0.76301300  0.88683400  0.57546700  1
  C  C41  1  0.63558800  0.65811000  0.04349000  1
  C  C42  1  0.86441200  0.65811000  0.54349000  1
  C  C43  1  0.26301300  0.11316600  0.92453300  1
