# generated using pymatgen
data_Cu(Ni4C)2
_symmetry_space_group_name_H-M   'P 1'
_cell_length_a   8.39701400
_cell_length_b   9.10644600
_cell_length_c   17.11422600
_cell_angle_alpha   90.00000000
_cell_angle_beta   90.00000000
_cell_angle_gamma   90.00000000
_symmetry_Int_Tables_number   1
_chemical_formula_structural   Cu(Ni4C)2
_chemical_formula_sum   'Cu4 Ni32 C8'
_cell_volume   1308.67274174
_cell_formula_units_Z   4
loop_
 _symmetry_equiv_pos_site_id
 _symmetry_equiv_pos_as_xyz
  1  'x, y, z'
loop_
 _atom_site_type_symbol
 _atom_site_label
 _atom_site_symmetry_multiplicity
 _atom_site_fract_x
 _atom_site_fract_y
 _atom_site_fract_z
 _atom_site_occupancy
  C  C0  1  0.25000000  0.92309700  0.14803900  1
  C  C1  1  0.75000000  0.07690300  0.85196100  1
  C  C2  1  0.75000000  0.42309700  0.35196100  1
  C  C3  1  0.25000000  0.57690300  0.64803900  1
  C  C4  1  0.75000000  0.78245200  0.42289600  1
  C  C5  1  0.25000000  0.28245200  0.07710400  1
  C  C6  1  0.75000000  0.71754800  0.92289600  1
  C  C7  1  0.25000000  0.21754800  0.57710400  1
  Ni  Ni8  1  0.06093300  0.13267900  0.62961700  1
  Ni  Ni9  1  0.56093300  0.86732100  0.37038300  1
  Ni  Ni10  1  0.75000000  0.21149300  0.96715800  1
  Ni  Ni11  1  0.47831400  0.44515000  0.35908600  1
  Ni  Ni12  1  0.52168600  0.55485000  0.64091400  1
  Ni  Ni13  1  0.43906700  0.13267900  0.62961700  1
  Ni  Ni14  1  0.56093300  0.63267900  0.87038300  1
  Ni  Ni15  1  0.93906700  0.86732100  0.37038300  1
  Ni  Ni16  1  0.52168600  0.94515000  0.14091400  1
  Ni  Ni17  1  0.25000000  0.14037200  0.46892100  1
  Ni  Ni18  1  0.75000000  0.21924600  0.27766700  1
  Ni  Ni19  1  0.75000000  0.57468900  0.24113000  1
  Ni  Ni20  1  0.02168600  0.44515000  0.35908600  1
  Ni  Ni21  1  0.02168600  0.05485000  0.85908600  1
  Ni  Ni22  1  0.97831400  0.55485000  0.64091400  1
  Ni  Ni23  1  0.75000000  0.85962800  0.53107900  1
  Ni  Ni24  1  0.43906700  0.36732100  0.12961700  1
  Ni  Ni25  1  0.06093300  0.36732100  0.12961700  1
  Ni  Ni26  1  0.75000000  0.28850700  0.46715800  1
  Ni  Ni27  1  0.93906700  0.63267900  0.87038300  1
  Ni  Ni28  1  0.25000000  0.78850700  0.03284200  1
  Ni  Ni29  1  0.25000000  0.35962800  0.96892100  1
  Ni  Ni30  1  0.25000000  0.71924600  0.22233300  1
  Ni  Ni31  1  0.75000000  0.92531100  0.74113000  1
  Ni  Ni32  1  0.97831400  0.94515000  0.14091400  1
  Ni  Ni33  1  0.75000000  0.64037200  0.03107900  1
  Ni  Ni34  1  0.25000000  0.78075400  0.72233300  1
  Ni  Ni35  1  0.25000000  0.42531100  0.75887000  1
  Ni  Ni36  1  0.47831400  0.05485000  0.85908600  1
  Ni  Ni37  1  0.25000000  0.07468900  0.25887000  1
  Ni  Ni38  1  0.25000000  0.71149300  0.53284200  1
  Ni  Ni39  1  0.75000000  0.28075400  0.77766700  1
  Cu  Cu40  1  0.25000000  0.11815600  0.07512700  1
  Cu  Cu41  1  0.75000000  0.88184400  0.92487300  1
  Cu  Cu42  1  0.25000000  0.38184400  0.57512700  1
  Cu  Cu43  1  0.75000000  0.61815600  0.42487300  1
