# generated using pymatgen
data_CuNiC14
_symmetry_space_group_name_H-M   'P 1'
_cell_length_a   8.96855300
_cell_length_b   8.96855300
_cell_length_c   12.88854700
_cell_angle_alpha   90.00000000
_cell_angle_beta   90.00000000
_cell_angle_gamma   90.00000000
_symmetry_Int_Tables_number   1
_chemical_formula_structural   CuNiC14
_chemical_formula_sum   'Cu4 Ni4 C56'
_cell_volume   1036.68954219
_cell_formula_units_Z   4
loop_
 _symmetry_equiv_pos_site_id
 _symmetry_equiv_pos_as_xyz
  1  'x, y, z'
loop_
 _atom_site_type_symbol
 _atom_site_label
 _atom_site_symmetry_multiplicity
 _atom_site_fract_x
 _atom_site_fract_y
 _atom_site_fract_z
 _atom_site_occupancy
  Ni  Ni0  1  0.50000000  0.00000000  0.75000000  1
  Ni  Ni1  1  0.50000000  0.00000000  0.25000000  1
  Ni  Ni2  1  0.00000000  0.50000000  0.75000000  1
  Ni  Ni3  1  0.00000000  0.50000000  0.25000000  1
  Cu  Cu4  1  0.50000000  0.00000000  0.00000000  1
  Cu  Cu5  1  0.50000000  0.00000000  0.50000000  1
  Cu  Cu6  1  0.00000000  0.50000000  0.50000000  1
  Cu  Cu7  1  0.00000000  0.50000000  0.00000000  1
  C  C8  1  0.28424100  0.67971500  0.36673900  1
  C  C9  1  0.82028500  0.78424100  0.86673900  1
  C  C10  1  0.71575900  0.67971500  0.13326100  1
  C  C11  1  0.71575900  0.32028500  0.36673900  1
  C  C12  1  0.17971500  0.21575900  0.86673900  1
  C  C13  1  0.82028500  0.21575900  0.63326100  1
  C  C14  1  0.17971500  0.78424100  0.63326100  1
  C  C15  1  0.28424100  0.32028500  0.13326100  1
  C  C16  1  0.21575900  0.17971500  0.36673900  1
  C  C17  1  0.32028500  0.71575900  0.86673900  1
  C  C18  1  0.67971500  0.28424100  0.86673900  1
  C  C19  1  0.21575900  0.82028500  0.13326100  1
  C  C20  1  0.78424100  0.17971500  0.13326100  1
  C  C21  1  0.78424100  0.82028500  0.36673900  1
  C  C22  1  0.67971500  0.71575900  0.63326100  1
  C  C23  1  0.32028500  0.28424100  0.63326100  1
  C  C24  1  0.29396400  0.79396400  0.50000000  1
  C  C25  1  0.70603600  0.79396400  0.00000000  1
  C  C26  1  0.29396400  0.20603600  0.00000000  1
  C  C27  1  0.70603600  0.20603600  0.50000000  1
  C  C28  1  0.20603600  0.70603600  0.00000000  1
  C  C29  1  0.79396400  0.70603600  0.50000000  1
  C  C30  1  0.20603600  0.29396400  0.50000000  1
  C  C31  1  0.79396400  0.29396400  0.00000000  1
  C  C32  1  0.12848400  0.26675900  0.70085700  1
  C  C33  1  0.87151600  0.73324100  0.70085700  1
  C  C34  1  0.76675900  0.62848400  0.29914300  1
  C  C35  1  0.76675900  0.37151600  0.20085700  1
  C  C36  1  0.23324100  0.62848400  0.20085700  1
  C  C37  1  0.87151600  0.26675900  0.79914300  1
  C  C38  1  0.12848400  0.73324100  0.79914300  1
  C  C39  1  0.86694400  0.42324400  0.61364000  1
  C  C40  1  0.37151600  0.23324100  0.79914300  1
  C  C41  1  0.62848400  0.76675900  0.79914300  1
  C  C42  1  0.73324100  0.87151600  0.20085700  1
  C  C43  1  0.73324100  0.12848400  0.29914300  1
  C  C44  1  0.26675900  0.87151600  0.29914300  1
  C  C45  1  0.62848400  0.23324100  0.70085700  1
  C  C46  1  0.37151600  0.76675900  0.70085700  1
  C  C47  1  0.26675900  0.12848400  0.20085700  1
  C  C48  1  0.42324400  0.86694400  0.11364000  1
  C  C49  1  0.63305600  0.92324400  0.61364000  1
  C  C50  1  0.36694400  0.07675600  0.61364000  1
  C  C51  1  0.42324400  0.13305600  0.38636000  1
  C  C52  1  0.57675600  0.86694400  0.38636000  1
  C  C53  1  0.57675600  0.13305600  0.11364000  1
  C  C54  1  0.36694400  0.92324400  0.88636000  1
  C  C55  1  0.63305600  0.07675600  0.88636000  1
  C  C56  1  0.07675600  0.63305600  0.38636000  1
  C  C57  1  0.86694400  0.57675600  0.88636000  1
  C  C58  1  0.13305600  0.42324400  0.88636000  1
  C  C59  1  0.07675600  0.36694400  0.11364000  1
  C  C60  1  0.92324400  0.63305600  0.11364000  1
  C  C61  1  0.92324400  0.36694400  0.38636000  1
  C  C62  1  0.13305600  0.57675600  0.61364000  1
  C  C63  1  0.23324100  0.37151600  0.29914300  1
