# generated using pymatgen
data_Cu8NiC5
_symmetry_space_group_name_H-M   'P 1'
_cell_length_a   3.90706400
_cell_length_b   3.90706400
_cell_length_c   14.31735500
_cell_angle_alpha   90.00000000
_cell_angle_beta   90.00000000
_cell_angle_gamma   90.00000000
_symmetry_Int_Tables_number   1
_chemical_formula_structural   Cu8NiC5
_chemical_formula_sum   'Cu8 Ni1 C5'
_cell_volume   218.55655879
_cell_formula_units_Z   1
loop_
 _symmetry_equiv_pos_site_id
 _symmetry_equiv_pos_as_xyz
  1  'x, y, z'
loop_
 _atom_site_type_symbol
 _atom_site_label
 _atom_site_symmetry_multiplicity
 _atom_site_fract_x
 _atom_site_fract_y
 _atom_site_fract_z
 _atom_site_occupancy
  C  C0  1  0.00000000  0.00000000  0.00000000  1
  C  C1  1  0.50000000  0.50000000  0.18318100  1
  C  C2  1  0.50000000  0.50000000  0.81681900  1
  C  C3  1  0.00000000  0.00000000  0.63996100  1
  C  C4  1  0.00000000  0.00000000  0.36003900  1
  Ni  Ni5  1  0.50000000  0.50000000  0.50000000  1
  Cu  Cu6  1  0.00000000  0.00000000  0.14141200  1
  Cu  Cu7  1  0.00000000  0.50000000  0.28365000  1
  Cu  Cu8  1  0.50000000  0.00000000  0.00000000  1
  Cu  Cu9  1  0.00000000  0.50000000  0.00000000  1
  Cu  Cu10  1  0.50000000  0.00000000  0.28365000  1
  Cu  Cu11  1  0.00000000  0.50000000  0.71635000  1
  Cu  Cu12  1  0.50000000  0.00000000  0.71635000  1
  Cu  Cu13  1  0.00000000  0.00000000  0.85858800  1
