# generated using pymatgen
data_CuNiC9
_symmetry_space_group_name_H-M   'P 1'
_cell_length_a   10.84857000
_cell_length_b   7.76972900
_cell_length_c   8.70166928
_cell_angle_alpha   74.50388086
_cell_angle_beta   90.00000000
_cell_angle_gamma   90.00000000
_symmetry_Int_Tables_number   1
_chemical_formula_structural   CuNiC9
_chemical_formula_sum   'Cu4 Ni4 C36'
_cell_volume   706.80500029
_cell_formula_units_Z   4
loop_
 _symmetry_equiv_pos_site_id
 _symmetry_equiv_pos_as_xyz
  1  'x, y, z'
loop_
 _atom_site_type_symbol
 _atom_site_label
 _atom_site_symmetry_multiplicity
 _atom_site_fract_x
 _atom_site_fract_y
 _atom_site_fract_z
 _atom_site_occupancy
  Ni  Ni0  1  0.68202100  0.18974700  0.94094700  1
  Ni  Ni1  1  0.81797900  0.18974700  0.44094700  1
  Ni  Ni2  1  0.18202100  0.81025300  0.55905300  1
  Ni  Ni3  1  0.31797900  0.81025300  0.05905300  1
  Cu  Cu4  1  0.09915100  0.23589900  0.74634800  1
  Cu  Cu5  1  0.90084900  0.76410100  0.25365200  1
  Cu  Cu6  1  0.59915100  0.76410100  0.75365200  1
  Cu  Cu7  1  0.40084900  0.23589900  0.24634800  1
  C  C8  1  0.86403100  0.56360400  0.68602500  1
  C  C9  1  0.09882200  0.13027500  0.17976700  1
  C  C10  1  0.13596900  0.43639600  0.31397500  1
  C  C11  1  0.63596900  0.56360400  0.18602500  1
  C  C12  1  0.40117800  0.13027500  0.67976700  1
  C  C13  1  0.36403100  0.43639600  0.81397500  1
  C  C14  1  0.90117800  0.86972500  0.82023300  1
  C  C15  1  0.59882200  0.86972500  0.32023300  1
  C  C16  1  0.49882700  0.00354900  0.77678400  1
  C  C17  1  0.77121600  0.92168100  0.75297400  1
  C  C18  1  0.09049300  0.14817000  0.00239100  1
  C  C19  1  0.57619400  0.37866300  0.23294100  1
  C  C20  1  0.92380600  0.37866300  0.73294100  1
  C  C21  1  0.43407100  0.32671900  0.70276700  1
  C  C22  1  0.77260600  0.55160700  0.23218300  1
  C  C23  1  0.93407100  0.67328100  0.79723300  1
  C  C24  1  0.72878400  0.92168100  0.25297400  1
  C  C25  1  0.90950700  0.85183000  0.99760900  1
  C  C26  1  0.11060800  0.33337400  0.48641100  1
  C  C27  1  0.99882700  0.99645100  0.72321600  1
  C  C28  1  0.00117300  0.00354900  0.27678400  1
  C  C29  1  0.56592900  0.67328100  0.29723300  1
  C  C30  1  0.88939200  0.66662600  0.51358900  1
  C  C31  1  0.50117300  0.99645100  0.22321600  1
  C  C32  1  0.72739400  0.55160700  0.73218300  1
  C  C33  1  0.27260600  0.44839300  0.26781700  1
  C  C34  1  0.22739400  0.44839300  0.76781700  1
  C  C35  1  0.61060800  0.66662600  0.01358900  1
  C  C36  1  0.07619400  0.62133700  0.26705900  1
  C  C37  1  0.22878400  0.07831900  0.24702600  1
  C  C38  1  0.06592900  0.32671900  0.20276700  1
  C  C39  1  0.40950700  0.14817000  0.50239100  1
  C  C40  1  0.38939200  0.33337400  0.98641100  1
  C  C41  1  0.42380600  0.62133700  0.76705900  1
  C  C42  1  0.27121600  0.07831900  0.74702600  1
  C  C43  1  0.59049300  0.85183000  0.49760900  1
