# generated using pymatgen
data_CuNiC8
_symmetry_space_group_name_H-M   'P 1'
_cell_length_a   5.33725900
_cell_length_b   7.90216100
_cell_length_c   12.11472300
_cell_angle_alpha   90.00000000
_cell_angle_beta   90.00000000
_cell_angle_gamma   90.00000000
_symmetry_Int_Tables_number   1
_chemical_formula_structural   CuNiC8
_chemical_formula_sum   'Cu4 Ni4 C32'
_cell_volume   510.94910247
_cell_formula_units_Z   4
loop_
 _symmetry_equiv_pos_site_id
 _symmetry_equiv_pos_as_xyz
  1  'x, y, z'
loop_
 _atom_site_type_symbol
 _atom_site_label
 _atom_site_symmetry_multiplicity
 _atom_site_fract_x
 _atom_site_fract_y
 _atom_site_fract_z
 _atom_site_occupancy
  C  C0  1  0.75000000  0.80580800  0.59975000  1
  C  C1  1  0.75000000  0.30160300  0.09534300  1
  C  C2  1  0.75000000  0.19839700  0.59534300  1
  C  C3  1  0.25000000  0.30580800  0.90025000  1
  C  C4  1  0.25000000  0.80160300  0.40465700  1
  C  C5  1  0.25000000  0.69839700  0.90465700  1
  C  C6  1  0.25000000  0.19419200  0.40025000  1
  C  C7  1  0.75000000  0.69419200  0.09975000  1
  Ni  Ni8  1  0.25000000  0.49349300  0.59600100  1
  Ni  Ni9  1  0.25000000  0.00650700  0.09600100  1
  Ni  Ni10  1  0.75000000  0.50650700  0.40399900  1
  Ni  Ni11  1  0.75000000  0.99349300  0.90399900  1
  Cu  Cu12  1  0.75000000  0.50954800  0.80147500  1
  Cu  Cu13  1  0.25000000  0.00954800  0.69852500  1
  Cu  Cu14  1  0.25000000  0.49045200  0.19852500  1
  Cu  Cu15  1  0.75000000  0.99045200  0.30147500  1
  C  C16  1  0.49931300  0.32707000  0.49671900  1
  C  C17  1  0.50068700  0.67293000  0.50328100  1
  C  C18  1  0.00068700  0.32707000  0.49671900  1
  C  C19  1  0.00754600  0.00198800  0.62506900  1
  C  C20  1  0.99245400  0.50198800  0.87493100  1
  C  C21  1  0.25000000  0.85845200  0.77825800  1
  C  C22  1  0.75000000  0.81980300  0.24025000  1
  C  C23  1  0.75000000  0.14154800  0.22174200  1
  C  C24  1  0.25000000  0.31980300  0.25975000  1
  C  C25  1  0.25000000  0.64154800  0.27825800  1
  C  C26  1  0.49245400  0.49801200  0.12506900  1
  C  C27  1  0.99931300  0.82707000  0.00328100  1
  C  C28  1  0.99931300  0.67293000  0.50328100  1
  C  C29  1  0.00754600  0.49801200  0.12506900  1
  C  C30  1  0.00068700  0.17293000  0.99671900  1
  C  C31  1  0.50754600  0.99801200  0.37493100  1
  C  C32  1  0.25000000  0.18019700  0.75975000  1
  C  C33  1  0.75000000  0.68019700  0.74025000  1
  C  C34  1  0.49931300  0.17293000  0.99671900  1
  C  C35  1  0.49245400  0.00198800  0.62506900  1
  C  C36  1  0.99245400  0.99801200  0.37493100  1
  C  C37  1  0.75000000  0.35845200  0.72174200  1
  C  C38  1  0.50754600  0.50198800  0.87493100  1
  C  C39  1  0.50068700  0.82707000  0.00328100  1
