# generated using pymatgen
data_Cu23Ni5C16
_symmetry_space_group_name_H-M   'P 1'
_cell_length_a   13.62145300
_cell_length_b   13.49807200
_cell_length_c   13.49946427
_cell_angle_alpha   89.96676713
_cell_angle_beta   90.00000000
_cell_angle_gamma   90.00000000
_symmetry_Int_Tables_number   1
_chemical_formula_structural   Cu23Ni5C16
_chemical_formula_sum   'Cu46 Ni10 C32'
_cell_volume   2482.05635159
_cell_formula_units_Z   2
loop_
 _symmetry_equiv_pos_site_id
 _symmetry_equiv_pos_as_xyz
  1  'x, y, z'
loop_
 _atom_site_type_symbol
 _atom_site_label
 _atom_site_symmetry_multiplicity
 _atom_site_fract_x
 _atom_site_fract_y
 _atom_site_fract_z
 _atom_site_occupancy
  C  C0  1  0.03400100  0.71573900  0.28278200  1
  C  C1  1  0.96599900  0.71573900  0.78278200  1
  C  C2  1  0.53027800  0.77616200  0.28427700  1
  C  C3  1  0.46972200  0.77616200  0.78427700  1
  C  C4  1  0.59900500  0.05107600  0.43657400  1
  C  C5  1  0.40099500  0.05107600  0.93657400  1
  C  C6  1  0.29375700  0.06664100  0.15203500  1
  C  C7  1  0.70624300  0.06664100  0.65203500  1
  C  C8  1  0.81542200  0.15459200  0.45336300  1
  C  C9  1  0.18457800  0.15459200  0.95336300  1
  C  C10  1  0.31329700  0.34534100  0.45374400  1
  C  C11  1  0.68670300  0.34534100  0.95374400  1
  C  C12  1  0.79605200  0.43319200  0.15269200  1
  C  C13  1  0.20394800  0.43319200  0.65269200  1
  C  C14  1  0.09810600  0.45061900  0.43699100  1
  C  C15  1  0.90189400  0.45061900  0.93699100  1
  C  C16  1  0.59992200  0.54176000  0.06447700  1
  C  C17  1  0.40007800  0.54176000  0.56447700  1
  C  C18  1  0.29496400  0.56054700  0.34800100  1
  C  C19  1  0.70503600  0.56054700  0.84800100  1
  C  C20  1  0.81313200  0.64977400  0.04538800  1
  C  C21  1  0.18686800  0.64977400  0.54538800  1
  C  C22  1  0.68804200  0.85017800  0.54419100  1
  C  C23  1  0.31195800  0.85017800  0.04419100  1
  C  C24  1  0.19923800  0.93801900  0.84786800  1
  C  C25  1  0.80076200  0.93801900  0.34786800  1
  C  C26  1  0.09841800  0.95719200  0.06468700  1
  C  C27  1  0.90158200  0.95719200  0.56468700  1
  C  C28  1  0.24933000  0.00309500  0.99906400  1
  C  C29  1  0.75067000  0.00309500  0.49906400  1
  C  C30  1  0.24918400  0.49665400  0.50032600  1
  C  C31  1  0.75081600  0.49665400  0.00032600  1
  Ni  Ni32  1  0.38308400  0.13175000  0.36943200  1
  Ni  Ni33  1  0.61691600  0.13175000  0.86943200  1
  Ni  Ni34  1  0.88350000  0.36866300  0.36859300  1
  Ni  Ni35  1  0.11650000  0.36866300  0.86859300  1
  Ni  Ni36  1  0.61474300  0.63543300  0.63490400  1
  Ni  Ni37  1  0.38525700  0.63543300  0.13490400  1
  Ni  Ni38  1  0.11156800  0.86289900  0.63664100  1
  Ni  Ni39  1  0.88843200  0.86289900  0.13664100  1
  Ni  Ni40  1  0.62814200  0.98310800  0.23218400  1
  Ni  Ni41  1  0.37185800  0.98310800  0.73218400  1
  Cu  Cu42  1  0.13356900  0.01988000  0.23885900  1
  Cu  Cu43  1  0.86643100  0.01988000  0.73885900  1
  Cu  Cu44  1  0.87529100  0.09766100  0.28387100  1
  Cu  Cu45  1  0.12470900  0.09766100  0.78387100  1
  Cu  Cu46  1  0.01221900  0.11781600  0.02127900  1
  Cu  Cu47  1  0.98778100  0.11781600  0.52127900  1
  Cu  Cu48  1  0.46162800  0.12626000  0.09656400  1
  Cu  Cu49  1  0.53837200  0.12626000  0.59656400  1
  Cu  Cu50  1  0.65543600  0.21986600  0.37912700  1
  Cu  Cu51  1  0.34456400  0.21986600  0.87912700  1
  Cu  Cu52  1  0.22690000  0.23908000  0.11734600  1
  Cu  Cu53  1  0.77310000  0.23908000  0.61734600  1
  Cu  Cu54  1  0.72976700  0.26058400  0.11757300  1
  Cu  Cu55  1  0.27023300  0.26058400  0.61757300  1
  Cu  Cu56  1  0.15327800  0.28227900  0.37784600  1
  Cu  Cu57  1  0.84672200  0.28227900  0.87784600  1
  Cu  Cu58  1  0.96666700  0.37994300  0.09818400  1
  Cu  Cu59  1  0.03333300  0.37994300  0.59818400  1
  Cu  Cu60  1  0.51357500  0.38175200  0.01996700  1
  Cu  Cu61  1  0.48642500  0.38175200  0.51996700  1
  Cu  Cu62  1  0.36939000  0.40225700  0.28242700  1
  Cu  Cu63  1  0.63061000  0.40225700  0.78242700  1
  Cu  Cu64  1  0.63482700  0.47984100  0.23906000  1
  Cu  Cu65  1  0.36517300  0.47984100  0.73906000  1
  Cu  Cu66  1  0.13079200  0.52301700  0.26120800  1
  Cu  Cu67  1  0.86920800  0.52301700  0.76120800  1
  Cu  Cu68  1  0.87005000  0.59756600  0.21796400  1
  Cu  Cu69  1  0.12995000  0.59756600  0.71796400  1
  Cu  Cu70  1  0.98743100  0.61802900  0.97713000  1
  Cu  Cu71  1  0.01256900  0.61802900  0.47713000  1
  Cu  Cu72  1  0.46593200  0.61943800  0.40281700  1
  Cu  Cu73  1  0.53406800  0.61943800  0.90281700  1
  Cu  Cu74  1  0.65250100  0.71703000  0.11828300  1
  Cu  Cu75  1  0.34749900  0.71703000  0.61828300  1
  Cu  Cu76  1  0.22784100  0.73799600  0.38124200  1
  Cu  Cu77  1  0.77215900  0.73799600  0.88124200  1
  Cu  Cu78  1  0.73012100  0.76141300  0.38114000  1
  Cu  Cu79  1  0.26987900  0.76141300  0.88114000  1
  Cu  Cu80  1  0.15218800  0.78167100  0.11843900  1
  Cu  Cu81  1  0.84781200  0.78167100  0.61843900  1
  Cu  Cu82  1  0.03017400  0.87882600  0.90435000  1
  Cu  Cu83  1  0.96982600  0.87882600  0.40435000  1
  Cu  Cu84  1  0.48642400  0.88328100  0.97716800  1
  Cu  Cu85  1  0.51357600  0.88328100  0.47716800  1
  Cu  Cu86  1  0.36677700  0.90198200  0.21744200  1
  Cu  Cu87  1  0.63322300  0.90198200  0.71744200  1
