# generated using pymatgen
data_Cu5Ni3C20
_symmetry_space_group_name_H-M   'P 1'
_cell_length_a   14.02768233
_cell_length_b   14.02768233
_cell_length_c   12.72945883
_cell_angle_alpha   86.08360448
_cell_angle_beta   86.08360448
_cell_angle_gamma   21.38116771
_symmetry_Int_Tables_number   1
_chemical_formula_structural   Cu5Ni3C20
_chemical_formula_sum   'Cu10 Ni6 C40'
_cell_volume   910.98653967
_cell_formula_units_Z   2
loop_
 _symmetry_equiv_pos_site_id
 _symmetry_equiv_pos_as_xyz
  1  'x, y, z'
loop_
 _atom_site_type_symbol
 _atom_site_label
 _atom_site_symmetry_multiplicity
 _atom_site_fract_x
 _atom_site_fract_y
 _atom_site_fract_z
 _atom_site_occupancy
  C  C0  1  0.68313100  0.57414400  0.66057200  1
  C  C1  1  0.31686900  0.42585600  0.33942800  1
  C  C2  1  0.42585600  0.31686900  0.83942800  1
  C  C3  1  0.57414400  0.68313100  0.16057200  1
  Ni  Ni4  1  0.73214800  0.86902300  0.11397400  1
  Ni  Ni5  1  0.26785200  0.13097700  0.88602600  1
  Ni  Ni6  1  0.86902300  0.73214800  0.61397400  1
  Ni  Ni7  1  0.50000000  0.50000000  0.50000000  1
  Ni  Ni8  1  0.13097700  0.26785200  0.38602600  1
  Ni  Ni9  1  0.50000000  0.50000000  0.00000000  1
  Cu  Cu10  1  0.92856900  0.93285300  0.58442500  1
  Cu  Cu11  1  0.16211700  0.29661900  0.12677500  1
  Cu  Cu12  1  0.74667700  0.25332300  0.25000000  1
  Cu  Cu13  1  0.83788300  0.70338100  0.87322500  1
  Cu  Cu14  1  0.70338100  0.83788300  0.37322500  1
  Cu  Cu15  1  0.07143100  0.06714700  0.41557500  1
  Cu  Cu16  1  0.25332300  0.74667700  0.75000000  1
  Cu  Cu17  1  0.29661900  0.16211700  0.62677500  1
  Cu  Cu18  1  0.06714700  0.07143100  0.91557500  1
  Cu  Cu19  1  0.93285300  0.92856900  0.08442500  1
  C  C20  1  0.77107700  0.14824400  0.99101900  1
  C  C21  1  0.21152600  0.36036900  0.62022300  1
  C  C22  1  0.95655800  0.78808400  0.61136900  1
  C  C23  1  0.78847400  0.63963100  0.37977700  1
  C  C24  1  0.21587800  0.16250500  0.03614500  1
  C  C25  1  0.84469800  0.63148600  0.11537200  1
  C  C26  1  0.38305600  0.73872900  0.43747000  1
  C  C27  1  0.26127100  0.61694400  0.06253000  1
  C  C28  1  0.78808400  0.95655800  0.11136900  1
  C  C29  1  0.85175600  0.22892300  0.50898100  1
  C  C30  1  0.79912900  0.81359500  0.76105000  1
  C  C31  1  0.20087100  0.18640500  0.23895000  1
  C  C32  1  0.78412200  0.83749500  0.96385500  1
  C  C33  1  0.39941500  0.55546000  0.85522300  1
  C  C34  1  0.90414900  0.00109600  0.21570400  1
  C  C35  1  0.36851400  0.15530200  0.38462800  1
  C  C36  1  0.15530200  0.36851400  0.88462800  1
  C  C37  1  0.36036900  0.21152600  0.12022300  1
  C  C38  1  0.16250500  0.21587800  0.53614500  1
  C  C39  1  0.04344200  0.21191600  0.38863100  1
  C  C40  1  0.81359500  0.79912900  0.26105000  1
  C  C41  1  0.14824400  0.77107700  0.49101900  1
  C  C42  1  0.00109600  0.90414900  0.71570400  1
  C  C43  1  0.18640500  0.20087100  0.73895000  1
  C  C44  1  0.99890400  0.09585100  0.28429600  1
  C  C45  1  0.61694400  0.26127100  0.56253000  1
  C  C46  1  0.09585100  0.99890400  0.78429600  1
  C  C47  1  0.44454000  0.60058500  0.64477700  1
  C  C48  1  0.63963100  0.78847400  0.87977700  1
  C  C49  1  0.60058500  0.44454000  0.14477700  1
  C  C50  1  0.55546000  0.39941500  0.35522300  1
  C  C51  1  0.63148600  0.84469800  0.61537200  1
  C  C52  1  0.83749500  0.78412200  0.46385500  1
  C  C53  1  0.22892300  0.85175600  0.00898100  1
  C  C54  1  0.73872900  0.38305600  0.93747000  1
  C  C55  1  0.21191600  0.04344200  0.88863100  1
