# generated using pymatgen
data_CuNiC5
_symmetry_space_group_name_H-M   'P 1'
_cell_length_a   8.75989810
_cell_length_b   8.75989810
_cell_length_c   5.80488300
_cell_angle_alpha   90.00000000
_cell_angle_beta   90.00000000
_cell_angle_gamma   122.99812617
_symmetry_Int_Tables_number   1
_chemical_formula_structural   CuNiC5
_chemical_formula_sum   'Cu4 Ni4 C20'
_cell_volume   373.58738640
_cell_formula_units_Z   4
loop_
 _symmetry_equiv_pos_site_id
 _symmetry_equiv_pos_as_xyz
  1  'x, y, z'
loop_
 _atom_site_type_symbol
 _atom_site_label
 _atom_site_symmetry_multiplicity
 _atom_site_fract_x
 _atom_site_fract_y
 _atom_site_fract_z
 _atom_site_occupancy
  C  C0  1  0.76422000  0.95063200  0.00320600  1
  C  C1  1  0.95063200  0.76422000  0.50320600  1
  C  C2  1  0.23578000  0.04936800  0.00320600  1
  C  C3  1  0.04936800  0.23578000  0.50320600  1
  Ni  Ni4  1  0.69628400  0.28528800  0.73677200  1
  Ni  Ni5  1  0.30371600  0.71471200  0.73677200  1
  Ni  Ni6  1  0.28528800  0.69628400  0.23677200  1
  Ni  Ni7  1  0.71471200  0.30371600  0.23677200  1
  Cu  Cu8  1  0.37354300  0.15366600  0.47801000  1
  Cu  Cu9  1  0.84633400  0.62645700  0.97801000  1
  Cu  Cu10  1  0.15366600  0.37354300  0.97801000  1
  Cu  Cu11  1  0.62645700  0.84633400  0.47801000  1
  C  C12  1  0.20896000  0.47687000  0.77687000  1
  C  C13  1  0.26508000  0.79797800  0.98904700  1
  C  C14  1  0.18095600  0.45553400  0.19310000  1
  C  C15  1  0.81904400  0.54446600  0.19310000  1
  C  C16  1  0.45553400  0.18095600  0.69310000  1
  C  C17  1  0.54446600  0.81904400  0.69310000  1
  C  C18  1  0.20202200  0.73492000  0.48904700  1
  C  C19  1  0.81065800  0.92653900  0.45669500  1
  C  C20  1  0.47687000  0.20896000  0.27687000  1
  C  C21  1  0.73492000  0.20202200  0.98904700  1
  C  C22  1  0.18934200  0.07346100  0.45669500  1
  C  C23  1  0.79797800  0.26508000  0.48904700  1
  C  C24  1  0.92653900  0.81065800  0.95669500  1
  C  C25  1  0.79104000  0.52313000  0.77687000  1
  C  C26  1  0.52313000  0.79104000  0.27687000  1
  C  C27  1  0.07346100  0.18934200  0.95669500  1
