# generated using pymatgen
data_Cu(NiC4)2
_symmetry_space_group_name_H-M   'P 1'
_cell_length_a   6.63548400
_cell_length_b   9.17435100
_cell_length_c   11.30548623
_cell_angle_alpha   74.77574711
_cell_angle_beta   90.00000000
_cell_angle_gamma   90.00000000
_symmetry_Int_Tables_number   1
_chemical_formula_structural   Cu(NiC4)2
_chemical_formula_sum   'Cu4 Ni8 C32'
_cell_volume   664.08237141
_cell_formula_units_Z   4
loop_
 _symmetry_equiv_pos_site_id
 _symmetry_equiv_pos_as_xyz
  1  'x, y, z'
loop_
 _atom_site_type_symbol
 _atom_site_label
 _atom_site_symmetry_multiplicity
 _atom_site_fract_x
 _atom_site_fract_y
 _atom_site_fract_z
 _atom_site_occupancy
  Ni  Ni0  1  0.38074300  0.25855000  0.16236200  1
  Ni  Ni1  1  0.27292700  0.33839300  0.56978900  1
  Ni  Ni2  1  0.61925700  0.74145000  0.83763800  1
  Ni  Ni3  1  0.22707300  0.83839300  0.56978900  1
  Ni  Ni4  1  0.11925700  0.75855000  0.16236200  1
  Ni  Ni5  1  0.72707300  0.66160700  0.43021100  1
  Ni  Ni6  1  0.88074300  0.24145000  0.83763800  1
  Ni  Ni7  1  0.77292700  0.16160700  0.43021100  1
  Cu  Cu8  1  0.38380600  0.67469500  0.77309500  1
  Cu  Cu9  1  0.61619400  0.32530500  0.22690500  1
  Cu  Cu10  1  0.11619400  0.17469500  0.77309500  1
  Cu  Cu11  1  0.88380600  0.82530500  0.22690500  1
  C  C12  1  0.06519400  0.04610400  0.73019800  1
  C  C13  1  0.62320600  0.17090800  0.34587900  1
  C  C14  1  0.09428800  0.75067900  0.56901000  1
  C  C15  1  0.93480600  0.95389600  0.26980200  1
  C  C16  1  0.37679400  0.82909200  0.65412100  1
  C  C17  1  0.56519400  0.45389600  0.26980200  1
  C  C18  1  0.71877300  0.82250300  0.14649700  1
  C  C19  1  0.21877300  0.67749700  0.85350300  1
  C  C20  1  0.90571200  0.24932100  0.43099000  1
  C  C21  1  0.12320600  0.32909200  0.65412100  1
  C  C22  1  0.28122700  0.17749700  0.85350300  1
  C  C23  1  0.40571200  0.25067900  0.56901000  1
  C  C24  1  0.87679400  0.67090800  0.34587900  1
  C  C25  1  0.43480600  0.54610400  0.73019800  1
  C  C26  1  0.59428800  0.74932100  0.43099000  1
  C  C27  1  0.78122700  0.32250300  0.14649700  1
  C  C28  1  0.16180100  0.86563700  0.05855900  1
  C  C29  1  0.25495200  0.96892600  0.48448700  1
  C  C30  1  0.74504800  0.03107400  0.51551300  1
  C  C31  1  0.75495200  0.53107400  0.51551300  1
  C  C32  1  0.08516100  0.62616200  0.13671100  1
  C  C33  1  0.83819900  0.13436300  0.94144100  1
  C  C34  1  0.24504800  0.46892600  0.48448700  1
  C  C35  1  0.33819900  0.36563700  0.05855900  1
  C  C36  1  0.22885000  0.24607000  0.24208300  1
  C  C37  1  0.58516100  0.87383800  0.86328900  1
  C  C38  1  0.77115000  0.75393000  0.75791700  1
  C  C39  1  0.91483900  0.37383800  0.86328900  1
  C  C40  1  0.66180100  0.63436300  0.94144100  1
  C  C41  1  0.27115000  0.74607000  0.24208300  1
  C  C42  1  0.72885000  0.25393000  0.75791700  1
  C  C43  1  0.41483900  0.12616200  0.13671100  1
