# generated using pymatgen
data_CuNiC3
_symmetry_space_group_name_H-M   'P 1'
_cell_length_a   9.99973900
_cell_length_b   10.07546600
_cell_length_c   17.71624524
_cell_angle_alpha   69.17588854
_cell_angle_beta   90.00000000
_cell_angle_gamma   90.00000000
_symmetry_Int_Tables_number   1
_chemical_formula_structural   CuNiC3
_chemical_formula_sum   'Cu20 Ni20 C60'
_cell_volume   1668.34803370
_cell_formula_units_Z   20
loop_
 _symmetry_equiv_pos_site_id
 _symmetry_equiv_pos_as_xyz
  1  'x, y, z'
loop_
 _atom_site_type_symbol
 _atom_site_label
 _atom_site_symmetry_multiplicity
 _atom_site_fract_x
 _atom_site_fract_y
 _atom_site_fract_z
 _atom_site_occupancy
  Ni  Ni0  1  0.23510100  0.83264500  0.60120700  1
  Ni  Ni1  1  0.56553800  0.16535600  0.23623800  1
  Ni  Ni2  1  0.18535700  0.61666200  0.17454200  1
  Ni  Ni3  1  0.50691300  0.66614700  0.72078500  1
  Ni  Ni4  1  0.26489900  0.83264500  0.10120700  1
  Ni  Ni5  1  0.81464300  0.38333800  0.82545800  1
  Ni  Ni6  1  0.43446200  0.83464400  0.76376200  1
  Ni  Ni7  1  0.93446200  0.16535600  0.73623800  1
  Ni  Ni8  1  0.31464300  0.61666200  0.67454200  1
  Ni  Ni9  1  0.76071200  0.08557700  0.29669500  1
  Ni  Ni10  1  0.00691300  0.33385300  0.77921500  1
  Ni  Ni11  1  0.23928800  0.91442300  0.70330500  1
  Ni  Ni12  1  0.76489900  0.16735500  0.39879300  1
  Ni  Ni13  1  0.68535700  0.38333800  0.32545800  1
  Ni  Ni14  1  0.49308700  0.33385300  0.27921500  1
  Ni  Ni15  1  0.73510100  0.16735500  0.89879300  1
  Ni  Ni16  1  0.99308700  0.66614700  0.22078500  1
  Ni  Ni17  1  0.26071200  0.91442300  0.20330500  1
  Ni  Ni18  1  0.06553800  0.83464400  0.26376200  1
  Ni  Ni19  1  0.73928800  0.08557700  0.79669500  1
  Cu  Cu20  1  0.12542600  0.55441100  0.08968200  1
  Cu  Cu21  1  0.13724200  0.71237500  0.36441400  1
  Cu  Cu22  1  0.62542600  0.44558900  0.41031800  1
  Cu  Cu23  1  0.86275800  0.28762500  0.63558600  1
  Cu  Cu24  1  0.04941500  0.78084800  0.61589400  1
  Cu  Cu25  1  0.45058500  0.78084800  0.11589400  1
  Cu  Cu26  1  0.36275800  0.71237500  0.86441400  1
  Cu  Cu27  1  0.87457400  0.44558900  0.91031800  1
  Cu  Cu28  1  0.95058500  0.21915200  0.38410600  1
  Cu  Cu29  1  0.10960200  0.21250800  0.86890800  1
  Cu  Cu30  1  0.39039800  0.21250800  0.36890800  1
  Cu  Cu31  1  0.54941500  0.21915200  0.88410600  1
  Cu  Cu32  1  0.30166000  0.10098000  0.64154600  1
  Cu  Cu33  1  0.80166000  0.89902000  0.85845400  1
  Cu  Cu34  1  0.37457400  0.55441100  0.58968200  1
  Cu  Cu35  1  0.69834000  0.89902000  0.35845400  1
  Cu  Cu36  1  0.63724200  0.28762500  0.13558600  1
  Cu  Cu37  1  0.19834000  0.10098000  0.14154600  1
  Cu  Cu38  1  0.60960200  0.78749200  0.63109200  1
  Cu  Cu39  1  0.89039800  0.78749200  0.13109200  1
  C  C40  1  0.92105400  0.88863100  0.89675500  1
  C  C41  1  0.07033800  0.65443000  0.02392400  1
  C  C42  1  0.42966200  0.65443000  0.52392400  1
  C  C43  1  0.70803800  0.83336800  0.91564200  1
  C  C44  1  0.73294400  0.38139700  0.13966700  1
  C  C45  1  0.17986300  0.29615100  0.90052300  1
  C  C46  1  0.95999800  0.88309600  0.06984200  1
  C  C47  1  0.53345800  0.55098000  0.37957800  1
  C  C48  1  0.67986300  0.70384900  0.59947700  1
  C  C49  1  0.68721800  0.82367300  0.30813700  1
  C  C50  1  0.80695300  0.20509100  0.59729500  1
  C  C51  1  0.53661300  0.36420800  0.08842300  1
  C  C52  1  0.23294400  0.61860300  0.36033300  1
  C  C53  1  0.23217700  0.49849700  0.06325900  1
  C  C54  1  0.57894600  0.88863100  0.39675500  1
  C  C55  1  0.26782300  0.49849700  0.56325900  1
  C  C56  1  0.00724100  0.70967800  0.69306000  1
  C  C57  1  0.50724100  0.29032200  0.80694000  1
  C  C58  1  0.46654200  0.44902000  0.62042200  1
  C  C59  1  0.30695300  0.79490900  0.90270500  1
  C  C60  1  0.03661300  0.63579200  0.41157700  1
  C  C61  1  0.48110800  0.69821400  0.07182200  1
  C  C62  1  0.42105400  0.11136900  0.60324500  1
  C  C63  1  0.54000200  0.88309600  0.56984200  1
  C  C64  1  0.49275900  0.70967800  0.19306000  1
  C  C65  1  0.96338700  0.36420800  0.58842300  1
  C  C66  1  0.96654200  0.55098000  0.87957800  1
  C  C67  1  0.69959500  0.86173400  0.65830400  1
  C  C68  1  0.47500600  0.09786000  0.91338500  1
  C  C69  1  0.03345800  0.44902000  0.12042200  1
  C  C70  1  0.51889200  0.30178600  0.92817800  1
  C  C71  1  0.97500600  0.90214000  0.58661500  1
  C  C72  1  0.07894600  0.11136900  0.10324500  1
  C  C73  1  0.19304700  0.79490900  0.40270500  1
  C  C74  1  0.29196200  0.16663200  0.08435800  1
  C  C75  1  0.45999800  0.11690400  0.43015800  1
  C  C76  1  0.18721800  0.17632700  0.19186300  1
  C  C77  1  0.76782300  0.50150300  0.93674100  1
  C  C78  1  0.82013700  0.70384900  0.09947700  1
  C  C79  1  0.26705600  0.61860300  0.86033300  1
  C  C80  1  0.76705600  0.38139700  0.63966700  1
  C  C81  1  0.01889200  0.69821400  0.57182200  1
  C  C82  1  0.19959500  0.13826600  0.84169600  1
  C  C83  1  0.31278200  0.17632700  0.69186300  1
  C  C84  1  0.32013700  0.29615100  0.40052300  1
  C  C85  1  0.81278200  0.82367300  0.80813700  1
  C  C86  1  0.52499400  0.90214000  0.08661500  1
  C  C87  1  0.80040500  0.86173400  0.15830400  1
  C  C88  1  0.92966200  0.34557000  0.97607600  1
  C  C89  1  0.02499400  0.09786000  0.41338500  1
  C  C90  1  0.46338700  0.63579200  0.91157700  1
  C  C91  1  0.69304700  0.20509100  0.09729500  1
  C  C92  1  0.30040500  0.13826600  0.34169600  1
  C  C93  1  0.73217700  0.50150300  0.43674100  1
  C  C94  1  0.20803800  0.16663200  0.58435800  1
  C  C95  1  0.98110800  0.30178600  0.42817800  1
  C  C96  1  0.57033800  0.34557000  0.47607600  1
  C  C97  1  0.99275900  0.29032200  0.30694000  1
  C  C98  1  0.04000200  0.11690400  0.93015800  1
  C  C99  1  0.79196200  0.83336800  0.41564200  1
