# generated using pymatgen
data_Cu8Ni2C3
_symmetry_space_group_name_H-M   'P 1'
_cell_length_a   11.46763601
_cell_length_b   11.46763601
_cell_length_c   11.46763601
_cell_angle_alpha   163.04630864
_cell_angle_beta   156.88122850
_cell_angle_gamma   28.80868340
_symmetry_Int_Tables_number   1
_chemical_formula_structural   Cu8Ni2C3
_chemical_formula_sum   'Cu8 Ni2 C3'
_cell_volume   172.58308271
_cell_formula_units_Z   1
loop_
 _symmetry_equiv_pos_site_id
 _symmetry_equiv_pos_as_xyz
  1  'x, y, z'
loop_
 _atom_site_type_symbol
 _atom_site_label
 _atom_site_symmetry_multiplicity
 _atom_site_fract_x
 _atom_site_fract_y
 _atom_site_fract_z
 _atom_site_occupancy
  C  C0  1  0.50000000  0.50000000  0.00000000  1
  C  C1  1  0.30920700  0.30920700  0.00000000  1
  C  C2  1  0.69079300  0.69079300  0.00000000  1
  Ni  Ni3  1  0.90853000  0.90853000  0.00000000  1
  Ni  Ni4  1  0.09147000  0.09147000  0.00000000  1
  Cu  Cu5  1  0.75379000  0.25379000  0.50000000  1
  Cu  Cu6  1  0.18002700  0.93621000  0.24381700  1
  Cu  Cu7  1  0.15110100  0.15110100  0.00000000  1
  Cu  Cu8  1  0.30760800  0.06379000  0.24381700  1
  Cu  Cu9  1  0.69239200  0.93621000  0.75618300  1
  Cu  Cu10  1  0.81997300  0.06379000  0.75618300  1
  Cu  Cu11  1  0.24621000  0.74621000  0.50000000  1
  Cu  Cu12  1  0.84889900  0.84889900  0.00000000  1
