# generated using pymatgen
data_Cu(NiC10)2
_symmetry_space_group_name_H-M   'P 1'
_cell_length_a   12.70928400
_cell_length_b   12.70928400
_cell_length_c   3.95401400
_cell_angle_alpha   90.00000000
_cell_angle_beta   90.00000000
_cell_angle_gamma   90.00000000
_symmetry_Int_Tables_number   1
_chemical_formula_structural   Cu(NiC10)2
_chemical_formula_sum   'Cu2 Ni4 C40'
_cell_volume   638.67566914
_cell_formula_units_Z   2
loop_
 _symmetry_equiv_pos_site_id
 _symmetry_equiv_pos_as_xyz
  1  'x, y, z'
loop_
 _atom_site_type_symbol
 _atom_site_label
 _atom_site_symmetry_multiplicity
 _atom_site_fract_x
 _atom_site_fract_y
 _atom_site_fract_z
 _atom_site_occupancy
  Ni  Ni0  1  0.16977800  0.33022200  0.00000000  1
  Ni  Ni1  1  0.66977800  0.16977800  0.00000000  1
  Ni  Ni2  1  0.33022200  0.83022200  0.00000000  1
  Ni  Ni3  1  0.83022200  0.66977800  0.00000000  1
  Cu  Cu4  1  0.00000000  0.00000000  0.00000000  1
  Cu  Cu5  1  0.50000000  0.50000000  0.00000000  1
  C  C6  1  0.07618300  0.78687000  0.50000000  1
  C  C7  1  0.21313000  0.07618300  0.50000000  1
  C  C8  1  0.00000000  0.50000000  0.50000000  1
  C  C9  1  0.28687000  0.57618300  0.50000000  1
  C  C10  1  0.71313000  0.42381700  0.50000000  1
  C  C11  1  0.78687000  0.92381700  0.50000000  1
  C  C12  1  0.57618300  0.71313000  0.50000000  1
  C  C13  1  0.42381700  0.28687000  0.50000000  1
  C  C14  1  0.92381700  0.21313000  0.50000000  1
  C  C15  1  0.50000000  0.00000000  0.50000000  1
  C  C16  1  0.00135900  0.34285300  0.50000000  1
  C  C17  1  0.69383800  0.42364300  0.00000000  1
  C  C18  1  0.28471400  0.21528600  0.50000000  1
  C  C19  1  0.86654200  0.06201900  0.50000000  1
  C  C20  1  0.21528600  0.71528600  0.50000000  1
  C  C21  1  0.19383800  0.07635700  0.00000000  1
  C  C22  1  0.42364300  0.30616200  0.00000000  1
  C  C23  1  0.13345800  0.93798100  0.50000000  1
  C  C24  1  0.80616200  0.92364300  0.00000000  1
  C  C25  1  0.63345800  0.56201900  0.50000000  1
  C  C26  1  0.71528600  0.78471400  0.50000000  1
  C  C27  1  0.36654200  0.43798100  0.50000000  1
  C  C28  1  0.15714700  0.49864100  0.50000000  1
  C  C29  1  0.34285300  0.99864100  0.50000000  1
  C  C30  1  0.07635700  0.80616200  0.00000000  1
  C  C31  1  0.78471400  0.28471400  0.50000000  1
  C  C32  1  0.84285300  0.50135900  0.50000000  1
  C  C33  1  0.92364300  0.19383800  0.00000000  1
  C  C34  1  0.65714700  0.00135900  0.50000000  1
  C  C35  1  0.93798100  0.86654200  0.50000000  1
  C  C36  1  0.06201900  0.13345800  0.50000000  1
  C  C37  1  0.99864100  0.65714700  0.50000000  1
  C  C38  1  0.49864100  0.84285300  0.50000000  1
  C  C39  1  0.57635700  0.69383800  0.00000000  1
  C  C40  1  0.56201900  0.36654200  0.50000000  1
  C  C41  1  0.43798100  0.63345800  0.50000000  1
  C  C42  1  0.50000000  0.00000000  0.00000000  1
  C  C43  1  0.30616200  0.57635700  0.00000000  1
  C  C44  1  0.50135900  0.15714700  0.50000000  1
  C  C45  1  0.00000000  0.50000000  0.00000000  1
