# generated using pymatgen
data_Cu7(Ni9C2)2
_symmetry_space_group_name_H-M   'P 1'
_cell_length_a   11.47820100
_cell_length_b   10.01342400
_cell_length_c   12.28868021
_cell_angle_alpha   77.41447809
_cell_angle_beta   90.00000000
_cell_angle_gamma   90.00000000
_symmetry_Int_Tables_number   1
_chemical_formula_structural   Cu7(Ni9C2)2
_chemical_formula_sum   'Cu28 Ni72 C16'
_cell_volume   1378.47523184
_cell_formula_units_Z   4
loop_
 _symmetry_equiv_pos_site_id
 _symmetry_equiv_pos_as_xyz
  1  'x, y, z'
loop_
 _atom_site_type_symbol
 _atom_site_label
 _atom_site_symmetry_multiplicity
 _atom_site_fract_x
 _atom_site_fract_y
 _atom_site_fract_z
 _atom_site_occupancy
  C  C0  1  0.45604100  0.98994300  0.26787000  1
  C  C1  1  0.26720000  0.43630100  0.46690300  1
  C  C2  1  0.73280000  0.56369900  0.53309700  1
  C  C3  1  0.76720000  0.56369900  0.03309700  1
  C  C4  1  0.23280000  0.43630100  0.96690300  1
  C  C5  1  0.54395900  0.01005700  0.73213000  1
  C  C6  1  0.95604100  0.01005700  0.23213000  1
  C  C7  1  0.04395900  0.98994300  0.76787000  1
  Ni  Ni8  1  0.86431300  0.42958200  0.20270000  1
  Ni  Ni9  1  0.10235400  0.47509500  0.33206800  1
  Ni  Ni10  1  0.63568700  0.42958200  0.70270000  1
  Ni  Ni11  1  0.66809900  0.43952700  0.90387100  1
  Ni  Ni12  1  0.11117400  0.03686600  0.94936700  1
  Ni  Ni13  1  0.85390000  0.69917800  0.63856300  1
  Ni  Ni14  1  0.90533100  0.60469100  0.17947600  1
  Ni  Ni15  1  0.18290400  0.60929800  0.07821900  1
  Ni  Ni16  1  0.31709600  0.60929800  0.57821900  1
  Ni  Ni17  1  0.78628300  0.32441800  0.52767200  1
  Ni  Ni18  1  0.58748000  0.15556600  0.14648800  1
  Ni  Ni19  1  0.16809900  0.56047300  0.59612900  1
  Ni  Ni20  1  0.95778800  0.76260800  0.32251700  1
  Ni  Ni21  1  0.06020100  0.36420800  0.45953100  1
  Ni  Ni22  1  0.39764600  0.47509500  0.83206800  1
  Ni  Ni23  1  0.77613300  0.93183500  0.15272800  1
  Ni  Ni24  1  0.64610000  0.69917800  0.13856300  1
  Ni  Ni25  1  0.71371700  0.32441800  0.02767200  1
  Ni  Ni26  1  0.46910200  0.50419600  0.40109700  1
  Ni  Ni27  1  0.40533100  0.39530900  0.32052400  1
  Ni  Ni28  1  0.13568700  0.57041800  0.79730000  1
  Ni  Ni29  1  0.21371700  0.67558200  0.47232800  1
  Ni  Ni30  1  0.54221200  0.76260800  0.82251700  1
  Ni  Ni31  1  0.57100700  0.19813400  0.27895600  1
  Ni  Ni32  1  0.84727900  0.17651000  0.31819500  1
  Ni  Ni33  1  0.61117400  0.96313400  0.55063300  1
  Ni  Ni34  1  0.81104900  0.10229800  0.08424100  1
  Ni  Ni35  1  0.34727900  0.82349000  0.18180500  1
  Ni  Ni36  1  0.38882600  0.03686600  0.44936700  1
  Ni  Ni37  1  0.41252000  0.84443400  0.85351200  1
  Ni  Ni38  1  0.18693700  0.99505400  0.61528100  1
  Ni  Ni39  1  0.07100700  0.80186600  0.22104400  1
  Ni  Ni40  1  0.93979900  0.63579200  0.54046900  1
  Ni  Ni41  1  0.42899300  0.80186600  0.72104400  1
  Ni  Ni42  1  0.14610000  0.30082200  0.36143700  1
  Ni  Ni43  1  0.04221200  0.23739200  0.67748300  1
  Ni  Ni44  1  0.91252000  0.15556600  0.64648800  1
  Ni  Ni45  1  0.45778800  0.23739200  0.17748300  1
  Ni  Ni46  1  0.22386700  0.06816500  0.84727200  1
  Ni  Ni47  1  0.03089800  0.50419600  0.90109700  1
  Ni  Ni48  1  0.18895100  0.89770200  0.91575900  1
  Ni  Ni49  1  0.56020100  0.63579200  0.04046900  1
  Ni  Ni50  1  0.05308600  0.92060300  0.58530600  1
  Ni  Ni51  1  0.44691400  0.92060300  0.08530600  1
  Ni  Ni52  1  0.28628300  0.67558200  0.97232800  1
  Ni  Ni53  1  0.92899300  0.19813400  0.77895600  1
  Ni  Ni54  1  0.09466900  0.39530900  0.82052400  1
  Ni  Ni55  1  0.33190100  0.56047300  0.09612900  1
  Ni  Ni56  1  0.81306300  0.00494600  0.38471900  1
  Ni  Ni57  1  0.27613300  0.06816500  0.34727200  1
  Ni  Ni58  1  0.59466900  0.60469100  0.67947600  1
  Ni  Ni59  1  0.53089800  0.49580400  0.59890300  1
  Ni  Ni60  1  0.15272100  0.82349000  0.68180500  1
  Ni  Ni61  1  0.72386700  0.93183500  0.65272800  1
  Ni  Ni62  1  0.83190100  0.43952700  0.40387100  1
  Ni  Ni63  1  0.08748000  0.84443400  0.35351200  1
  Ni  Ni64  1  0.65272100  0.17651000  0.81819500  1
  Ni  Ni65  1  0.94691400  0.07939700  0.41469400  1
  Ni  Ni66  1  0.35390000  0.30082200  0.86143700  1
  Ni  Ni67  1  0.81709600  0.39070200  0.92178100  1
  Ni  Ni68  1  0.68693700  0.00494600  0.88471900  1
  Ni  Ni69  1  0.43979900  0.36420800  0.95953100  1
  Ni  Ni70  1  0.89764600  0.52490500  0.66793200  1
  Ni  Ni71  1  0.88882600  0.96313400  0.05063300  1
  Ni  Ni72  1  0.31104900  0.89770200  0.41575900  1
  Ni  Ni73  1  0.55308600  0.07939700  0.91469400  1
  Ni  Ni74  1  0.31306300  0.99505400  0.11528100  1
  Ni  Ni75  1  0.96910200  0.49580400  0.09890300  1
  Ni  Ni76  1  0.68290400  0.39070200  0.42178100  1
  Ni  Ni77  1  0.36431300  0.57041800  0.29730000  1
  Ni  Ni78  1  0.60235400  0.52490500  0.16793200  1
  Ni  Ni79  1  0.68895100  0.10229800  0.58424100  1
  Cu  Cu80  1  0.63151800  0.61032200  0.10118100  1
  Cu  Cu81  1  0.23904400  0.58394200  0.53487500  1
  Cu  Cu82  1  0.26095600  0.58394200  0.03487500  1
  Cu  Cu83  1  0.38793300  0.48006800  0.36200200  1
  Cu  Cu84  1  0.34834800  0.99908500  0.38078700  1
  Cu  Cu85  1  0.36848200  0.38967800  0.89881900  1
  Cu  Cu86  1  0.37381500  0.21134500  0.62145300  1
  Cu  Cu87  1  0.61206700  0.51993200  0.63799800  1
  Cu  Cu88  1  0.65165200  0.00091500  0.61921300  1
  Cu  Cu89  1  0.47536600  0.83850800  0.78721500  1
  Cu  Cu90  1  0.97536600  0.16149200  0.71278500  1
  Cu  Cu91  1  0.52463400  0.16149200  0.21278500  1
  Cu  Cu92  1  0.88426600  0.07380600  0.34815300  1
  Cu  Cu93  1  0.76095600  0.41605800  0.46512500  1
  Cu  Cu94  1  0.84834800  0.00091500  0.11921300  1
  Cu  Cu95  1  0.38426600  0.92619400  0.15184700  1
  Cu  Cu96  1  0.61573400  0.07380600  0.84815300  1
  Cu  Cu97  1  0.12618500  0.21134500  0.12145300  1
  Cu  Cu98  1  0.11206700  0.48006800  0.86200200  1
  Cu  Cu99  1  0.13151800  0.38967800  0.39881900  1
  Cu  Cu100  1  0.02463400  0.83850800  0.28721500  1
  Cu  Cu101  1  0.15165200  0.99908500  0.88078700  1
  Cu  Cu102  1  0.87381500  0.78865500  0.87854700  1
  Cu  Cu103  1  0.73904400  0.41605800  0.96512500  1
  Cu  Cu104  1  0.88793300  0.51993200  0.13799800  1
  Cu  Cu105  1  0.11573400  0.92619400  0.65184700  1
  Cu  Cu106  1  0.62618500  0.78865500  0.37854700  1
  Cu  Cu107  1  0.86848200  0.61032200  0.60118100  1
  C  C108  1  0.43360800  0.12209500  0.67720900  1
  C  C109  1  0.30719500  0.29720500  0.57027300  1
  C  C110  1  0.19280500  0.29720500  0.07027300  1
  C  C111  1  0.93360800  0.87790500  0.82279100  1
  C  C112  1  0.56639200  0.87790500  0.32279100  1
  C  C113  1  0.80719500  0.70279500  0.92972700  1
  C  C114  1  0.06639200  0.12209500  0.17720900  1
  C  C115  1  0.69280500  0.70279500  0.42972700  1
