# generated using pymatgen
data_CuNi4C13
_symmetry_space_group_name_H-M   'P 1'
_cell_length_a   5.18865600
_cell_length_b   10.81394500
_cell_length_c   16.92960600
_cell_angle_alpha   90.00000000
_cell_angle_beta   90.00000000
_cell_angle_gamma   90.00000000
_symmetry_Int_Tables_number   1
_chemical_formula_structural   CuNi4C13
_chemical_formula_sum   'Cu4 Ni16 C52'
_cell_volume   949.91749421
_cell_formula_units_Z   4
loop_
 _symmetry_equiv_pos_site_id
 _symmetry_equiv_pos_as_xyz
  1  'x, y, z'
loop_
 _atom_site_type_symbol
 _atom_site_label
 _atom_site_symmetry_multiplicity
 _atom_site_fract_x
 _atom_site_fract_y
 _atom_site_fract_z
 _atom_site_occupancy
  C  C0  1  0.29617100  0.07753900  0.39347300  1
  C  C1  1  0.70382900  0.07753900  0.89347300  1
  C  C2  1  0.70404600  0.93013400  0.60953900  1
  C  C3  1  0.72761000  0.73979400  0.79067300  1
  C  C4  1  0.29595400  0.93013400  0.10953900  1
  C  C5  1  0.29617100  0.57753900  0.10652700  1
  C  C6  1  0.29595400  0.43013400  0.39046100  1
  C  C7  1  0.72761000  0.23979400  0.70932700  1
  C  C8  1  0.70382900  0.57753900  0.60652700  1
  C  C9  1  0.27239000  0.73979400  0.29067300  1
  C  C10  1  0.27239000  0.23979400  0.20932700  1
  C  C11  1  0.70404600  0.43013400  0.89046100  1
  Ni  Ni12  1  0.80167800  0.00030800  0.25135500  1
  Ni  Ni13  1  0.36892500  0.75258400  0.46958100  1
  Ni  Ni14  1  0.80167800  0.50030800  0.24864500  1
  Ni  Ni15  1  0.63107500  0.25258400  0.53041900  1
  Ni  Ni16  1  0.25852000  0.25084700  0.83569100  1
  Ni  Ni17  1  0.36892500  0.25258400  0.03041900  1
  Ni  Ni18  1  0.19832200  0.00030800  0.75135500  1
  Ni  Ni19  1  0.25852000  0.75084700  0.66430900  1
  Ni  Ni20  1  0.19832200  0.50030800  0.74864500  1
  Ni  Ni21  1  0.12884200  0.89854200  0.92318100  1
  Ni  Ni22  1  0.87115800  0.89854200  0.42318100  1
  Ni  Ni23  1  0.74148000  0.75084700  0.16430900  1
  Ni  Ni24  1  0.87115800  0.39854200  0.07681900  1
  Ni  Ni25  1  0.63107500  0.75258400  0.96958100  1
  Ni  Ni26  1  0.12884200  0.39854200  0.57681900  1
  Ni  Ni27  1  0.74148000  0.25084700  0.33569100  1
  Cu  Cu28  1  0.85696900  0.10046800  0.07897000  1
  Cu  Cu29  1  0.85696900  0.60046800  0.42103000  1
  Cu  Cu30  1  0.14303100  0.60046800  0.92103000  1
  Cu  Cu31  1  0.14303100  0.10046800  0.57897000  1
  C  C32  1  0.46830000  0.88351700  0.92668100  1
  C  C33  1  0.40523500  0.12024500  0.78767100  1
  C  C34  1  0.59889600  0.38062900  0.28654900  1
  C  C35  1  0.99132200  0.00195900  0.49365700  1
  C  C36  1  0.00867800  0.50195900  0.50634300  1
  C  C37  1  0.40110400  0.88062900  0.71345100  1
  C  C38  1  0.99639600  0.94138200  0.32935200  1
  C  C39  1  0.53170000  0.88351700  0.42668100  1
  C  C40  1  0.59476500  0.62024500  0.21232900  1
  C  C41  1  0.99639600  0.44138200  0.17064800  1
  C  C42  1  0.53170000  0.38351700  0.07331900  1
  C  C43  1  0.51069800  0.12230300  0.58206000  1
  C  C44  1  0.00360400  0.44138200  0.67064800  1
  C  C45  1  0.57389900  0.75136200  0.07175600  1
  C  C46  1  0.02142000  0.55829200  0.31921800  1
  C  C47  1  0.97858000  0.05829200  0.68078200  1
  C  C48  1  0.48930200  0.62230300  0.41794000  1
  C  C49  1  0.07759900  0.24959100  0.33445800  1
  C  C50  1  0.51069800  0.62230300  0.91794000  1
  C  C51  1  0.48930200  0.12230300  0.08206000  1
  C  C52  1  0.95771500  0.75950400  0.93953300  1
  C  C53  1  0.42610100  0.25136200  0.92824400  1
  C  C54  1  0.97858000  0.55829200  0.81921800  1
  C  C55  1  0.99132200  0.50195900  0.00634300  1
  C  C56  1  0.42610100  0.75136200  0.57175600  1
  C  C57  1  0.00360400  0.94138200  0.82935200  1
  C  C58  1  0.95771500  0.25950400  0.56046700  1
  C  C59  1  0.46830000  0.38351700  0.57331900  1
  C  C60  1  0.57389900  0.25136200  0.42824400  1
  C  C61  1  0.40110400  0.38062900  0.78654900  1
  C  C62  1  0.92240100  0.74959100  0.66554200  1
  C  C63  1  0.04228500  0.25950400  0.06046700  1
  C  C64  1  0.92240100  0.24959100  0.83445800  1
  C  C65  1  0.59889600  0.88062900  0.21345100  1
  C  C66  1  0.40523500  0.62024500  0.71232900  1
  C  C67  1  0.02142000  0.05829200  0.18078200  1
  C  C68  1  0.04228500  0.75950400  0.43953300  1
  C  C69  1  0.00867800  0.00195900  0.99365700  1
  C  C70  1  0.59476500  0.12024500  0.28767100  1
  C  C71  1  0.07759900  0.74959100  0.16554200  1
