# generated using pymatgen
data_Cu6Ni2C29
_symmetry_space_group_name_H-M   'P 1'
_cell_length_a   8.36275501
_cell_length_b   8.36275501
_cell_length_c   17.52852100
_cell_angle_alpha   90.00000000
_cell_angle_beta   90.00000000
_cell_angle_gamma   119.99999218
_symmetry_Int_Tables_number   1
_chemical_formula_structural   Cu6Ni2C29
_chemical_formula_sum   'Cu12 Ni4 C58'
_cell_volume   1061.63367929
_cell_formula_units_Z   2
loop_
 _symmetry_equiv_pos_site_id
 _symmetry_equiv_pos_as_xyz
  1  'x, y, z'
loop_
 _atom_site_type_symbol
 _atom_site_label
 _atom_site_symmetry_multiplicity
 _atom_site_fract_x
 _atom_site_fract_y
 _atom_site_fract_z
 _atom_site_occupancy
  C  C0  1  0.33333300  0.66666700  0.25000000  1
  C  C1  1  0.66666700  0.33333300  0.75000000  1
  C  C2  1  0.33333300  0.66666700  0.02232400  1
  C  C3  1  0.33333300  0.66666700  0.47767600  1
  C  C4  1  0.66666700  0.33333300  0.97767600  1
  C  C5  1  0.66666700  0.33333300  0.52232400  1
  C  C6  1  0.66666700  0.33333300  0.25000000  1
  C  C7  1  0.33333300  0.66666700  0.75000000  1
  Ni  Ni8  1  0.00000000  0.00000000  0.09133400  1
  Ni  Ni9  1  0.00000000  0.00000000  0.40866600  1
  Ni  Ni10  1  0.00000000  0.00000000  0.90866600  1
  Ni  Ni11  1  0.00000000  0.00000000  0.59133400  1
  Cu  Cu12  1  0.38406600  0.33223800  0.10915200  1
  Cu  Cu13  1  0.66776200  0.05182900  0.10915200  1
  Cu  Cu14  1  0.94817100  0.61593400  0.10915200  1
  Cu  Cu15  1  0.66776200  0.61593400  0.39084800  1
  Cu  Cu16  1  0.94817100  0.33223800  0.39084800  1
  Cu  Cu17  1  0.38406600  0.05182900  0.39084800  1
  Cu  Cu18  1  0.61593400  0.66776200  0.89084800  1
  Cu  Cu19  1  0.33223800  0.94817100  0.89084800  1
  Cu  Cu20  1  0.05182900  0.38406600  0.89084800  1
  Cu  Cu21  1  0.33223800  0.38406600  0.60915200  1
  Cu  Cu22  1  0.05182900  0.66776200  0.60915200  1
  Cu  Cu23  1  0.61593400  0.94817100  0.60915200  1
  C  C24  1  0.11797500  0.59978000  0.08955700  1
  C  C25  1  0.40022000  0.51819600  0.08955700  1
  C  C26  1  0.48180400  0.88202500  0.08955700  1
  C  C27  1  0.40022000  0.88202500  0.41044300  1
  C  C28  1  0.48180400  0.59978000  0.41044300  1
  C  C29  1  0.11797500  0.51819600  0.41044300  1
  C  C30  1  0.88202500  0.40022000  0.91044300  1
  C  C31  1  0.59978000  0.48180400  0.91044300  1
  C  C32  1  0.51819600  0.11797500  0.91044300  1
  C  C33  1  0.59978000  0.11797500  0.58955700  1
  C  C34  1  0.51819600  0.40022000  0.58955700  1
  C  C35  1  0.88202500  0.48180400  0.58955700  1
  C  C36  1  0.80765000  0.25340500  0.45607300  1
  C  C37  1  0.74659500  0.55424600  0.45607300  1
  C  C38  1  0.44575400  0.19235000  0.45607300  1
  C  C39  1  0.74659500  0.19235000  0.04392700  1
  C  C40  1  0.44575400  0.25340500  0.04392700  1
  C  C41  1  0.80765000  0.55424600  0.04392700  1
  C  C42  1  0.19235000  0.74659500  0.54392700  1
  C  C43  1  0.25340500  0.44575400  0.54392700  1
  C  C44  1  0.55424600  0.80765000  0.54392700  1
  C  C45  1  0.25340500  0.80765000  0.95607300  1
  C  C46  1  0.55424600  0.74659500  0.95607300  1
  C  C47  1  0.19235000  0.44575400  0.95607300  1
  C  C48  1  0.47883600  0.34578400  0.18526100  1
  C  C49  1  0.65421600  0.13305300  0.18526100  1
  C  C50  1  0.86694700  0.52116400  0.18526100  1
  C  C51  1  0.65421600  0.52116400  0.31473900  1
  C  C52  1  0.86694700  0.34578400  0.31473900  1
  C  C53  1  0.47883600  0.13305300  0.31473900  1
  C  C54  1  0.52116400  0.65421600  0.81473900  1
  C  C55  1  0.34578400  0.86694700  0.81473900  1
  C  C56  1  0.13305300  0.47883600  0.81473900  1
  C  C57  1  0.34578400  0.47883600  0.68526100  1
  C  C58  1  0.13305300  0.65421600  0.68526100  1
  C  C59  1  0.52116400  0.86694700  0.68526100  1
  C  C60  1  0.00000000  0.00000000  0.00000000  1
  C  C61  1  0.00000000  0.00000000  0.50000000  1
  C  C62  1  0.02219400  0.82997200  0.12472000  1
  C  C63  1  0.17002800  0.19222300  0.12472000  1
  C  C64  1  0.80777700  0.97780600  0.12472000  1
  C  C65  1  0.17002800  0.97780600  0.37528000  1
  C  C66  1  0.80777700  0.82997200  0.37528000  1
  C  C67  1  0.02219400  0.19222300  0.37528000  1
  C  C68  1  0.97780600  0.17002800  0.87528000  1
  C  C69  1  0.82997200  0.80777700  0.87528000  1
  C  C70  1  0.19222300  0.02219400  0.87528000  1
  C  C71  1  0.82997200  0.02219400  0.62472000  1
  C  C72  1  0.19222300  0.17002800  0.62472000  1
  C  C73  1  0.97780600  0.80777700  0.62472000  1
