# generated using pymatgen
data_CuNi4C9
_symmetry_space_group_name_H-M   'P 1'
_cell_length_a   8.48252940
_cell_length_b   8.48252940
_cell_length_c   8.48252940
_cell_angle_alpha   139.71884883
_cell_angle_beta   139.71884883
_cell_angle_gamma   58.28043628
_symmetry_Int_Tables_number   1
_chemical_formula_structural   CuNi4C9
_chemical_formula_sum   'Cu1 Ni4 C9'
_cell_volume   252.81379586
_cell_formula_units_Z   1
loop_
 _symmetry_equiv_pos_site_id
 _symmetry_equiv_pos_as_xyz
  1  'x, y, z'
loop_
 _atom_site_type_symbol
 _atom_site_label
 _atom_site_symmetry_multiplicity
 _atom_site_fract_x
 _atom_site_fract_y
 _atom_site_fract_z
 _atom_site_occupancy
  Ni  Ni0  1  0.87385100  0.37385100  0.50000000  1
  Ni  Ni1  1  0.37385100  0.87385100  0.50000000  1
  Ni  Ni2  1  0.62614900  0.12614900  0.50000000  1
  Ni  Ni3  1  0.12614900  0.62614900  0.50000000  1
  Cu  Cu4  1  0.50000000  0.50000000  0.00000000  1
  C  C5  1  0.00000000  0.00000000  0.00000000  1
  C  C6  1  0.22323900  0.22323900  0.00000000  1
  C  C7  1  0.32722800  0.32722800  0.00000000  1
  C  C8  1  0.67277200  0.67277200  0.00000000  1
  C  C9  1  0.75903600  0.75903600  0.51807200  1
  C  C10  1  0.77676100  0.77676100  0.00000000  1
  C  C11  1  0.24096400  0.24096400  0.48192800  1
  C  C12  1  0.75903600  0.24096400  0.00000000  1
  C  C13  1  0.24096400  0.75903600  0.00000000  1
