# generated using pymatgen
data_CuNi2C
_symmetry_space_group_name_H-M   'P 1'
_cell_length_a   5.75428905
_cell_length_b   5.75428905
_cell_length_c   10.73243000
_cell_angle_alpha   90.00000000
_cell_angle_beta   90.00000000
_cell_angle_gamma   101.01700491
_symmetry_Int_Tables_number   1
_chemical_formula_structural   CuNi2C
_chemical_formula_sum   'Cu4 Ni8 C4'
_cell_volume   348.82123417
_cell_formula_units_Z   4
loop_
 _symmetry_equiv_pos_site_id
 _symmetry_equiv_pos_as_xyz
  1  'x, y, z'
loop_
 _atom_site_type_symbol
 _atom_site_label
 _atom_site_symmetry_multiplicity
 _atom_site_fract_x
 _atom_site_fract_y
 _atom_site_fract_z
 _atom_site_occupancy
  C  C0  1  0.39618300  0.84807300  0.28682500  1
  C  C1  1  0.60381700  0.15192700  0.78682500  1
  C  C2  1  0.84807300  0.39618300  0.28682500  1
  C  C3  1  0.15192700  0.60381700  0.78682500  1
  Ni  Ni4  1  0.37551600  0.86589000  0.56539700  1
  Ni  Ni5  1  0.91715200  0.91715200  0.23178500  1
  Ni  Ni6  1  0.62448400  0.13411000  0.06539700  1
  Ni  Ni7  1  0.67306400  0.67306400  0.73729300  1
  Ni  Ni8  1  0.32693600  0.32693600  0.23729300  1
  Ni  Ni9  1  0.13411000  0.62448400  0.06539700  1
  Ni  Ni10  1  0.08284800  0.08284800  0.73178500  1
  Ni  Ni11  1  0.86589000  0.37551600  0.56539700  1
  Cu  Cu12  1  0.12233200  0.12233200  0.00059900  1
  Cu  Cu13  1  0.36339600  0.36339600  0.50988000  1
  Cu  Cu14  1  0.63660400  0.63660400  0.00988000  1
  Cu  Cu15  1  0.87766800  0.87766800  0.50059900  1
