# generated using pymatgen
data_Cu4NiC16
_symmetry_space_group_name_H-M   'P 1'
_cell_length_a   5.25675700
_cell_length_b   6.70243200
_cell_length_c   17.00197646
_cell_angle_alpha   68.96678864
_cell_angle_beta   90.00000000
_cell_angle_gamma   90.00000000
_symmetry_Int_Tables_number   1
_chemical_formula_structural   Cu4NiC16
_chemical_formula_sum   'Cu8 Ni2 C32'
_cell_volume   559.11964243
_cell_formula_units_Z   2
loop_
 _symmetry_equiv_pos_site_id
 _symmetry_equiv_pos_as_xyz
  1  'x, y, z'
loop_
 _atom_site_type_symbol
 _atom_site_label
 _atom_site_symmetry_multiplicity
 _atom_site_fract_x
 _atom_site_fract_y
 _atom_site_fract_z
 _atom_site_occupancy
  C  C0  1  0.75193500  0.78296400  0.88013800  1
  C  C1  1  0.25193500  0.21703600  0.61986200  1
  C  C2  1  0.24806500  0.21703600  0.11986200  1
  C  C3  1  0.74806500  0.78296400  0.38013800  1
  Ni  Ni4  1  0.00000000  0.00000000  0.00000000  1
  Ni  Ni5  1  0.50000000  0.00000000  0.50000000  1
  Cu  Cu6  1  0.74719200  0.88569300  0.16805400  1
  Cu  Cu7  1  0.24719200  0.11430700  0.33194600  1
  Cu  Cu8  1  0.25280800  0.11430700  0.83194600  1
  Cu  Cu9  1  0.75280800  0.88569300  0.66805400  1
  Cu  Cu10  1  0.73003100  0.55085500  0.09432600  1
  Cu  Cu11  1  0.23003100  0.44914500  0.40567400  1
  Cu  Cu12  1  0.26996900  0.44914500  0.90567400  1
  Cu  Cu13  1  0.76996900  0.55085500  0.59432600  1
  C  C14  1  0.46233100  0.47198300  0.08847200  1
  C  C15  1  0.96233100  0.52801700  0.41152800  1
  C  C16  1  0.53766900  0.52801700  0.91152800  1
  C  C17  1  0.03766900  0.47198300  0.58847200  1
  C  C18  1  0.93252500  0.38011600  0.11747400  1
  C  C19  1  0.43252500  0.61988400  0.38252600  1
  C  C20  1  0.06747500  0.61988400  0.88252600  1
  C  C21  1  0.56747500  0.38011600  0.61747400  1
  C  C22  1  0.77742800  0.86964000  0.25804000  1
  C  C23  1  0.27742800  0.13036000  0.24196000  1
  C  C24  1  0.22257200  0.13036000  0.74196000  1
  C  C25  1  0.72257200  0.86964000  0.75804000  1
  C  C26  1  0.52333700  0.01392900  0.11961700  1
  C  C27  1  0.02333700  0.98607100  0.38038300  1
  C  C28  1  0.70385400  0.74386500  0.51192300  1
  C  C29  1  0.20385400  0.25613500  0.98807700  1
  C  C30  1  0.29614600  0.25613500  0.48807700  1
  C  C31  1  0.79614600  0.74386500  0.01192300  1
  C  C32  1  0.77766800  0.64468100  0.66957700  1
  C  C33  1  0.27766800  0.35531900  0.83042300  1
  C  C34  1  0.22233200  0.35531900  0.33042300  1
  C  C35  1  0.72233200  0.64468100  0.16957700  1
  C  C36  1  0.49859600  0.96759500  0.61822700  1
  C  C37  1  0.99859600  0.03240500  0.88177300  1
  C  C38  1  0.50140400  0.03240500  0.38177300  1
  C  C39  1  0.00140400  0.96759500  0.11822700  1
  C  C40  1  0.97666300  0.01392900  0.61961700  1
  C  C41  1  0.47666300  0.98607100  0.88038300  1
