# generated using pymatgen
data_Cu3Ni9C14
_symmetry_space_group_name_H-M   'P 1'
_cell_length_a   14.28306687
_cell_length_b   14.28306687
_cell_length_c   8.70717300
_cell_angle_alpha   90.00000000
_cell_angle_beta   90.00000000
_cell_angle_gamma   120.00000401
_symmetry_Int_Tables_number   1
_chemical_formula_structural   Cu3Ni9C14
_chemical_formula_sum   'Cu12 Ni36 C56'
_cell_volume   1538.33430951
_cell_formula_units_Z   4
loop_
 _symmetry_equiv_pos_site_id
 _symmetry_equiv_pos_as_xyz
  1  'x, y, z'
loop_
 _atom_site_type_symbol
 _atom_site_label
 _atom_site_symmetry_multiplicity
 _atom_site_fract_x
 _atom_site_fract_y
 _atom_site_fract_z
 _atom_site_occupancy
  C  C0  1  0.33333300  0.66666700  0.99088900  1
  C  C1  1  0.90295900  0.39675900  0.05854600  1
  C  C2  1  0.09704100  0.49379900  0.55854600  1
  C  C3  1  0.66666700  0.33333300  0.49088900  1
  C  C4  1  0.60324100  0.50620100  0.05854600  1
  C  C5  1  0.39675900  0.90295900  0.55854600  1
  C  C6  1  0.50620100  0.60324100  0.55854600  1
  C  C7  1  0.49379900  0.09704100  0.05854600  1
  C  C8  1  0.34863100  0.86533300  0.20033300  1
  C  C9  1  0.86533300  0.34863100  0.70033300  1
  C  C10  1  0.81068600  0.52920500  0.23208100  1
  C  C11  1  0.71851800  0.18931400  0.23208100  1
  C  C12  1  0.18931400  0.71851800  0.73208100  1
  C  C13  1  0.13466700  0.48329800  0.20033300  1
  C  C14  1  0.47079500  0.28148200  0.23208100  1
  C  C15  1  0.52920500  0.81068600  0.73208100  1
  C  C16  1  0.48329800  0.13466700  0.70033300  1
  C  C17  1  0.51670200  0.65136900  0.20033300  1
  C  C18  1  0.28148200  0.47079500  0.73208100  1
  C  C19  1  0.65136900  0.51670200  0.70033300  1
  Ni  Ni20  1  0.96076300  0.66527100  0.37352600  1
  Ni  Ni21  1  0.93782000  0.71890800  0.20128500  1
  Ni  Ni22  1  0.61976400  0.83559600  0.11958400  1
  Ni  Ni23  1  0.28109200  0.21891100  0.20128500  1
  Ni  Ni24  1  0.16440400  0.78416800  0.11958400  1
  Ni  Ni25  1  0.17643800  0.73301700  0.30040100  1
  Ni  Ni26  1  0.84158300  0.14853300  0.36378500  1
  Ni  Ni27  1  0.21891100  0.28109200  0.70128500  1
  Ni  Ni28  1  0.18889300  0.86439500  0.28947900  1
  Ni  Ni29  1  0.73301700  0.17643800  0.80040100  1
  Ni  Ni30  1  0.33472900  0.29549200  0.37352600  1
  Ni  Ni31  1  0.15841700  0.30695000  0.86378500  1
  Ni  Ni32  1  0.71890800  0.93782000  0.70128500  1
  Ni  Ni33  1  0.55657800  0.82356200  0.30040100  1
  Ni  Ni34  1  0.13560500  0.32449800  0.28947900  1
  Ni  Ni35  1  0.69305000  0.85146700  0.86378500  1
  Ni  Ni36  1  0.32449800  0.13560500  0.78947900  1
  Ni  Ni37  1  0.83559600  0.61976400  0.61958400  1
  Ni  Ni38  1  0.86439500  0.18889300  0.78947900  1
  Ni  Ni39  1  0.70450800  0.03923700  0.37352600  1
  Ni  Ni40  1  0.78108900  0.06218000  0.20128500  1
  Ni  Ni41  1  0.67550200  0.81110700  0.28947900  1
  Ni  Ni42  1  0.21583200  0.38023600  0.11958400  1
  Ni  Ni43  1  0.82356200  0.55657800  0.80040100  1
  Ni  Ni44  1  0.14853300  0.84158300  0.86378500  1
  Ni  Ni45  1  0.81110700  0.67550200  0.78947900  1
  Ni  Ni46  1  0.78416800  0.16440400  0.61958400  1
  Ni  Ni47  1  0.29549200  0.33472900  0.87352600  1
  Ni  Ni48  1  0.03923700  0.70450800  0.87352600  1
  Ni  Ni49  1  0.85146700  0.69305000  0.36378500  1
  Ni  Ni50  1  0.26698300  0.44342200  0.30040100  1
  Ni  Ni51  1  0.30695000  0.15841700  0.36378500  1
  Ni  Ni52  1  0.44342200  0.26698300  0.80040100  1
  Ni  Ni53  1  0.06218000  0.78108900  0.70128500  1
  Ni  Ni54  1  0.66527100  0.96076300  0.87352600  1
  Ni  Ni55  1  0.38023600  0.21583200  0.61958400  1
  Cu  Cu56  1  0.60063100  0.79424900  0.23084400  1
  Cu  Cu57  1  0.39936900  0.19361800  0.73084400  1
  Cu  Cu58  1  0.23375200  0.33522100  0.79904000  1
  Cu  Cu59  1  0.89853100  0.66477900  0.29904000  1
  Cu  Cu60  1  0.10146900  0.76624800  0.79904000  1
  Cu  Cu61  1  0.66477900  0.89853100  0.79904000  1
  Cu  Cu62  1  0.80638200  0.20575100  0.73084400  1
  Cu  Cu63  1  0.20575100  0.80638200  0.23084400  1
  Cu  Cu64  1  0.76624800  0.10146900  0.29904000  1
  Cu  Cu65  1  0.33522100  0.23375200  0.29904000  1
  Cu  Cu66  1  0.79424900  0.60063100  0.73084400  1
  Cu  Cu67  1  0.19361800  0.39936900  0.23084400  1
  C  C68  1  0.58624700  0.21032300  0.61656200  1
  C  C69  1  0.58752600  0.61630200  0.10886800  1
  C  C70  1  0.70486900  0.24753900  0.36662200  1
  C  C71  1  0.54267000  0.29513100  0.36662200  1
  C  C72  1  0.24753900  0.70486900  0.86662200  1
  C  C73  1  0.41375300  0.62407600  0.11656200  1
  C  C74  1  0.53516400  0.73316800  0.61297600  1
  C  C75  1  0.89610200  0.40597400  0.85895500  1
  C  C76  1  0.38757900  0.50214100  0.64435000  1
  C  C77  1  0.21032300  0.58624700  0.11656200  1
  C  C78  1  0.40597400  0.89610200  0.35895500  1
  C  C79  1  0.97122400  0.38369800  0.60886800  1
  C  C80  1  0.62407600  0.41375300  0.61656200  1
  C  C81  1  0.29513100  0.54267000  0.86662200  1
  C  C82  1  0.59402600  0.49012800  0.85895500  1
  C  C83  1  0.37592400  0.78967700  0.11656200  1
  C  C84  1  0.49012800  0.59402600  0.35895500  1
  C  C85  1  0.19800400  0.46483600  0.61297600  1
  C  C86  1  0.61242100  0.11456100  0.14435000  1
  C  C87  1  0.02877600  0.41247400  0.10886800  1
  C  C88  1  0.50214100  0.38757900  0.14435000  1
  C  C89  1  0.46483600  0.19800400  0.11297600  1
  C  C90  1  0.11456100  0.61242100  0.64435000  1
  C  C91  1  0.78967700  0.37592400  0.61656200  1
  C  C92  1  0.61630200  0.58752600  0.60886800  1
  C  C93  1  0.75246100  0.45733000  0.36662200  1
  C  C94  1  0.38369800  0.97122400  0.10886800  1
  C  C95  1  0.80199600  0.26683200  0.11297600  1
  C  C96  1  0.10389800  0.50987200  0.35895500  1
  C  C97  1  0.41247400  0.02877600  0.60886800  1
  C  C98  1  0.50987200  0.10389800  0.85895500  1
  C  C99  1  0.49785900  0.88543900  0.64435000  1
  C  C100  1  0.73316800  0.53516400  0.11297600  1
  C  C101  1  0.45733000  0.75246100  0.86662200  1
  C  C102  1  0.26683200  0.80199600  0.61297600  1
  C  C103  1  0.88543900  0.49785900  0.14435000  1
