# generated using pymatgen
data_Cu4NiC7
_symmetry_space_group_name_H-M   'P 1'
_cell_length_a   6.43876755
_cell_length_b   8.21231930
_cell_length_c   8.21231930
_cell_angle_alpha   78.90449003
_cell_angle_beta   66.91982638
_cell_angle_gamma   66.91982638
_symmetry_Int_Tables_number   1
_chemical_formula_structural   Cu4NiC7
_chemical_formula_sum   'Cu16 Ni4 C28'
_cell_volume   367.12466364
_cell_formula_units_Z   4
loop_
 _symmetry_equiv_pos_site_id
 _symmetry_equiv_pos_as_xyz
  1  'x, y, z'
loop_
 _atom_site_type_symbol
 _atom_site_label
 _atom_site_symmetry_multiplicity
 _atom_site_fract_x
 _atom_site_fract_y
 _atom_site_fract_z
 _atom_site_occupancy
  Ni  Ni0  1  0.74622800  0.12500000  0.87500000  1
  Ni  Ni1  1  0.25377200  0.37500000  0.62500000  1
  Ni  Ni2  1  0.74622800  0.62500000  0.37500000  1
  Ni  Ni3  1  0.25377200  0.87500000  0.12500000  1
  Cu  Cu4  1  0.92933600  0.75893000  0.00893000  1
  Cu  Cu5  1  0.92933600  0.25893000  0.50893000  1
  Cu  Cu6  1  0.30280300  0.50893000  0.25893000  1
  Cu  Cu7  1  0.30280300  0.00893000  0.75893000  1
  Cu  Cu8  1  0.69719700  0.99107000  0.24107000  1
  Cu  Cu9  1  0.69719700  0.49107000  0.74107000  1
  Cu  Cu10  1  0.07066400  0.74107000  0.49107000  1
  Cu  Cu11  1  0.07066400  0.24107000  0.99107000  1
  Cu  Cu12  1  0.70181800  0.79818200  0.79818200  1
  Cu  Cu13  1  0.70181800  0.29818200  0.29818200  1
  Cu  Cu14  1  0.70181800  0.54818200  0.04818200  1
  Cu  Cu15  1  0.70181800  0.04818200  0.54818200  1
  Cu  Cu16  1  0.29818200  0.20181800  0.20181800  1
  Cu  Cu17  1  0.29818200  0.70181800  0.70181800  1
  Cu  Cu18  1  0.29818200  0.95181800  0.45181800  1
  Cu  Cu19  1  0.29818200  0.45181800  0.95181800  1
  C  C20  1  0.07024100  0.62500000  0.37500000  1
  C  C21  1  0.07024100  0.12500000  0.87500000  1
  C  C22  1  0.92975900  0.87500000  0.12500000  1
  C  C23  1  0.92975900  0.37500000  0.62500000  1
  C  C24  1  0.19826500  0.15322600  0.40322600  1
  C  C25  1  0.19826500  0.65322600  0.90322600  1
  C  C26  1  0.75471700  0.59677400  0.84677400  1
  C  C27  1  0.75471700  0.09677400  0.34677400  1
  C  C28  1  0.24528300  0.90322600  0.65322600  1
  C  C29  1  0.24528300  0.40322600  0.15322600  1
  C  C30  1  0.80173500  0.34677400  0.09677400  1
  C  C31  1  0.80173500  0.84677400  0.59677400  1
  C  C32  1  0.81170700  0.86169400  0.88476800  1
  C  C33  1  0.81170700  0.36169400  0.38476800  1
  C  C34  1  0.55816900  0.88830600  0.36523200  1
  C  C35  1  0.55816900  0.38830600  0.86523200  1
  C  C36  1  0.18829300  0.63830600  0.61523200  1
  C  C37  1  0.18829300  0.13830600  0.11523200  1
  C  C38  1  0.55816900  0.11523200  0.13830600  1
  C  C39  1  0.55816900  0.61523200  0.63830600  1
  C  C40  1  0.18829300  0.86523200  0.38830600  1
  C  C41  1  0.18829300  0.36523200  0.88830600  1
  C  C42  1  0.44183100  0.38476800  0.36169400  1
  C  C43  1  0.44183100  0.88476800  0.86169400  1
  C  C44  1  0.44183100  0.61169400  0.13476800  1
  C  C45  1  0.44183100  0.11169400  0.63476800  1
  C  C46  1  0.81170700  0.63476800  0.11169400  1
  C  C47  1  0.81170700  0.13476800  0.61169400  1
