# generated using pymatgen
data_Cu3NiC10
_symmetry_space_group_name_H-M   'P 1'
_cell_length_a   7.96860500
_cell_length_b   8.74132000
_cell_length_c   11.57532400
_cell_angle_alpha   90.00000000
_cell_angle_beta   90.00000000
_cell_angle_gamma   90.00000000
_symmetry_Int_Tables_number   1
_chemical_formula_structural   Cu3NiC10
_chemical_formula_sum   'Cu12 Ni4 C40'
_cell_volume   806.29223003
_cell_formula_units_Z   4
loop_
 _symmetry_equiv_pos_site_id
 _symmetry_equiv_pos_as_xyz
  1  'x, y, z'
loop_
 _atom_site_type_symbol
 _atom_site_label
 _atom_site_symmetry_multiplicity
 _atom_site_fract_x
 _atom_site_fract_y
 _atom_site_fract_z
 _atom_site_occupancy
  C  C0  1  0.50207400  0.20459500  0.06699000  1
  C  C1  1  0.00207400  0.29540500  0.93301000  1
  C  C2  1  0.49792600  0.70459500  0.43301000  1
  C  C3  1  0.99792600  0.79540500  0.56699000  1
  Ni  Ni4  1  0.68022500  0.29029900  0.37272900  1
  Ni  Ni5  1  0.18022500  0.20970100  0.62727100  1
  Ni  Ni6  1  0.31977500  0.79029900  0.12727100  1
  Ni  Ni7  1  0.81977500  0.70970100  0.87272900  1
  Cu  Cu8  1  0.80996100  0.00244500  0.29857400  1
  Cu  Cu9  1  0.81864100  0.49448000  0.20339600  1
  Cu  Cu10  1  0.19003900  0.50244500  0.20142600  1
  Cu  Cu11  1  0.68135900  0.50552000  0.70339600  1
  Cu  Cu12  1  0.30996100  0.49755500  0.70142600  1
  Cu  Cu13  1  0.19159300  0.70731900  0.88251500  1
  Cu  Cu14  1  0.80840700  0.20731900  0.61748500  1
  Cu  Cu15  1  0.69003900  0.99755500  0.79857400  1
  Cu  Cu16  1  0.31864100  0.00552000  0.79660400  1
  Cu  Cu17  1  0.18135900  0.99448000  0.29660400  1
  Cu  Cu18  1  0.69159300  0.79268100  0.11748500  1
  Cu  Cu19  1  0.30840700  0.29268100  0.38251500  1
  C  C20  1  0.73948300  0.24584500  0.50180200  1
  C  C21  1  0.21458500  0.90003700  0.40063200  1
  C  C22  1  0.01427900  0.64857800  0.87394000  1
  C  C23  1  0.71458500  0.59996300  0.59936800  1
  C  C24  1  0.70537900  0.65019400  0.20385500  1
  C  C25  1  0.99698300  0.07302000  0.29831700  1
  C  C26  1  0.26051700  0.74584500  0.99819800  1
  C  C27  1  0.49698300  0.42698000  0.70168300  1
  C  C28  1  0.20766700  0.92949400  0.17712000  1
  C  C29  1  0.81132300  0.92090300  0.17161500  1
  C  C30  1  0.69402400  0.13938500  0.28861400  1
  C  C31  1  0.30597600  0.63938500  0.21138600  1
  C  C32  1  0.78261500  0.88874900  0.39213200  1
  C  C33  1  0.80597600  0.86061500  0.78861400  1
  C  C34  1  0.18867700  0.42090300  0.32838500  1
  C  C35  1  0.78541500  0.40003700  0.09936800  1
  C  C36  1  0.28541500  0.09996300  0.90063200  1
  C  C37  1  0.29462100  0.15019400  0.29614500  1
  C  C38  1  0.71738500  0.11125100  0.89213200  1
  C  C39  1  0.19402400  0.36061500  0.71138600  1
  C  C40  1  0.23948300  0.25415500  0.49819800  1
  C  C41  1  0.28261500  0.61125100  0.60786800  1
  C  C42  1  0.76051700  0.75415500  0.00180200  1
  C  C43  1  0.79233300  0.42949400  0.32288000  1
  C  C44  1  0.00301700  0.57302000  0.20168300  1
  C  C45  1  0.68867700  0.07909700  0.67161500  1
  C  C46  1  0.51427900  0.85142200  0.12606000  1
  C  C47  1  0.31132300  0.57909700  0.82838500  1
  C  C48  1  0.48572100  0.35142200  0.37394000  1
  C  C49  1  0.21738500  0.38874900  0.10786800  1
  C  C50  1  0.20537900  0.84980600  0.79614500  1
  C  C51  1  0.79462100  0.34980600  0.70385500  1
  C  C52  1  0.50301700  0.92698000  0.79831700  1
  C  C53  1  0.29233300  0.07050600  0.67712000  1
  C  C54  1  0.70766700  0.57050600  0.82288000  1
  C  C55  1  0.98572100  0.14857800  0.62606000  1
