# generated using pymatgen
data_Cu4Ni2C7
_symmetry_space_group_name_H-M   'P 1'
_cell_length_a   6.12119939
_cell_length_b   6.12119939
_cell_length_c   5.67365300
_cell_angle_alpha   90.00000000
_cell_angle_beta   90.00000000
_cell_angle_gamma   119.99999343
_symmetry_Int_Tables_number   1
_chemical_formula_structural   Cu4Ni2C7
_chemical_formula_sum   'Cu4 Ni2 C7'
_cell_volume   184.10538188
_cell_formula_units_Z   1
loop_
 _symmetry_equiv_pos_site_id
 _symmetry_equiv_pos_as_xyz
  1  'x, y, z'
loop_
 _atom_site_type_symbol
 _atom_site_label
 _atom_site_symmetry_multiplicity
 _atom_site_fract_x
 _atom_site_fract_y
 _atom_site_fract_z
 _atom_site_occupancy
  Ni  Ni0  1  0.33333300  0.66666700  0.53019000  1
  Ni  Ni1  1  0.66666700  0.33333300  0.46981000  1
  Cu  Cu2  1  0.00000000  0.00000000  0.50000000  1
  Cu  Cu3  1  0.50000000  0.00000000  0.00000000  1
  Cu  Cu4  1  0.50000000  0.50000000  0.00000000  1
  Cu  Cu5  1  0.00000000  0.50000000  0.00000000  1
  C  C6  1  0.00000000  0.00000000  0.00000000  1
  C  C7  1  0.67293700  0.83646800  0.20509400  1
  C  C8  1  0.32706300  0.16353200  0.79490600  1
  C  C9  1  0.83646800  0.67293700  0.79490600  1
  C  C10  1  0.16353200  0.83646800  0.20509400  1
  C  C11  1  0.83646800  0.16353200  0.79490600  1
  C  C12  1  0.16353200  0.32706300  0.20509400  1
