# generated using pymatgen
data_Cu2NiC2
_symmetry_space_group_name_H-M   'P 1'
_cell_length_a   7.76880300
_cell_length_b   6.76788300
_cell_length_c   11.08498384
_cell_angle_alpha   79.00055620
_cell_angle_beta   90.00000000
_cell_angle_gamma   90.00000000
_symmetry_Int_Tables_number   1
_chemical_formula_structural   Cu2NiC2
_chemical_formula_sum   'Cu12 Ni6 C12'
_cell_volume   572.12300547
_cell_formula_units_Z   6
loop_
 _symmetry_equiv_pos_site_id
 _symmetry_equiv_pos_as_xyz
  1  'x, y, z'
loop_
 _atom_site_type_symbol
 _atom_site_label
 _atom_site_symmetry_multiplicity
 _atom_site_fract_x
 _atom_site_fract_y
 _atom_site_fract_z
 _atom_site_occupancy
  C  C0  1  0.25000000  0.78950200  0.46852200  1
  C  C1  1  0.25000000  0.38319600  0.11428900  1
  C  C2  1  0.75000000  0.21049800  0.53147800  1
  C  C3  1  0.75000000  0.61680400  0.88571100  1
  C  C4  1  0.25000000  0.12047900  0.75240300  1
  C  C5  1  0.75000000  0.87952100  0.24759700  1
  Ni  Ni6  1  0.75000000  0.05168800  0.06715500  1
  Ni  Ni7  1  0.44197600  0.31470900  0.79295600  1
  Ni  Ni8  1  0.55802400  0.68529100  0.20704400  1
  Ni  Ni9  1  0.25000000  0.94831200  0.93284500  1
  Ni  Ni10  1  0.94197600  0.68529100  0.20704400  1
  Ni  Ni11  1  0.05802400  0.31470900  0.79295600  1
  C  C12  1  0.46943700  0.90336000  0.69941700  1
  C  C13  1  0.25000000  0.29457100  0.54280800  1
  C  C14  1  0.53056300  0.09664000  0.30058300  1
  C  C15  1  0.96943700  0.09664000  0.30058300  1
  C  C16  1  0.75000000  0.70542900  0.45719200  1
  C  C17  1  0.03056300  0.90336000  0.69941700  1
  Cu  Cu18  1  0.93577400  0.62542200  0.10858600  1
  Cu  Cu19  1  0.94336900  0.36634800  0.71610200  1
  Cu  Cu20  1  0.06422600  0.37457800  0.89141400  1
  Cu  Cu21  1  0.25000000  0.76440600  0.94059900  1
  Cu  Cu22  1  0.75000000  0.23559400  0.05940100  1
  Cu  Cu23  1  0.25000000  0.03158600  0.02279500  1
  Cu  Cu24  1  0.05663100  0.63365200  0.28389800  1
  Cu  Cu25  1  0.43577400  0.37457800  0.89141400  1
  Cu  Cu26  1  0.55663100  0.36634800  0.71610200  1
  Cu  Cu27  1  0.44336900  0.63365200  0.28389800  1
  Cu  Cu28  1  0.56422600  0.62542200  0.10858600  1
  Cu  Cu29  1  0.75000000  0.96841400  0.97720500  1
