# generated using pymatgen
data_Cu4NiC3
_symmetry_space_group_name_H-M   'P 1'
_cell_length_a   7.38458700
_cell_length_b   7.99510300
_cell_length_c   8.81026000
_cell_angle_alpha   90.00000000
_cell_angle_beta   90.00000000
_cell_angle_gamma   90.00000000
_symmetry_Int_Tables_number   1
_chemical_formula_structural   Cu4NiC3
_chemical_formula_sum   'Cu16 Ni4 C12'
_cell_volume   520.16245224
_cell_formula_units_Z   4
loop_
 _symmetry_equiv_pos_site_id
 _symmetry_equiv_pos_as_xyz
  1  'x, y, z'
loop_
 _atom_site_type_symbol
 _atom_site_label
 _atom_site_symmetry_multiplicity
 _atom_site_fract_x
 _atom_site_fract_y
 _atom_site_fract_z
 _atom_site_occupancy
  C  C0  1  0.37373700  0.01760300  0.29757000  1
  C  C1  1  0.12626300  0.98239700  0.79757000  1
  C  C2  1  0.87373700  0.48239700  0.70243000  1
  C  C3  1  0.62626300  0.51760300  0.20243000  1
  C  C4  1  0.86479900  0.01543800  0.18247100  1
  C  C5  1  0.36479900  0.48456200  0.81752900  1
  C  C6  1  0.13520100  0.51543800  0.31752900  1
  C  C7  1  0.63520100  0.98456200  0.68247100  1
  C  C8  1  0.37322800  0.68375900  0.58124400  1
  C  C9  1  0.87322800  0.81624100  0.41875600  1
  C  C10  1  0.12677200  0.31624100  0.08124400  1
  C  C11  1  0.62677200  0.18375900  0.91875600  1
  Ni  Ni12  1  0.33027400  0.73824100  0.04150600  1
  Ni  Ni13  1  0.16972600  0.26175900  0.54150600  1
  Ni  Ni14  1  0.66972600  0.23824100  0.45849400  1
  Ni  Ni15  1  0.83027400  0.76175900  0.95849400  1
  Cu  Cu16  1  0.16298300  0.36030100  0.91258600  1
  Cu  Cu17  1  0.97530800  0.42295800  0.15538800  1
  Cu  Cu18  1  0.70678800  0.85026900  0.31298900  1
  Cu  Cu19  1  0.92175900  0.62601200  0.41470200  1
  Cu  Cu20  1  0.29321200  0.35026900  0.18701100  1
  Cu  Cu21  1  0.57824100  0.37398800  0.91470200  1
  Cu  Cu22  1  0.33701700  0.63969900  0.41258600  1
  Cu  Cu23  1  0.52469200  0.57704200  0.65538800  1
  Cu  Cu24  1  0.79321200  0.14973100  0.81298900  1
  Cu  Cu25  1  0.02469200  0.92295800  0.34461200  1
  Cu  Cu26  1  0.42175900  0.87398800  0.58529800  1
  Cu  Cu27  1  0.83701700  0.86030100  0.58741400  1
  Cu  Cu28  1  0.47530800  0.07704200  0.84461200  1
  Cu  Cu29  1  0.66298300  0.13969900  0.08741400  1
  Cu  Cu30  1  0.07824100  0.12601200  0.08529800  1
  Cu  Cu31  1  0.20678800  0.64973100  0.68701100  1
