# generated using pymatgen
data_Cu9Ni18C25
_symmetry_space_group_name_H-M   'P 1'
_cell_length_a   14.07100407
_cell_length_b   14.07100407
_cell_length_c   7.38538200
_cell_angle_alpha   90.00000000
_cell_angle_beta   90.00000000
_cell_angle_gamma   120.00000032
_symmetry_Int_Tables_number   1
_chemical_formula_structural   Cu9Ni18C25
_chemical_formula_sum   'Cu18 Ni36 C50'
_cell_volume   1266.35004782
_cell_formula_units_Z   2
loop_
 _symmetry_equiv_pos_site_id
 _symmetry_equiv_pos_as_xyz
  1  'x, y, z'
loop_
 _atom_site_type_symbol
 _atom_site_label
 _atom_site_symmetry_multiplicity
 _atom_site_fract_x
 _atom_site_fract_y
 _atom_site_fract_z
 _atom_site_occupancy
  C  C0  1  0.33333300  0.66666700  0.75000000  1
  C  C1  1  0.66666700  0.33333300  0.25000000  1
  C  C2  1  0.09799100  0.45519500  0.64248700  1
  C  C3  1  0.64279600  0.09799100  0.14248700  1
  C  C4  1  0.45519500  0.35720400  0.14248700  1
  C  C5  1  0.54480500  0.64279600  0.64248700  1
  C  C6  1  0.35720400  0.90200900  0.64248700  1
  C  C7  1  0.90200900  0.54480500  0.14248700  1
  C  C8  1  0.90200900  0.54480500  0.35751300  1
  C  C9  1  0.35720400  0.90200900  0.85751300  1
  C  C10  1  0.54480500  0.64279600  0.85751300  1
  C  C11  1  0.45519500  0.35720400  0.35751300  1
  C  C12  1  0.64279600  0.09799100  0.35751300  1
  C  C13  1  0.09799100  0.45519500  0.85751300  1
  C  C14  1  0.27557700  0.50646300  0.42133500  1
  C  C15  1  0.76911400  0.27557700  0.92133500  1
  C  C16  1  0.50646300  0.23088600  0.92133500  1
  C  C17  1  0.49353700  0.76911400  0.42133500  1
  C  C18  1  0.23088600  0.72442300  0.42133500  1
  C  C19  1  0.72442300  0.49353700  0.92133500  1
  C  C20  1  0.72442300  0.49353700  0.57866500  1
  C  C21  1  0.23088600  0.72442300  0.07866500  1
  C  C22  1  0.49353700  0.76911400  0.07866500  1
  C  C23  1  0.50646300  0.23088600  0.57866500  1
  C  C24  1  0.76911400  0.27557700  0.57866500  1
  C  C25  1  0.27557700  0.50646300  0.07866500  1
  C  C26  1  0.36292700  0.49286400  0.53507600  1
  C  C27  1  0.87006300  0.36292700  0.03507600  1
  C  C28  1  0.49286400  0.12993700  0.03507600  1
  C  C29  1  0.50713600  0.87006300  0.53507600  1
  C  C30  1  0.12993700  0.63707300  0.53507600  1
  C  C31  1  0.63707300  0.50713600  0.03507600  1
  C  C32  1  0.63707300  0.50713600  0.46492400  1
  C  C33  1  0.12993700  0.63707300  0.96492400  1
  C  C34  1  0.50713600  0.87006300  0.96492400  1
  C  C35  1  0.49286400  0.12993700  0.46492400  1
  C  C36  1  0.87006300  0.36292700  0.46492400  1
  C  C37  1  0.36292700  0.49286400  0.96492400  1
  C  C38  1  0.00587700  0.22912700  0.25000000  1
  C  C39  1  0.77675000  0.00587700  0.75000000  1
  C  C40  1  0.22912700  0.22325000  0.75000000  1
  C  C41  1  0.77087300  0.77675000  0.25000000  1
  C  C42  1  0.22325000  0.99412300  0.25000000  1
  C  C43  1  0.99412300  0.77087300  0.75000000  1
  C  C44  1  0.05845900  0.38036300  0.25000000  1
  C  C45  1  0.67809600  0.05845900  0.75000000  1
  C  C46  1  0.38036300  0.32190400  0.75000000  1
  C  C47  1  0.61963700  0.67809600  0.25000000  1
  C  C48  1  0.32190400  0.94154100  0.25000000  1
  C  C49  1  0.94154100  0.61963700  0.75000000  1
  Ni  Ni50  1  0.14264200  0.49132500  0.75000000  1
  Ni  Ni51  1  0.65131700  0.14264200  0.25000000  1
  Ni  Ni52  1  0.49132500  0.34868300  0.25000000  1
  Ni  Ni53  1  0.50867500  0.65131700  0.75000000  1
  Ni  Ni54  1  0.34868300  0.85735800  0.75000000  1
  Ni  Ni55  1  0.85735800  0.50867500  0.25000000  1
  Ni  Ni56  1  0.33689200  0.54451000  0.50737200  1
  Ni  Ni57  1  0.79238200  0.33689200  0.00737200  1
  Ni  Ni58  1  0.54451000  0.20761800  0.00737200  1
  Ni  Ni59  1  0.45549000  0.79238200  0.50737200  1
  Ni  Ni60  1  0.20761800  0.66310800  0.50737200  1
  Ni  Ni61  1  0.66310800  0.45549000  0.00737200  1
  Ni  Ni62  1  0.66310800  0.45549000  0.49262800  1
  Ni  Ni63  1  0.20761800  0.66310800  0.99262800  1
  Ni  Ni64  1  0.45549000  0.79238200  0.99262800  1
  Ni  Ni65  1  0.54451000  0.20761800  0.49262800  1
  Ni  Ni66  1  0.79238200  0.33689200  0.49262800  1
  Ni  Ni67  1  0.33689200  0.54451000  0.99262800  1
  Ni  Ni68  1  0.01465100  0.39937400  0.41750300  1
  Ni  Ni69  1  0.61527600  0.01465100  0.91750300  1
  Ni  Ni70  1  0.39937400  0.38472400  0.91750300  1
  Ni  Ni71  1  0.60062600  0.61527600  0.41750300  1
  Ni  Ni72  1  0.38472400  0.98534900  0.41750300  1
  Ni  Ni73  1  0.98534900  0.60062600  0.91750300  1
  Ni  Ni74  1  0.98534900  0.60062600  0.58249700  1
  Ni  Ni75  1  0.38472400  0.98534900  0.08249700  1
  Ni  Ni76  1  0.60062600  0.61527600  0.08249700  1
  Ni  Ni77  1  0.39937400  0.38472400  0.58249700  1
  Ni  Ni78  1  0.61527600  0.01465100  0.58249700  1
  Ni  Ni79  1  0.01465100  0.39937400  0.08249700  1
  Ni  Ni80  1  0.17814600  0.42919000  0.25000000  1
  Ni  Ni81  1  0.74895600  0.17814600  0.75000000  1
  Ni  Ni82  1  0.42919000  0.25104400  0.75000000  1
  Ni  Ni83  1  0.57081000  0.74895600  0.25000000  1
  Ni  Ni84  1  0.25104400  0.82185400  0.25000000  1
  Ni  Ni85  1  0.82185400  0.57081000  0.75000000  1
  Cu  Cu86  1  0.04131500  0.20027100  0.39875000  1
  Cu  Cu87  1  0.84104400  0.04131500  0.89875000  1
  Cu  Cu88  1  0.20027100  0.15895600  0.89875000  1
  Cu  Cu89  1  0.79972900  0.84104400  0.39875000  1
  Cu  Cu90  1  0.15895600  0.95868500  0.39875000  1
  Cu  Cu91  1  0.95868500  0.79972900  0.89875000  1
  Cu  Cu92  1  0.95868500  0.79972900  0.60125000  1
  Cu  Cu93  1  0.15895600  0.95868500  0.10125000  1
  Cu  Cu94  1  0.79972900  0.84104400  0.10125000  1
  Cu  Cu95  1  0.20027100  0.15895600  0.60125000  1
  Cu  Cu96  1  0.84104400  0.04131500  0.60125000  1
  Cu  Cu97  1  0.04131500  0.20027100  0.10125000  1
  Cu  Cu98  1  0.89476500  0.17462500  0.25000000  1
  Cu  Cu99  1  0.72014000  0.89476500  0.75000000  1
  Cu  Cu100  1  0.17462500  0.27986000  0.75000000  1
  Cu  Cu101  1  0.82537500  0.72014000  0.25000000  1
  Cu  Cu102  1  0.27986000  0.10523500  0.25000000  1
  Cu  Cu103  1  0.10523500  0.82537500  0.75000000  1
