# generated using pymatgen
data_CuNiC7
_symmetry_space_group_name_H-M   'P 1'
_cell_length_a   13.76190000
_cell_length_b   4.91333500
_cell_length_c   7.58399421
_cell_angle_alpha   88.74363702
_cell_angle_beta   90.00000000
_cell_angle_gamma   90.00000000
_symmetry_Int_Tables_number   1
_chemical_formula_structural   CuNiC7
_chemical_formula_sum   'Cu4 Ni4 C28'
_cell_volume   512.68232915
_cell_formula_units_Z   4
loop_
 _symmetry_equiv_pos_site_id
 _symmetry_equiv_pos_as_xyz
  1  'x, y, z'
loop_
 _atom_site_type_symbol
 _atom_site_label
 _atom_site_symmetry_multiplicity
 _atom_site_fract_x
 _atom_site_fract_y
 _atom_site_fract_z
 _atom_site_occupancy
  Ni  Ni0  1  0.20062200  0.80059900  0.28796500  1
  Ni  Ni1  1  0.79937800  0.19940100  0.71203500  1
  Ni  Ni2  1  0.70062200  0.19940100  0.21203500  1
  Ni  Ni3  1  0.29937800  0.80059900  0.78796500  1
  Cu  Cu4  1  0.59400100  0.72342300  0.97180800  1
  Cu  Cu5  1  0.40599900  0.27657700  0.02819200  1
  Cu  Cu6  1  0.90599900  0.72342300  0.47180800  1
  Cu  Cu7  1  0.09400100  0.27657700  0.52819200  1
  C  C8  1  0.95139700  0.19797500  0.21576100  1
  C  C9  1  0.54860300  0.19797500  0.71576100  1
  C  C10  1  0.04860300  0.80202500  0.78423900  1
  C  C11  1  0.63029500  0.70426000  0.51472600  1
  C  C12  1  0.86970500  0.70426000  0.01472600  1
  C  C13  1  0.45139700  0.80202500  0.28423900  1
  C  C14  1  0.36970500  0.29574000  0.48527400  1
  C  C15  1  0.13029500  0.29574000  0.98527400  1
  C  C16  1  0.42994500  0.12526400  0.33268900  1
  C  C17  1  0.75892800  0.78113800  0.99150700  1
  C  C18  1  0.92701000  0.25107400  0.41716400  1
  C  C19  1  0.57005500  0.87473600  0.66731100  1
  C  C20  1  0.11466700  0.62255000  0.92874100  1
  C  C21  1  0.07005500  0.12526400  0.83268900  1
  C  C22  1  0.56927500  0.74817000  0.32434200  1
  C  C23  1  0.57299000  0.25107400  0.91716400  1
  C  C24  1  0.24107200  0.21886200  0.00849300  1
  C  C25  1  0.42701000  0.74892600  0.08283600  1
  C  C26  1  0.06927500  0.25183000  0.17565800  1
  C  C27  1  0.38533300  0.62255000  0.42874100  1
  C  C28  1  0.88533300  0.37745000  0.07125900  1
  C  C29  1  0.25892800  0.21886200  0.50849300  1
  C  C30  1  0.61466700  0.37745000  0.57125900  1
  C  C31  1  0.07299000  0.74892600  0.58283600  1
  C  C32  1  0.74107200  0.78113800  0.49150700  1
  C  C33  1  0.43072500  0.25183000  0.67565800  1
  C  C34  1  0.92994500  0.87473600  0.16731100  1
  C  C35  1  0.93072500  0.74817000  0.82434200  1
