# generated using pymatgen
data_Cu6Ni2C
_symmetry_space_group_name_H-M   'P 1'
_cell_length_a   7.90722197
_cell_length_b   7.90722197
_cell_length_c   7.90722204
_cell_angle_alpha   97.30923330
_cell_angle_beta   97.30923330
_cell_angle_gamma   97.30924074
_symmetry_Int_Tables_number   1
_chemical_formula_structural   Cu6Ni2C
_chemical_formula_sum   'Cu18 Ni6 C3'
_cell_volume   481.19476475
_cell_formula_units_Z   3
loop_
 _symmetry_equiv_pos_site_id
 _symmetry_equiv_pos_as_xyz
  1  'x, y, z'
loop_
 _atom_site_type_symbol
 _atom_site_label
 _atom_site_symmetry_multiplicity
 _atom_site_fract_x
 _atom_site_fract_y
 _atom_site_fract_z
 _atom_site_occupancy
  C  C0  1  0.83202200  0.83202200  0.83202200  1
  C  C1  1  0.16797800  0.16797800  0.16797800  1
  C  C2  1  0.50000000  0.50000000  0.50000000  1
  Ni  Ni3  1  0.29553600  0.88139900  0.66542600  1
  Ni  Ni4  1  0.11860100  0.33457400  0.70446400  1
  Ni  Ni5  1  0.88139900  0.66542600  0.29553600  1
  Ni  Ni6  1  0.66542600  0.29553600  0.88139900  1
  Ni  Ni7  1  0.70446400  0.11860100  0.33457400  1
  Ni  Ni8  1  0.33457400  0.70446400  0.11860100  1
  Cu  Cu9  1  0.27858500  0.39283900  0.89826900  1
  Cu  Cu10  1  0.39283900  0.89826900  0.27858500  1
  Cu  Cu11  1  0.10173100  0.72141500  0.60716100  1
  Cu  Cu12  1  0.10081200  0.68997900  0.08262800  1
  Cu  Cu13  1  0.27820200  0.34537600  0.54693000  1
  Cu  Cu14  1  0.68997900  0.08262800  0.10081200  1
  Cu  Cu15  1  0.89826900  0.27858500  0.39283900  1
  Cu  Cu16  1  0.31002100  0.91737200  0.89918800  1
  Cu  Cu17  1  0.72179800  0.65462400  0.45307000  1
  Cu  Cu18  1  0.34537600  0.54693000  0.27820200  1
  Cu  Cu19  1  0.72141500  0.60716100  0.10173100  1
  Cu  Cu20  1  0.65462400  0.45307000  0.72179800  1
  Cu  Cu21  1  0.60716100  0.10173100  0.72141500  1
  Cu  Cu22  1  0.08262800  0.10081200  0.68997900  1
  Cu  Cu23  1  0.91737200  0.89918800  0.31002100  1
  Cu  Cu24  1  0.54693000  0.27820200  0.34537600  1
  Cu  Cu25  1  0.89918800  0.31002100  0.91737200  1
  Cu  Cu26  1  0.45307000  0.72179800  0.65462400  1
