# generated using pymatgen
data_Cu7Ni4C23
_symmetry_space_group_name_H-M   'P 1'
_cell_length_a   10.03246291
_cell_length_b   10.03246291
_cell_length_c   22.75326000
_cell_angle_alpha   90.00000000
_cell_angle_beta   90.00000000
_cell_angle_gamma   120.00000597
_symmetry_Int_Tables_number   1
_chemical_formula_structural   Cu7Ni4C23
_chemical_formula_sum   'Cu14 Ni8 C46'
_cell_volume   1983.30433125
_cell_formula_units_Z   2
loop_
 _symmetry_equiv_pos_site_id
 _symmetry_equiv_pos_as_xyz
  1  'x, y, z'
loop_
 _atom_site_type_symbol
 _atom_site_label
 _atom_site_symmetry_multiplicity
 _atom_site_fract_x
 _atom_site_fract_y
 _atom_site_fract_z
 _atom_site_occupancy
  C  C0  1  0.79281100  0.20718900  0.94833300  1
  C  C1  1  0.07905400  0.53952700  0.58659100  1
  C  C2  1  0.41437700  0.20718900  0.94833300  1
  C  C3  1  0.66666700  0.33333300  0.64532400  1
  C  C4  1  0.79281100  0.58562300  0.94833300  1
  C  C5  1  0.92094600  0.46047300  0.08659100  1
  C  C6  1  0.79325200  0.20674800  0.21989500  1
  C  C7  1  0.20674800  0.79325200  0.71989500  1
  C  C8  1  0.21187100  0.42374200  0.99249100  1
  C  C9  1  0.20674800  0.41349600  0.71989500  1
  C  C10  1  0.87210300  0.74420600  0.63311300  1
  C  C11  1  0.12789700  0.87210300  0.13311300  1
  C  C12  1  0.08619700  0.54309800  0.85654700  1
  C  C13  1  0.25579400  0.12789700  0.63311300  1
  C  C14  1  0.00000000  0.00000000  0.99843400  1
  C  C15  1  0.20718900  0.41437700  0.44833300  1
  C  C16  1  0.58650400  0.79325200  0.71989500  1
  C  C17  1  0.57625800  0.78812900  0.99249100  1
  C  C18  1  0.79325200  0.58650400  0.21989500  1
  C  C19  1  0.20512200  0.79487800  0.28216700  1
  C  C20  1  0.79487800  0.20512200  0.78216700  1
  C  C21  1  0.79487800  0.58975600  0.78216700  1
  C  C22  1  0.45690200  0.54309800  0.85654700  1
  C  C23  1  0.00000000  0.00000000  0.49843400  1
  C  C24  1  0.74420600  0.87210300  0.13311300  1
  C  C25  1  0.78812900  0.21187100  0.49249100  1
  C  C26  1  0.12789700  0.25579400  0.13311300  1
  C  C27  1  0.53952700  0.46047300  0.08659100  1
  C  C28  1  0.33333300  0.66666700  0.14532400  1
  C  C29  1  0.45690200  0.91380300  0.85654700  1
  C  C30  1  0.20718900  0.79281100  0.44833300  1
  C  C31  1  0.91380300  0.45690200  0.35654700  1
  C  C32  1  0.42374200  0.21187100  0.49249100  1
  C  C33  1  0.21187100  0.78812900  0.99249100  1
  C  C34  1  0.54309800  0.08619700  0.35654700  1
  C  C35  1  0.46047300  0.92094600  0.58659100  1
  C  C36  1  0.54309800  0.45690200  0.35654700  1
  C  C37  1  0.58562300  0.79281100  0.44833300  1
  C  C38  1  0.46047300  0.53952700  0.58659100  1
  C  C39  1  0.41349600  0.20674800  0.21989500  1
  C  C40  1  0.20512200  0.41024400  0.28216700  1
  C  C41  1  0.41024400  0.20512200  0.78216700  1
  C  C42  1  0.58975600  0.79487800  0.28216700  1
  C  C43  1  0.87210300  0.12789700  0.63311300  1
  C  C44  1  0.78812900  0.57625800  0.49249100  1
  C  C45  1  0.53952700  0.07905400  0.08659100  1
  Ni  Ni46  1  0.89449900  0.78899800  0.36341800  1
  Ni  Ni47  1  0.00000000  0.00000000  0.74980100  1
  Ni  Ni48  1  0.21100200  0.10550100  0.36341800  1
  Ni  Ni49  1  0.78899800  0.89449900  0.86341800  1
  Ni  Ni50  1  0.89449900  0.10550100  0.36341800  1
  Ni  Ni51  1  0.10550100  0.21100200  0.86341800  1
  Ni  Ni52  1  0.00000000  0.00000000  0.24980100  1
  Ni  Ni53  1  0.10550100  0.89449900  0.86341800  1
  Cu  Cu54  1  0.28539700  0.14269900  0.06361900  1
  Cu  Cu55  1  0.33333300  0.66666700  0.36287900  1
  Cu  Cu56  1  0.47874600  0.52125400  0.21120600  1
  Cu  Cu57  1  0.85730100  0.71460300  0.06361900  1
  Cu  Cu58  1  0.14269900  0.28539700  0.56361900  1
  Cu  Cu59  1  0.04250800  0.52125400  0.21120600  1
  Cu  Cu60  1  0.14269900  0.85730100  0.56361900  1
  Cu  Cu61  1  0.66666700  0.33333300  0.86287900  1
  Cu  Cu62  1  0.85730100  0.14269900  0.06361900  1
  Cu  Cu63  1  0.71460300  0.85730100  0.56361900  1
  Cu  Cu64  1  0.52125400  0.04250800  0.71120600  1
  Cu  Cu65  1  0.95749200  0.47874600  0.71120600  1
  Cu  Cu66  1  0.52125400  0.47874600  0.71120600  1
  Cu  Cu67  1  0.47874600  0.95749200  0.21120600  1
