# generated using pymatgen
data_Cu3NiC
_symmetry_space_group_name_H-M   'P 1'
_cell_length_a   13.79691400
_cell_length_b   6.41150000
_cell_length_c   13.38840003
_cell_angle_alpha   84.50596429
_cell_angle_beta   90.00000000
_cell_angle_gamma   90.00000000
_symmetry_Int_Tables_number   1
_chemical_formula_structural   Cu3NiC
_chemical_formula_sum   'Cu24 Ni8 C8'
_cell_volume   1178.88274863
_cell_formula_units_Z   8
loop_
 _symmetry_equiv_pos_site_id
 _symmetry_equiv_pos_as_xyz
  1  'x, y, z'
loop_
 _atom_site_type_symbol
 _atom_site_label
 _atom_site_symmetry_multiplicity
 _atom_site_fract_x
 _atom_site_fract_y
 _atom_site_fract_z
 _atom_site_occupancy
  C  C0  1  0.75000000  0.15519200  0.98411000  1
  C  C1  1  0.75000000  0.00636700  0.46638400  1
  C  C2  1  0.25000000  0.84480800  0.01589000  1
  C  C3  1  0.25000000  0.99363300  0.53361600  1
  Ni  Ni4  1  0.40686600  0.36726700  0.83590400  1
  Ni  Ni5  1  0.47970800  0.74462600  0.34262200  1
  Ni  Ni6  1  0.59313400  0.63273300  0.16409600  1
  Ni  Ni7  1  0.02029200  0.74462600  0.34262200  1
  Ni  Ni8  1  0.90686600  0.63273300  0.16409600  1
  Ni  Ni9  1  0.97970800  0.25537400  0.65737800  1
  Ni  Ni10  1  0.09313400  0.36726700  0.83590400  1
  Ni  Ni11  1  0.52029200  0.25537400  0.65737800  1
  C  C12  1  0.94877400  0.73061300  0.25548100  1
  C  C13  1  0.05122600  0.26938700  0.74451900  1
  C  C14  1  0.55122600  0.73061300  0.25548100  1
  C  C15  1  0.44877400  0.26938700  0.74451900  1
  Cu  Cu16  1  0.75000000  0.70000700  0.41440500  1
  Cu  Cu17  1  0.37894000  0.94616500  0.08786000  1
  Cu  Cu18  1  0.88084000  0.17019900  0.41523200  1
  Cu  Cu19  1  0.25000000  0.02887200  0.37064700  1
  Cu  Cu20  1  0.75000000  0.02402900  0.14025300  1
  Cu  Cu21  1  0.61916000  0.17019900  0.41523200  1
  Cu  Cu22  1  0.75000000  0.97112800  0.62935300  1
  Cu  Cu23  1  0.01627400  0.62485800  0.86367000  1
  Cu  Cu24  1  0.98372600  0.37514200  0.13633000  1
  Cu  Cu25  1  0.25000000  0.97597100  0.85974700  1
  Cu  Cu26  1  0.88586900  0.49881600  0.64790100  1
  Cu  Cu27  1  0.62106000  0.05383500  0.91214000  1
  Cu  Cu28  1  0.75000000  0.49331000  0.98098100  1
  Cu  Cu29  1  0.87894000  0.05383500  0.91214000  1
  Cu  Cu30  1  0.25000000  0.29999300  0.58559500  1
  Cu  Cu31  1  0.61413100  0.49881600  0.64790100  1
  Cu  Cu32  1  0.12106000  0.94616500  0.08786000  1
  Cu  Cu33  1  0.25000000  0.50669000  0.01901900  1
  Cu  Cu34  1  0.51627400  0.37514200  0.13633000  1
  Cu  Cu35  1  0.48372600  0.62485800  0.86367000  1
  Cu  Cu36  1  0.38586900  0.50118400  0.35209900  1
  Cu  Cu37  1  0.38084000  0.82980100  0.58476800  1
  Cu  Cu38  1  0.11916000  0.82980100  0.58476800  1
  Cu  Cu39  1  0.11413100  0.50118400  0.35209900  1
