# generated using pymatgen
data_Cu(NiC)3
_symmetry_space_group_name_H-M   'P 1'
_cell_length_a   3.99867100
_cell_length_b   11.91841300
_cell_length_c   12.82392400
_cell_angle_alpha   90.00000000
_cell_angle_beta   90.00000000
_cell_angle_gamma   90.00000000
_symmetry_Int_Tables_number   1
_chemical_formula_structural   Cu(NiC)3
_chemical_formula_sum   'Cu4 Ni12 C12'
_cell_volume   611.16016460
_cell_formula_units_Z   4
loop_
 _symmetry_equiv_pos_site_id
 _symmetry_equiv_pos_as_xyz
  1  'x, y, z'
loop_
 _atom_site_type_symbol
 _atom_site_label
 _atom_site_symmetry_multiplicity
 _atom_site_fract_x
 _atom_site_fract_y
 _atom_site_fract_z
 _atom_site_occupancy
  C  C0  1  0.75000000  0.40701900  0.87752200  1
  C  C1  1  0.25000000  0.59298100  0.12247800  1
  C  C2  1  0.75000000  0.90701900  0.62247800  1
  C  C3  1  0.25000000  0.09298100  0.37752200  1
  C  C4  1  0.75000000  0.76637300  0.86913600  1
  C  C5  1  0.25000000  0.23362700  0.13086400  1
  C  C6  1  0.75000000  0.26637300  0.63086400  1
  C  C7  1  0.25000000  0.73362700  0.36913600  1
  C  C8  1  0.75000000  0.96403200  0.15194200  1
  C  C9  1  0.25000000  0.03596800  0.84805800  1
  C  C10  1  0.75000000  0.46403200  0.34805800  1
  C  C11  1  0.25000000  0.53596800  0.65194200  1
  Ni  Ni12  1  0.75000000  0.64267300  0.50433700  1
  Ni  Ni13  1  0.25000000  0.35732700  0.49566300  1
  Ni  Ni14  1  0.75000000  0.14267300  0.99566300  1
  Ni  Ni15  1  0.25000000  0.85732700  0.00433700  1
  Ni  Ni16  1  0.75000000  0.42405000  0.10924700  1
  Ni  Ni17  1  0.25000000  0.57595000  0.89075300  1
  Ni  Ni18  1  0.75000000  0.92405000  0.39075300  1
  Ni  Ni19  1  0.25000000  0.07595000  0.60924700  1
  Ni  Ni20  1  0.75000000  0.73250700  0.20648600  1
  Ni  Ni21  1  0.25000000  0.26749300  0.79351400  1
  Ni  Ni22  1  0.75000000  0.23250700  0.29351400  1
  Ni  Ni23  1  0.25000000  0.76749300  0.70648600  1
  Cu  Cu24  1  0.75000000  0.44795200  0.70099000  1
  Cu  Cu25  1  0.25000000  0.55204800  0.29901000  1
  Cu  Cu26  1  0.75000000  0.94795200  0.79901000  1
  Cu  Cu27  1  0.25000000  0.05204800  0.20099000  1
