# generated using pymatgen
data_Cu2NiC4
_symmetry_space_group_name_H-M   'P 1'
_cell_length_a   5.69394900
_cell_length_b   7.03021000
_cell_length_c   10.24827600
_cell_angle_alpha   90.00000000
_cell_angle_beta   90.00000000
_cell_angle_gamma   90.00000000
_symmetry_Int_Tables_number   1
_chemical_formula_structural   Cu2NiC4
_chemical_formula_sum   'Cu8 Ni4 C16'
_cell_volume   410.23497516
_cell_formula_units_Z   4
loop_
 _symmetry_equiv_pos_site_id
 _symmetry_equiv_pos_as_xyz
  1  'x, y, z'
loop_
 _atom_site_type_symbol
 _atom_site_label
 _atom_site_symmetry_multiplicity
 _atom_site_fract_x
 _atom_site_fract_y
 _atom_site_fract_z
 _atom_site_occupancy
  Ni  Ni0  1  0.04056000  0.75000000  0.31751500  1
  Ni  Ni1  1  0.54056000  0.25000000  0.18248500  1
  Ni  Ni2  1  0.95944000  0.25000000  0.68248500  1
  Ni  Ni3  1  0.45944000  0.75000000  0.81751500  1
  Cu  Cu4  1  0.50000000  0.50000000  0.50000000  1
  Cu  Cu5  1  0.00000000  0.50000000  0.00000000  1
  Cu  Cu6  1  0.50000000  0.00000000  0.50000000  1
  Cu  Cu7  1  0.00000000  0.00000000  0.00000000  1
  Cu  Cu8  1  0.51959600  0.75000000  0.14439100  1
  Cu  Cu9  1  0.01959600  0.25000000  0.35560900  1
  Cu  Cu10  1  0.48040400  0.25000000  0.85560900  1
  Cu  Cu11  1  0.98040400  0.75000000  0.64439100  1
  C  C12  1  0.10131400  0.75000000  0.15461700  1
  C  C13  1  0.60131400  0.25000000  0.34538300  1
  C  C14  1  0.89868600  0.25000000  0.84538300  1
  C  C15  1  0.39868600  0.75000000  0.65461700  1
  C  C16  1  0.75152300  0.75000000  0.34486000  1
  C  C17  1  0.25152300  0.25000000  0.15514000  1
  C  C18  1  0.24847700  0.25000000  0.65514000  1
  C  C19  1  0.74847700  0.75000000  0.84486000  1
  C  C20  1  0.16055100  0.55524700  0.38609600  1
  C  C21  1  0.66055100  0.44475300  0.11390400  1
  C  C22  1  0.83944900  0.05524700  0.61390400  1
  C  C23  1  0.33944900  0.94475300  0.88609600  1
  C  C24  1  0.83944900  0.44475300  0.61390400  1
  C  C25  1  0.33944900  0.55524700  0.88609600  1
  C  C26  1  0.16055100  0.94475300  0.38609600  1
  C  C27  1  0.66055100  0.05524700  0.11390400  1
