# generated using pymatgen
data_Cu7Ni4C3
_symmetry_space_group_name_H-M   'P 1'
_cell_length_a   5.31460300
_cell_length_b   5.68977400
_cell_length_c   15.81942239
_cell_angle_alpha   74.22197815
_cell_angle_beta   90.00000000
_cell_angle_gamma   90.00000000
_symmetry_Int_Tables_number   1
_chemical_formula_structural   Cu7Ni4C3
_chemical_formula_sum   'Cu14 Ni8 C6'
_cell_volume   460.33823374
_cell_formula_units_Z   2
loop_
 _symmetry_equiv_pos_site_id
 _symmetry_equiv_pos_as_xyz
  1  'x, y, z'
loop_
 _atom_site_type_symbol
 _atom_site_label
 _atom_site_symmetry_multiplicity
 _atom_site_fract_x
 _atom_site_fract_y
 _atom_site_fract_z
 _atom_site_occupancy
  C  C0  1  0.30685900  0.50000000  0.25000000  1
  C  C1  1  0.69314100  0.50000000  0.75000000  1
  C  C2  1  0.75286600  0.87477400  0.38667600  1
  C  C3  1  0.75286600  0.12522600  0.11332400  1
  C  C4  1  0.24713400  0.87477400  0.88667600  1
  C  C5  1  0.24713400  0.12522600  0.61332400  1
  Ni  Ni6  1  0.40847600  0.87083700  0.60379500  1
  Ni  Ni7  1  0.13432400  0.24653200  0.50967700  1
  Ni  Ni8  1  0.59152400  0.12916300  0.39620500  1
  Ni  Ni9  1  0.86567600  0.24653200  0.00967700  1
  Ni  Ni10  1  0.40847600  0.12916300  0.89620500  1
  Ni  Ni11  1  0.86567600  0.75346800  0.49032300  1
  Ni  Ni12  1  0.59152400  0.87083700  0.10379500  1
  Ni  Ni13  1  0.13432400  0.75346800  0.99032300  1
  Cu  Cu14  1  0.46025800  0.67889000  0.39597700  1
  Cu  Cu15  1  0.62185800  0.00000000  0.25000000  1
  Cu  Cu16  1  0.04600500  0.95105800  0.16139300  1
  Cu  Cu17  1  0.37814200  0.00000000  0.75000000  1
  Cu  Cu18  1  0.88716300  0.62977600  0.33245400  1
  Cu  Cu19  1  0.53974200  0.67889000  0.89597700  1
  Cu  Cu20  1  0.11283700  0.37022400  0.66754600  1
  Cu  Cu21  1  0.04600500  0.04894200  0.33860700  1
  Cu  Cu22  1  0.11283700  0.62977600  0.83245400  1
  Cu  Cu23  1  0.53974200  0.32111000  0.60402300  1
  Cu  Cu24  1  0.95399500  0.04894200  0.83860700  1
  Cu  Cu25  1  0.88716300  0.37022400  0.16754600  1
  Cu  Cu26  1  0.95399500  0.95105800  0.66139300  1
  Cu  Cu27  1  0.46025800  0.32111000  0.10402300  1
