# generated using pymatgen
data_Cu9NiC36
_symmetry_space_group_name_H-M   'P 1'
_cell_length_a   13.87156115
_cell_length_b   13.87156115
_cell_length_c   13.87156167
_cell_angle_alpha   44.69547843
_cell_angle_beta   44.69547843
_cell_angle_gamma   44.69547889
_symmetry_Int_Tables_number   1
_chemical_formula_structural   Cu9NiC36
_chemical_formula_sum   'Cu18 Ni2 C72'
_cell_volume   1201.02713695
_cell_formula_units_Z   2
loop_
 _symmetry_equiv_pos_site_id
 _symmetry_equiv_pos_as_xyz
  1  'x, y, z'
loop_
 _atom_site_type_symbol
 _atom_site_label
 _atom_site_symmetry_multiplicity
 _atom_site_fract_x
 _atom_site_fract_y
 _atom_site_fract_z
 _atom_site_occupancy
  Ni  Ni0  1  0.68395400  0.68395400  0.68395400  1
  Ni  Ni1  1  0.18395400  0.18395400  0.18395400  1
  Cu  Cu2  1  0.57421500  0.56506800  0.16047500  1
  Cu  Cu3  1  0.97300600  0.56371400  0.94389500  1
  Cu  Cu4  1  0.90969900  0.34615100  0.94545500  1
  Cu  Cu5  1  0.66047500  0.06506800  0.07421500  1
  Cu  Cu6  1  0.34615100  0.94545500  0.90969900  1
  Cu  Cu7  1  0.56506800  0.16047500  0.57421500  1
  Cu  Cu8  1  0.94389500  0.97300600  0.56371400  1
  Cu  Cu9  1  0.56371400  0.94389500  0.97300600  1
  Cu  Cu10  1  0.06371400  0.47300600  0.44389500  1
  Cu  Cu11  1  0.16047500  0.57421500  0.56506800  1
  Cu  Cu12  1  0.40969900  0.44545500  0.84615100  1
  Cu  Cu13  1  0.06506800  0.07421500  0.66047500  1
  Cu  Cu14  1  0.47300600  0.44389500  0.06371400  1
  Cu  Cu15  1  0.84615100  0.40969900  0.44545500  1
  Cu  Cu16  1  0.44545500  0.84615100  0.40969900  1
  Cu  Cu17  1  0.44389500  0.06371400  0.47300600  1
  Cu  Cu18  1  0.07421500  0.66047500  0.06506800  1
  Cu  Cu19  1  0.94545500  0.90969900  0.34615100  1
  C  C20  1  0.50138900  0.50138900  0.50138900  1
  C  C21  1  0.00138900  0.00138900  0.00138900  1
  C  C22  1  0.31510500  0.82054900  0.27289300  1
  C  C23  1  0.68237400  0.18739100  0.72884100  1
  C  C24  1  0.32054900  0.81510500  0.77289300  1
  C  C25  1  0.82054900  0.27289300  0.31510500  1
  C  C26  1  0.22884100  0.68739100  0.18237400  1
  C  C27  1  0.27289300  0.31510500  0.82054900  1
  C  C28  1  0.72884100  0.68237400  0.18739100  1
  C  C29  1  0.81510500  0.77289300  0.32054900  1
  C  C30  1  0.76845200  0.76845200  0.76845200  1
  C  C31  1  0.18237400  0.22884100  0.68739100  1
  C  C32  1  0.18739100  0.72884100  0.68237400  1
  C  C33  1  0.77289300  0.32054900  0.81510500  1
  C  C34  1  0.26845200  0.26845200  0.26845200  1
  C  C35  1  0.68739100  0.18237400  0.22884100  1
  C  C36  1  0.61639700  0.36333800  0.64385900  1
  C  C37  1  0.12878800  0.67620400  0.85152300  1
  C  C38  1  0.64385900  0.61639700  0.36333800  1
  C  C39  1  0.39553000  0.86934700  0.76191100  1
  C  C40  1  0.37439300  0.64519000  0.37069800  1
  C  C41  1  0.38875400  0.64111700  0.84152300  1
  C  C42  1  0.37069800  0.37439300  0.64519000  1
  C  C43  1  0.36333800  0.64385900  0.61639700  1
  C  C44  1  0.86934700  0.76191100  0.39553000  1
  C  C45  1  0.26191100  0.36934700  0.89553000  1
  C  C46  1  0.26226500  0.39141900  0.11139400  1
  C  C47  1  0.16931400  0.19109700  0.61634000  1
  C  C48  1  0.14439900  0.90118000  0.58877100  1
  C  C49  1  0.08877100  0.40118000  0.64439900  1
  C  C50  1  0.61634000  0.16931400  0.19109700  1
  C  C51  1  0.34152300  0.14111700  0.88875400  1
  C  C52  1  0.89141900  0.76226500  0.61139400  1
  C  C53  1  0.87439300  0.87069800  0.14519000  1
  C  C54  1  0.17620400  0.62878800  0.35152300  1
  C  C55  1  0.83797400  0.10963500  0.39429000  1
  C  C56  1  0.89553000  0.26191100  0.36934700  1
  C  C57  1  0.11634000  0.69109700  0.66931400  1
  C  C58  1  0.64111700  0.84152300  0.38875400  1
  C  C59  1  0.64439900  0.08877100  0.40118000  1
  C  C60  1  0.76226500  0.61139400  0.89141900  1
  C  C61  1  0.81002300  0.81002300  0.81002300  1
  C  C62  1  0.76191100  0.39553000  0.86934700  1
  C  C63  1  0.33797400  0.89429000  0.60963500  1
  C  C64  1  0.66931400  0.11634000  0.69109700  1
  C  C65  1  0.14111700  0.88875400  0.34152300  1
  C  C66  1  0.10963500  0.39429000  0.83797400  1
  C  C67  1  0.39429000  0.83797400  0.10963500  1
  C  C68  1  0.39141900  0.11139400  0.26226500  1
  C  C69  1  0.58877100  0.14439900  0.90118000  1
  C  C70  1  0.19109700  0.61634000  0.16931400  1
  C  C71  1  0.11139400  0.26226500  0.39141900  1
  C  C72  1  0.11639700  0.14385900  0.86333800  1
  C  C73  1  0.60963500  0.33797400  0.89429000  1
  C  C74  1  0.69109700  0.66931400  0.11634000  1
  C  C75  1  0.62878800  0.35152300  0.17620400  1
  C  C76  1  0.84152300  0.38875400  0.64111700  1
  C  C77  1  0.85152300  0.12878800  0.67620400  1
  C  C78  1  0.14385900  0.86333800  0.11639700  1
  C  C79  1  0.87069800  0.14519000  0.87439300  1
  C  C80  1  0.14519000  0.87439300  0.87069800  1
  C  C81  1  0.61139400  0.89141900  0.76226500  1
  C  C82  1  0.64519000  0.37069800  0.37439300  1
  C  C83  1  0.67620400  0.85152300  0.12878800  1
  C  C84  1  0.35152300  0.17620400  0.62878800  1
  C  C85  1  0.89429000  0.60963500  0.33797400  1
  C  C86  1  0.88875400  0.34152300  0.14111700  1
  C  C87  1  0.36934700  0.89553000  0.26191100  1
  C  C88  1  0.90118000  0.58877100  0.14439900  1
  C  C89  1  0.31002300  0.31002300  0.31002300  1
  C  C90  1  0.86333800  0.11639700  0.14385900  1
  C  C91  1  0.40118000  0.64439900  0.08877100  1
