# generated using pymatgen
data_Cu21(NiC3)2
_symmetry_space_group_name_H-M   'P 1'
_cell_length_a   7.34566990
_cell_length_b   7.34566990
_cell_length_c   7.34566990
_cell_angle_alpha   60.00000000
_cell_angle_beta   60.00000000
_cell_angle_gamma   60.00000000
_symmetry_Int_Tables_number   1
_chemical_formula_structural   Cu21(NiC3)2
_chemical_formula_sum   'Cu21 Ni2 C6'
_cell_volume   280.27168649
_cell_formula_units_Z   1
loop_
 _symmetry_equiv_pos_site_id
 _symmetry_equiv_pos_as_xyz
  1  'x, y, z'
loop_
 _atom_site_type_symbol
 _atom_site_label
 _atom_site_symmetry_multiplicity
 _atom_site_fract_x
 _atom_site_fract_y
 _atom_site_fract_z
 _atom_site_occupancy
  Ni  Ni0  1  0.75000000  0.75000000  0.75000000  1
  Ni  Ni1  1  0.25000000  0.25000000  0.25000000  1
  Cu  Cu2  1  0.00000000  0.00000000  0.00000000  1
  Cu  Cu3  1  0.62050700  0.62050700  0.13848000  1
  Cu  Cu4  1  0.62050700  0.13848000  0.62050700  1
  Cu  Cu5  1  0.13848000  0.62050700  0.62050700  1
  Cu  Cu6  1  0.62050700  0.62050700  0.62050700  1
  Cu  Cu7  1  0.37949300  0.37949300  0.86152000  1
  Cu  Cu8  1  0.37949300  0.86152000  0.37949300  1
  Cu  Cu9  1  0.86152000  0.37949300  0.37949300  1
  Cu  Cu10  1  0.37949300  0.37949300  0.37949300  1
  Cu  Cu11  1  0.00000000  0.00000000  0.33874200  1
  Cu  Cu12  1  0.66125800  0.00000000  0.33874200  1
  Cu  Cu13  1  0.00000000  0.66125800  0.33874200  1
  Cu  Cu14  1  0.66125800  0.33874200  0.00000000  1
  Cu  Cu15  1  0.00000000  0.33874200  0.00000000  1
  Cu  Cu16  1  0.00000000  0.33874200  0.66125800  1
  Cu  Cu17  1  0.33874200  0.66125800  0.00000000  1
  Cu  Cu18  1  0.33874200  0.00000000  0.66125800  1
  Cu  Cu19  1  0.33874200  0.00000000  0.00000000  1
  Cu  Cu20  1  0.00000000  0.00000000  0.66125800  1
  Cu  Cu21  1  0.00000000  0.66125800  0.00000000  1
  Cu  Cu22  1  0.66125800  0.00000000  0.00000000  1
  C  C23  1  0.72476800  0.72476800  0.27523200  1
  C  C24  1  0.27523200  0.72476800  0.27523200  1
  C  C25  1  0.72476800  0.27523200  0.27523200  1
  C  C26  1  0.27523200  0.27523200  0.72476800  1
  C  C27  1  0.72476800  0.27523200  0.72476800  1
  C  C28  1  0.27523200  0.72476800  0.72476800  1
