# generated using pymatgen
data_CuNi5C18
_symmetry_space_group_name_H-M   'P 1'
_cell_length_a   8.74199200
_cell_length_b   8.74199200
_cell_length_c   11.77411500
_cell_angle_alpha   90.00000000
_cell_angle_beta   90.00000000
_cell_angle_gamma   90.00000000
_symmetry_Int_Tables_number   1
_chemical_formula_structural   CuNi5C18
_chemical_formula_sum   'Cu2 Ni10 C36'
_cell_volume   899.80641026
_cell_formula_units_Z   2
loop_
 _symmetry_equiv_pos_site_id
 _symmetry_equiv_pos_as_xyz
  1  'x, y, z'
loop_
 _atom_site_type_symbol
 _atom_site_label
 _atom_site_symmetry_multiplicity
 _atom_site_fract_x
 _atom_site_fract_y
 _atom_site_fract_z
 _atom_site_occupancy
  Ni  Ni0  1  0.00000000  0.00000000  0.50000000  1
  Ni  Ni1  1  0.50000000  0.50000000  0.00000000  1
  Ni  Ni2  1  0.81158100  0.68841900  0.25000000  1
  Ni  Ni3  1  0.18841900  0.31158100  0.25000000  1
  Ni  Ni4  1  0.68841900  0.18841900  0.75000000  1
  Ni  Ni5  1  0.31158100  0.81158100  0.75000000  1
  Ni  Ni6  1  0.68841900  0.18841900  0.25000000  1
  Ni  Ni7  1  0.31158100  0.81158100  0.25000000  1
  Ni  Ni8  1  0.18841900  0.31158100  0.75000000  1
  Ni  Ni9  1  0.81158100  0.68841900  0.75000000  1
  Cu  Cu10  1  0.50000000  0.50000000  0.50000000  1
  Cu  Cu11  1  0.00000000  0.00000000  0.00000000  1
  C  C12  1  0.57458300  0.90026400  0.50000000  1
  C  C13  1  0.42541700  0.09973600  0.50000000  1
  C  C14  1  0.92541700  0.40026400  0.00000000  1
  C  C15  1  0.07458300  0.59973600  0.00000000  1
  C  C16  1  0.90026400  0.42541700  0.50000000  1
  C  C17  1  0.09973600  0.57458300  0.50000000  1
  C  C18  1  0.40026400  0.07458300  0.00000000  1
  C  C19  1  0.59973600  0.92541700  0.00000000  1
  C  C20  1  0.50000000  0.50000000  0.26404000  1
  C  C21  1  0.00000000  0.00000000  0.76404000  1
  C  C22  1  0.50000000  0.50000000  0.73596000  1
  C  C23  1  0.00000000  0.00000000  0.23596000  1
  C  C24  1  0.77147800  0.53313500  0.50000000  1
  C  C25  1  0.22852200  0.46686500  0.50000000  1
  C  C26  1  0.72852200  0.03313500  0.00000000  1
  C  C27  1  0.27147800  0.96686500  0.00000000  1
  C  C28  1  0.53313500  0.22852200  0.50000000  1
  C  C29  1  0.46686500  0.77147800  0.50000000  1
  C  C30  1  0.03313500  0.27147800  0.00000000  1
  C  C31  1  0.96686500  0.72852200  0.00000000  1
  C  C32  1  0.08451700  0.66579400  0.39534100  1
  C  C33  1  0.91548300  0.33420600  0.39534100  1
  C  C34  1  0.41548300  0.16579400  0.89534100  1
  C  C35  1  0.58451700  0.83420600  0.89534100  1
  C  C36  1  0.66579400  0.91548300  0.39534100  1
  C  C37  1  0.33420600  0.08451700  0.39534100  1
  C  C38  1  0.16579400  0.58451700  0.89534100  1
  C  C39  1  0.83420600  0.41548300  0.89534100  1
  C  C40  1  0.91548300  0.33420600  0.60465900  1
  C  C41  1  0.08451700  0.66579400  0.60465900  1
  C  C42  1  0.58451700  0.83420600  0.10465900  1
  C  C43  1  0.41548300  0.16579400  0.10465900  1
  C  C44  1  0.33420600  0.08451700  0.60465900  1
  C  C45  1  0.66579400  0.91548300  0.60465900  1
  C  C46  1  0.83420600  0.41548300  0.10465900  1
  C  C47  1  0.16579400  0.58451700  0.10465900  1
