# generated using pymatgen
data_Cu5Ni3C5
_symmetry_space_group_name_H-M   'P 1'
_cell_length_a   7.69486300
_cell_length_b   10.15886000
_cell_length_c   17.11220200
_cell_angle_alpha   90.00000000
_cell_angle_beta   90.00000000
_cell_angle_gamma   90.00000000
_symmetry_Int_Tables_number   1
_chemical_formula_structural   Cu5Ni3C5
_chemical_formula_sum   'Cu20 Ni12 C20'
_cell_volume   1337.67855749
_cell_formula_units_Z   4
loop_
 _symmetry_equiv_pos_site_id
 _symmetry_equiv_pos_as_xyz
  1  'x, y, z'
loop_
 _atom_site_type_symbol
 _atom_site_label
 _atom_site_symmetry_multiplicity
 _atom_site_fract_x
 _atom_site_fract_y
 _atom_site_fract_z
 _atom_site_occupancy
  C  C0  1  0.88374900  0.93095800  0.01273500  1
  C  C1  1  0.38374900  0.56904200  0.98726500  1
  C  C2  1  0.61625100  0.06904200  0.51273500  1
  C  C3  1  0.11625100  0.43095800  0.48726500  1
  C  C4  1  0.75229300  0.67068500  0.25639700  1
  C  C5  1  0.88738400  0.59066400  0.81308500  1
  C  C6  1  0.30181500  0.18683900  0.82549600  1
  C  C7  1  0.24770700  0.17068500  0.24360300  1
  C  C8  1  0.60783500  0.39869100  0.65740700  1
  C  C9  1  0.11261600  0.09066400  0.68691500  1
  C  C10  1  0.74770700  0.32931500  0.75639700  1
  C  C11  1  0.61261600  0.40933600  0.31308500  1
  C  C12  1  0.38738400  0.90933600  0.18691500  1
  C  C13  1  0.69818500  0.68683900  0.67450400  1
  C  C14  1  0.89216500  0.60130900  0.15740700  1
  C  C15  1  0.80181500  0.31316100  0.17450400  1
  C  C16  1  0.10783500  0.10130900  0.34259300  1
  C  C17  1  0.39216500  0.89869100  0.84259300  1
  C  C18  1  0.25229300  0.82931500  0.74360300  1
  C  C19  1  0.19818500  0.81316100  0.32549600  1
  Ni  Ni20  1  0.18150800  0.19110100  0.75041500  1
  Ni  Ni21  1  0.16030400  0.94349700  0.69775000  1
  Ni  Ni22  1  0.37661900  0.05136100  0.85007000  1
  Ni  Ni23  1  0.66030400  0.55650300  0.30225000  1
  Ni  Ni24  1  0.31849200  0.80889900  0.25041500  1
  Ni  Ni25  1  0.68150800  0.30889900  0.24958500  1
  Ni  Ni26  1  0.83969600  0.44349700  0.80225000  1
  Ni  Ni27  1  0.81849200  0.69110100  0.74958500  1
  Ni  Ni28  1  0.87661900  0.44863900  0.14993000  1
  Ni  Ni29  1  0.33969600  0.05650300  0.19775000  1
  Ni  Ni30  1  0.12338100  0.94863900  0.35007000  1
  Ni  Ni31  1  0.62338100  0.55136100  0.64993000  1
  Cu  Cu32  1  0.10658500  0.39665700  0.33841500  1
  Cu  Cu33  1  0.56842000  0.39283200  0.97211400  1
  Cu  Cu34  1  0.11248400  0.45647900  0.62222700  1
  Cu  Cu35  1  0.61248400  0.04352100  0.37777300  1
  Cu  Cu36  1  0.93158000  0.60716800  0.47211400  1
  Cu  Cu37  1  0.60658500  0.10334300  0.66158500  1
  Cu  Cu38  1  0.64614200  0.05493100  0.02626600  1
  Cu  Cu39  1  0.35385800  0.55493100  0.47373400  1
  Cu  Cu40  1  0.43158000  0.89283200  0.52788600  1
  Cu  Cu41  1  0.89341500  0.89665700  0.16158500  1
  Cu  Cu42  1  0.39341500  0.60334300  0.83841500  1
  Cu  Cu43  1  0.30611300  0.22307100  0.50427300  1
  Cu  Cu44  1  0.06842000  0.10716800  0.02788600  1
  Cu  Cu45  1  0.38751600  0.54352100  0.12222700  1
  Cu  Cu46  1  0.14614200  0.44506900  0.97373400  1
  Cu  Cu47  1  0.80611300  0.27692900  0.49572700  1
  Cu  Cu48  1  0.88751600  0.95647900  0.87777300  1
  Cu  Cu49  1  0.19388700  0.77692900  0.00427300  1
  Cu  Cu50  1  0.69388700  0.72307100  0.99572700  1
  Cu  Cu51  1  0.85385800  0.94506900  0.52626600  1
