# generated using pymatgen
data_Cu2NiC5
_symmetry_space_group_name_H-M   'P 1'
_cell_length_a   9.35678300
_cell_length_b   10.22367400
_cell_length_c   11.40710600
_cell_angle_alpha   90.00000000
_cell_angle_beta   90.00000000
_cell_angle_gamma   90.00000000
_symmetry_Int_Tables_number   1
_chemical_formula_structural   Cu2NiC5
_chemical_formula_sum   'Cu16 Ni8 C40'
_cell_volume   1091.21173445
_cell_formula_units_Z   8
loop_
 _symmetry_equiv_pos_site_id
 _symmetry_equiv_pos_as_xyz
  1  'x, y, z'
loop_
 _atom_site_type_symbol
 _atom_site_label
 _atom_site_symmetry_multiplicity
 _atom_site_fract_x
 _atom_site_fract_y
 _atom_site_fract_z
 _atom_site_occupancy
  Ni  Ni0  1  0.81163600  0.22075600  0.11801500  1
  Ni  Ni1  1  0.18836400  0.27924400  0.61801500  1
  Ni  Ni2  1  0.31163600  0.77924400  0.38198500  1
  Ni  Ni3  1  0.68836400  0.22075600  0.61801500  1
  Ni  Ni4  1  0.18836400  0.77924400  0.88198500  1
  Ni  Ni5  1  0.81163600  0.72075600  0.38198500  1
  Ni  Ni6  1  0.31163600  0.27924400  0.11801500  1
  Ni  Ni7  1  0.68836400  0.72075600  0.88198500  1
  Cu  Cu8  1  0.36841400  0.96641500  0.63934800  1
  Cu  Cu9  1  0.02812300  0.37837700  0.89816400  1
  Cu  Cu10  1  0.97187700  0.62162300  0.10183600  1
  Cu  Cu11  1  0.52812300  0.62162300  0.60183600  1
  Cu  Cu12  1  0.36841400  0.46641500  0.86065200  1
  Cu  Cu13  1  0.13158600  0.46641500  0.36065200  1
  Cu  Cu14  1  0.13158600  0.96641500  0.13934800  1
  Cu  Cu15  1  0.63158600  0.53358500  0.13934800  1
  Cu  Cu16  1  0.86841400  0.03358500  0.86065200  1
  Cu  Cu17  1  0.63158600  0.03358500  0.36065200  1
  Cu  Cu18  1  0.47187700  0.87837700  0.10183600  1
  Cu  Cu19  1  0.52812300  0.12162300  0.89816400  1
  Cu  Cu20  1  0.97187700  0.12162300  0.39816400  1
  Cu  Cu21  1  0.02812300  0.87837700  0.60183600  1
  Cu  Cu22  1  0.47187700  0.37837700  0.39816400  1
  Cu  Cu23  1  0.86841400  0.53358500  0.63934800  1
  C  C24  1  0.80851700  0.89853700  0.11209400  1
  C  C25  1  0.19148300  0.10146300  0.88790600  1
  C  C26  1  0.69148300  0.39853700  0.88790600  1
  C  C27  1  0.80851700  0.39853700  0.38790600  1
  C  C28  1  0.19148300  0.60146300  0.61209400  1
  C  C29  1  0.30851700  0.60146300  0.11209400  1
  C  C30  1  0.69148300  0.89853700  0.61209400  1
  C  C31  1  0.30851700  0.10146300  0.38790600  1
  C  C32  1  0.60504400  0.00058300  0.73029500  1
  C  C33  1  0.20632700  0.24312000  0.32468500  1
  C  C34  1  0.29367300  0.24312000  0.82468500  1
  C  C35  1  0.81739000  0.50667400  0.97375000  1
  C  C36  1  0.89495600  0.50058300  0.26970500  1
  C  C37  1  0.44713800  0.16215900  0.49513200  1
  C  C38  1  0.89495600  0.00058300  0.23029500  1
  C  C39  1  0.10504400  0.99941700  0.76970500  1
  C  C40  1  0.81739000  0.00667400  0.52625000  1
  C  C41  1  0.55286200  0.83784100  0.50486800  1
  C  C42  1  0.29367300  0.74312000  0.67531500  1
  C  C43  1  0.94713800  0.83784100  0.00486800  1
  C  C44  1  0.31739000  0.49332600  0.52625000  1
  C  C45  1  0.94713800  0.33784100  0.49513200  1
  C  C46  1  0.70632700  0.25688000  0.32468500  1
  C  C47  1  0.31739000  0.99332600  0.97375000  1
  C  C48  1  0.68261000  0.00667400  0.02625000  1
  C  C49  1  0.18261000  0.49332600  0.02625000  1
  C  C50  1  0.39495600  0.99941700  0.26970500  1
  C  C51  1  0.60504400  0.50058300  0.76970500  1
  C  C52  1  0.70632700  0.75688000  0.17531500  1
  C  C53  1  0.05286200  0.66215900  0.50486800  1
  C  C54  1  0.10504400  0.49941700  0.73029500  1
  C  C55  1  0.44713800  0.66215900  0.00486800  1
  C  C56  1  0.79367300  0.25688000  0.82468500  1
  C  C57  1  0.39495600  0.49941700  0.23029500  1
  C  C58  1  0.68261000  0.50667400  0.47375000  1
  C  C59  1  0.55286200  0.33784100  0.99513200  1
  C  C60  1  0.20632700  0.74312000  0.17531500  1
  C  C61  1  0.05286200  0.16215900  0.99513200  1
  C  C62  1  0.18261000  0.99332600  0.47375000  1
  C  C63  1  0.79367300  0.75688000  0.67531500  1
