# generated using pymatgen
data_Cu3Ni2C15
_symmetry_space_group_name_H-M   'P 1'
_cell_length_a   8.33589800
_cell_length_b   4.91172400
_cell_length_c   28.72906301
_cell_angle_alpha   89.50295811
_cell_angle_beta   90.00000000
_cell_angle_gamma   90.00000000
_symmetry_Int_Tables_number   1
_chemical_formula_structural   Cu3Ni2C15
_chemical_formula_sum   'Cu12 Ni8 C60'
_cell_volume   1176.22787336
_cell_formula_units_Z   4
loop_
 _symmetry_equiv_pos_site_id
 _symmetry_equiv_pos_as_xyz
  1  'x, y, z'
loop_
 _atom_site_type_symbol
 _atom_site_label
 _atom_site_symmetry_multiplicity
 _atom_site_fract_x
 _atom_site_fract_y
 _atom_site_fract_z
 _atom_site_occupancy
  C  C0  1  0.47919400  0.26273400  0.82907300  1
  C  C1  1  0.14349800  0.27281000  0.95247500  1
  C  C2  1  0.52080600  0.73726600  0.17092700  1
  C  C3  1  0.02080600  0.26273400  0.32907300  1
  C  C4  1  0.35650200  0.27281000  0.45247500  1
  C  C5  1  0.85650200  0.72719000  0.04752500  1
  C  C6  1  0.97919400  0.73726600  0.67092700  1
  C  C7  1  0.64349800  0.72719000  0.54752500  1
  C  C8  1  0.55197700  0.22145300  0.04692000  1
  C  C9  1  0.44802300  0.77854700  0.95308000  1
  C  C10  1  0.05197700  0.77854700  0.45308000  1
  C  C11  1  0.94802300  0.22145300  0.54692000  1
  Ni  Ni12  1  0.03042700  0.26727500  0.79238300  1
  Ni  Ni13  1  0.18561500  0.18912300  0.10459000  1
  Ni  Ni14  1  0.68561500  0.81087700  0.39541000  1
  Ni  Ni15  1  0.53042700  0.73272500  0.70761700  1
  Ni  Ni16  1  0.46957300  0.26727500  0.29238300  1
  Ni  Ni17  1  0.96957300  0.73272500  0.20761700  1
  Ni  Ni18  1  0.81438500  0.81087700  0.89541000  1
  Ni  Ni19  1  0.31438500  0.18912300  0.60459000  1
  Cu  Cu20  1  0.83972500  0.24285400  0.14330300  1
  Cu  Cu21  1  0.16027500  0.75714600  0.85669700  1
  Cu  Cu22  1  0.69256400  0.30154700  0.95167800  1
  Cu  Cu23  1  0.33972500  0.75714600  0.35669700  1
  Cu  Cu24  1  0.66027500  0.24285400  0.64330300  1
  Cu  Cu25  1  0.71508400  0.77391200  0.29094000  1
  Cu  Cu26  1  0.28491600  0.22608800  0.70906000  1
  Cu  Cu27  1  0.30743600  0.69845300  0.04832200  1
  Cu  Cu28  1  0.80743600  0.30154700  0.45167800  1
  Cu  Cu29  1  0.78491600  0.77391200  0.79094000  1
  Cu  Cu30  1  0.19256400  0.69845300  0.54832200  1
  Cu  Cu31  1  0.21508400  0.22608800  0.20906000  1
  C  C32  1  0.75239500  0.14617200  0.90704000  1
  C  C33  1  0.37326900  0.24516700  0.23643700  1
  C  C34  1  0.58901000  0.57846700  0.27180300  1
  C  C35  1  0.71007300  0.22240600  0.49467600  1
  C  C36  1  0.12673100  0.24516700  0.73643700  1
  C  C37  1  0.25239500  0.85382800  0.59296000  1
  C  C38  1  0.17851300  0.76716600  0.38135100  1
  C  C39  1  0.91099000  0.57846700  0.77180300  1
  C  C40  1  0.34320000  0.92725000  0.70820200  1
  C  C41  1  0.48865600  0.73535600  0.04226800  1
  C  C42  1  0.62836500  0.53453300  0.66219500  1
  C  C43  1  0.74760500  0.14617200  0.40704000  1
  C  C44  1  0.98865600  0.26464400  0.45773200  1
  C  C45  1  0.72628900  0.61364100  0.94009000  1
  C  C46  1  0.24760500  0.85382800  0.09296000  1
  C  C47  1  0.73718100  0.69456300  0.84222900  1
  C  C48  1  0.26281900  0.30543700  0.15777100  1
  C  C49  1  0.87326900  0.75483300  0.26356300  1
  C  C50  1  0.62673100  0.75483300  0.76356300  1
  C  C51  1  0.35428200  0.96922200  0.31742600  1
  C  C52  1  0.41099000  0.42153300  0.72819700  1
  C  C53  1  0.76281900  0.69456300  0.34222900  1
  C  C54  1  0.37163500  0.46546700  0.33780500  1
  C  C55  1  0.67851300  0.23283400  0.11864900  1
  C  C56  1  0.27371100  0.38635900  0.05991000  1
  C  C57  1  0.64571800  0.03077800  0.68257400  1
  C  C58  1  0.78992700  0.22240600  0.99467600  1
  C  C59  1  0.82148700  0.23283400  0.61864900  1
  C  C60  1  0.21007300  0.77759400  0.00532400  1
  C  C61  1  0.47516100  0.80710800  0.39502400  1
  C  C62  1  0.15680000  0.92725000  0.20820200  1
  C  C63  1  0.65680000  0.07275000  0.29179800  1
  C  C64  1  0.02483900  0.80710800  0.89502400  1
  C  C65  1  0.32148700  0.76716600  0.88135100  1
  C  C66  1  0.23718100  0.30543700  0.65777100  1
  C  C67  1  0.01134400  0.73535600  0.54226800  1
  C  C68  1  0.22628900  0.38635900  0.55991000  1
  C  C69  1  0.28992700  0.77759400  0.50532400  1
  C  C70  1  0.87163500  0.53453300  0.16219500  1
  C  C71  1  0.77371100  0.61364100  0.44009000  1
  C  C72  1  0.08901000  0.42153300  0.22819700  1
  C  C73  1  0.84320000  0.07275000  0.79179800  1
  C  C74  1  0.97516100  0.19289200  0.10497600  1
  C  C75  1  0.52483900  0.19289200  0.60497600  1
  C  C76  1  0.51134400  0.26464400  0.95773200  1
  C  C77  1  0.12836500  0.46546700  0.83780500  1
  C  C78  1  0.85428200  0.03077800  0.18257400  1
  C  C79  1  0.14571800  0.96922200  0.81742600  1
