# generated using pymatgen
data_Cu2NiC5
_symmetry_space_group_name_H-M   'P 1'
_cell_length_a   7.84253400
_cell_length_b   8.74688600
_cell_length_c   12.14723800
_cell_angle_alpha   90.00000000
_cell_angle_beta   90.00000000
_cell_angle_gamma   90.00000000
_symmetry_Int_Tables_number   1
_chemical_formula_structural   Cu2NiC5
_chemical_formula_sum   'Cu8 Ni4 C20'
_cell_volume   833.27320583
_cell_formula_units_Z   4
loop_
 _symmetry_equiv_pos_site_id
 _symmetry_equiv_pos_as_xyz
  1  'x, y, z'
loop_
 _atom_site_type_symbol
 _atom_site_label
 _atom_site_symmetry_multiplicity
 _atom_site_fract_x
 _atom_site_fract_y
 _atom_site_fract_z
 _atom_site_occupancy
  C  C0  1  0.15708900  0.75000000  0.20433100  1
  C  C1  1  0.65708900  0.25000000  0.29566900  1
  C  C2  1  0.84291100  0.25000000  0.79566900  1
  C  C3  1  0.34291100  0.75000000  0.70433100  1
  C  C4  1  0.45161700  0.75000000  0.99806500  1
  C  C5  1  0.95161700  0.25000000  0.50193500  1
  C  C6  1  0.54838300  0.25000000  0.00193500  1
  C  C7  1  0.04838300  0.75000000  0.49806500  1
  C  C8  1  0.62283300  0.75000000  0.30722300  1
  C  C9  1  0.12283300  0.25000000  0.19277700  1
  C  C10  1  0.37716700  0.25000000  0.69277700  1
  C  C11  1  0.87716700  0.75000000  0.80722300  1
  C  C12  1  0.82328900  0.96223800  0.06548100  1
  C  C13  1  0.32328900  0.03776200  0.43451900  1
  C  C14  1  0.17671100  0.46223800  0.93451900  1
  C  C15  1  0.67671100  0.53776200  0.56548100  1
  C  C16  1  0.17671100  0.03776200  0.93451900  1
  C  C17  1  0.67671100  0.96223800  0.56548100  1
  C  C18  1  0.82328900  0.53776200  0.06548100  1
  C  C19  1  0.32328900  0.46223800  0.43451900  1
  Ni  Ni20  1  0.42961300  0.75000000  0.48988800  1
  Ni  Ni21  1  0.92961300  0.25000000  0.01011200  1
  Ni  Ni22  1  0.57038700  0.25000000  0.51011200  1
  Ni  Ni23  1  0.07038700  0.75000000  0.98988800  1
  Cu  Cu24  1  0.93077400  0.99172100  0.32714300  1
  Cu  Cu25  1  0.43077400  0.00827900  0.17285700  1
  Cu  Cu26  1  0.06922600  0.49172100  0.67285700  1
  Cu  Cu27  1  0.56922600  0.50827900  0.82714300  1
  Cu  Cu28  1  0.06922600  0.00827900  0.67285700  1
  Cu  Cu29  1  0.56922600  0.99172100  0.82714300  1
  Cu  Cu30  1  0.93077400  0.50827900  0.32714300  1
  Cu  Cu31  1  0.43077400  0.49172100  0.17285700  1
