# generated using pymatgen
data_CuNiC10
_symmetry_space_group_name_H-M   'P 1'
_cell_length_a   10.20840023
_cell_length_b   10.20840023
_cell_length_c   5.78174800
_cell_angle_alpha   90.00000000
_cell_angle_beta   90.00000000
_cell_angle_gamma   120.00000150
_symmetry_Int_Tables_number   1
_chemical_formula_structural   CuNiC10
_chemical_formula_sum   'Cu2 Ni2 C20'
_cell_volume   521.80130558
_cell_formula_units_Z   2
loop_
 _symmetry_equiv_pos_site_id
 _symmetry_equiv_pos_as_xyz
  1  'x, y, z'
loop_
 _atom_site_type_symbol
 _atom_site_label
 _atom_site_symmetry_multiplicity
 _atom_site_fract_x
 _atom_site_fract_y
 _atom_site_fract_z
 _atom_site_occupancy
  C  C0  1  0.23230000  0.35607300  0.75048000  1
  C  C1  1  0.35607300  0.12377400  0.25048000  1
  C  C2  1  0.87622600  0.23230000  0.25048000  1
  C  C3  1  0.12377400  0.76770000  0.75048000  1
  C  C4  1  0.76770000  0.64392700  0.25048000  1
  C  C5  1  0.64392700  0.87622600  0.75048000  1
  Ni  Ni6  1  0.00000000  0.00000000  0.77388600  1
  Ni  Ni7  1  0.00000000  0.00000000  0.27388600  1
  Cu  Cu8  1  0.33333300  0.66666700  0.16441600  1
  Cu  Cu9  1  0.66666700  0.33333300  0.66441600  1
  C  C10  1  0.25030500  0.08603700  0.76247800  1
  C  C11  1  0.52434100  0.41206500  0.52236300  1
  C  C12  1  0.41206500  0.88772400  0.02236300  1
  C  C13  1  0.11227600  0.52434100  0.02236300  1
  C  C14  1  0.88772400  0.47565900  0.52236300  1
  C  C15  1  0.08603700  0.83573100  0.26247800  1
  C  C16  1  0.16426900  0.25030500  0.26247800  1
  C  C17  1  0.74969500  0.91396300  0.26247800  1
  C  C18  1  0.58793500  0.11227600  0.52236300  1
  C  C19  1  0.83573100  0.74969500  0.76247800  1
  C  C20  1  0.47565900  0.58793500  0.02236300  1
  C  C21  1  0.66666700  0.33333300  0.02980100  1
  C  C22  1  0.33333300  0.66666700  0.52980100  1
  C  C23  1  0.91396300  0.16426900  0.76247800  1
