# generated using pymatgen
data_Cu5(NiC)2
_symmetry_space_group_name_H-M   'P 1'
_cell_length_a   11.33730159
_cell_length_b   11.33730159
_cell_length_c   9.28403210
_cell_angle_alpha   78.43574480
_cell_angle_beta   78.43574480
_cell_angle_gamma   89.73563686
_symmetry_Int_Tables_number   1
_chemical_formula_structural   Cu5(NiC)2
_chemical_formula_sum   'Cu20 Ni8 C8'
_cell_volume   1144.57488831
_cell_formula_units_Z   4
loop_
 _symmetry_equiv_pos_site_id
 _symmetry_equiv_pos_as_xyz
  1  'x, y, z'
loop_
 _atom_site_type_symbol
 _atom_site_label
 _atom_site_symmetry_multiplicity
 _atom_site_fract_x
 _atom_site_fract_y
 _atom_site_fract_z
 _atom_site_occupancy
  C  C0  1  0.45511200  0.19804900  0.90303000  1
  C  C1  1  0.80195100  0.54488800  0.59697000  1
  C  C2  1  0.54488800  0.80195100  0.09697000  1
  C  C3  1  0.19804900  0.45511200  0.40303000  1
  C  C4  1  0.79870000  0.92184000  0.59642300  1
  C  C5  1  0.07816000  0.20130000  0.90357700  1
  C  C6  1  0.20130000  0.07816000  0.40357700  1
  C  C7  1  0.92184000  0.79870000  0.09642300  1
  Ni  Ni8  1  0.52145600  0.26724500  0.40831200  1
  Ni  Ni9  1  0.73275500  0.47854400  0.09168800  1
  Ni  Ni10  1  0.47854400  0.73275500  0.59168800  1
  Ni  Ni11  1  0.26724500  0.52145600  0.90831200  1
  Ni  Ni12  1  0.27014700  0.86394400  0.89015500  1
  Ni  Ni13  1  0.13605600  0.72985300  0.60984500  1
  Ni  Ni14  1  0.72985300  0.13605600  0.10984500  1
  Ni  Ni15  1  0.86394400  0.27014700  0.39015500  1
  Cu  Cu16  1  0.53239500  0.10727600  0.26777300  1
  Cu  Cu17  1  0.89272400  0.46760500  0.23222700  1
  Cu  Cu18  1  0.46760500  0.89272400  0.73222700  1
  Cu  Cu19  1  0.10727600  0.53239500  0.76777300  1
  Cu  Cu20  1  0.32849700  0.76064800  0.43807000  1
  Cu  Cu21  1  0.23935200  0.67150300  0.06193000  1
  Cu  Cu22  1  0.67150300  0.23935200  0.56193000  1
  Cu  Cu23  1  0.76064800  0.32849700  0.93807000  1
  Cu  Cu24  1  0.33270100  0.24151500  0.56968000  1
  Cu  Cu25  1  0.75848500  0.66729900  0.93032000  1
  Cu  Cu26  1  0.66729900  0.75848500  0.43032000  1
  Cu  Cu27  1  0.24151500  0.33270100  0.06968000  1
  Cu  Cu28  1  0.75634000  0.99791400  0.95374700  1
  Cu  Cu29  1  0.00208600  0.24366000  0.54625300  1
  Cu  Cu30  1  0.24366000  0.00208600  0.04625300  1
  Cu  Cu31  1  0.99791400  0.75634000  0.45374700  1
  Cu  Cu32  1  0.89118600  0.10881400  0.25000000  1
  Cu  Cu33  1  0.10881400  0.89118600  0.75000000  1
  Cu  Cu34  1  0.53539200  0.46460800  0.25000000  1
  Cu  Cu35  1  0.46460800  0.53539200  0.75000000  1
