# generated using pymatgen
data_Cu19Ni5C12
_symmetry_space_group_name_H-M   'P 1'
_cell_length_a   14.29165226
_cell_length_b   14.29165226
_cell_length_c   4.32908000
_cell_angle_alpha   90.00000000
_cell_angle_beta   90.00000000
_cell_angle_gamma   120.00000123
_symmetry_Int_Tables_number   1
_chemical_formula_structural   Cu19Ni5C12
_chemical_formula_sum   'Cu19 Ni5 C12'
_cell_volume   765.75725341
_cell_formula_units_Z   1
loop_
 _symmetry_equiv_pos_site_id
 _symmetry_equiv_pos_as_xyz
  1  'x, y, z'
loop_
 _atom_site_type_symbol
 _atom_site_label
 _atom_site_symmetry_multiplicity
 _atom_site_fract_x
 _atom_site_fract_y
 _atom_site_fract_z
 _atom_site_occupancy
  C  C0  1  0.17768600  0.00000000  0.00000000  1
  C  C1  1  0.83290400  0.30794700  0.50000000  1
  C  C2  1  0.00000000  0.62586000  0.00000000  1
  C  C3  1  0.47504300  0.16709600  0.50000000  1
  C  C4  1  0.82231400  0.82231400  0.00000000  1
  C  C5  1  0.30794700  0.83290400  0.50000000  1
  C  C6  1  0.16709600  0.47504300  0.50000000  1
  C  C7  1  0.69205300  0.52495700  0.50000000  1
  C  C8  1  0.00000000  0.17768600  0.00000000  1
  C  C9  1  0.52495700  0.69205300  0.50000000  1
  C  C10  1  0.62586000  0.00000000  0.00000000  1
  C  C11  1  0.37414000  0.37414000  0.00000000  1
  Ni  Ni12  1  0.00000000  0.81166600  0.50000000  1
  Ni  Ni13  1  0.18833400  0.18833400  0.50000000  1
  Ni  Ni14  1  0.81166600  0.00000000  0.50000000  1
  Ni  Ni15  1  0.66666700  0.33333300  0.00000000  1
  Ni  Ni16  1  0.33333300  0.66666700  0.00000000  1
  Cu  Cu17  1  0.18271200  0.37557200  0.00000000  1
  Cu  Cu18  1  0.51143700  0.87429700  0.50000000  1
  Cu  Cu19  1  0.80714000  0.62442800  0.00000000  1
  Cu  Cu20  1  0.43900300  0.00000000  0.00000000  1
  Cu  Cu21  1  0.00000000  0.27945000  0.50000000  1
  Cu  Cu22  1  0.56099700  0.56099700  0.00000000  1
  Cu  Cu23  1  0.81728800  0.19286000  0.00000000  1
  Cu  Cu24  1  0.36286000  0.48856300  0.50000000  1
  Cu  Cu25  1  0.72055000  0.72055000  0.50000000  1
  Cu  Cu26  1  0.00000000  0.43900300  0.00000000  1
  Cu  Cu27  1  0.87429700  0.51143700  0.50000000  1
  Cu  Cu28  1  0.37557200  0.18271200  0.00000000  1
  Cu  Cu29  1  0.19286000  0.81728800  0.00000000  1
  Cu  Cu30  1  0.62442800  0.80714000  0.00000000  1
  Cu  Cu31  1  0.63714000  0.12570300  0.50000000  1
  Cu  Cu32  1  0.27945000  0.00000000  0.50000000  1
  Cu  Cu33  1  0.48856300  0.36286000  0.50000000  1
  Cu  Cu34  1  0.12570300  0.63714000  0.50000000  1
  Cu  Cu35  1  0.00000000  0.00000000  0.00000000  1
