# generated using pymatgen
data_Cu3(Ni2C3)2
_symmetry_space_group_name_H-M   'P 1'
_cell_length_a   8.98696500
_cell_length_b   12.66180100
_cell_length_c   13.58315500
_cell_angle_alpha   90.00000000
_cell_angle_beta   90.00000000
_cell_angle_gamma   90.00000000
_symmetry_Int_Tables_number   1
_chemical_formula_structural   Cu3(Ni2C3)2
_chemical_formula_sum   'Cu12 Ni16 C24'
_cell_volume   1545.64299683
_cell_formula_units_Z   4
loop_
 _symmetry_equiv_pos_site_id
 _symmetry_equiv_pos_as_xyz
  1  'x, y, z'
loop_
 _atom_site_type_symbol
 _atom_site_label
 _atom_site_symmetry_multiplicity
 _atom_site_fract_x
 _atom_site_fract_y
 _atom_site_fract_z
 _atom_site_occupancy
  C  C0  1  0.75000000  0.14230000  0.44206900  1
  C  C1  1  0.75000000  0.85014500  0.58719500  1
  C  C2  1  0.75000000  0.49042800  0.66519400  1
  C  C3  1  0.75000000  0.64985500  0.08719500  1
  C  C4  1  0.25000000  0.35014500  0.91280500  1
  C  C5  1  0.25000000  0.99042800  0.83480600  1
  C  C6  1  0.75000000  0.35770000  0.94206900  1
  C  C7  1  0.25000000  0.50957200  0.33480600  1
  C  C8  1  0.75000000  0.06497300  0.83631800  1
  C  C9  1  0.25000000  0.93502700  0.16368200  1
  C  C10  1  0.25000000  0.64230000  0.05793100  1
  C  C11  1  0.75000000  0.00957200  0.16519400  1
  C  C12  1  0.25000000  0.14985500  0.41280500  1
  C  C13  1  0.75000000  0.43502700  0.33631800  1
  C  C14  1  0.25000000  0.56497300  0.66368200  1
  C  C15  1  0.25000000  0.85770000  0.55793100  1
  C  C16  1  0.44563800  0.25164600  0.16630400  1
  C  C17  1  0.94563800  0.75164600  0.33369600  1
  C  C18  1  0.44563800  0.24835400  0.66630400  1
  C  C19  1  0.05436200  0.25164600  0.16630400  1
  C  C20  1  0.05436200  0.24835400  0.66630400  1
  C  C21  1  0.55436200  0.75164600  0.33369600  1
  C  C22  1  0.94563800  0.74835400  0.83369600  1
  C  C23  1  0.55436200  0.74835400  0.83369600  1
  Ni  Ni24  1  0.50678200  0.91766700  0.36342100  1
  Ni  Ni25  1  0.00678200  0.08233300  0.63657900  1
  Ni  Ni26  1  0.49321800  0.41766700  0.13657900  1
  Ni  Ni27  1  0.48624900  0.15696100  0.03498400  1
  Ni  Ni28  1  0.98624900  0.65696100  0.46501600  1
  Ni  Ni29  1  0.48624900  0.34303900  0.53498400  1
  Ni  Ni30  1  0.00678200  0.41766700  0.13657900  1
  Ni  Ni31  1  0.51375100  0.65696100  0.46501600  1
  Ni  Ni32  1  0.99321800  0.91766700  0.36342100  1
  Ni  Ni33  1  0.98624900  0.84303900  0.96501600  1
  Ni  Ni34  1  0.49321800  0.08233300  0.63657900  1
  Ni  Ni35  1  0.99321800  0.58233300  0.86342100  1
  Ni  Ni36  1  0.01375100  0.15696100  0.03498400  1
  Ni  Ni37  1  0.51375100  0.84303900  0.96501600  1
  Ni  Ni38  1  0.01375100  0.34303900  0.53498400  1
  Ni  Ni39  1  0.50678200  0.58233300  0.86342100  1
  Cu  Cu40  1  0.25000000  0.23704300  0.20217500  1
  Cu  Cu41  1  0.04994000  0.79188300  0.73985500  1
  Cu  Cu42  1  0.45006000  0.70811700  0.23985500  1
  Cu  Cu43  1  0.54994000  0.20811700  0.26014500  1
  Cu  Cu44  1  0.45006000  0.79188300  0.73985500  1
  Cu  Cu45  1  0.04994000  0.70811700  0.23985500  1
  Cu  Cu46  1  0.75000000  0.76295700  0.79782500  1
  Cu  Cu47  1  0.95006000  0.20811700  0.26014500  1
  Cu  Cu48  1  0.25000000  0.26295700  0.70217500  1
  Cu  Cu49  1  0.75000000  0.73704300  0.29782500  1
  Cu  Cu50  1  0.54994000  0.29188300  0.76014500  1
  Cu  Cu51  1  0.95006000  0.29188300  0.76014500  1
