# generated using pymatgen
data_Cu2NiC5
_symmetry_space_group_name_H-M   'P 1'
_cell_length_a   7.00022600
_cell_length_b   6.66523900
_cell_length_c   9.32462618
_cell_angle_alpha   75.46740045
_cell_angle_beta   90.00000000
_cell_angle_gamma   90.00000000
_symmetry_Int_Tables_number   1
_chemical_formula_structural   Cu2NiC5
_chemical_formula_sum   'Cu8 Ni4 C20'
_cell_volume   421.15002434
_cell_formula_units_Z   4
loop_
 _symmetry_equiv_pos_site_id
 _symmetry_equiv_pos_as_xyz
  1  'x, y, z'
loop_
 _atom_site_type_symbol
 _atom_site_label
 _atom_site_symmetry_multiplicity
 _atom_site_fract_x
 _atom_site_fract_y
 _atom_site_fract_z
 _atom_site_occupancy
  C  C0  1  0.18738800  0.74461600  0.50310600  1
  C  C1  1  0.31261200  0.74461600  0.00310600  1
  C  C2  1  0.68738800  0.25538400  0.99689400  1
  C  C3  1  0.81261200  0.25538400  0.49689400  1
  Ni  Ni4  1  0.76162400  0.75647100  0.24259600  1
  Ni  Ni5  1  0.73837600  0.75647100  0.74259600  1
  Ni  Ni6  1  0.23837600  0.24352900  0.75740400  1
  Ni  Ni7  1  0.26162400  0.24352900  0.25740400  1
  Cu  Cu8  1  0.33019400  0.33700800  0.33044900  1
  Cu  Cu9  1  0.83019400  0.66299200  0.16955100  1
  Cu  Cu10  1  0.19330300  0.14909400  0.18487800  1
  Cu  Cu11  1  0.30669700  0.14909400  0.68487800  1
  Cu  Cu12  1  0.80669700  0.85090600  0.81512200  1
  Cu  Cu13  1  0.66980600  0.66299200  0.66955100  1
  Cu  Cu14  1  0.16980600  0.33700800  0.83044900  1
  Cu  Cu15  1  0.69330300  0.85090600  0.31512200  1
  C  C16  1  0.93652700  0.23592300  0.38088500  1
  C  C17  1  0.06347300  0.76407700  0.61911500  1
  C  C18  1  0.79880600  0.43780900  0.94885500  1
  C  C19  1  0.57963100  0.26628900  0.12352600  1
  C  C20  1  0.31095500  0.91880200  0.46528200  1
  C  C21  1  0.43652700  0.76407700  0.11911500  1
  C  C22  1  0.42036900  0.73371100  0.87647400  1
  C  C23  1  0.07963100  0.73371100  0.37647400  1
  C  C24  1  0.29880600  0.56219100  0.55114500  1
  C  C25  1  0.81095500  0.08119800  0.03471800  1
  C  C26  1  0.56347300  0.23592300  0.88088500  1
  C  C27  1  0.20119400  0.56219100  0.05114500  1
  C  C28  1  0.18904500  0.91880200  0.96528200  1
  C  C29  1  0.70119400  0.43780900  0.44885500  1
  C  C30  1  0.92036900  0.26628900  0.62352600  1
  C  C31  1  0.68904500  0.08119800  0.53471800  1
