# generated using pymatgen
data_Cu2NiC8
_symmetry_space_group_name_H-M   'P 1'
_cell_length_a   10.57180700
_cell_length_b   7.64976400
_cell_length_c   8.64723082
_cell_angle_alpha   74.56190846
_cell_angle_beta   90.00000000
_cell_angle_gamma   90.00000000
_symmetry_Int_Tables_number   1
_chemical_formula_structural   Cu2NiC8
_chemical_formula_sum   'Cu8 Ni4 C32'
_cell_volume   674.08504932
_cell_formula_units_Z   4
loop_
 _symmetry_equiv_pos_site_id
 _symmetry_equiv_pos_as_xyz
  1  'x, y, z'
loop_
 _atom_site_type_symbol
 _atom_site_label
 _atom_site_symmetry_multiplicity
 _atom_site_fract_x
 _atom_site_fract_y
 _atom_site_fract_z
 _atom_site_occupancy
  C  C0  1  0.31530700  0.68604600  0.94813900  1
  C  C1  1  0.68469300  0.31395400  0.05186100  1
  C  C2  1  0.81530700  0.31395400  0.55186100  1
  C  C3  1  0.18469300  0.68604600  0.44813900  1
  Ni  Ni4  1  0.40011700  0.26342100  0.75654300  1
  Ni  Ni5  1  0.09988300  0.26342100  0.25654300  1
  Ni  Ni6  1  0.59988300  0.73657900  0.24345700  1
  Ni  Ni7  1  0.90011700  0.73657900  0.74345700  1
  Cu  Cu8  1  0.13596900  0.06236500  0.68731300  1
  Cu  Cu9  1  0.90325200  0.63209800  0.17464800  1
  Cu  Cu10  1  0.09674800  0.36790200  0.82535200  1
  Cu  Cu11  1  0.36403100  0.06236500  0.18731300  1
  Cu  Cu12  1  0.63596900  0.93763500  0.81268700  1
  Cu  Cu13  1  0.40325200  0.36790200  0.32535200  1
  Cu  Cu14  1  0.59674800  0.63209800  0.67464800  1
  Cu  Cu15  1  0.86403100  0.93763500  0.31268700  1
  C  C16  1  0.58768300  0.64168400  0.49865100  1
  C  C17  1  0.49654600  0.50809700  0.77799200  1
  C  C18  1  0.77744900  0.95360000  0.76931500  1
  C  C19  1  0.22255100  0.04640000  0.23068500  1
  C  C20  1  0.58101800  0.13013400  0.76881400  1
  C  C21  1  0.91898200  0.13013400  0.26881400  1
  C  C22  1  0.00345400  0.50809700  0.27799200  1
  C  C23  1  0.08101800  0.86986600  0.73118600  1
  C  C24  1  0.39520400  0.17511000  0.01842600  1
  C  C25  1  0.72920200  0.57650500  0.74527100  1
  C  C26  1  0.22920200  0.42349500  0.75472900  1
  C  C27  1  0.27744900  0.04640000  0.73068500  1
  C  C28  1  0.06639400  0.16486200  0.80770100  1
  C  C29  1  0.93360600  0.83513800  0.19229900  1
  C  C30  1  0.91231700  0.64168400  0.99865100  1
  C  C31  1  0.72255100  0.95360000  0.26931500  1
  C  C32  1  0.77079800  0.57650500  0.24527100  1
  C  C33  1  0.43360600  0.16486200  0.30770100  1
  C  C34  1  0.99654600  0.49190300  0.72200800  1
  C  C35  1  0.89520400  0.82489000  0.48157400  1
  C  C36  1  0.41231700  0.35831600  0.50134900  1
  C  C37  1  0.56639400  0.83513800  0.69229900  1
  C  C38  1  0.08768300  0.35831600  0.00134900  1
  C  C39  1  0.60479600  0.82489000  0.98157400  1
  C  C40  1  0.27079800  0.42349500  0.25472900  1
  C  C41  1  0.50345400  0.49190300  0.22200800  1
  C  C42  1  0.10479600  0.17511000  0.51842600  1
  C  C43  1  0.41898200  0.86986600  0.23118600  1
