# generated using pymatgen
data_CuNi2C7
_symmetry_space_group_name_H-M   'P 1'
_cell_length_a   6.15076130
_cell_length_b   6.15076130
_cell_length_c   6.15076187
_cell_angle_alpha   60.41399934
_cell_angle_beta   60.41399934
_cell_angle_gamma   60.41399867
_symmetry_Int_Tables_number   1
_chemical_formula_structural   CuNi2C7
_chemical_formula_sum   'Cu1 Ni2 C7'
_cell_volume   166.08041816
_cell_formula_units_Z   1
loop_
 _symmetry_equiv_pos_site_id
 _symmetry_equiv_pos_as_xyz
  1  'x, y, z'
loop_
 _atom_site_type_symbol
 _atom_site_label
 _atom_site_symmetry_multiplicity
 _atom_site_fract_x
 _atom_site_fract_y
 _atom_site_fract_z
 _atom_site_occupancy
  Ni  Ni0  1  0.74846400  0.74846400  0.74846400  1
  Ni  Ni1  1  0.25153600  0.25153600  0.25153600  1
  Cu  Cu2  1  0.00000000  0.00000000  0.00000000  1
  C  C3  1  0.50000000  0.50000000  0.50000000  1
  C  C4  1  0.72753200  0.31172100  0.22783400  1
  C  C5  1  0.77216600  0.27246800  0.68827900  1
  C  C6  1  0.31172100  0.22783400  0.72753200  1
  C  C7  1  0.68827900  0.77216600  0.27246800  1
  C  C8  1  0.22783400  0.72753200  0.31172100  1
  C  C9  1  0.27246800  0.68827900  0.77216600  1
