# generated using pymatgen
data_Cu4NiC12
_symmetry_space_group_name_H-M   'P 1'
_cell_length_a   6.56002451
_cell_length_b   6.56002451
_cell_length_c   10.77738000
_cell_angle_alpha   90.00000000
_cell_angle_beta   90.00000000
_cell_angle_gamma   120.20676618
_symmetry_Int_Tables_number   1
_chemical_formula_structural   Cu4NiC12
_chemical_formula_sum   'Cu8 Ni2 C24'
_cell_volume   400.81698610
_cell_formula_units_Z   2
loop_
 _symmetry_equiv_pos_site_id
 _symmetry_equiv_pos_as_xyz
  1  'x, y, z'
loop_
 _atom_site_type_symbol
 _atom_site_label
 _atom_site_symmetry_multiplicity
 _atom_site_fract_x
 _atom_site_fract_y
 _atom_site_fract_z
 _atom_site_occupancy
  Ni  Ni0  1  0.53619100  0.38646500  0.25000000  1
  Ni  Ni1  1  0.38646500  0.53619100  0.75000000  1
  Cu  Cu2  1  0.17730900  0.60544000  0.47209700  1
  Cu  Cu3  1  0.60544000  0.17730900  0.52790300  1
  Cu  Cu4  1  0.17730900  0.60544000  0.02790300  1
  Cu  Cu5  1  0.60544000  0.17730900  0.97209700  1
  Cu  Cu6  1  0.03273800  0.03273800  0.50000000  1
  Cu  Cu7  1  0.03273800  0.03273800  0.00000000  1
  Cu  Cu8  1  0.60843800  0.90768900  0.25000000  1
  Cu  Cu9  1  0.90768900  0.60843800  0.75000000  1
  C  C10  1  0.16804900  0.92445300  0.25000000  1
  C  C11  1  0.92445300  0.16804900  0.75000000  1
  C  C12  1  0.01177600  0.35614800  0.25000000  1
  C  C13  1  0.35614800  0.01177600  0.75000000  1
  C  C14  1  0.60768000  0.60768000  0.50000000  1
  C  C15  1  0.60768000  0.60768000  0.00000000  1
  C  C16  1  0.24626300  0.52910100  0.25000000  1
  C  C17  1  0.52910100  0.24626300  0.75000000  1
  C  C18  1  0.39700800  0.39700800  0.50000000  1
  C  C19  1  0.39700800  0.39700800  0.00000000  1
  C  C20  1  0.60994600  0.81546300  0.47129600  1
  C  C21  1  0.81546300  0.60994600  0.52870400  1
  C  C22  1  0.60994600  0.81546300  0.02870400  1
  C  C23  1  0.81546300  0.60994600  0.97129600  1
  C  C24  1  0.29950200  0.97616400  0.36100700  1
  C  C25  1  0.97616400  0.29950200  0.63899300  1
  C  C26  1  0.29950200  0.97616400  0.13899300  1
  C  C27  1  0.97616400  0.29950200  0.86100700  1
  C  C28  1  0.88785900  0.26874300  0.36114000  1
  C  C29  1  0.26874300  0.88785900  0.63886000  1
  C  C30  1  0.88785900  0.26874300  0.13886000  1
  C  C31  1  0.26874300  0.88785900  0.86114000  1
  C  C32  1  0.93116700  0.84269700  0.25000000  1
  C  C33  1  0.84269700  0.93116700  0.75000000  1
