# generated using pymatgen
data_Cu22Ni6C11
_symmetry_space_group_name_H-M   'P 1'
_cell_length_a   12.77946200
_cell_length_b   9.97986400
_cell_length_c   11.79274202
_cell_angle_alpha   58.54402451
_cell_angle_beta   90.00000000
_cell_angle_gamma   90.00000000
_symmetry_Int_Tables_number   1
_chemical_formula_structural   Cu22Ni6C11
_chemical_formula_sum   'Cu44 Ni12 C22'
_cell_volume   1282.98652130
_cell_formula_units_Z   2
loop_
 _symmetry_equiv_pos_site_id
 _symmetry_equiv_pos_as_xyz
  1  'x, y, z'
loop_
 _atom_site_type_symbol
 _atom_site_label
 _atom_site_symmetry_multiplicity
 _atom_site_fract_x
 _atom_site_fract_y
 _atom_site_fract_z
 _atom_site_occupancy
  C  C0  1  0.36900400  0.24170800  0.77376100  1
  C  C1  1  0.63099600  0.75829200  0.22623900  1
  C  C2  1  0.29993600  0.60040100  0.99666700  1
  C  C3  1  0.20006400  0.60040100  0.49666700  1
  C  C4  1  0.86900400  0.75829200  0.72623900  1
  C  C5  1  0.13099600  0.24170800  0.27376100  1
  C  C6  1  0.70006400  0.39959900  0.00333300  1
  C  C7  1  0.79993600  0.39959900  0.50333300  1
  C  C8  1  0.00000000  0.00000000  0.00000000  1
  C  C9  1  0.50000000  0.00000000  0.50000000  1
  C  C10  1  0.55347500  0.96964900  0.67308500  1
  C  C11  1  0.64693700  0.04977500  0.42627400  1
  C  C12  1  0.47694300  0.23086400  0.42647600  1
  C  C13  1  0.94652500  0.96964900  0.17308500  1
  C  C14  1  0.52305700  0.76913600  0.57352400  1
  C  C15  1  0.05347500  0.03035100  0.82691500  1
  C  C16  1  0.02305700  0.23086400  0.92647600  1
  C  C17  1  0.35306300  0.95022500  0.57372600  1
  C  C18  1  0.97694300  0.76913600  0.07352400  1
  C  C19  1  0.85306300  0.04977500  0.92627400  1
  C  C20  1  0.44652500  0.03035100  0.32691500  1
  C  C21  1  0.14693700  0.95022500  0.07372600  1
  Ni  Ni22  1  0.58347700  0.95128400  0.77096100  1
  Ni  Ni23  1  0.72920400  0.08155900  0.38367500  1
  Ni  Ni24  1  0.08347700  0.04871600  0.72903900  1
  Ni  Ni25  1  0.53359100  0.63784000  0.61799700  1
  Ni  Ni26  1  0.41652300  0.04871600  0.22903900  1
  Ni  Ni27  1  0.91652300  0.95128400  0.27096100  1
  Ni  Ni28  1  0.22920400  0.91844100  0.11632500  1
  Ni  Ni29  1  0.03359100  0.36216000  0.88200300  1
  Ni  Ni30  1  0.46640900  0.36216000  0.38200300  1
  Ni  Ni31  1  0.77079600  0.08155900  0.88367500  1
  Ni  Ni32  1  0.96640900  0.63784000  0.11799700  1
  Ni  Ni33  1  0.27079600  0.91844100  0.61632500  1
  Cu  Cu34  1  0.26558200  0.53499600  0.38969700  1
  Cu  Cu35  1  0.49620000  0.29802500  0.67576400  1
  Cu  Cu36  1  0.58832500  0.66743600  0.12789800  1
  Cu  Cu37  1  0.31900600  0.17816200  0.65551400  1
  Cu  Cu38  1  0.18385800  0.46448300  0.13688200  1
  Cu  Cu39  1  0.00380000  0.29802500  0.17576400  1
  Cu  Cu40  1  0.73046500  0.79356200  0.65240400  1
  Cu  Cu41  1  0.41129100  0.03474900  0.90194500  1
  Cu  Cu42  1  0.18099400  0.17816200  0.15551400  1
  Cu  Cu43  1  0.38480200  0.41757600  0.08030600  1
  Cu  Cu44  1  0.80246300  0.23566800  0.05917200  1
  Cu  Cu45  1  0.26953500  0.20643800  0.34759600  1
  Cu  Cu46  1  0.68099400  0.82183800  0.34448600  1
  Cu  Cu47  1  0.68385800  0.53551700  0.36311800  1
  Cu  Cu48  1  0.08870900  0.03474900  0.40194500  1
  Cu  Cu49  1  0.91129100  0.96525100  0.59805500  1
  Cu  Cu50  1  0.15263500  0.65245800  0.62083300  1
  Cu  Cu51  1  0.50380000  0.70197500  0.32423600  1
  Cu  Cu52  1  0.31614200  0.46448300  0.63688200  1
  Cu  Cu53  1  0.19753700  0.76433200  0.94082800  1
  Cu  Cu54  1  0.10339700  0.73128800  0.35966600  1
  Cu  Cu55  1  0.30246300  0.76433200  0.44082800  1
  Cu  Cu56  1  0.76558200  0.46500400  0.11030300  1
  Cu  Cu57  1  0.60339700  0.26871200  0.14033400  1
  Cu  Cu58  1  0.61519800  0.58242400  0.91969400  1
  Cu  Cu59  1  0.91167500  0.66743600  0.62789800  1
  Cu  Cu60  1  0.84736500  0.34754200  0.37916700  1
  Cu  Cu61  1  0.99620000  0.70197500  0.82423600  1
  Cu  Cu62  1  0.73441800  0.46500400  0.61030300  1
  Cu  Cu63  1  0.88480200  0.58242400  0.41969400  1
  Cu  Cu64  1  0.11519800  0.41757600  0.58030600  1
  Cu  Cu65  1  0.89660300  0.26871200  0.64033400  1
  Cu  Cu66  1  0.69753700  0.23566800  0.55917200  1
  Cu  Cu67  1  0.81614200  0.53551700  0.86311800  1
  Cu  Cu68  1  0.08832500  0.33256400  0.37210200  1
  Cu  Cu69  1  0.23441800  0.53499600  0.88969700  1
  Cu  Cu70  1  0.76953500  0.79356200  0.15240400  1
  Cu  Cu71  1  0.23046500  0.20643800  0.84759600  1
  Cu  Cu72  1  0.65263500  0.34754200  0.87916700  1
  Cu  Cu73  1  0.58870900  0.96525100  0.09805500  1
  Cu  Cu74  1  0.81900600  0.82183800  0.84448600  1
  Cu  Cu75  1  0.34736500  0.65245800  0.12083300  1
  Cu  Cu76  1  0.41167500  0.33256400  0.87210200  1
  Cu  Cu77  1  0.39660300  0.73128800  0.85966600  1
