# generated using pymatgen
data_Cu2NiC
_symmetry_space_group_name_H-M   'P 1'
_cell_length_a   10.65006200
_cell_length_b   6.47876900
_cell_length_c   8.34540698
_cell_angle_alpha   82.33707883
_cell_angle_beta   90.00000000
_cell_angle_gamma   90.00000000
_symmetry_Int_Tables_number   1
_chemical_formula_structural   Cu2NiC
_chemical_formula_sum   'Cu16 Ni8 C8'
_cell_volume   570.68486036
_cell_formula_units_Z   8
loop_
 _symmetry_equiv_pos_site_id
 _symmetry_equiv_pos_as_xyz
  1  'x, y, z'
loop_
 _atom_site_type_symbol
 _atom_site_label
 _atom_site_symmetry_multiplicity
 _atom_site_fract_x
 _atom_site_fract_y
 _atom_site_fract_z
 _atom_site_occupancy
  C  C0  1  0.58413400  0.76926600  0.33406500  1
  C  C1  1  0.70539600  0.28358700  0.01995700  1
  C  C2  1  0.91586600  0.76926600  0.83406500  1
  C  C3  1  0.08413400  0.23073400  0.16593500  1
  C  C4  1  0.20539600  0.71641300  0.48004300  1
  C  C5  1  0.41586600  0.23073400  0.66593500  1
  C  C6  1  0.29460400  0.71641300  0.98004300  1
  C  C7  1  0.79460400  0.28358700  0.51995700  1
  Ni  Ni8  1  0.10657000  0.16692800  0.65847800  1
  Ni  Ni9  1  0.44539200  0.31296000  0.27290600  1
  Ni  Ni10  1  0.55460800  0.68704000  0.72709400  1
  Ni  Ni11  1  0.60657000  0.83307200  0.84152200  1
  Ni  Ni12  1  0.89343000  0.83307200  0.34152200  1
  Ni  Ni13  1  0.94539200  0.68704000  0.22709400  1
  Ni  Ni14  1  0.05460800  0.31296000  0.77290600  1
  Ni  Ni15  1  0.39343000  0.16692800  0.15847800  1
  Cu  Cu16  1  0.44430300  0.72465900  0.67029500  1
  Cu  Cu17  1  0.55569700  0.27534100  0.32970500  1
  Cu  Cu18  1  0.12621300  0.45944000  0.80477500  1
  Cu  Cu19  1  0.15647800  0.99829100  0.72596000  1
  Cu  Cu20  1  0.37378700  0.45944000  0.30477500  1
  Cu  Cu21  1  0.09767100  0.22562800  0.50758800  1
  Cu  Cu22  1  0.34352200  0.99829100  0.22596000  1
  Cu  Cu23  1  0.84352200  0.00170900  0.27404000  1
  Cu  Cu24  1  0.59767100  0.77437200  0.99241200  1
  Cu  Cu25  1  0.90232900  0.77437200  0.49241200  1
  Cu  Cu26  1  0.62621300  0.54056000  0.69522500  1
  Cu  Cu27  1  0.65647800  0.00170900  0.77404000  1
  Cu  Cu28  1  0.87378700  0.54056000  0.19522500  1
  Cu  Cu29  1  0.94430300  0.27534100  0.82970500  1
  Cu  Cu30  1  0.05569700  0.72465900  0.17029500  1
  Cu  Cu31  1  0.40232900  0.22562800  0.00758800  1
