# generated using pymatgen
data_CuNi3C13
_symmetry_space_group_name_H-M   'P 1'
_cell_length_a   11.14984700
_cell_length_b   12.56009900
_cell_length_c   15.43278236
_cell_angle_alpha   67.82050340
_cell_angle_beta   90.00000000
_cell_angle_gamma   90.00000000
_symmetry_Int_Tables_number   1
_chemical_formula_structural   CuNi3C13
_chemical_formula_sum   'Cu8 Ni24 C104'
_cell_volume   2001.33540948
_cell_formula_units_Z   8
loop_
 _symmetry_equiv_pos_site_id
 _symmetry_equiv_pos_as_xyz
  1  'x, y, z'
loop_
 _atom_site_type_symbol
 _atom_site_label
 _atom_site_symmetry_multiplicity
 _atom_site_fract_x
 _atom_site_fract_y
 _atom_site_fract_z
 _atom_site_occupancy
  C  C0  1  0.74941700  0.89635900  0.16247500  1
  C  C1  1  0.25058300  0.10364100  0.83752500  1
  C  C2  1  0.61731000  0.68395500  0.15297600  1
  C  C3  1  0.75058300  0.89635900  0.66247500  1
  C  C4  1  0.88269000  0.68395500  0.65297600  1
  C  C5  1  0.38269000  0.31604500  0.84702400  1
  C  C6  1  0.11731000  0.31604500  0.34702400  1
  C  C7  1  0.24941700  0.10364100  0.33752500  1
  C  C8  1  0.19450700  0.34086300  0.91431800  1
  C  C9  1  0.73886200  0.52801200  0.16192400  1
  C  C10  1  0.97835400  0.60093200  0.55463400  1
  C  C11  1  0.86291300  0.89755900  0.29203700  1
  C  C12  1  0.44532800  0.13392200  0.87062900  1
  C  C13  1  0.65498300  0.75391800  0.79657900  1
  C  C14  1  0.55858600  0.27700500  0.94310500  1
  C  C15  1  0.08699300  0.38778000  0.18142100  1
  C  C16  1  0.38240500  0.96982400  0.81019600  1
  C  C17  1  0.15079700  0.93112500  0.43292000  1
  C  C18  1  0.73974100  0.09221600  0.64360000  1
  C  C19  1  0.16047900  0.05911100  0.98749600  1
  C  C20  1  0.02927300  0.48304000  0.23355400  1
  C  C21  1  0.02164600  0.39906800  0.44536600  1
  C  C22  1  0.42307900  0.25703200  0.01069500  1
  C  C23  1  0.05858600  0.72299500  0.55689500  1
  C  C24  1  0.91679300  0.82425500  0.10088100  1
  C  C25  1  0.15498300  0.24608200  0.70342100  1
  C  C26  1  0.97072700  0.51696000  0.76644600  1
  C  C27  1  0.43673200  0.03141100  0.40569600  1
  C  C28  1  0.05467200  0.13392200  0.37062900  1
  C  C29  1  0.05168400  0.64641300  0.75448600  1
  C  C30  1  0.30549300  0.34086300  0.41431800  1
  C  C31  1  0.23974100  0.90778400  0.85640000  1
  C  C32  1  0.84920300  0.06887500  0.56708000  1
  C  C33  1  0.55467200  0.86607800  0.12937100  1
  C  C34  1  0.88240500  0.03017600  0.68980400  1
  C  C35  1  0.84501700  0.75391800  0.29657900  1
  C  C36  1  0.07692100  0.25703200  0.51069500  1
  C  C37  1  0.08320700  0.17574500  0.89911900  1
  C  C38  1  0.34501700  0.24608200  0.20342100  1
  C  C39  1  0.94141400  0.27700500  0.44310500  1
  C  C40  1  0.76025900  0.09221600  0.14360000  1
  C  C41  1  0.93673200  0.96858900  0.09430400  1
  C  C42  1  0.72152100  0.82540200  0.32779200  1
  C  C43  1  0.27847900  0.17459800  0.67220800  1
  C  C44  1  0.65079700  0.06887500  0.06708000  1
  C  C45  1  0.92307900  0.74296800  0.48930500  1
  C  C46  1  0.91300700  0.61222000  0.81857900  1
  C  C47  1  0.26025900  0.90778400  0.35640000  1
  C  C48  1  0.94831600  0.35358700  0.24551400  1
  C  C49  1  0.36291300  0.10244100  0.20796300  1
  C  C50  1  0.58320700  0.82425500  0.60088100  1
  C  C51  1  0.47072700  0.48304000  0.73355400  1
  C  C52  1  0.58699300  0.61222000  0.31857900  1
  C  C53  1  0.52927300  0.51696000  0.26644600  1
  C  C54  1  0.80549300  0.65913700  0.08568200  1
  C  C55  1  0.34920300  0.93112500  0.93292000  1
  C  C56  1  0.41679300  0.17574500  0.39911900  1
  C  C57  1  0.81542500  0.61659600  0.21153200  1
  C  C58  1  0.66047900  0.94088900  0.51250400  1
  C  C59  1  0.13708700  0.10244100  0.70796300  1
  C  C60  1  0.44141400  0.72299500  0.05689500  1
  C  C61  1  0.56326800  0.96858900  0.59430400  1
  C  C62  1  0.94532800  0.86607800  0.62937100  1
  C  C63  1  0.41300700  0.38778000  0.68142100  1
  C  C64  1  0.44831600  0.64641300  0.25448600  1
  C  C65  1  0.26113800  0.47198800  0.83807600  1
  C  C66  1  0.83952100  0.94088900  0.01250400  1
  C  C67  1  0.23886200  0.47198800  0.33807600  1
  C  C68  1  0.47835400  0.39906800  0.94536600  1
  C  C69  1  0.33952100  0.05911100  0.48749600  1
  C  C70  1  0.06326800  0.03141100  0.90569600  1
  C  C71  1  0.76113800  0.52801200  0.66192400  1
  C  C72  1  0.52164600  0.60093200  0.05463400  1
  C  C73  1  0.68457500  0.61659600  0.71153200  1
  C  C74  1  0.31542500  0.38340400  0.28846800  1
  C  C75  1  0.77847900  0.82540200  0.82779200  1
  C  C76  1  0.69450700  0.65913700  0.58568200  1
  C  C77  1  0.22152100  0.17459800  0.17220800  1
  C  C78  1  0.63708700  0.89755900  0.79203700  1
  C  C79  1  0.11759500  0.96982400  0.31019600  1
  C  C80  1  0.61759500  0.03017600  0.18980400  1
  C  C81  1  0.18457500  0.38340400  0.78846800  1
  C  C82  1  0.57692100  0.74296800  0.98930500  1
  C  C83  1  0.55168400  0.35358700  0.74551400  1
  Ni  Ni84  1  0.81237700  0.03570700  0.63834000  1
  Ni  Ni85  1  0.03751200  0.39256600  0.24143400  1
  Ni  Ni86  1  0.53109600  0.68848800  0.05369300  1
  Ni  Ni87  1  0.79939000  0.83652300  0.28136200  1
  Ni  Ni88  1  0.74085900  0.61740000  0.65283400  1
  Ni  Ni89  1  0.25914100  0.38260000  0.34716600  1
  Ni  Ni90  1  0.96248800  0.60743400  0.75856600  1
  Ni  Ni91  1  0.03109600  0.31151200  0.44630700  1
  Ni  Ni92  1  0.68762300  0.03570700  0.13834000  1
  Ni  Ni93  1  0.87222300  0.90734800  0.08496200  1
  Ni  Ni94  1  0.96890400  0.68848800  0.55369300  1
  Ni  Ni95  1  0.20061000  0.16347700  0.71863800  1
  Ni  Ni96  1  0.12777700  0.09265200  0.91503800  1
  Ni  Ni97  1  0.75914100  0.61740000  0.15283400  1
  Ni  Ni98  1  0.18762300  0.96429300  0.36166000  1
  Ni  Ni99  1  0.53751200  0.60743400  0.25856600  1
  Ni  Ni100  1  0.24085900  0.38260000  0.84716600  1
  Ni  Ni101  1  0.29939000  0.16347700  0.21863800  1
  Ni  Ni102  1  0.62777700  0.90734800  0.58496200  1
  Ni  Ni103  1  0.46248800  0.39256600  0.74143400  1
  Ni  Ni104  1  0.31237700  0.96429300  0.86166000  1
  Ni  Ni105  1  0.37222300  0.09265200  0.41503800  1
  Ni  Ni106  1  0.46890400  0.31151200  0.94630700  1
  Ni  Ni107  1  0.70061000  0.83652300  0.78136200  1
  Cu  Cu108  1  0.21830600  0.80159800  0.19132000  1
  Cu  Cu109  1  0.78169400  0.19840200  0.80868000  1
  Cu  Cu110  1  0.14000300  0.64725500  0.98055600  1
  Cu  Cu111  1  0.64000300  0.35274500  0.51944400  1
  Cu  Cu112  1  0.71830600  0.19840200  0.30868000  1
  Cu  Cu113  1  0.85999700  0.35274500  0.01944400  1
  Cu  Cu114  1  0.28169400  0.80159800  0.69132000  1
  Cu  Cu115  1  0.35999700  0.64725500  0.48055600  1
  C  C116  1  0.13611200  0.17904000  0.35773200  1
  C  C117  1  0.86388800  0.82096000  0.64226800  1
  C  C118  1  0.63611200  0.82096000  0.14226800  1
  C  C119  1  0.36388800  0.17904000  0.85773200  1
  C  C120  1  0.38447900  0.95160100  0.10071700  1
  C  C121  1  0.71882400  0.52063400  0.93514100  1
  C  C122  1  0.99910400  0.82082600  0.89365700  1
  C  C123  1  0.28117600  0.47936600  0.06485900  1
  C  C124  1  0.44050200  0.66059200  0.78154000  1
  C  C125  1  0.05949800  0.66059200  0.28154000  1
  C  C126  1  0.50089600  0.82082600  0.39365700  1
  C  C127  1  0.61552100  0.04839900  0.89928300  1
  C  C128  1  0.00089600  0.17917400  0.10634300  1
  C  C129  1  0.55949800  0.33940800  0.21846000  1
  C  C130  1  0.49910400  0.17917400  0.60634300  1
  C  C131  1  0.78117600  0.52063400  0.43514100  1
  C  C132  1  0.94050200  0.33940800  0.71846000  1
  C  C133  1  0.88447900  0.04839900  0.39928300  1
  C  C134  1  0.21882400  0.47936600  0.56485900  1
  C  C135  1  0.11552100  0.95160100  0.60071700  1
