# generated using pymatgen
data_Cu4NiC4
_symmetry_space_group_name_H-M   'P 1'
_cell_length_a   14.84152908
_cell_length_b   13.21945398
_cell_length_c   8.06981900
_cell_angle_alpha   84.72777093
_cell_angle_beta   62.49105598
_cell_angle_gamma   32.78117309
_symmetry_Int_Tables_number   1
_chemical_formula_structural   Cu4NiC4
_chemical_formula_sum   'Cu8 Ni2 C8'
_cell_volume   598.15699115
_cell_formula_units_Z   2
loop_
 _symmetry_equiv_pos_site_id
 _symmetry_equiv_pos_as_xyz
  1  'x, y, z'
loop_
 _atom_site_type_symbol
 _atom_site_label
 _atom_site_symmetry_multiplicity
 _atom_site_fract_x
 _atom_site_fract_y
 _atom_site_fract_z
 _atom_site_occupancy
  C  C0  1  0.18007100  0.18007100  0.81992900  1
  C  C1  1  0.06992900  0.06992900  0.43007100  1
  C  C2  1  0.81992900  0.81992900  0.18007100  1
  C  C3  1  0.43007100  0.43007100  0.06992900  1
  Ni  Ni4  1  0.25000000  0.25000000  0.25000000  1
  Ni  Ni5  1  0.00000000  0.00000000  0.00000000  1
  C  C6  1  0.43867400  0.43867400  0.56132600  1
  C  C7  1  0.68867400  0.68867400  0.81132600  1
  C  C8  1  0.81132600  0.81132600  0.68867400  1
  C  C9  1  0.56132600  0.56132600  0.43867400  1
  Cu  Cu10  1  0.05347600  0.83117200  0.75134700  1
  Cu  Cu11  1  0.88599600  0.49865300  0.41882800  1
  Cu  Cu12  1  0.75134700  0.36400400  0.05347600  1
  Cu  Cu13  1  0.49865300  0.88599600  0.19652400  1
  Cu  Cu14  1  0.41882800  0.19652400  0.88599600  1
  Cu  Cu15  1  0.19652400  0.41882800  0.49865300  1
  Cu  Cu16  1  0.36400400  0.75134700  0.83117200  1
  Cu  Cu17  1  0.83117200  0.05347600  0.36400400  1
