# generated using pymatgen
data_Cu3Ni3C22
_symmetry_space_group_name_H-M   'P 1'
_cell_length_a   7.62428957
_cell_length_b   7.62428957
_cell_length_c   7.62428996
_cell_angle_alpha   65.40775430
_cell_angle_beta   65.40775430
_cell_angle_gamma   65.40775807
_symmetry_Int_Tables_number   1
_chemical_formula_structural   Cu3Ni3C22
_chemical_formula_sum   'Cu3 Ni3 C22'
_cell_volume   350.26265448
_cell_formula_units_Z   1
loop_
 _symmetry_equiv_pos_site_id
 _symmetry_equiv_pos_as_xyz
  1  'x, y, z'
loop_
 _atom_site_type_symbol
 _atom_site_label
 _atom_site_symmetry_multiplicity
 _atom_site_fract_x
 _atom_site_fract_y
 _atom_site_fract_z
 _atom_site_occupancy
  C  C0  1  0.40822600  0.40822600  0.40822600  1
  C  C1  1  0.77065700  0.51732000  0.95574500  1
  C  C2  1  0.95574500  0.77065700  0.51732000  1
  C  C3  1  0.04425500  0.48268000  0.22934300  1
  C  C4  1  0.51732000  0.95574500  0.77065700  1
  C  C5  1  0.48268000  0.22934300  0.04425500  1
  C  C6  1  0.59177400  0.59177400  0.59177400  1
  C  C7  1  0.22934300  0.04425500  0.48268000  1
  Ni  Ni8  1  0.50000000  0.79810900  0.20189100  1
  Ni  Ni9  1  0.79810900  0.20189100  0.50000000  1
  Ni  Ni10  1  0.20189100  0.50000000  0.79810900  1
  Cu  Cu11  1  0.13972000  0.00000000  0.86028100  1
  Cu  Cu12  1  0.00000000  0.86028100  0.13972000  1
  Cu  Cu13  1  0.86028100  0.13971900  0.00000000  1
  C  C14  1  0.00000000  0.74312200  0.25687800  1
  C  C15  1  0.70350100  0.70350100  0.70350100  1
  C  C16  1  0.25687800  0.00000000  0.74312200  1
  C  C17  1  0.38858200  0.45775000  0.81854100  1
  C  C18  1  0.81854100  0.38858200  0.45775000  1
  C  C19  1  0.96768900  0.03231100  0.50000000  1
  C  C20  1  0.18145900  0.54225000  0.61141800  1
  C  C21  1  0.74312200  0.25687800  0.00000000  1
  C  C22  1  0.61141800  0.18145900  0.54225000  1
  C  C23  1  0.45775000  0.81854100  0.38858200  1
  C  C24  1  0.50000000  0.96768900  0.03231100  1
  C  C25  1  0.29649900  0.29649900  0.29649900  1
  C  C26  1  0.54225000  0.61141800  0.18145900  1
  C  C27  1  0.03231100  0.50000000  0.96768900  1
