# generated using pymatgen
data_Cu4Ni12C17
_symmetry_space_group_name_H-M   'P 1'
_cell_length_a   6.83107300
_cell_length_b   8.71140100
_cell_length_c   13.34211579
_cell_angle_alpha   62.49859340
_cell_angle_beta   90.00000000
_cell_angle_gamma   90.00000000
_symmetry_Int_Tables_number   1
_chemical_formula_structural   Cu4Ni12C17
_chemical_formula_sum   'Cu8 Ni24 C34'
_cell_volume   704.24700877
_cell_formula_units_Z   2
loop_
 _symmetry_equiv_pos_site_id
 _symmetry_equiv_pos_as_xyz
  1  'x, y, z'
loop_
 _atom_site_type_symbol
 _atom_site_label
 _atom_site_symmetry_multiplicity
 _atom_site_fract_x
 _atom_site_fract_y
 _atom_site_fract_z
 _atom_site_occupancy
  C  C0  1  0.34500400  0.32010800  0.12081200  1
  C  C1  1  0.84500400  0.67989200  0.37918800  1
  C  C2  1  0.15499600  0.32010800  0.62081200  1
  C  C3  1  0.65499600  0.67989200  0.87918800  1
  C  C4  1  0.00000000  0.00000000  0.00000000  1
  C  C5  1  0.50000000  0.00000000  0.50000000  1
  Ni  Ni6  1  0.08551100  0.94468400  0.65681700  1
  Ni  Ni7  1  0.71545300  0.78940000  0.11778200  1
  Ni  Ni8  1  0.91151800  0.42941200  0.14803300  1
  Ni  Ni9  1  0.41448900  0.94468400  0.15681700  1
  Ni  Ni10  1  0.28454700  0.21060000  0.88221800  1
  Ni  Ni11  1  0.78454700  0.78940000  0.61778200  1
  Ni  Ni12  1  0.41151800  0.57058800  0.35196700  1
  Ni  Ni13  1  0.58848200  0.42941200  0.64803300  1
  Ni  Ni14  1  0.58551100  0.05531600  0.84318300  1
  Ni  Ni15  1  0.40979600  0.32216500  0.35146000  1
  Ni  Ni16  1  0.50886900  0.41470400  0.76489100  1
  Ni  Ni17  1  0.98657500  0.06052400  0.22905400  1
  Ni  Ni18  1  0.90979600  0.67783500  0.14854000  1
  Ni  Ni19  1  0.48657500  0.93947600  0.27094600  1
  Ni  Ni20  1  0.01342500  0.93947600  0.77094600  1
  Ni  Ni21  1  0.09020400  0.32216500  0.85146000  1
  Ni  Ni22  1  0.00886900  0.58529600  0.73510900  1
  Ni  Ni23  1  0.91448900  0.05531600  0.34318300  1
  Ni  Ni24  1  0.99113100  0.41470400  0.26489100  1
  Ni  Ni25  1  0.49113100  0.58529600  0.23510900  1
  Ni  Ni26  1  0.08848200  0.57058800  0.85196700  1
  Ni  Ni27  1  0.21545300  0.21060000  0.38221800  1
  Ni  Ni28  1  0.51342500  0.06052400  0.72905400  1
  Ni  Ni29  1  0.59020400  0.67783500  0.64854000  1
  Cu  Cu30  1  0.67999600  0.22796100  0.95560600  1
  Cu  Cu31  1  0.68842500  0.25595100  0.54165100  1
  Cu  Cu32  1  0.82000400  0.22796100  0.45560600  1
  Cu  Cu33  1  0.18842500  0.74404900  0.95834900  1
  Cu  Cu34  1  0.17999600  0.77203900  0.54439400  1
  Cu  Cu35  1  0.31157500  0.74404900  0.45834900  1
  Cu  Cu36  1  0.81157500  0.25595100  0.04165100  1
  Cu  Cu37  1  0.32000400  0.77203900  0.04439400  1
  C  C38  1  0.53362400  0.16263800  0.57469300  1
  C  C39  1  0.46637600  0.83736200  0.42530700  1
  C  C40  1  0.00517400  0.00037400  0.31155000  1
  C  C41  1  0.50296100  0.51698800  0.31823600  1
  C  C42  1  0.47204200  0.68103400  0.08227600  1
  C  C43  1  0.25996900  0.63231200  0.42883400  1
  C  C44  1  0.35447200  0.20691300  0.36434700  1
  C  C45  1  0.74003100  0.36768800  0.57116600  1
  C  C46  1  0.64552800  0.79308700  0.63565300  1
  C  C47  1  0.24003100  0.63231200  0.92883400  1
  C  C48  1  0.99703900  0.51698800  0.81823600  1
  C  C49  1  0.02795800  0.68103400  0.58227600  1
  C  C50  1  0.03362400  0.83736200  0.92530700  1
  C  C51  1  0.00296100  0.48301200  0.18176400  1
  C  C52  1  0.96637600  0.16263800  0.07469300  1
  C  C53  1  0.14552800  0.20691300  0.86434700  1
  C  C54  1  0.85447200  0.79308700  0.13565300  1
  C  C55  1  0.26066900  0.88657300  0.07185600  1
  C  C56  1  0.52795800  0.31896600  0.91772400  1
  C  C57  1  0.75996900  0.36768800  0.07116600  1
  C  C58  1  0.73933100  0.11342700  0.92814400  1
  C  C59  1  0.23933100  0.88657300  0.57185600  1
  C  C60  1  0.49482600  0.00037400  0.81155000  1
  C  C61  1  0.97204200  0.31896600  0.41772400  1
  C  C62  1  0.49703900  0.48301200  0.68176400  1
  C  C63  1  0.76066900  0.11342700  0.42814400  1
  C  C64  1  0.50517400  0.99962600  0.18845000  1
  C  C65  1  0.99482600  0.99962600  0.68845000  1
