# generated using pymatgen
data_Cu6NiC3
_symmetry_space_group_name_H-M   'P 1'
_cell_length_a   11.81437800
_cell_length_b   10.19615200
_cell_length_c   11.05995726
_cell_angle_alpha   65.52467440
_cell_angle_beta   90.00000000
_cell_angle_gamma   90.00000000
_symmetry_Int_Tables_number   1
_chemical_formula_structural   Cu6NiC3
_chemical_formula_sum   'Cu24 Ni4 C12'
_cell_volume   1212.57526688
_cell_formula_units_Z   4
loop_
 _symmetry_equiv_pos_site_id
 _symmetry_equiv_pos_as_xyz
  1  'x, y, z'
loop_
 _atom_site_type_symbol
 _atom_site_label
 _atom_site_symmetry_multiplicity
 _atom_site_fract_x
 _atom_site_fract_y
 _atom_site_fract_z
 _atom_site_occupancy
  C  C0  1  0.19364900  0.82747400  0.48702200  1
  C  C1  1  0.80635100  0.17252600  0.51297800  1
  C  C2  1  0.69364900  0.17252600  0.01297800  1
  C  C3  1  0.30635100  0.82747400  0.98702200  1
  C  C4  1  0.54646100  0.72617300  0.45414500  1
  C  C5  1  0.45353900  0.27382700  0.54585500  1
  C  C6  1  0.95353900  0.72617300  0.95414500  1
  C  C7  1  0.68185600  0.78839800  0.87899700  1
  C  C8  1  0.31814400  0.21160200  0.12100300  1
  C  C9  1  0.04646100  0.27382700  0.04585500  1
  C  C10  1  0.81814400  0.78839800  0.37899700  1
  C  C11  1  0.18185600  0.21160200  0.62100300  1
  Ni  Ni12  1  0.67242200  0.78518200  0.37242300  1
  Ni  Ni13  1  0.82757800  0.78518200  0.87242300  1
  Ni  Ni14  1  0.17242200  0.21481800  0.12757700  1
  Ni  Ni15  1  0.32757800  0.21481800  0.62757700  1
  Cu  Cu16  1  0.41422400  0.83639100  0.82176300  1
  Cu  Cu17  1  0.40289500  0.85786800  0.14273100  1
  Cu  Cu18  1  0.17615900  0.00303600  0.91307200  1
  Cu  Cu19  1  0.82384100  0.99696400  0.08692800  1
  Cu  Cu20  1  0.91422400  0.16360900  0.67823700  1
  Cu  Cu21  1  0.09710500  0.85786800  0.64273100  1
  Cu  Cu22  1  0.36795400  0.36547100  0.92201300  1
  Cu  Cu23  1  0.28799700  0.62226800  0.56697400  1
  Cu  Cu24  1  0.92029400  0.57622200  0.16005200  1
  Cu  Cu25  1  0.58577600  0.16360900  0.17823700  1
  Cu  Cu26  1  0.67615900  0.99696400  0.58692800  1
  Cu  Cu27  1  0.21200300  0.62226800  0.06697400  1
  Cu  Cu28  1  0.86795400  0.63452900  0.57798700  1
  Cu  Cu29  1  0.32384100  0.00303600  0.41307200  1
  Cu  Cu30  1  0.63204600  0.63452900  0.07798700  1
  Cu  Cu31  1  0.59710500  0.14213200  0.85726900  1
  Cu  Cu32  1  0.08577600  0.83639100  0.32176300  1
  Cu  Cu33  1  0.13204600  0.36547100  0.42201300  1
  Cu  Cu34  1  0.07970600  0.42377800  0.83994800  1
  Cu  Cu35  1  0.71200300  0.37773200  0.43302600  1
  Cu  Cu36  1  0.57970600  0.57622200  0.66005200  1
  Cu  Cu37  1  0.78799700  0.37773200  0.93302600  1
  Cu  Cu38  1  0.42029400  0.42377800  0.33994800  1
  Cu  Cu39  1  0.90289500  0.14213200  0.35726900  1
