# generated using pymatgen
data_Cu5(NiC2)2
_symmetry_space_group_name_H-M   'P 1'
_cell_length_a   11.17585600
_cell_length_b   9.80894100
_cell_length_c   15.24899239
_cell_angle_alpha   50.92417793
_cell_angle_beta   90.00000000
_cell_angle_gamma   90.00000000
_symmetry_Int_Tables_number   1
_chemical_formula_structural   Cu5(NiC2)2
_chemical_formula_sum   'Cu20 Ni8 C16'
_cell_volume   1297.71890538
_cell_formula_units_Z   4
loop_
 _symmetry_equiv_pos_site_id
 _symmetry_equiv_pos_as_xyz
  1  'x, y, z'
loop_
 _atom_site_type_symbol
 _atom_site_label
 _atom_site_symmetry_multiplicity
 _atom_site_fract_x
 _atom_site_fract_y
 _atom_site_fract_z
 _atom_site_occupancy
  C  C0  1  0.36556900  0.28462600  0.68772000  1
  C  C1  1  0.13443100  0.28462600  0.18772000  1
  C  C2  1  0.86556900  0.71537400  0.81228000  1
  C  C3  1  0.63443100  0.71537400  0.31228000  1
  C  C4  1  0.25037100  0.64430700  0.81356700  1
  C  C5  1  0.77385500  0.16205500  0.39561300  1
  C  C6  1  0.75037100  0.35569300  0.68643300  1
  C  C7  1  0.74962900  0.35569300  0.18643300  1
  C  C8  1  0.27385500  0.83794500  0.10438700  1
  C  C9  1  0.22614500  0.83794500  0.60438700  1
  C  C10  1  0.48168200  0.83216000  0.68277700  1
  C  C11  1  0.01831800  0.83216000  0.18277700  1
  C  C12  1  0.51831800  0.16784000  0.31722300  1
  C  C13  1  0.72614500  0.16205500  0.89561300  1
  C  C14  1  0.98168200  0.16784000  0.81722300  1
  C  C15  1  0.24962900  0.64430700  0.31356700  1
  Ni  Ni16  1  0.09728500  0.69411100  0.30827800  1
  Ni  Ni17  1  0.37869600  0.88671400  0.57447000  1
  Ni  Ni18  1  0.87869600  0.11328600  0.92553000  1
  Ni  Ni19  1  0.59728500  0.30588900  0.19172200  1
  Ni  Ni20  1  0.62130400  0.11328600  0.42553000  1
  Ni  Ni21  1  0.12130400  0.88671400  0.07447000  1
  Ni  Ni22  1  0.40271500  0.69411100  0.80827800  1
  Ni  Ni23  1  0.90271500  0.30588900  0.69172200  1
  Cu  Cu24  1  0.98638300  0.61500400  0.74768000  1
  Cu  Cu25  1  0.29272800  0.02698700  0.82969800  1
  Cu  Cu26  1  0.71581600  0.52823500  0.90070900  1
  Cu  Cu27  1  0.53243500  0.74016700  0.42444900  1
  Cu  Cu28  1  0.21581600  0.47176500  0.59929100  1
  Cu  Cu29  1  0.96756500  0.74016700  0.92444900  1
  Cu  Cu30  1  0.13761600  0.07423000  0.57411300  1
  Cu  Cu31  1  0.48638300  0.38499600  0.75232000  1
  Cu  Cu32  1  0.01361700  0.38499600  0.25232000  1
  Cu  Cu33  1  0.79272800  0.97301300  0.67030200  1
  Cu  Cu34  1  0.51361700  0.61500400  0.24768000  1
  Cu  Cu35  1  0.70727200  0.97301300  0.17030200  1
  Cu  Cu36  1  0.46756500  0.25983300  0.57555100  1
  Cu  Cu37  1  0.20727200  0.02698700  0.32969800  1
  Cu  Cu38  1  0.36238400  0.07423000  0.07411300  1
  Cu  Cu39  1  0.63761600  0.92577000  0.92588700  1
  Cu  Cu40  1  0.78418400  0.52823500  0.40070900  1
  Cu  Cu41  1  0.28418400  0.47176500  0.09929100  1
  Cu  Cu42  1  0.86238400  0.92577000  0.42588700  1
  Cu  Cu43  1  0.03243500  0.25983300  0.07555100  1
