# generated using pymatgen
data_Cu(NiC2)2
_symmetry_space_group_name_H-M   'P 1'
_cell_length_a   6.34674000
_cell_length_b   9.30290281
_cell_length_c   9.30290094
_cell_angle_alpha   73.46344616
_cell_angle_beta   70.05410064
_cell_angle_gamma   70.05408025
_symmetry_Int_Tables_number   1
_chemical_formula_structural   Cu(NiC2)2
_chemical_formula_sum   'Cu4 Ni8 C16'
_cell_volume   476.47237865
_cell_formula_units_Z   4
loop_
 _symmetry_equiv_pos_site_id
 _symmetry_equiv_pos_as_xyz
  1  'x, y, z'
loop_
 _atom_site_type_symbol
 _atom_site_label
 _atom_site_symmetry_multiplicity
 _atom_site_fract_x
 _atom_site_fract_y
 _atom_site_fract_z
 _atom_site_occupancy
  Ni  Ni0  1  0.92103300  0.32895500  0.32895500  1
  Ni  Ni1  1  0.42103400  0.82895500  0.82895500  1
  Ni  Ni2  1  0.57896700  0.17104500  0.17104500  1
  Ni  Ni3  1  0.07896600  0.67104500  0.67104500  1
  Ni  Ni4  1  0.49999900  0.25000000  0.75000000  1
  Ni  Ni5  1  0.00000100  0.75000000  0.25000000  1
  Ni  Ni6  1  0.00000100  0.25000000  0.75000000  1
  Ni  Ni7  1  0.49999900  0.75000000  0.25000000  1
  Cu  Cu8  1  0.75000000  0.49999900  0.00000100  1
  Cu  Cu9  1  0.25000000  0.00000100  0.49999900  1
  Cu  Cu10  1  0.25000000  0.49999900  0.00000100  1
  Cu  Cu11  1  0.75000000  0.00000100  0.49999900  1
  C  C12  1  0.66711000  0.58288900  0.58288900  1
  C  C13  1  0.83289000  0.91711100  0.91711000  1
  C  C14  1  0.16708100  0.08291800  0.08291800  1
  C  C15  1  0.33291900  0.41708200  0.41708200  1
  C  C16  1  0.50000400  0.00000000  0.00000000  1
  C  C17  1  0.99999700  0.50000000  0.50000000  1
  C  C18  1  0.99999600  0.00000000  0.00000000  1
  C  C19  1  0.50000400  0.50000000  0.50000000  1
  C  C20  1  0.40715800  0.48600900  0.19968200  1
  C  C21  1  0.90715700  0.98600900  0.69968200  1
  C  C22  1  0.90715700  0.69968200  0.98600900  1
  C  C23  1  0.40715800  0.19968200  0.48600900  1
  C  C24  1  0.59284300  0.51399100  0.80031800  1
  C  C25  1  0.09284200  0.01399100  0.30031800  1
  C  C26  1  0.09284300  0.30031800  0.01399100  1
  C  C27  1  0.59284300  0.80031800  0.51399100  1
