# generated using pymatgen
data_Cu2Ni2C
_symmetry_space_group_name_H-M   'P 1'
_cell_length_a   8.35301700
_cell_length_b   9.26182100
_cell_length_c   10.83576007
_cell_angle_alpha   65.68778026
_cell_angle_beta   90.00000000
_cell_angle_gamma   90.00000000
_symmetry_Int_Tables_number   1
_chemical_formula_structural   Cu2Ni2C
_chemical_formula_sum   'Cu16 Ni16 C8'
_cell_volume   763.95518182
_cell_formula_units_Z   8
loop_
 _symmetry_equiv_pos_site_id
 _symmetry_equiv_pos_as_xyz
  1  'x, y, z'
loop_
 _atom_site_type_symbol
 _atom_site_label
 _atom_site_symmetry_multiplicity
 _atom_site_fract_x
 _atom_site_fract_y
 _atom_site_fract_z
 _atom_site_occupancy
  Ni  Ni0  1  0.55080200  0.82734400  0.24032000  1
  Ni  Ni1  1  0.05080200  0.67265600  0.75968000  1
  Ni  Ni2  1  0.44919800  0.17265600  0.75968000  1
  Ni  Ni3  1  0.94919800  0.32734400  0.24032000  1
  Ni  Ni4  1  0.72660000  0.60055300  0.46150800  1
  Ni  Ni5  1  0.22660000  0.89944700  0.53849200  1
  Ni  Ni6  1  0.27340000  0.39944700  0.53849200  1
  Ni  Ni7  1  0.77340000  0.10055300  0.46150800  1
  Ni  Ni8  1  0.99491200  0.78512500  0.27789300  1
  Ni  Ni9  1  0.49491200  0.71487500  0.72210700  1
  Ni  Ni10  1  0.00508800  0.21487500  0.72210700  1
  Ni  Ni11  1  0.50508800  0.28512500  0.27789300  1
  Ni  Ni12  1  0.77680500  0.81370200  0.04698300  1
  Ni  Ni13  1  0.27680500  0.68629800  0.95301700  1
  Ni  Ni14  1  0.22319500  0.18629800  0.95301700  1
  Ni  Ni15  1  0.72319500  0.31370200  0.04698300  1
  Cu  Cu16  1  0.57407700  0.65529900  0.36761800  1
  Cu  Cu17  1  0.07407700  0.84470100  0.63238200  1
  Cu  Cu18  1  0.42592300  0.34470100  0.63238200  1
  Cu  Cu19  1  0.92592300  0.15529900  0.36761800  1
  Cu  Cu20  1  0.89190300  0.68322600  0.40857000  1
  Cu  Cu21  1  0.39190300  0.81677400  0.59143000  1
  Cu  Cu22  1  0.10809700  0.31677400  0.59143000  1
  Cu  Cu23  1  0.60809700  0.18322600  0.40857000  1
  Cu  Cu24  1  0.92545800  0.82458200  0.13088500  1
  Cu  Cu25  1  0.42545800  0.67541800  0.86911500  1
  Cu  Cu26  1  0.07454200  0.17541800  0.86911500  1
  Cu  Cu27  1  0.57454200  0.32458200  0.13088500  1
  Cu  Cu28  1  0.60468700  0.78938700  0.11172200  1
  Cu  Cu29  1  0.10468700  0.71061300  0.88827800  1
  Cu  Cu30  1  0.39531300  0.21061300  0.88827800  1
  Cu  Cu31  1  0.89531300  0.28938700  0.11172200  1
  C  C32  1  0.38143200  0.85781600  0.22666700  1
  C  C33  1  0.88143200  0.64218400  0.77333300  1
  C  C34  1  0.61856800  0.14218400  0.77333300  1
  C  C35  1  0.11856800  0.35781600  0.22666700  1
  C  C36  1  0.65505200  0.94556800  0.25377600  1
  C  C37  1  0.15505200  0.55443200  0.74622400  1
  C  C38  1  0.34494800  0.05443200  0.74622400  1
  C  C39  1  0.84494800  0.44556800  0.25377600  1
