# generated using pymatgen
data_Cu4NiC13
_symmetry_space_group_name_H-M   'P 1'
_cell_length_a   12.44144200
_cell_length_b   12.44144200
_cell_length_c   12.44144200
_cell_angle_alpha   90.00000000
_cell_angle_beta   90.00000000
_cell_angle_gamma   90.00000000
_symmetry_Int_Tables_number   1
_chemical_formula_structural   Cu4NiC13
_chemical_formula_sum   'Cu16 Ni4 C52'
_cell_volume   1925.80432568
_cell_formula_units_Z   4
loop_
 _symmetry_equiv_pos_site_id
 _symmetry_equiv_pos_as_xyz
  1  'x, y, z'
loop_
 _atom_site_type_symbol
 _atom_site_label
 _atom_site_symmetry_multiplicity
 _atom_site_fract_x
 _atom_site_fract_y
 _atom_site_fract_z
 _atom_site_occupancy
  Ni  Ni0  1  0.00000000  0.00000000  0.50000000  1
  Ni  Ni1  1  0.50000000  0.00000000  0.00000000  1
  Ni  Ni2  1  0.50000000  0.50000000  0.50000000  1
  Ni  Ni3  1  0.00000000  0.50000000  0.00000000  1
  C  C4  1  0.69870600  0.95361600  0.31343800  1
  C  C5  1  0.19870600  0.54638400  0.68656200  1
  C  C6  1  0.81343800  0.69870600  0.54638400  1
  C  C7  1  0.54638400  0.81343800  0.69870600  1
  C  C8  1  0.69870600  0.54638400  0.81343800  1
  C  C9  1  0.45361600  0.31343800  0.80129400  1
  C  C10  1  0.54638400  0.68656200  0.19870600  1
  C  C11  1  0.68656200  0.19870600  0.54638400  1
  C  C12  1  0.04638400  0.81343800  0.80129400  1
  C  C13  1  0.30129400  0.45361600  0.18656200  1
  C  C14  1  0.80129400  0.45361600  0.31343800  1
  C  C15  1  0.30129400  0.04638400  0.68656200  1
  C  C16  1  0.95361600  0.31343800  0.69870600  1
  C  C17  1  0.18656200  0.19870600  0.95361600  1
  C  C18  1  0.81343800  0.80129400  0.04638400  1
  C  C19  1  0.04638400  0.68656200  0.30129400  1
  C  C20  1  0.31343800  0.69870600  0.95361600  1
  C  C21  1  0.18656200  0.30129400  0.45361600  1
  C  C22  1  0.80129400  0.04638400  0.81343800  1
  C  C23  1  0.45361600  0.18656200  0.30129400  1
  C  C24  1  0.19870600  0.95361600  0.18656200  1
  C  C25  1  0.68656200  0.30129400  0.04638400  1
  C  C26  1  0.31343800  0.80129400  0.45361600  1
  C  C27  1  0.95361600  0.18656200  0.19870600  1
  Cu  Cu28  1  0.73360000  0.73360000  0.73360000  1
  Cu  Cu29  1  0.65109300  0.15109300  0.34890700  1
  Cu  Cu30  1  0.26640000  0.26640000  0.26640000  1
  Cu  Cu31  1  0.76640000  0.23360000  0.73360000  1
  Cu  Cu32  1  0.84890700  0.84890700  0.84890700  1
  Cu  Cu33  1  0.34890700  0.65109300  0.15109300  1
  Cu  Cu34  1  0.23360000  0.76640000  0.26640000  1
  Cu  Cu35  1  0.15109300  0.34890700  0.65109300  1
  Cu  Cu36  1  0.23360000  0.73360000  0.76640000  1
  Cu  Cu37  1  0.26640000  0.23360000  0.76640000  1
  Cu  Cu38  1  0.76640000  0.26640000  0.23360000  1
  Cu  Cu39  1  0.84890700  0.65109300  0.34890700  1
  Cu  Cu40  1  0.15109300  0.15109300  0.15109300  1
  Cu  Cu41  1  0.65109300  0.34890700  0.84890700  1
  Cu  Cu42  1  0.73360000  0.76640000  0.23360000  1
  Cu  Cu43  1  0.34890700  0.84890700  0.65109300  1
  C  C44  1  0.30361800  0.54013200  0.45358300  1
  C  C45  1  0.04013200  0.45358300  0.19638200  1
  C  C46  1  0.69638200  0.04013200  0.04641700  1
  C  C47  1  0.50000000  0.00000000  0.50000000  1
  C  C48  1  0.45986800  0.95358300  0.19638200  1
  C  C49  1  0.19638200  0.45986800  0.95358300  1
  C  C50  1  0.45358300  0.19638200  0.04013200  1
  C  C51  1  0.00000000  0.00000000  0.00000000  1
  C  C52  1  0.95986800  0.95358300  0.30361800  1
  C  C53  1  0.45358300  0.30361800  0.54013200  1
  C  C54  1  0.80361800  0.54013200  0.04641700  1
  C  C55  1  0.04641700  0.69638200  0.04013200  1
  C  C56  1  0.54641700  0.69638200  0.45986800  1
  C  C57  1  0.95358300  0.30361800  0.95986800  1
  C  C58  1  0.69638200  0.45986800  0.54641700  1
  C  C59  1  0.80361800  0.95986800  0.54641700  1
  C  C60  1  0.50000000  0.50000000  0.00000000  1
  C  C61  1  0.00000000  0.50000000  0.50000000  1
  C  C62  1  0.54013200  0.04641700  0.80361800  1
  C  C63  1  0.30361800  0.95986800  0.95358300  1
  C  C64  1  0.04013200  0.04641700  0.69638200  1
  C  C65  1  0.95358300  0.19638200  0.45986800  1
  C  C66  1  0.19638200  0.04013200  0.45358300  1
  C  C67  1  0.54013200  0.45358300  0.30361800  1
  C  C68  1  0.04641700  0.80361800  0.54013200  1
  C  C69  1  0.54641700  0.80361800  0.95986800  1
  C  C70  1  0.95986800  0.54641700  0.80361800  1
  C  C71  1  0.45986800  0.54641700  0.69638200  1
