# generated using pymatgen
data_CuNiC8
_symmetry_space_group_name_H-M   'P 1'
_cell_length_a   5.57073963
_cell_length_b   5.57073963
_cell_length_c   7.80752800
_cell_angle_alpha   90.00000000
_cell_angle_beta   90.00000000
_cell_angle_gamma   91.04492476
_symmetry_Int_Tables_number   1
_chemical_formula_structural   CuNiC8
_chemical_formula_sum   'Cu2 Ni2 C16'
_cell_volume   242.25181733
_cell_formula_units_Z   2
loop_
 _symmetry_equiv_pos_site_id
 _symmetry_equiv_pos_as_xyz
  1  'x, y, z'
loop_
 _atom_site_type_symbol
 _atom_site_label
 _atom_site_symmetry_multiplicity
 _atom_site_fract_x
 _atom_site_fract_y
 _atom_site_fract_z
 _atom_site_occupancy
  Ni  Ni0  1  0.75426300  0.24573700  0.00000000  1
  Ni  Ni1  1  0.24573700  0.75426300  0.00000000  1
  Cu  Cu2  1  0.76532000  0.23468000  0.50000000  1
  Cu  Cu3  1  0.23468000  0.76532000  0.50000000  1
  C  C4  1  0.74860000  0.74860000  0.25830600  1
  C  C5  1  0.25140000  0.25140000  0.25830600  1
  C  C6  1  0.25140000  0.25140000  0.74169400  1
  C  C7  1  0.74860000  0.74860000  0.74169400  1
  C  C8  1  0.00000000  0.50000000  0.28681400  1
  C  C9  1  0.27174500  0.27174500  0.00000000  1
  C  C10  1  0.19001500  0.19001500  0.50000000  1
  C  C11  1  0.50000000  0.50000000  0.31311800  1
  C  C12  1  0.80998500  0.80998500  0.50000000  1
  C  C13  1  0.50000000  0.00000000  0.28681400  1
  C  C14  1  0.50000000  0.50000000  0.68688200  1
  C  C15  1  0.00000000  0.00000000  0.76140200  1
  C  C16  1  0.00000000  0.50000000  0.71318600  1
  C  C17  1  0.72825500  0.72825500  0.00000000  1
  C  C18  1  0.00000000  0.00000000  0.23859800  1
  C  C19  1  0.50000000  0.00000000  0.71318600  1
