# generated using pymatgen
data_CuNi2C7
_symmetry_space_group_name_H-M   'P 1'
_cell_length_a   4.52588300
_cell_length_b   8.24473500
_cell_length_c   9.05309700
_cell_angle_alpha   90.00000000
_cell_angle_beta   90.00000000
_cell_angle_gamma   90.00000000
_symmetry_Int_Tables_number   1
_chemical_formula_structural   CuNi2C7
_chemical_formula_sum   'Cu4 Ni8 C28'
_cell_volume   337.81365273
_cell_formula_units_Z   4
loop_
 _symmetry_equiv_pos_site_id
 _symmetry_equiv_pos_as_xyz
  1  'x, y, z'
loop_
 _atom_site_type_symbol
 _atom_site_label
 _atom_site_symmetry_multiplicity
 _atom_site_fract_x
 _atom_site_fract_y
 _atom_site_fract_z
 _atom_site_occupancy
  C  C0  1  0.28093000  0.03319200  0.09652200  1
  C  C1  1  0.08714700  0.78368700  0.75000000  1
  C  C2  1  0.58714700  0.71631300  0.25000000  1
  C  C3  1  0.28093000  0.03319200  0.40347700  1
  C  C4  1  0.46446500  0.77029900  0.75000000  1
  C  C5  1  0.75619200  0.86896100  0.15619700  1
  C  C6  1  0.71907000  0.96680800  0.59652200  1
  C  C7  1  0.78093000  0.46680800  0.90347800  1
  C  C8  1  0.21907000  0.53319200  0.40347700  1
  C  C9  1  0.41285300  0.28368700  0.75000000  1
  C  C10  1  0.25619200  0.63103900  0.65619700  1
  C  C11  1  0.53553500  0.22970100  0.25000000  1
  C  C12  1  0.24380800  0.13103900  0.84380300  1
  C  C13  1  0.24380800  0.13103900  0.65619700  1
  C  C14  1  0.74380800  0.36896100  0.34380300  1
  C  C15  1  0.74380800  0.36896100  0.15619700  1
  C  C16  1  0.25619200  0.63103900  0.84380300  1
  C  C17  1  0.78093000  0.46680800  0.59652200  1
  C  C18  1  0.03553500  0.27029900  0.75000000  1
  C  C19  1  0.91285300  0.21631300  0.25000000  1
  C  C20  1  0.21907000  0.53319200  0.09652200  1
  C  C21  1  0.71907000  0.96680800  0.90347800  1
  C  C22  1  0.96446500  0.72970100  0.25000000  1
  C  C23  1  0.75619200  0.86896100  0.34380300  1
  C  C24  1  0.76805700  0.79588100  0.25000000  1
  C  C25  1  0.23194300  0.20411900  0.75000000  1
  C  C26  1  0.73194300  0.29588100  0.25000000  1
  C  C27  1  0.26805700  0.70411900  0.75000000  1
  Ni  Ni28  1  0.16188200  0.48806000  0.99578300  1
  Ni  Ni29  1  0.83811800  0.51194000  0.49578300  1
  Ni  Ni30  1  0.33811800  0.98806000  0.50421700  1
  Ni  Ni31  1  0.66188200  0.01194000  0.00421700  1
  Ni  Ni32  1  0.33811800  0.98806000  0.99578300  1
  Ni  Ni33  1  0.83811800  0.51194000  0.00421700  1
  Ni  Ni34  1  0.66188200  0.01194000  0.49578300  1
  Ni  Ni35  1  0.16188200  0.48806000  0.50421700  1
  Cu  Cu36  1  0.27858800  0.60374100  0.25000000  1
  Cu  Cu37  1  0.77858800  0.89625900  0.75000000  1
  Cu  Cu38  1  0.72141200  0.39625900  0.75000000  1
  Cu  Cu39  1  0.22141200  0.10374100  0.25000000  1
