# generated using pymatgen
data_CuNi2C7
_symmetry_space_group_name_H-M   'P 1'
_cell_length_a   11.04863772
_cell_length_b   11.04863772
_cell_length_c   11.04863734
_cell_angle_alpha   33.53787469
_cell_angle_beta   33.53787469
_cell_angle_gamma   33.53787653
_symmetry_Int_Tables_number   1
_chemical_formula_structural   CuNi2C7
_chemical_formula_sum   'Cu2 Ni4 C14'
_cell_volume   366.69171983
_cell_formula_units_Z   2
loop_
 _symmetry_equiv_pos_site_id
 _symmetry_equiv_pos_as_xyz
  1  'x, y, z'
loop_
 _atom_site_type_symbol
 _atom_site_label
 _atom_site_symmetry_multiplicity
 _atom_site_fract_x
 _atom_site_fract_y
 _atom_site_fract_z
 _atom_site_occupancy
  Ni  Ni0  1  0.12681200  0.12681200  0.12681200  1
  Ni  Ni1  1  0.87318800  0.87318800  0.87318800  1
  Ni  Ni2  1  0.28442200  0.28442200  0.28442200  1
  Ni  Ni3  1  0.71557800  0.71557800  0.71557800  1
  Cu  Cu4  1  0.59638800  0.59638800  0.59638800  1
  Cu  Cu5  1  0.40361200  0.40361200  0.40361200  1
  C  C6  1  0.50000000  0.50000000  0.50000000  1
  C  C7  1  0.00000000  0.00000000  0.00000000  1
  C  C8  1  0.18673900  0.18673900  0.73673000  1
  C  C9  1  0.73673000  0.18673900  0.18673900  1
  C  C10  1  0.18673900  0.73673000  0.18673900  1
  C  C11  1  0.81326100  0.26327000  0.81326100  1
  C  C12  1  0.81326100  0.81326100  0.26327000  1
  C  C13  1  0.26327000  0.81326100  0.81326100  1
  C  C14  1  0.39554800  0.39554800  0.82171900  1
  C  C15  1  0.82171900  0.39554800  0.39554800  1
  C  C16  1  0.17828100  0.60445200  0.60445200  1
  C  C17  1  0.60445200  0.60445200  0.17828100  1
  C  C18  1  0.60445200  0.17828100  0.60445200  1
  C  C19  1  0.39554800  0.82171900  0.39554800  1
