# generated using pymatgen
data_Cu11Ni3C4
_symmetry_space_group_name_H-M   'P 1'
_cell_length_a   7.56291200
_cell_length_b   14.33407500
_cell_length_c   22.51441058
_cell_angle_alpha   74.01819373
_cell_angle_beta   90.00000000
_cell_angle_gamma   90.00000000
_symmetry_Int_Tables_number   1
_chemical_formula_structural   Cu11Ni3C4
_chemical_formula_sum   'Cu44 Ni12 C16'
_cell_volume   2346.39140190
_cell_formula_units_Z   4
loop_
 _symmetry_equiv_pos_site_id
 _symmetry_equiv_pos_as_xyz
  1  'x, y, z'
loop_
 _atom_site_type_symbol
 _atom_site_label
 _atom_site_symmetry_multiplicity
 _atom_site_fract_x
 _atom_site_fract_y
 _atom_site_fract_z
 _atom_site_occupancy
  C  C0  1  0.53541700  0.15529300  0.06841700  1
  C  C1  1  0.82125500  0.11583900  0.50799500  1
  C  C2  1  0.36912000  0.48877500  0.23040300  1
  C  C3  1  0.96458300  0.65529300  0.06841700  1
  C  C4  1  0.03541700  0.34470700  0.93158300  1
  C  C5  1  0.17874500  0.88416100  0.49200500  1
  C  C6  1  0.67874500  0.61583900  0.50799500  1
  C  C7  1  0.86912000  0.01122500  0.76959700  1
  C  C8  1  0.46458300  0.84470700  0.93158300  1
  C  C9  1  0.63088000  0.51122500  0.76959700  1
  C  C10  1  0.32125500  0.38416100  0.49200500  1
  C  C11  1  0.13088000  0.98877500  0.23040300  1
  C  C12  1  0.64015300  0.77859500  0.28019300  1
  C  C13  1  0.85984700  0.27859500  0.28019300  1
  C  C14  1  0.35984700  0.22140500  0.71980700  1
  C  C15  1  0.14015300  0.72140500  0.71980700  1
  Ni  Ni16  1  0.85333300  0.37192800  0.39721500  1
  Ni  Ni17  1  0.35333300  0.12807200  0.60278500  1
  Ni  Ni18  1  0.63119700  0.02001700  0.32614300  1
  Ni  Ni19  1  0.43682700  0.80340400  0.11379200  1
  Ni  Ni20  1  0.14666700  0.62807200  0.60278500  1
  Ni  Ni21  1  0.86880300  0.52001700  0.32614300  1
  Ni  Ni22  1  0.06317300  0.30340400  0.11379200  1
  Ni  Ni23  1  0.13119700  0.47998300  0.67385700  1
  Ni  Ni24  1  0.64666700  0.87192800  0.39721500  1
  Ni  Ni25  1  0.93682700  0.69659600  0.88620800  1
  Ni  Ni26  1  0.56317300  0.19659600  0.88620800  1
  Ni  Ni27  1  0.36880300  0.97998300  0.67385700  1
  Cu  Cu28  1  0.65415700  0.88265100  0.49084600  1
  Cu  Cu29  1  0.90705700  0.70268300  0.62619200  1
  Cu  Cu30  1  0.45976500  0.67420500  0.08132900  1
  Cu  Cu31  1  0.36768700  0.01690300  0.76520900  1
  Cu  Cu32  1  0.10811500  0.91737200  0.65652700  1
  Cu  Cu33  1  0.21742300  0.42306000  0.05803600  1
  Cu  Cu34  1  0.71742300  0.07694000  0.94196400  1
  Cu  Cu35  1  0.63231300  0.98309700  0.23479100  1
  Cu  Cu36  1  0.87569000  0.77578100  0.19080300  1
  Cu  Cu37  1  0.15197600  0.26012300  0.21410500  1
  Cu  Cu38  1  0.37928800  0.70437700  0.63024900  1
  Cu  Cu39  1  0.29610600  0.11710000  0.88597600  1
  Cu  Cu40  1  0.89188500  0.08262800  0.34347300  1
  Cu  Cu41  1  0.54023500  0.32579500  0.91867100  1
  Cu  Cu42  1  0.62431000  0.27578100  0.19080300  1
  Cu  Cu43  1  0.34802400  0.76012300  0.21410500  1
  Cu  Cu44  1  0.12431000  0.22421900  0.80919700  1
  Cu  Cu45  1  0.79610600  0.38290000  0.11402400  1
  Cu  Cu46  1  0.60811500  0.58262800  0.34347300  1
  Cu  Cu47  1  0.40096000  0.09956700  0.34066000  1
  Cu  Cu48  1  0.65197600  0.23987700  0.78589500  1
  Cu  Cu49  1  0.87928800  0.79562300  0.36975100  1
  Cu  Cu50  1  0.59294300  0.20268300  0.62619200  1
  Cu  Cu51  1  0.90096000  0.40043300  0.65934000  1
  Cu  Cu52  1  0.04023500  0.17420500  0.08132900  1
  Cu  Cu53  1  0.20389400  0.61710000  0.88597600  1
  Cu  Cu54  1  0.13231300  0.51690300  0.76520900  1
  Cu  Cu55  1  0.78257700  0.57694000  0.94196400  1
  Cu  Cu56  1  0.84584300  0.38265100  0.49084600  1
  Cu  Cu57  1  0.12071200  0.20437700  0.63024900  1
  Cu  Cu58  1  0.59904000  0.90043300  0.65934000  1
  Cu  Cu59  1  0.39188500  0.41737200  0.65652700  1
  Cu  Cu60  1  0.70389400  0.88290000  0.11402400  1
  Cu  Cu61  1  0.84802400  0.73987700  0.78589500  1
  Cu  Cu62  1  0.86768700  0.48309700  0.23479100  1
  Cu  Cu63  1  0.28257700  0.92306000  0.05803600  1
  Cu  Cu64  1  0.62071200  0.29562300  0.36975100  1
  Cu  Cu65  1  0.09294300  0.29731700  0.37380800  1
  Cu  Cu66  1  0.09904000  0.59956700  0.34066000  1
  Cu  Cu67  1  0.15415700  0.61734900  0.50915400  1
  Cu  Cu68  1  0.37569000  0.72421900  0.80919700  1
  Cu  Cu69  1  0.34584300  0.11734900  0.50915400  1
  Cu  Cu70  1  0.95976500  0.82579500  0.91867100  1
  Cu  Cu71  1  0.40705700  0.79731700  0.37380800  1
