# generated using pymatgen
data_Cu3Ni7C12
_symmetry_space_group_name_H-M   'P 1'
_cell_length_a   14.60086165
_cell_length_b   14.60086165
_cell_length_c   5.72134600
_cell_angle_alpha   90.00000000
_cell_angle_beta   90.00000000
_cell_angle_gamma   119.99999839
_symmetry_Int_Tables_number   1
_chemical_formula_structural   Cu3Ni7C12
_chemical_formula_sum   'Cu6 Ni14 C24'
_cell_volume   1056.29645624
_cell_formula_units_Z   2
loop_
 _symmetry_equiv_pos_site_id
 _symmetry_equiv_pos_as_xyz
  1  'x, y, z'
loop_
 _atom_site_type_symbol
 _atom_site_label
 _atom_site_symmetry_multiplicity
 _atom_site_fract_x
 _atom_site_fract_y
 _atom_site_fract_z
 _atom_site_occupancy
  C  C0  1  0.70485600  0.89666200  0.64007600  1
  C  C1  1  0.19180600  0.29514400  0.64007600  1
  C  C2  1  0.29514400  0.10333800  0.14007600  1
  C  C3  1  0.89666200  0.19180600  0.14007600  1
  C  C4  1  0.80819400  0.70485600  0.14007600  1
  C  C5  1  0.10333800  0.80819400  0.64007600  1
  Ni  Ni6  1  0.55416500  0.72008300  0.14629300  1
  Ni  Ni7  1  0.83408200  0.55416500  0.64629300  1
  Ni  Ni8  1  0.59957000  0.98540700  0.13581900  1
  Ni  Ni9  1  0.01459300  0.61416300  0.13581900  1
  Ni  Ni10  1  0.40043000  0.01459300  0.63581900  1
  Ni  Ni11  1  0.38583700  0.40043000  0.13581900  1
  Ni  Ni12  1  0.27991700  0.83408200  0.14629300  1
  Ni  Ni13  1  0.98540700  0.38583700  0.63581900  1
  Ni  Ni14  1  0.61416300  0.59957000  0.63581900  1
  Ni  Ni15  1  0.44583500  0.27991700  0.64629300  1
  Ni  Ni16  1  0.16591800  0.44583500  0.14629300  1
  Ni  Ni17  1  0.72008300  0.16591800  0.64629300  1
  Ni  Ni18  1  0.66666700  0.33333300  0.24612000  1
  Ni  Ni19  1  0.33333300  0.66666700  0.74612000  1
  Cu  Cu20  1  0.62682000  0.46226000  0.06944700  1
  Cu  Cu21  1  0.46226000  0.83544000  0.56944700  1
  Cu  Cu22  1  0.37318000  0.53774000  0.56944700  1
  Cu  Cu23  1  0.53774000  0.16456000  0.06944700  1
  Cu  Cu24  1  0.16456000  0.62682000  0.56944700  1
  Cu  Cu25  1  0.83544000  0.37318000  0.06944700  1
  C  C26  1  0.87707200  0.22732200  0.62722600  1
  C  C27  1  0.06317400  0.35780300  0.88965600  1
  C  C28  1  0.35025100  0.12292800  0.62722600  1
  C  C29  1  0.64974900  0.87707200  0.12722600  1
  C  C30  1  0.64841600  0.71285800  0.39047600  1
  C  C31  1  0.64219700  0.70537100  0.88965600  1
  C  C32  1  0.35780300  0.29462900  0.38965600  1
  C  C33  1  0.35158400  0.28714200  0.89047600  1
  C  C34  1  0.28714200  0.93555900  0.39047600  1
  C  C35  1  0.06444100  0.35158400  0.39047600  1
  C  C36  1  0.77267800  0.64974900  0.62722600  1
  C  C37  1  0.12292800  0.77267800  0.12722600  1
  C  C38  1  0.70537100  0.06317400  0.38965600  1
  C  C39  1  0.22732200  0.35025100  0.12722600  1
  C  C40  1  0.71285800  0.06444100  0.89047600  1
  C  C41  1  0.93682600  0.64219700  0.38965600  1
  C  C42  1  0.93555900  0.64841600  0.89047600  1
  C  C43  1  0.29462900  0.93682600  0.88965600  1
