# generated using pymatgen
data_CuNi10C19
_symmetry_space_group_name_H-M   'P 1'
_cell_length_a   6.13664100
_cell_length_b   12.41297700
_cell_length_c   15.96027300
_cell_angle_alpha   90.00000000
_cell_angle_beta   90.00000000
_cell_angle_gamma   90.00000000
_symmetry_Int_Tables_number   1
_chemical_formula_structural   CuNi10C19
_chemical_formula_sum   'Cu4 Ni40 C76'
_cell_volume   1215.75757360
_cell_formula_units_Z   4
loop_
 _symmetry_equiv_pos_site_id
 _symmetry_equiv_pos_as_xyz
  1  'x, y, z'
loop_
 _atom_site_type_symbol
 _atom_site_label
 _atom_site_symmetry_multiplicity
 _atom_site_fract_x
 _atom_site_fract_y
 _atom_site_fract_z
 _atom_site_occupancy
  C  C0  1  0.87863000  0.47095100  0.82509300  1
  C  C1  1  0.62137000  0.97095100  0.82509300  1
  C  C2  1  0.56358000  0.63740000  0.30430100  1
  C  C3  1  0.69833600  0.13872000  0.94563900  1
  C  C4  1  0.43642000  0.36260000  0.69569900  1
  C  C5  1  0.93642000  0.63740000  0.19569900  1
  C  C6  1  0.29840500  0.20255500  0.29851200  1
  C  C7  1  0.70159500  0.29744500  0.79851200  1
  C  C8  1  0.62137000  0.47095100  0.67490700  1
  C  C9  1  0.50089000  0.45786100  0.77725700  1
  C  C10  1  0.70159500  0.79744500  0.70148800  1
  C  C11  1  0.80166400  0.13872000  0.55436100  1
  C  C12  1  0.29840500  0.70255500  0.20148800  1
  C  C13  1  0.43642000  0.86260000  0.80430100  1
  C  C14  1  0.19833600  0.36128000  0.05436100  1
  C  C15  1  0.00089000  0.54213900  0.27725700  1
  C  C16  1  0.87863000  0.97095100  0.67490700  1
  C  C17  1  0.20159500  0.20255500  0.20148800  1
  C  C18  1  0.00089000  0.04213900  0.22274300  1
  C  C19  1  0.12137000  0.02904900  0.32509300  1
  C  C20  1  0.12137000  0.52904900  0.17490700  1
  C  C21  1  0.75000000  0.81502600  0.25000000  1
  C  C22  1  0.99911000  0.45786100  0.72274300  1
  C  C23  1  0.69833600  0.63872000  0.55436100  1
  C  C24  1  0.06358000  0.36260000  0.80430100  1
  C  C25  1  0.06358000  0.86260000  0.69569900  1
  C  C26  1  0.56358000  0.13740000  0.19569900  1
  C  C27  1  0.20159500  0.70255500  0.29851200  1
  C  C28  1  0.93642000  0.13740000  0.30430100  1
  C  C29  1  0.99911000  0.95786100  0.77725700  1
  C  C30  1  0.49911000  0.04213900  0.27725700  1
  C  C31  1  0.37863000  0.52904900  0.32509300  1
  C  C32  1  0.75000000  0.31502600  0.25000000  1
  C  C33  1  0.79840500  0.79744500  0.79851200  1
  C  C34  1  0.37863000  0.02904900  0.17490700  1
  C  C35  1  0.25000000  0.68497400  0.75000000  1
  C  C36  1  0.25000000  0.18497400  0.75000000  1
  C  C37  1  0.79840500  0.29744500  0.70148800  1
  C  C38  1  0.30166400  0.36128000  0.44563900  1
  C  C39  1  0.50089000  0.95786100  0.72274300  1
  C  C40  1  0.49911000  0.54213900  0.22274300  1
  C  C41  1  0.30166400  0.86128000  0.05436100  1
  C  C42  1  0.19833600  0.86128000  0.44563900  1
  C  C43  1  0.80166400  0.63872000  0.94563900  1
  Ni  Ni44  1  0.06223000  0.08534000  0.27761300  1
  Ni  Ni45  1  0.21328300  0.65867300  0.87994700  1
  Ni  Ni46  1  0.06223000  0.58534000  0.22238700  1
  Ni  Ni47  1  0.16204200  0.62246400  0.50102700  1
  Ni  Ni48  1  0.28671700  0.65867300  0.62005300  1
  Ni  Ni49  1  0.78671700  0.34132700  0.12005300  1
  Ni  Ni50  1  0.37865800  0.13236600  0.95972300  1
  Ni  Ni51  1  0.43777000  0.58534000  0.27761300  1
  Ni  Ni52  1  0.21328300  0.15867300  0.62005300  1
  Ni  Ni53  1  0.93463800  0.85099000  0.08547200  1
  Ni  Ni54  1  0.71328300  0.34132700  0.37994700  1
  Ni  Ni55  1  0.43463800  0.64901000  0.91452800  1
  Ni  Ni56  1  0.06536200  0.14901000  0.91452800  1
  Ni  Ni57  1  0.83795800  0.87753600  0.00102700  1
  Ni  Ni58  1  0.56536200  0.85099000  0.41452800  1
  Ni  Ni59  1  0.06536200  0.64901000  0.58547200  1
  Ni  Ni60  1  0.12134200  0.13236600  0.54027700  1
  Ni  Ni61  1  0.33795800  0.62246400  0.99897300  1
  Ni  Ni62  1  0.66204200  0.37753600  0.00102700  1
  Ni  Ni63  1  0.56223000  0.41466000  0.72238700  1
  Ni  Ni64  1  0.78671700  0.84132700  0.37994700  1
  Ni  Ni65  1  0.43777000  0.08534000  0.22238700  1
  Ni  Ni66  1  0.93777000  0.91466000  0.72238700  1
  Ni  Ni67  1  0.87865800  0.86763400  0.45972300  1
  Ni  Ni68  1  0.16204200  0.12246400  0.99897300  1
  Ni  Ni69  1  0.71328300  0.84132700  0.12005300  1
  Ni  Ni70  1  0.93777000  0.41466000  0.77761300  1
  Ni  Ni71  1  0.56223000  0.91466000  0.77761300  1
  Ni  Ni72  1  0.33795800  0.12246400  0.50102700  1
  Ni  Ni73  1  0.28671700  0.15867300  0.87994700  1
  Ni  Ni74  1  0.62134200  0.86763400  0.04027700  1
  Ni  Ni75  1  0.56536200  0.35099000  0.08547200  1
  Ni  Ni76  1  0.37865800  0.63236600  0.54027700  1
  Ni  Ni77  1  0.66204200  0.87753600  0.49897300  1
  Ni  Ni78  1  0.83795800  0.37753600  0.49897300  1
  Ni  Ni79  1  0.12134200  0.63236600  0.95972300  1
  Ni  Ni80  1  0.93463800  0.35099000  0.41452800  1
  Ni  Ni81  1  0.43463800  0.14901000  0.58547200  1
  Ni  Ni82  1  0.87865800  0.36763400  0.04027700  1
  Ni  Ni83  1  0.62134200  0.36763400  0.45972300  1
  Cu  Cu84  1  0.25000000  0.65283800  0.25000000  1
  Cu  Cu85  1  0.75000000  0.84716200  0.75000000  1
  Cu  Cu86  1  0.25000000  0.15283800  0.25000000  1
  Cu  Cu87  1  0.75000000  0.34716200  0.75000000  1
  C  C88  1  0.37647300  0.33794700  0.11387100  1
  C  C89  1  0.87325900  0.31685000  0.19101700  1
  C  C90  1  0.59023600  0.89455200  0.56994400  1
  C  C91  1  0.92602900  0.62307300  0.98993200  1
  C  C92  1  0.12352700  0.83794700  0.11387100  1
  C  C93  1  0.12674100  0.18315000  0.69101700  1
  C  C94  1  0.90976400  0.39455200  0.56994400  1
  C  C95  1  0.37325900  0.18315000  0.80898300  1
  C  C96  1  0.59023600  0.39455200  0.93005600  1
  C  C97  1  0.42602900  0.87692700  0.01006800  1
  C  C98  1  0.40976400  0.60544800  0.06994400  1
  C  C99  1  0.92602900  0.12307300  0.51006800  1
  C  C100  1  0.42602900  0.37692700  0.48993200  1
  C  C101  1  0.57397100  0.12307300  0.98993200  1
  C  C102  1  0.90976400  0.89455200  0.93005600  1
  C  C103  1  0.57397100  0.62307300  0.51006800  1
  C  C104  1  0.09023600  0.60544800  0.43005600  1
  C  C105  1  0.62352700  0.66205300  0.88612900  1
  C  C106  1  0.62674100  0.31685000  0.30898300  1
  C  C107  1  0.62352700  0.16205300  0.61387100  1
  C  C108  1  0.40976400  0.10544800  0.43005600  1
  C  C109  1  0.07397100  0.87692700  0.48993200  1
  C  C110  1  0.12674100  0.68315000  0.80898300  1
  C  C111  1  0.07397100  0.37692700  0.01006800  1
  C  C112  1  0.12352700  0.33794700  0.38612900  1
  C  C113  1  0.37647300  0.83794700  0.38612900  1
  C  C114  1  0.09023600  0.10544800  0.06994400  1
  C  C115  1  0.87325900  0.81685000  0.30898300  1
  C  C116  1  0.37325900  0.68315000  0.69101700  1
  C  C117  1  0.87647300  0.16205300  0.88612900  1
  C  C118  1  0.62674100  0.81685000  0.19101700  1
  C  C119  1  0.87647300  0.66205300  0.61387100  1
