# generated using pymatgen
data_Cu3(NiC10)2
_symmetry_space_group_name_H-M   'P 1'
_cell_length_a   11.25927422
_cell_length_b   11.25927422
_cell_length_c   11.25927422
_cell_angle_alpha   109.47122063
_cell_angle_beta   109.47122063
_cell_angle_gamma   109.47122063
_symmetry_Int_Tables_number   1
_chemical_formula_structural   Cu3(NiC10)2
_chemical_formula_sum   'Cu12 Ni8 C80'
_cell_volume   1098.77633817
_cell_formula_units_Z   4
loop_
 _symmetry_equiv_pos_site_id
 _symmetry_equiv_pos_as_xyz
  1  'x, y, z'
loop_
 _atom_site_type_symbol
 _atom_site_label
 _atom_site_symmetry_multiplicity
 _atom_site_fract_x
 _atom_site_fract_y
 _atom_site_fract_z
 _atom_site_occupancy
  Ni  Ni0  1  0.00000000  0.03944300  0.50000000  1
  Ni  Ni1  1  0.50000000  0.00000000  0.03944300  1
  Ni  Ni2  1  0.03944300  0.50000000  0.00000000  1
  Ni  Ni3  1  0.54286700  0.50000000  0.00000000  1
  Ni  Ni4  1  0.50000000  0.00000000  0.54286700  1
  Ni  Ni5  1  0.95713300  0.95713300  0.95713300  1
  Ni  Ni6  1  0.46055700  0.46055700  0.46055700  1
  Ni  Ni7  1  0.00000000  0.54286700  0.50000000  1
  Cu  Cu8  1  0.16398200  0.41398200  0.75000000  1
  Cu  Cu9  1  0.84414400  0.75000000  0.59414400  1
  Cu  Cu10  1  0.90585600  0.65585600  0.25000000  1
  Cu  Cu11  1  0.59414400  0.84414400  0.75000000  1
  Cu  Cu12  1  0.41398200  0.75000000  0.16398200  1
  Cu  Cu13  1  0.33601800  0.08601800  0.25000000  1
  Cu  Cu14  1  0.75000000  0.59414400  0.84414400  1
  Cu  Cu15  1  0.25000000  0.90585600  0.65585600  1
  Cu  Cu16  1  0.25000000  0.33601800  0.08601800  1
  Cu  Cu17  1  0.75000000  0.16398200  0.41398200  1
  Cu  Cu18  1  0.65585600  0.25000000  0.90585600  1
  Cu  Cu19  1  0.08601800  0.25000000  0.33601800  1
  C  C20  1  0.46474100  0.70112700  0.42442000  1
  C  C21  1  0.79887300  0.26361400  0.72329400  1
  C  C22  1  0.04032000  0.07558000  0.77670600  1
  C  C23  1  0.07558000  0.77670600  0.04032000  1
  C  C24  1  0.42442000  0.46474100  0.70112700  1
  C  C25  1  0.45968000  0.23638600  0.03525900  1
  C  C26  1  0.70112700  0.42442000  0.46474100  1
  C  C27  1  0.03525900  0.45968000  0.23638600  1
  C  C28  1  0.26361400  0.72329400  0.79887300  1
  C  C29  1  0.77670600  0.04032000  0.07558000  1
  C  C30  1  0.72329400  0.79887300  0.26361400  1
  C  C31  1  0.23638600  0.03525900  0.45968000  1
  C  C32  1  0.95606300  0.53160000  0.73541100  1
  C  C33  1  0.92446300  0.20381100  0.96840000  1
  C  C34  1  0.96840000  0.92446300  0.20381100  1
  C  C35  1  0.57553700  0.54393700  0.27934800  1
  C  C36  1  0.54393700  0.27934800  0.57553700  1
  C  C37  1  0.29618900  0.22065200  0.76458900  1
  C  C38  1  0.53160000  0.73541100  0.95606300  1
  C  C39  1  0.73541100  0.95606300  0.53160000  1
  C  C40  1  0.22065200  0.76458900  0.29618900  1
  C  C41  1  0.20381100  0.96840000  0.92446300  1
  C  C42  1  0.76458900  0.29618900  0.22065200  1
  C  C43  1  0.27934800  0.57553700  0.54393700  1
  C  C44  1  0.63865800  0.82407300  0.54892100  1
  C  C45  1  0.67592700  0.31458500  0.72484700  1
  C  C46  1  0.36016300  0.68553600  0.91003400  1
  C  C47  1  0.31458500  0.72484700  0.67592700  1
  C  C48  1  0.77515300  0.08973700  0.95107900  1
  C  C49  1  0.86134200  0.41026300  0.18541500  1
  C  C50  1  0.91003400  0.36016300  0.68553600  1
  C  C51  1  0.90395400  0.99219700  0.61287700  1
  C  C52  1  0.99219700  0.61287700  0.90395400  1
  C  C53  1  0.04987100  0.32537300  0.13983700  1
  C  C54  1  0.38055800  0.38479600  0.79004800  1
  C  C55  1  0.17462700  0.22449800  0.81446400  1
  C  C56  1  0.54892100  0.63865800  0.82407300  1
  C  C57  1  0.27550200  0.45012900  0.58996600  1
  C  C58  1  0.68553600  0.91003400  0.36016300  1
  C  C59  1  0.11520400  0.49576200  0.40525200  1
  C  C60  1  0.49576200  0.40525200  0.11520400  1
  C  C61  1  0.61287700  0.90395400  0.99219700  1
  C  C62  1  0.08824200  0.59604600  0.20892300  1
  C  C63  1  0.32537300  0.13983700  0.04987100  1
  C  C64  1  0.90949000  0.00423800  0.11944200  1
  C  C65  1  0.95107900  0.77515300  0.08973700  1
  C  C66  1  0.41175800  0.62068000  0.50780300  1
  C  C67  1  0.79004800  0.38055800  0.38479600  1
  C  C68  1  0.38479600  0.79004800  0.38055800  1
  C  C69  1  0.09474800  0.59051000  0.70995200  1
  C  C70  1  0.20892300  0.08824200  0.59604600  1
  C  C71  1  0.41026300  0.18541500  0.86134200  1
  C  C72  1  0.45012900  0.58996600  0.27550200  1
  C  C73  1  0.70995200  0.09474800  0.59051000  1
  C  C74  1  0.18541500  0.86134200  0.41026300  1
  C  C75  1  0.62068000  0.50780300  0.41175800  1
  C  C76  1  0.87932000  0.29107700  0.88712300  1
  C  C77  1  0.59604600  0.20892300  0.08824200  1
  C  C78  1  0.08973700  0.95107900  0.77515300  1
  C  C79  1  0.40525200  0.11520400  0.49576200  1
  C  C80  1  0.50780300  0.41175800  0.62068000  1
  C  C81  1  0.11944200  0.90949000  0.00423800  1
  C  C82  1  0.22449800  0.81446400  0.17462700  1
  C  C83  1  0.58996600  0.27550200  0.45012900  1
  C  C84  1  0.29107700  0.88712300  0.87932000  1
  C  C85  1  0.13983700  0.04987100  0.32537300  1
  C  C86  1  0.59051000  0.70995200  0.09474800  1
  C  C87  1  0.72484700  0.67592700  0.31458500  1
  C  C88  1  0.82407300  0.54892100  0.63865800  1
  C  C89  1  0.81446400  0.17462700  0.22449800  1
  C  C90  1  0.00423800  0.11944200  0.90949000  1
  C  C91  1  0.88712300  0.87932000  0.29107700  1
  C  C92  1  0.00000000  0.21003100  0.50000000  1
  C  C93  1  0.71004400  0.50000000  0.00000000  1
  C  C94  1  0.50000000  0.00000000  0.71004400  1
  C  C95  1  0.00000000  0.71004400  0.50000000  1
  C  C96  1  0.21003100  0.50000000  0.00000000  1
  C  C97  1  0.50000000  0.00000000  0.21003100  1
  C  C98  1  0.28996900  0.28996900  0.28996900  1
  C  C99  1  0.78995600  0.78995600  0.78995600  1
