# generated using pymatgen
data_Cu2Ni5C14
_symmetry_space_group_name_H-M   'P 1'
_cell_length_a   9.08531500
_cell_length_b   10.74405900
_cell_length_c   11.04494000
_cell_angle_alpha   90.00000000
_cell_angle_beta   90.00000000
_cell_angle_gamma   90.00000000
_symmetry_Int_Tables_number   1
_chemical_formula_structural   Cu2Ni5C14
_chemical_formula_sum   'Cu8 Ni20 C56'
_cell_volume   1078.13149976
_cell_formula_units_Z   4
loop_
 _symmetry_equiv_pos_site_id
 _symmetry_equiv_pos_as_xyz
  1  'x, y, z'
loop_
 _atom_site_type_symbol
 _atom_site_label
 _atom_site_symmetry_multiplicity
 _atom_site_fract_x
 _atom_site_fract_y
 _atom_site_fract_z
 _atom_site_occupancy
  C  C0  1  0.66277700  0.72602900  0.97085800  1
  C  C1  1  0.16277700  0.77397100  0.97085800  1
  C  C2  1  0.66277700  0.22602900  0.02914200  1
  C  C3  1  0.16277700  0.27397100  0.02914200  1
  C  C4  1  0.76351700  0.47620800  0.65271900  1
  C  C5  1  0.50378600  0.70343000  0.28283000  1
  C  C6  1  0.97341300  0.00120100  0.14314500  1
  C  C7  1  0.14364600  0.89418300  0.67877900  1
  C  C8  1  0.00378600  0.29657000  0.71717000  1
  C  C9  1  0.30903800  0.23370800  0.72081800  1
  C  C10  1  0.83828800  0.62133800  0.70584800  1
  C  C11  1  0.43641500  0.85402900  0.23867900  1
  C  C12  1  0.97341300  0.50120100  0.85685500  1
  C  C13  1  0.26351700  0.52379200  0.34728100  1
  C  C14  1  0.33828800  0.37866200  0.29415200  1
  C  C15  1  0.80903800  0.76629200  0.27918200  1
  C  C16  1  0.00378600  0.79657000  0.28283000  1
  C  C17  1  0.14364600  0.39418300  0.32122100  1
  C  C18  1  0.83828800  0.12133800  0.29415200  1
  C  C19  1  0.40206300  0.01216600  0.00831700  1
  C  C20  1  0.26351700  0.02379200  0.65271900  1
  C  C21  1  0.64364600  0.10581700  0.32122100  1
  C  C22  1  0.33828800  0.87866200  0.70584800  1
  C  C23  1  0.64364600  0.60581700  0.67877900  1
  C  C24  1  0.80903800  0.26629200  0.72081800  1
  C  C25  1  0.50378600  0.20343000  0.71717000  1
  C  C26  1  0.93641500  0.64597100  0.23867900  1
  C  C27  1  0.47341300  0.99879900  0.85685500  1
  C  C28  1  0.90206300  0.48783400  0.00831700  1
  C  C29  1  0.90206300  0.98783400  0.99168300  1
  C  C30  1  0.76351700  0.97620800  0.34728100  1
  C  C31  1  0.30903800  0.73370800  0.27918200  1
  C  C32  1  0.93641500  0.14597100  0.76132100  1
  C  C33  1  0.40206300  0.51216600  0.99168300  1
  C  C34  1  0.47341300  0.49879900  0.14314500  1
  C  C35  1  0.43641500  0.35402900  0.76132100  1
  Ni  Ni36  1  0.76024400  0.89557300  0.75464500  1
  Ni  Ni37  1  0.38708000  0.54037600  0.08632500  1
  Ni  Ni38  1  0.41527000  0.75351600  0.23626900  1
  Ni  Ni39  1  0.24366500  0.44185800  0.29081100  1
  Ni  Ni40  1  0.24366500  0.94185800  0.70918900  1
  Ni  Ni41  1  0.38708000  0.04037600  0.91367500  1
  Ni  Ni42  1  0.76024400  0.39557300  0.24535500  1
  Ni  Ni43  1  0.91527000  0.24648400  0.76373100  1
  Ni  Ni44  1  0.88708000  0.95962400  0.08632500  1
  Ni  Ni45  1  0.41527000  0.25351600  0.76373100  1
  Ni  Ni46  1  0.88708000  0.45962400  0.91367500  1
  Ni  Ni47  1  0.74366500  0.05814200  0.29081100  1
  Ni  Ni48  1  0.74387200  0.43934800  0.38009400  1
  Ni  Ni49  1  0.24387200  0.06065200  0.38009400  1
  Ni  Ni50  1  0.24387200  0.56065200  0.61990600  1
  Ni  Ni51  1  0.91527000  0.74648400  0.23626900  1
  Ni  Ni52  1  0.26024400  0.10442700  0.24535500  1
  Ni  Ni53  1  0.74387200  0.93934800  0.61990600  1
  Ni  Ni54  1  0.74366500  0.55814200  0.70918900  1
  Ni  Ni55  1  0.26024400  0.60442700  0.75464500  1
  Cu  Cu56  1  0.20768000  0.98770700  0.86426300  1
  Cu  Cu57  1  0.90987000  0.29117800  0.92183600  1
  Cu  Cu58  1  0.40987000  0.20882200  0.92183600  1
  Cu  Cu59  1  0.70768000  0.01229300  0.13573700  1
  Cu  Cu60  1  0.20768000  0.48770700  0.13573700  1
  Cu  Cu61  1  0.90987000  0.79117800  0.07816400  1
  Cu  Cu62  1  0.70768000  0.51229300  0.86426300  1
  Cu  Cu63  1  0.40987000  0.70882200  0.07816400  1
  C  C64  1  0.88543400  0.40296400  0.19952900  1
  C  C65  1  0.13966400  0.64202600  0.80013400  1
  C  C66  1  0.13966400  0.14202600  0.19986600  1
  C  C67  1  0.88543400  0.90296400  0.80047100  1
  C  C68  1  0.38543400  0.59703600  0.80047100  1
  C  C69  1  0.38543400  0.09703600  0.19952900  1
  C  C70  1  0.63966400  0.35797400  0.19986600  1
  C  C71  1  0.63966400  0.85797400  0.80013400  1
  C  C72  1  0.15022600  0.46040300  0.61122000  1
  C  C73  1  0.18723100  0.65239700  0.54768300  1
  C  C74  1  0.87374200  0.47520100  0.43076300  1
  C  C75  1  0.18723100  0.15239700  0.45231700  1
  C  C76  1  0.68723100  0.34760300  0.45231700  1
  C  C77  1  0.37374200  0.52479900  0.56923700  1
  C  C78  1  0.15022600  0.96040300  0.38878000  1
  C  C79  1  0.65022600  0.03959700  0.61122000  1
  C  C80  1  0.37374200  0.02479900  0.43076300  1
  C  C81  1  0.87374200  0.97520100  0.56923700  1
  C  C82  1  0.68723100  0.84760300  0.54768300  1
  C  C83  1  0.65022600  0.53959700  0.38878000  1
