# generated using pymatgen
data_Cu(Ni2C)2
_symmetry_space_group_name_H-M   'P 1'
_cell_length_a   12.46077200
_cell_length_b   5.27935300
_cell_length_c   6.74759890
_cell_angle_alpha   66.91570637
_cell_angle_beta   90.00000000
_cell_angle_gamma   90.00000000
_symmetry_Int_Tables_number   1
_chemical_formula_structural   Cu(Ni2C)2
_chemical_formula_sum   'Cu4 Ni16 C8'
_cell_volume   408.34686561
_cell_formula_units_Z   4
loop_
 _symmetry_equiv_pos_site_id
 _symmetry_equiv_pos_as_xyz
  1  'x, y, z'
loop_
 _atom_site_type_symbol
 _atom_site_label
 _atom_site_symmetry_multiplicity
 _atom_site_fract_x
 _atom_site_fract_y
 _atom_site_fract_z
 _atom_site_occupancy
  C  C0  1  0.05146800  0.36099800  0.79998800  1
  C  C1  1  0.94853200  0.63900200  0.20001200  1
  C  C2  1  0.44853200  0.36099800  0.29998800  1
  C  C3  1  0.55146800  0.63900200  0.70001200  1
  C  C4  1  0.35663100  0.07833300  0.86994600  1
  C  C5  1  0.85663100  0.92166700  0.63005400  1
  C  C6  1  0.14336900  0.07833300  0.36994600  1
  C  C7  1  0.64336900  0.92166700  0.13005400  1
  Ni  Ni8  1  0.77716800  0.80760300  0.20512600  1
  Ni  Ni9  1  0.56901700  0.99656100  0.33692700  1
  Ni  Ni10  1  0.72283200  0.80760300  0.70512600  1
  Ni  Ni11  1  0.43462700  0.30795800  0.96199400  1
  Ni  Ni12  1  0.22283200  0.19239700  0.79487400  1
  Ni  Ni13  1  0.84691000  0.23791800  0.40751300  1
  Ni  Ni14  1  0.34691000  0.76208200  0.09248700  1
  Ni  Ni15  1  0.65309000  0.23791800  0.90751300  1
  Ni  Ni16  1  0.27716800  0.19239700  0.29487400  1
  Ni  Ni17  1  0.93098300  0.99656100  0.83692700  1
  Ni  Ni18  1  0.93462700  0.69204200  0.53800600  1
  Ni  Ni19  1  0.56537300  0.69204200  0.03800600  1
  Ni  Ni20  1  0.15309000  0.76208200  0.59248700  1
  Ni  Ni21  1  0.43098300  0.00343900  0.66307300  1
  Ni  Ni22  1  0.06901700  0.00343900  0.16307300  1
  Ni  Ni23  1  0.06537300  0.30795800  0.46199400  1
  Cu  Cu24  1  0.90212800  0.45527100  0.96346200  1
  Cu  Cu25  1  0.40212800  0.54472900  0.53653800  1
  Cu  Cu26  1  0.09787200  0.54472900  0.03653800  1
  Cu  Cu27  1  0.59787200  0.45527100  0.46346200  1
