# generated using pymatgen
data_Cu2NiC4
_symmetry_space_group_name_H-M   'P 1'
_cell_length_a   6.05764795
_cell_length_b   6.05764747
_cell_length_c   24.16560575
_cell_angle_alpha   59.91099991
_cell_angle_beta   59.91100184
_cell_angle_gamma   59.99999088
_symmetry_Int_Tables_number   1
_chemical_formula_structural   Cu2NiC4
_chemical_formula_sum   'Cu16 Ni8 C32'
_cell_volume   626.18858999
_cell_formula_units_Z   8
loop_
 _symmetry_equiv_pos_site_id
 _symmetry_equiv_pos_as_xyz
  1  'x, y, z'
loop_
 _atom_site_type_symbol
 _atom_site_label
 _atom_site_symmetry_multiplicity
 _atom_site_fract_x
 _atom_site_fract_y
 _atom_site_fract_z
 _atom_site_occupancy
  Ni  Ni0  1  0.00570100  0.00570100  0.99572400  1
  Ni  Ni1  1  0.24988700  0.24988700  0.31258400  1
  Ni  Ni2  1  0.62751600  0.62751600  0.02936300  1
  Ni  Ni3  1  0.24810600  0.24810600  0.56392000  1
  Ni  Ni4  1  0.00035200  0.00035200  0.24973600  1
  Ni  Ni5  1  0.24679300  0.24679300  0.81490500  1
  Ni  Ni6  1  0.00025300  0.00025300  0.49981100  1
  Ni  Ni7  1  0.00240000  0.00240000  0.74820000  1
  Cu  Cu8  1  0.24759200  0.24759200  0.06430600  1
  Cu  Cu9  1  0.12267800  0.62594700  0.15635700  1
  Cu  Cu10  1  0.62594700  0.12267800  0.15635700  1
  Cu  Cu11  1  0.62594700  0.62594700  0.15635700  1
  Cu  Cu12  1  0.12444600  0.62464400  0.40656700  1
  Cu  Cu13  1  0.62464400  0.12444600  0.40656700  1
  Cu  Cu14  1  0.62395600  0.62395600  0.28203300  1
  Cu  Cu15  1  0.62464400  0.62464400  0.40656700  1
  Cu  Cu16  1  0.12454400  0.62447100  0.65662900  1
  Cu  Cu17  1  0.62447100  0.12454400  0.65662900  1
  Cu  Cu18  1  0.62437800  0.62437800  0.53171600  1
  Cu  Cu19  1  0.62447100  0.62447100  0.65662900  1
  Cu  Cu20  1  0.12097400  0.62694300  0.90628500  1
  Cu  Cu21  1  0.62694300  0.12097400  0.90628500  1
  Cu  Cu22  1  0.62440000  0.62440000  0.78170000  1
  Cu  Cu23  1  0.62694300  0.62694300  0.90628500  1
  C  C24  1  0.37456400  0.37456400  0.09874600  1
  C  C25  1  0.38694400  0.38694400  0.20979200  1
  C  C26  1  0.37456400  0.85588800  0.09874600  1
  C  C27  1  0.85588800  0.37456400  0.09874600  1
  C  C28  1  0.38539100  0.38539100  0.34635000  1
  C  C29  1  0.40709900  0.86374800  0.21635100  1
  C  C30  1  0.38539100  0.84381800  0.34635000  1
  C  C31  1  0.38494900  0.38494900  0.46128800  1
  C  C32  1  0.86567300  0.86567300  0.10074500  1
  C  C33  1  0.86374800  0.40709900  0.21635100  1
  C  C34  1  0.84381800  0.38539100  0.34635000  1
  C  C35  1  0.86374800  0.86374800  0.21635100  1
  C  C36  1  0.38575400  0.38575400  0.59630400  1
  C  C37  1  0.40680800  0.86456400  0.46601600  1
  C  C38  1  0.38575400  0.84327700  0.59630400  1
  C  C39  1  0.86456400  0.40680800  0.46601600  1
  C  C40  1  0.38448700  0.38448700  0.71163500  1
  C  C41  1  0.86502800  0.86502800  0.35122900  1
  C  C42  1  0.84327700  0.38575400  0.59630400  1
  C  C43  1  0.86456400  0.86456400  0.46601600  1
  C  C44  1  0.38686100  0.38686100  0.84629200  1
  C  C45  1  0.40682000  0.86500900  0.71579000  1
  C  C46  1  0.38686100  0.84111200  0.84629200  1
  C  C47  1  0.37941500  0.37941500  0.96543900  1
  C  C48  1  0.86500900  0.40682000  0.71579000  1
  C  C49  1  0.86470300  0.86470300  0.60147300  1
  C  C50  1  0.84111200  0.38686100  0.84629200  1
  C  C51  1  0.86500900  0.86500900  0.71579000  1
  C  C52  1  0.40492300  0.87148900  0.96302500  1
  C  C53  1  0.87148900  0.40492300  0.96302500  1
  C  C54  1  0.86631000  0.86631000  0.85026700  1
  C  C55  1  0.87148900  0.87148900  0.96302500  1
