# generated using pymatgen
data_Cu2NiC19
_symmetry_space_group_name_H-M   'P 1'
_cell_length_a   8.99275895
_cell_length_b   8.99275895
_cell_length_c   18.06727063
_cell_angle_alpha   74.02590250
_cell_angle_beta   74.02590250
_cell_angle_gamma   54.60710001
_symmetry_Int_Tables_number   1
_chemical_formula_structural   Cu2NiC19
_chemical_formula_sum   'Cu8 Ni4 C76'
_cell_volume   1132.52059794
_cell_formula_units_Z   4
loop_
 _symmetry_equiv_pos_site_id
 _symmetry_equiv_pos_as_xyz
  1  'x, y, z'
loop_
 _atom_site_type_symbol
 _atom_site_label
 _atom_site_symmetry_multiplicity
 _atom_site_fract_x
 _atom_site_fract_y
 _atom_site_fract_z
 _atom_site_occupancy
  Ni  Ni0  1  0.00000000  0.50000000  0.00000000  1
  Ni  Ni1  1  0.90655600  0.09344400  0.25000000  1
  Ni  Ni2  1  0.50000000  0.00000000  0.50000000  1
  Ni  Ni3  1  0.09344400  0.90655600  0.75000000  1
  Cu  Cu4  1  0.72557600  0.06589100  0.14555700  1
  Cu  Cu5  1  0.51781400  0.72180800  0.74301500  1
  Cu  Cu6  1  0.27819200  0.48218600  0.75698500  1
  Cu  Cu7  1  0.72180800  0.51781400  0.24301500  1
  Cu  Cu8  1  0.48218600  0.27819200  0.25698500  1
  Cu  Cu9  1  0.93410900  0.27442400  0.35444300  1
  Cu  Cu10  1  0.27442400  0.93410900  0.85444300  1
  Cu  Cu11  1  0.06589100  0.72557600  0.64555700  1
  C  C12  1  0.69807800  0.15788900  0.56003200  1
  C  C13  1  0.30192200  0.84211100  0.43996800  1
  C  C14  1  0.15788900  0.69807800  0.06003200  1
  C  C15  1  0.43324400  0.90822400  0.15902800  1
  C  C16  1  0.09177600  0.56675600  0.34097200  1
  C  C17  1  0.84211100  0.30192200  0.93996800  1
  C  C18  1  0.56675600  0.09177600  0.84097200  1
  C  C19  1  0.90822400  0.43324400  0.65902800  1
  C  C20  1  0.15133100  0.35647800  0.19395300  1
  C  C21  1  0.51348200  0.40857500  0.38854600  1
  C  C22  1  0.02571600  0.25345600  0.48829600  1
  C  C23  1  0.48651800  0.59142500  0.61145400  1
  C  C24  1  0.25345600  0.02571600  0.98829600  1
  C  C25  1  0.59142500  0.48651800  0.11145400  1
  C  C26  1  0.40857500  0.51348200  0.88854600  1
  C  C27  1  0.35647800  0.15133100  0.69395300  1
  C  C28  1  0.97428400  0.74654400  0.51170400  1
  C  C29  1  0.64352200  0.84866900  0.30604700  1
  C  C30  1  0.84866900  0.64352200  0.80604700  1
  C  C31  1  0.74654400  0.97428400  0.01170400  1
  C  C32  1  0.49845800  0.90315700  0.38189800  1
  C  C33  1  0.60940900  0.44156600  0.89460400  1
  C  C34  1  0.58781300  0.62745000  0.14899900  1
  C  C35  1  0.00923700  0.66491800  0.76517000  1
  C  C36  1  0.99272500  0.13905100  0.87806200  1
  C  C37  1  0.99076300  0.33508200  0.23483000  1
  C  C38  1  0.41218700  0.37255000  0.85100100  1
  C  C39  1  0.37255000  0.41218700  0.35100100  1
  C  C40  1  0.33508200  0.99076300  0.73483000  1
  C  C41  1  0.93436200  0.22810700  0.70561300  1
  C  C42  1  0.66656000  0.30363200  0.16702500  1
  C  C43  1  0.24608300  0.85984000  0.98307300  1
  C  C44  1  0.90315700  0.49845800  0.88189800  1
  C  C45  1  0.57755100  0.79416000  0.25158200  1
  C  C46  1  0.69636800  0.33344000  0.33297500  1
  C  C47  1  0.66491800  0.00923700  0.26517000  1
  C  C48  1  0.13905100  0.99272500  0.37806200  1
  C  C49  1  0.20584000  0.42244900  0.24841800  1
  C  C50  1  0.06563800  0.77189300  0.29438700  1
  C  C51  1  0.52812900  0.29178100  0.47003100  1
  C  C52  1  0.33344000  0.69636800  0.83297500  1
  C  C53  1  0.00727500  0.86094900  0.12193800  1
  C  C54  1  0.85984000  0.24608300  0.48307300  1
  C  C55  1  0.62745000  0.58781300  0.64899900  1
  C  C56  1  0.79416000  0.57755100  0.75158200  1
  C  C57  1  0.36274500  0.98177800  0.05074400  1
  C  C58  1  0.06782300  0.34213500  0.40555900  1
  C  C59  1  0.05600000  0.19810700  0.00471100  1
  C  C60  1  0.77189300  0.06563800  0.79438700  1
  C  C61  1  0.19810700  0.05600000  0.50471100  1
  C  C62  1  0.09684300  0.50154200  0.11810200  1
  C  C63  1  0.30363200  0.66656000  0.66702500  1
  C  C64  1  0.34213500  0.06782300  0.90555900  1
  C  C65  1  0.55843400  0.39059100  0.60539600  1
  C  C66  1  0.98177800  0.36274500  0.55074400  1
  C  C67  1  0.22810700  0.93436200  0.20561300  1
  C  C68  1  0.65786500  0.93217700  0.09444100  1
  C  C69  1  0.75391700  0.14016000  0.01692700  1
  C  C70  1  0.39059100  0.55843400  0.10539600  1
  C  C71  1  0.33318300  0.17577100  0.17167900  1
  C  C72  1  0.80189300  0.94400000  0.49528900  1
  C  C73  1  0.70821900  0.47187100  0.02996900  1
  C  C74  1  0.17577100  0.33318300  0.67167900  1
  C  C75  1  0.01822200  0.63725500  0.44925600  1
  C  C76  1  0.63725500  0.01822200  0.94925600  1
  C  C77  1  0.44156600  0.60940900  0.39460400  1
  C  C78  1  0.94400000  0.80189300  0.99528900  1
  C  C79  1  0.29178100  0.52812900  0.97003100  1
  C  C80  1  0.93217700  0.65786500  0.59444100  1
  C  C81  1  0.86094900  0.00727500  0.62193800  1
  C  C82  1  0.66681700  0.82422900  0.82832100  1
  C  C83  1  0.82422900  0.66681700  0.32832100  1
  C  C84  1  0.50154200  0.09684300  0.61810200  1
  C  C85  1  0.42244900  0.20584000  0.74841800  1
  C  C86  1  0.14016000  0.75391700  0.51692700  1
  C  C87  1  0.47187100  0.70821900  0.52996900  1
