# generated using pymatgen
data_CuNiC
_symmetry_space_group_name_H-M   'P 1'
_cell_length_a   3.84354959
_cell_length_b   3.84354959
_cell_length_c   17.64199814
_cell_angle_alpha   88.71636565
_cell_angle_beta   88.71636565
_cell_angle_gamma   59.55760557
_symmetry_Int_Tables_number   1
_chemical_formula_structural   CuNiC
_chemical_formula_sum   'Cu4 Ni4 C4'
_cell_volume   224.61840634
_cell_formula_units_Z   4
loop_
 _symmetry_equiv_pos_site_id
 _symmetry_equiv_pos_as_xyz
  1  'x, y, z'
loop_
 _atom_site_type_symbol
 _atom_site_label
 _atom_site_symmetry_multiplicity
 _atom_site_fract_x
 _atom_site_fract_y
 _atom_site_fract_z
 _atom_site_occupancy
  C  C0  1  0.04745500  0.95254500  0.75000000  1
  C  C1  1  0.95254500  0.04745500  0.25000000  1
  C  C2  1  0.50000000  0.00000000  0.00000000  1
  C  C3  1  0.00000000  0.50000000  0.50000000  1
  Ni  Ni4  1  0.80854800  0.58534500  0.61108100  1
  Ni  Ni5  1  0.41465500  0.19145200  0.88891900  1
  Ni  Ni6  1  0.19145200  0.41465500  0.38891900  1
  Ni  Ni7  1  0.58534500  0.80854800  0.11108100  1
  Cu  Cu8  1  0.70731900  0.63077100  0.67510700  1
  Cu  Cu9  1  0.29268100  0.36922900  0.32489300  1
  Cu  Cu10  1  0.63077100  0.70731900  0.17510700  1
  Cu  Cu11  1  0.36922900  0.29268100  0.82489300  1
