# generated using pymatgen
data_Cu5NiC2
_symmetry_space_group_name_H-M   'P 1'
_cell_length_a   13.73769578
_cell_length_b   13.73769578
_cell_length_c   13.73769578
_cell_angle_alpha   111.41202979
_cell_angle_beta   111.41202979
_cell_angle_gamma   105.65566722
_symmetry_Int_Tables_number   1
_chemical_formula_structural   Cu5NiC2
_chemical_formula_sum   'Cu40 Ni8 C16'
_cell_volume   1989.23182588
_cell_formula_units_Z   8
loop_
 _symmetry_equiv_pos_site_id
 _symmetry_equiv_pos_as_xyz
  1  'x, y, z'
loop_
 _atom_site_type_symbol
 _atom_site_label
 _atom_site_symmetry_multiplicity
 _atom_site_fract_x
 _atom_site_fract_y
 _atom_site_fract_z
 _atom_site_occupancy
  C  C0  1  0.91496900  0.62500000  0.78996900  1
  C  C1  1  0.39502600  0.12500000  0.77002600  1
  C  C2  1  0.37500000  0.60497400  0.72997400  1
  C  C3  1  0.87500000  0.64502600  0.27002600  1
  C  C4  1  0.83503100  0.12500000  0.21003100  1
  C  C5  1  0.35497400  0.62500000  0.22997400  1
  C  C6  1  0.37500000  0.16496900  0.28996900  1
  C  C7  1  0.87500000  0.08503100  0.71003100  1
  C  C8  1  0.93701700  0.84972700  0.56811900  1
  C  C9  1  0.15027300  0.71839200  0.08728900  1
  C  C10  1  0.11889700  0.53160800  0.93188100  1
  C  C11  1  0.81298300  0.88110300  0.41271100  1
  C  C12  1  0.63110300  0.06298300  0.91271100  1
  C  C13  1  0.28160800  0.36889700  0.43188100  1
  C  C14  1  0.46839200  0.40027300  0.58728900  1
  C  C15  1  0.59972700  0.18701700  0.06811900  1
  Ni  Ni16  1  0.68712600  0.12500000  0.06212600  1
  Ni  Ni17  1  0.06287400  0.62500000  0.93787400  1
  Ni  Ni18  1  0.87500000  0.79377200  0.41877200  1
  Ni  Ni19  1  0.37500000  0.31287400  0.43787400  1
  Ni  Ni20  1  0.54377200  0.12500000  0.91877200  1
  Ni  Ni21  1  0.37500000  0.45622800  0.58122800  1
  Ni  Ni22  1  0.20622800  0.62500000  0.08122800  1
  Ni  Ni23  1  0.87500000  0.93712600  0.56212600  1
  Cu  Cu24  1  0.97653800  0.63024000  0.44297400  1
  Cu  Cu25  1  0.24294700  0.12500000  0.61794700  1
  Cu  Cu26  1  0.18726700  0.53356500  0.55702600  1
  Cu  Cu27  1  0.26770700  0.94167500  0.73162900  1
  Cu  Cu28  1  0.96840500  0.28490000  0.21902900  1
  Cu  Cu29  1  0.28607800  0.46004600  0.76837100  1
  Cu  Cu30  1  0.46643500  0.02346200  0.65370200  1
  Cu  Cu31  1  0.25062400  0.03159500  0.31649400  1
  Cu  Cu32  1  0.78159500  0.50062400  0.81649400  1
  Cu  Cu33  1  0.00874600  0.04058300  0.83376500  1
  Cu  Cu34  1  0.76250400  0.62500000  0.63750400  1
  Cu  Cu35  1  0.69167500  0.51770700  0.23162900  1
  Cu  Cu36  1  0.21004600  0.53607800  0.26837100  1
  Cu  Cu37  1  0.37500000  0.75705300  0.88205300  1
  Cu  Cu38  1  0.87500000  0.23749600  0.86249600  1
  Cu  Cu39  1  0.82501900  0.99125400  0.03183700  1
  Cu  Cu40  1  0.50705300  0.62500000  0.38205300  1
  Cu  Cu41  1  0.68412900  0.96510000  0.18350600  1
  Cu  Cu42  1  0.74125400  0.07501900  0.53183700  1
  Cu  Cu43  1  0.79058300  0.25874600  0.33376500  1
  Cu  Cu44  1  0.36976000  0.81273300  0.34629800  1
  Cu  Cu45  1  0.48229300  0.71392200  0.17396800  1
  Cu  Cu46  1  0.05832500  0.78995400  0.32603200  1
  Cu  Cu47  1  0.77346200  0.71643500  0.15370200  1
  Cu  Cu48  1  0.46392200  0.73229300  0.67396800  1
  Cu  Cu49  1  0.49937600  0.31587100  0.28097100  1
  Cu  Cu50  1  0.92498100  0.45681800  0.66623500  1
  Cu  Cu51  1  0.03490000  0.21840500  0.71902900  1
  Cu  Cu52  1  0.71510000  0.93412900  0.68350600  1
  Cu  Cu53  1  0.37500000  0.01250400  0.13750400  1
  Cu  Cu54  1  0.53995400  0.30832500  0.82603200  1
  Cu  Cu55  1  0.06587100  0.74937600  0.78097100  1
  Cu  Cu56  1  0.38024000  0.22653800  0.94297400  1
  Cu  Cu57  1  0.54318200  0.20941700  0.46816300  1
  Cu  Cu58  1  0.87500000  0.49294700  0.11794700  1
  Cu  Cu59  1  0.20681800  0.17498100  0.16623500  1
  Cu  Cu60  1  0.98749600  0.12500000  0.36249600  1
  Cu  Cu61  1  0.95941700  0.79318200  0.96816300  1
  Cu  Cu62  1  0.28356500  0.43726700  0.05702600  1
  Cu  Cu63  1  0.56273300  0.61976000  0.84629800  1
