# generated using pymatgen
data_Cu(NiC)4
_symmetry_space_group_name_H-M   'P 1'
_cell_length_a   10.93660400
_cell_length_b   6.45686200
_cell_length_c   10.52020955
_cell_angle_alpha   89.98153718
_cell_angle_beta   90.00000000
_cell_angle_gamma   90.00000000
_symmetry_Int_Tables_number   1
_chemical_formula_structural   Cu(NiC)4
_chemical_formula_sum   'Cu8 Ni32 C32'
_cell_volume   742.89658078
_cell_formula_units_Z   8
loop_
 _symmetry_equiv_pos_site_id
 _symmetry_equiv_pos_as_xyz
  1  'x, y, z'
loop_
 _atom_site_type_symbol
 _atom_site_label
 _atom_site_symmetry_multiplicity
 _atom_site_fract_x
 _atom_site_fract_y
 _atom_site_fract_z
 _atom_site_occupancy
  C  C0  1  0.33661100  0.03215100  0.75419800  1
  C  C1  1  0.83661100  0.96784900  0.74580200  1
  C  C2  1  0.66555200  0.49139800  0.26821900  1
  C  C3  1  0.08350000  0.74112100  0.72747600  1
  C  C4  1  0.72394100  0.74498400  0.47459800  1
  C  C5  1  0.50000000  0.50000000  0.50000000  1
  C  C6  1  0.66338900  0.96784900  0.24580200  1
  C  C7  1  0.22394100  0.25501600  0.02540200  1
  C  C8  1  0.58350000  0.25887900  0.77252400  1
  C  C9  1  0.33444800  0.50860200  0.73178100  1
  C  C10  1  0.50000000  0.50000000  0.00000000  1
  C  C11  1  0.91650000  0.25887900  0.27252400  1
  C  C12  1  0.41650000  0.74112100  0.22747600  1
  C  C13  1  0.83444800  0.49139800  0.76821900  1
  C  C14  1  0.77605900  0.74498400  0.97459800  1
  C  C15  1  0.16555200  0.50860200  0.23178100  1
  C  C16  1  0.00000000  0.50000000  0.00000000  1
  C  C17  1  0.27605900  0.25501600  0.52540200  1
  C  C18  1  0.16338900  0.03215100  0.25419800  1
  C  C19  1  0.00000000  0.50000000  0.50000000  1
  C  C20  1  0.50000000  0.00000000  0.50000000  1
  C  C21  1  0.00000000  0.00000000  0.00000000  1
  C  C22  1  0.50000000  0.00000000  0.00000000  1
  C  C23  1  0.00000000  0.00000000  0.50000000  1
  C  C24  1  0.25521700  0.74790400  0.47638000  1
  C  C25  1  0.07930500  0.25873500  0.74428500  1
  C  C26  1  0.42069500  0.25873500  0.24428500  1
  C  C27  1  0.24478300  0.74790400  0.97638000  1
  C  C28  1  0.92069500  0.74126500  0.25571500  1
  C  C29  1  0.57930500  0.74126500  0.75571500  1
  C  C30  1  0.75521700  0.25209600  0.02362000  1
  C  C31  1  0.74478300  0.25209600  0.52362000  1
  Ni  Ni32  1  0.51815000  0.94001500  0.81561100  1
  Ni  Ni33  1  0.32339600  0.94150400  0.53399000  1
  Ni  Ni34  1  0.82339600  0.05849600  0.96601000  1
  Ni  Ni35  1  0.51313700  0.54672600  0.80424300  1
  Ni  Ni36  1  0.48686300  0.45327400  0.19575700  1
  Ni  Ni37  1  0.61992100  0.23798700  0.97385600  1
  Ni  Ni38  1  0.98686300  0.54672600  0.30424300  1
  Ni  Ni39  1  0.25528000  0.75666800  0.32913200  1
  Ni  Ni40  1  0.68433000  0.44614300  0.46811800  1
  Ni  Ni41  1  0.98185000  0.94001500  0.31561100  1
  Ni  Ni42  1  0.18433000  0.55385700  0.03188200  1
  Ni  Ni43  1  0.81567000  0.44614300  0.96811800  1
  Ni  Ni44  1  0.44366800  0.23735500  0.39051800  1
  Ni  Ni45  1  0.28278500  0.26072200  0.21650800  1
  Ni  Ni46  1  0.55633200  0.76264500  0.60948200  1
  Ni  Ni47  1  0.38007900  0.76201300  0.02614400  1
  Ni  Ni48  1  0.31567000  0.55385700  0.53188200  1
  Ni  Ni49  1  0.71721500  0.73927800  0.78349200  1
  Ni  Ni50  1  0.74472000  0.24333200  0.67086800  1
  Ni  Ni51  1  0.48185000  0.05998500  0.18438900  1
  Ni  Ni52  1  0.24472000  0.75666800  0.82913200  1
  Ni  Ni53  1  0.78278500  0.73927800  0.28349200  1
  Ni  Ni54  1  0.01815000  0.05998500  0.68438900  1
  Ni  Ni55  1  0.01313700  0.45327400  0.69575700  1
  Ni  Ni56  1  0.05633200  0.23735500  0.89051800  1
  Ni  Ni57  1  0.17660400  0.94150400  0.03399000  1
  Ni  Ni58  1  0.67660400  0.05849600  0.46601000  1
  Ni  Ni59  1  0.94366800  0.76264500  0.10948200  1
  Ni  Ni60  1  0.21721500  0.26072200  0.71650800  1
  Ni  Ni61  1  0.11992100  0.76201300  0.52614400  1
  Ni  Ni62  1  0.75528000  0.24333200  0.17086800  1
  Ni  Ni63  1  0.88007900  0.23798700  0.47385600  1
  Cu  Cu64  1  0.03086500  0.22600700  0.13274600  1
  Cu  Cu65  1  0.62325600  0.78672700  0.05974900  1
  Cu  Cu66  1  0.12325600  0.21327300  0.44025100  1
  Cu  Cu67  1  0.53086500  0.77399300  0.36725400  1
  Cu  Cu68  1  0.96913500  0.77399300  0.86725400  1
  Cu  Cu69  1  0.37674400  0.21327300  0.94025100  1
  Cu  Cu70  1  0.87674400  0.78672700  0.55974900  1
  Cu  Cu71  1  0.46913500  0.22600700  0.63274600  1
