# generated using pymatgen
data_Cu(NiC6)4
_symmetry_space_group_name_H-M   'P 1'
_cell_length_a   11.74606862
_cell_length_b   11.74606862
_cell_length_c   9.26490800
_cell_angle_alpha   90.00000000
_cell_angle_beta   90.00000000
_cell_angle_gamma   120.00000350
_symmetry_Int_Tables_number   1
_chemical_formula_structural   Cu(NiC6)4
_chemical_formula_sum   'Cu2 Ni8 C48'
_cell_volume   1107.02338453
_cell_formula_units_Z   2
loop_
 _symmetry_equiv_pos_site_id
 _symmetry_equiv_pos_as_xyz
  1  'x, y, z'
loop_
 _atom_site_type_symbol
 _atom_site_label
 _atom_site_symmetry_multiplicity
 _atom_site_fract_x
 _atom_site_fract_y
 _atom_site_fract_z
 _atom_site_occupancy
  Ni  Ni0  1  0.00758500  0.23693400  0.00917800  1
  Ni  Ni1  1  0.23693400  0.00758500  0.50917800  1
  Ni  Ni2  1  0.99241500  0.22935000  0.50917800  1
  Ni  Ni3  1  0.76306600  0.77065000  0.00917800  1
  Ni  Ni4  1  0.77065000  0.76306600  0.50917800  1
  Ni  Ni5  1  0.22935000  0.99241500  0.00917800  1
  Ni  Ni6  1  0.66666700  0.33333300  0.74983200  1
  Ni  Ni7  1  0.33333300  0.66666700  0.24983200  1
  Cu  Cu8  1  0.33333300  0.66666700  0.75936600  1
  Cu  Cu9  1  0.66666700  0.33333300  0.25936600  1
  C  C10  1  0.54496200  0.99661000  0.49434900  1
  C  C11  1  0.28571900  0.30879300  0.74625600  1
  C  C12  1  0.45503800  0.45164700  0.99434900  1
  C  C13  1  0.30879300  0.28571900  0.24625600  1
  C  C14  1  0.99661000  0.54496200  0.99434900  1
  C  C15  1  0.69120700  0.97692600  0.74625600  1
  C  C16  1  0.71428100  0.02307400  0.24625600  1
  C  C17  1  0.00339000  0.54835300  0.49434900  1
  C  C18  1  0.02307400  0.71428100  0.74625600  1
  C  C19  1  0.45164700  0.45503800  0.49434900  1
  C  C20  1  0.54835300  0.00339000  0.99434900  1
  C  C21  1  0.97692600  0.69120700  0.24625600  1
  C  C22  1  0.67582400  0.02289700  0.58481600  1
  C  C23  1  0.02289700  0.67582400  0.08481600  1
  C  C24  1  0.95246700  0.57691000  0.83919400  1
  C  C25  1  0.37555700  0.42309000  0.33919400  1
  C  C26  1  0.34707300  0.32417600  0.58481600  1
  C  C27  1  0.32417600  0.34707300  0.08481600  1
  C  C28  1  0.57691000  0.95246700  0.33919400  1
  C  C29  1  0.57677900  0.45500100  0.04912800  1
  C  C30  1  0.42322100  0.87822200  0.54912800  1
  C  C31  1  0.95372800  0.78977900  0.77456200  1
  C  C32  1  0.97710300  0.65292700  0.58481600  1
  C  C33  1  0.12593200  0.54890200  0.98073100  1
  C  C34  1  0.12177800  0.54499900  0.54912800  1
  C  C35  1  0.78977900  0.95372800  0.27456200  1
  C  C36  1  0.16394900  0.21022100  0.27456200  1
  C  C37  1  0.87406800  0.42297000  0.48073100  1
  C  C38  1  0.38898900  0.21941700  0.26198700  1
  C  C39  1  0.65292700  0.97710300  0.08481600  1
  C  C40  1  0.45109800  0.57703000  0.98073100  1
  C  C41  1  0.87822200  0.42322100  0.04912800  1
  C  C42  1  0.57703000  0.45109800  0.48073100  1
  C  C43  1  0.45500100  0.57677900  0.54912800  1
  C  C44  1  0.21022100  0.16394900  0.77456200  1
  C  C45  1  0.04753300  0.62444300  0.33919400  1
  C  C46  1  0.61101100  0.83042800  0.76198700  1
  C  C47  1  0.54890200  0.12593200  0.48073100  1
  C  C48  1  0.54499900  0.12177800  0.04912800  1
  C  C49  1  0.78058300  0.16957200  0.26198700  1
  C  C50  1  0.16957200  0.78058300  0.76198700  1
  C  C51  1  0.62444300  0.04753300  0.83919400  1
  C  C52  1  0.83042800  0.61101100  0.26198700  1
  C  C53  1  0.42297000  0.87406800  0.98073100  1
  C  C54  1  0.42309000  0.37555700  0.83919400  1
  C  C55  1  0.21941700  0.38898900  0.76198700  1
  C  C56  1  0.04627200  0.83605100  0.27456200  1
  C  C57  1  0.83605100  0.04627200  0.77456200  1
