# generated using pymatgen
data_Cu27Ni9C7
_symmetry_space_group_name_H-M   'P 1'
_cell_length_a   10.83501230
_cell_length_b   10.83501230
_cell_length_c   10.83501306
_cell_angle_alpha   100.68433178
_cell_angle_beta   100.68433178
_cell_angle_gamma   100.68433468
_symmetry_Int_Tables_number   1
_chemical_formula_structural   Cu27Ni9C7
_chemical_formula_sum   'Cu54 Ni18 C14'
_cell_volume   1196.04690347
_cell_formula_units_Z   2
loop_
 _symmetry_equiv_pos_site_id
 _symmetry_equiv_pos_as_xyz
  1  'x, y, z'
loop_
 _atom_site_type_symbol
 _atom_site_label
 _atom_site_symmetry_multiplicity
 _atom_site_fract_x
 _atom_site_fract_y
 _atom_site_fract_z
 _atom_site_occupancy
  C  C0  1  0.00000000  0.00000000  0.00000000  1
  C  C1  1  0.50000000  0.50000000  0.50000000  1
  C  C2  1  0.63272000  0.86728000  0.25000000  1
  C  C3  1  0.04178400  0.25000000  0.45821600  1
  C  C4  1  0.25000000  0.63272000  0.86728000  1
  C  C5  1  0.36728000  0.13272000  0.75000000  1
  C  C6  1  0.54178400  0.95821600  0.75000000  1
  C  C7  1  0.25000000  0.45821600  0.04178400  1
  C  C8  1  0.45821600  0.04178400  0.25000000  1
  C  C9  1  0.13272000  0.75000000  0.36728000  1
  C  C10  1  0.75000000  0.54178400  0.95821600  1
  C  C11  1  0.86728000  0.25000000  0.63272000  1
  C  C12  1  0.95821600  0.75000000  0.54178400  1
  C  C13  1  0.75000000  0.36728000  0.13272000  1
  Ni  Ni14  1  0.43145700  0.21313400  0.50679900  1
  Ni  Ni15  1  0.75000000  0.18382200  0.31617800  1
  Ni  Ni16  1  0.78686600  0.49320100  0.56854300  1
  Ni  Ni17  1  0.06854300  0.99320100  0.28686600  1
  Ni  Ni18  1  0.31617800  0.75000000  0.18382200  1
  Ni  Ni19  1  0.00679900  0.71313400  0.93145700  1
  Ni  Ni20  1  0.49320100  0.56854300  0.78686600  1
  Ni  Ni21  1  0.68382200  0.25000000  0.81617800  1
  Ni  Ni22  1  0.81617800  0.68382200  0.25000000  1
  Ni  Ni23  1  0.93145700  0.00679900  0.71313400  1
  Ni  Ni24  1  0.21313400  0.50679900  0.43145700  1
  Ni  Ni25  1  0.28686600  0.06854300  0.99320100  1
  Ni  Ni26  1  0.25000000  0.81617800  0.68382200  1
  Ni  Ni27  1  0.56854300  0.78686600  0.49320100  1
  Ni  Ni28  1  0.99320100  0.28686600  0.06854300  1
  Ni  Ni29  1  0.71313400  0.93145700  0.00679900  1
  Ni  Ni30  1  0.50679900  0.43145700  0.21313400  1
  Ni  Ni31  1  0.18382200  0.31617800  0.75000000  1
  Cu  Cu32  1  0.40210700  0.44718600  0.24724400  1
  Cu  Cu33  1  0.24724400  0.40210700  0.44718600  1
  Cu  Cu34  1  0.09765600  0.51120700  0.40424000  1
  Cu  Cu35  1  0.09789300  0.25275600  0.05281400  1
  Cu  Cu36  1  0.32985000  0.84741100  0.27610200  1
  Cu  Cu37  1  0.22389800  0.65258900  0.17015000  1
  Cu  Cu38  1  0.59576000  0.90234400  0.48879300  1
  Cu  Cu39  1  0.40424000  0.09765600  0.51120700  1
  Cu  Cu40  1  0.67015000  0.15258900  0.72389800  1
  Cu  Cu41  1  0.40234400  0.09576000  0.98879300  1
  Cu  Cu42  1  0.05482300  0.89402500  0.19629600  1
  Cu  Cu43  1  0.34741100  0.82985000  0.77610200  1
  Cu  Cu44  1  0.82985000  0.77610200  0.34741100  1
  Cu  Cu45  1  0.98879300  0.40234400  0.09576000  1
  Cu  Cu46  1  0.19629600  0.05482300  0.89402500  1
  Cu  Cu47  1  0.15258900  0.72389800  0.67015000  1
  Cu  Cu48  1  0.90210700  0.74724400  0.94718600  1
  Cu  Cu49  1  0.60597500  0.44517700  0.30370400  1
  Cu  Cu50  1  0.55482300  0.69629600  0.39402500  1
  Cu  Cu51  1  0.44718600  0.24724400  0.40210700  1
  Cu  Cu52  1  0.25275600  0.05281400  0.09789300  1
  Cu  Cu53  1  0.09576000  0.98879300  0.40234400  1
  Cu  Cu54  1  0.74724400  0.94718600  0.90210700  1
  Cu  Cu55  1  0.27610200  0.32985000  0.84741100  1
  Cu  Cu56  1  0.94718600  0.90210700  0.74724400  1
  Cu  Cu57  1  0.94517700  0.10597500  0.80370400  1
  Cu  Cu58  1  0.51120700  0.40424000  0.09765600  1
  Cu  Cu59  1  0.48879300  0.59576000  0.90234400  1
  Cu  Cu60  1  0.05281400  0.09789300  0.25275600  1
  Cu  Cu61  1  0.01120700  0.59765600  0.90424000  1
  Cu  Cu62  1  0.10824200  0.39175800  0.75000000  1
  Cu  Cu63  1  0.55281400  0.75275600  0.59789300  1
  Cu  Cu64  1  0.59789300  0.55281400  0.75275600  1
  Cu  Cu65  1  0.10597500  0.80370400  0.94517700  1
  Cu  Cu66  1  0.39402500  0.55482300  0.69629600  1
  Cu  Cu67  1  0.72389800  0.67015000  0.15258900  1
  Cu  Cu68  1  0.17015000  0.22389800  0.65258900  1
  Cu  Cu69  1  0.59765600  0.90424000  0.01120700  1
  Cu  Cu70  1  0.90234400  0.48879300  0.59576000  1
  Cu  Cu71  1  0.44517700  0.30370400  0.60597500  1
  Cu  Cu72  1  0.75275600  0.59789300  0.55281400  1
  Cu  Cu73  1  0.80370400  0.94517700  0.10597500  1
  Cu  Cu74  1  0.77610200  0.34741100  0.82985000  1
  Cu  Cu75  1  0.89402500  0.19629600  0.05482300  1
  Cu  Cu76  1  0.25000000  0.89175800  0.60824200  1
  Cu  Cu77  1  0.75000000  0.10824200  0.39175800  1
  Cu  Cu78  1  0.89175800  0.60824200  0.25000000  1
  Cu  Cu79  1  0.84741100  0.27610200  0.32985000  1
  Cu  Cu80  1  0.90424000  0.01120700  0.59765600  1
  Cu  Cu81  1  0.69629600  0.39402500  0.55482300  1
  Cu  Cu82  1  0.30370400  0.60597500  0.44517700  1
  Cu  Cu83  1  0.39175800  0.75000000  0.10824200  1
  Cu  Cu84  1  0.65258900  0.17015000  0.22389800  1
  Cu  Cu85  1  0.60824200  0.25000000  0.89175800  1
