# generated using pymatgen
data_Cu2Ni2C13
_symmetry_space_group_name_H-M   'P 1'
_cell_length_a   7.75723300
_cell_length_b   7.95647200
_cell_length_c   16.79459700
_cell_angle_alpha   90.00000000
_cell_angle_beta   90.00000000
_cell_angle_gamma   90.00000000
_symmetry_Int_Tables_number   1
_chemical_formula_structural   Cu2Ni2C13
_chemical_formula_sum   'Cu8 Ni8 C52'
_cell_volume   1036.56600604
_cell_formula_units_Z   4
loop_
 _symmetry_equiv_pos_site_id
 _symmetry_equiv_pos_as_xyz
  1  'x, y, z'
loop_
 _atom_site_type_symbol
 _atom_site_label
 _atom_site_symmetry_multiplicity
 _atom_site_fract_x
 _atom_site_fract_y
 _atom_site_fract_z
 _atom_site_occupancy
  C  C0  1  0.87126700  0.75000000  0.38306000  1
  C  C1  1  0.62873300  0.25000000  0.88306000  1
  C  C2  1  0.37126700  0.75000000  0.11694000  1
  C  C3  1  0.12873300  0.25000000  0.61694000  1
  Ni  Ni4  1  0.84617400  0.41116300  0.11948500  1
  Ni  Ni5  1  0.15382600  0.91116300  0.88051500  1
  Ni  Ni6  1  0.65382600  0.58883700  0.61948500  1
  Ni  Ni7  1  0.34617400  0.41116300  0.38051500  1
  Ni  Ni8  1  0.65382600  0.91116300  0.61948500  1
  Ni  Ni9  1  0.84617400  0.08883700  0.11948500  1
  Ni  Ni10  1  0.15382600  0.58883700  0.88051500  1
  Ni  Ni11  1  0.34617400  0.08883700  0.38051500  1
  Cu  Cu12  1  0.52235200  0.25000000  0.35595600  1
  Cu  Cu13  1  0.19163500  0.25000000  0.43021100  1
  Cu  Cu14  1  0.02235200  0.25000000  0.14404400  1
  Cu  Cu15  1  0.47764800  0.75000000  0.64404400  1
  Cu  Cu16  1  0.97764800  0.75000000  0.85595600  1
  Cu  Cu17  1  0.80836500  0.75000000  0.56978900  1
  Cu  Cu18  1  0.30836500  0.75000000  0.93021100  1
  Cu  Cu19  1  0.69163500  0.25000000  0.06978900  1
  C  C20  1  0.64900800  0.25000000  0.41811600  1
  C  C21  1  0.73131700  0.75000000  0.48483200  1
  C  C22  1  0.94079800  0.75000000  0.77222700  1
  C  C23  1  0.14900800  0.25000000  0.08188400  1
  C  C24  1  0.85099200  0.75000000  0.91811600  1
  C  C25  1  0.44079800  0.75000000  0.72777300  1
  C  C26  1  0.35099200  0.75000000  0.58188400  1
  C  C27  1  0.26868300  0.25000000  0.51516800  1
  C  C28  1  0.76868300  0.25000000  0.98483200  1
  C  C29  1  0.23131700  0.75000000  0.01516800  1
  C  C30  1  0.55920200  0.25000000  0.27222700  1
  C  C31  1  0.05920200  0.25000000  0.22777300  1
  C  C32  1  0.00292900  0.90555300  0.42735100  1
  C  C33  1  0.39216600  0.97169900  0.43250300  1
  C  C34  1  0.49707100  0.09444700  0.92735100  1
  C  C35  1  0.51388800  0.25000000  0.79433200  1
  C  C36  1  0.89216600  0.52830100  0.06749700  1
  C  C37  1  0.22212700  0.52182500  0.81511000  1
  C  C38  1  0.27787300  0.47817500  0.31511000  1
  C  C39  1  0.27787300  0.02182500  0.31511000  1
  C  C40  1  0.72617200  0.90564900  0.35203700  1
  C  C41  1  0.22617200  0.59435100  0.14796300  1
  C  C42  1  0.00292900  0.59444700  0.42735100  1
  C  C43  1  0.72212700  0.52182500  0.68489000  1
  C  C44  1  0.50292900  0.90555300  0.07264900  1
  C  C45  1  0.77787300  0.02182500  0.18489000  1
  C  C46  1  0.50292900  0.59444700  0.07264900  1
  C  C47  1  0.22617200  0.90564900  0.14796300  1
  C  C48  1  0.01388800  0.25000000  0.70566800  1
  C  C49  1  0.77382800  0.40564900  0.85203700  1
  C  C50  1  0.77382800  0.09435100  0.85203700  1
  C  C51  1  0.60783400  0.47169900  0.56749700  1
  C  C52  1  0.22212700  0.97817500  0.81511000  1
  C  C53  1  0.72212700  0.97817500  0.68489000  1
  C  C54  1  0.49707100  0.40555300  0.92735100  1
  C  C55  1  0.39216600  0.52830100  0.43250300  1
  C  C56  1  0.27382800  0.09435100  0.64796300  1
  C  C57  1  0.98611200  0.75000000  0.29433200  1
  C  C58  1  0.48611200  0.75000000  0.20566800  1
  C  C59  1  0.99707100  0.09444700  0.57264900  1
  C  C60  1  0.60783400  0.02830100  0.56749700  1
  C  C61  1  0.10783400  0.47169900  0.93250300  1
  C  C62  1  0.89216600  0.97169900  0.06749700  1
  C  C63  1  0.72617200  0.59435100  0.35203700  1
  C  C64  1  0.77787300  0.47817500  0.18489000  1
  C  C65  1  0.10783400  0.02830100  0.93250300  1
  C  C66  1  0.27382800  0.40564900  0.64796300  1
  C  C67  1  0.99707100  0.40555300  0.57264900  1
