# generated using pymatgen
data_Cu5(NiC2)2
_symmetry_space_group_name_H-M   'P 1'
_cell_length_a   7.15820400
_cell_length_b   12.79682700
_cell_length_c   26.64498200
_cell_angle_alpha   90.00000000
_cell_angle_beta   90.00000000
_cell_angle_gamma   90.00000000
_symmetry_Int_Tables_number   1
_chemical_formula_structural   Cu5(NiC2)2
_chemical_formula_sum   'Cu40 Ni16 C32'
_cell_volume   2440.74158720
_cell_formula_units_Z   8
loop_
 _symmetry_equiv_pos_site_id
 _symmetry_equiv_pos_as_xyz
  1  'x, y, z'
loop_
 _atom_site_type_symbol
 _atom_site_label
 _atom_site_symmetry_multiplicity
 _atom_site_fract_x
 _atom_site_fract_y
 _atom_site_fract_z
 _atom_site_occupancy
  C  C0  1  0.00000000  0.32221000  0.98346800  1
  C  C1  1  0.00000000  0.67779000  0.01653200  1
  C  C2  1  0.50000000  0.83858300  0.93071900  1
  C  C3  1  0.50000000  0.82221000  0.51653200  1
  C  C4  1  0.00000000  0.33858300  0.56928100  1
  C  C5  1  0.00000000  0.66141700  0.43071900  1
  C  C6  1  0.50000000  0.16141700  0.06928100  1
  C  C7  1  0.50000000  0.17779000  0.48346800  1
  Ni  Ni8  1  0.00000000  0.96716400  0.62537700  1
  Ni  Ni9  1  0.50000000  0.93295200  0.34587800  1
  Ni  Ni10  1  0.00000000  0.95240700  0.11634400  1
  Ni  Ni11  1  0.00000000  0.43295200  0.15412200  1
  Ni  Ni12  1  0.00000000  0.03283600  0.37462300  1
  Ni  Ni13  1  0.00000000  0.04759300  0.88365600  1
  Ni  Ni14  1  0.00000000  0.56704800  0.84587800  1
  Ni  Ni15  1  0.50000000  0.18204200  0.89554400  1
  Ni  Ni16  1  0.50000000  0.81795800  0.10445600  1
  Ni  Ni17  1  0.50000000  0.06704800  0.65412200  1
  Ni  Ni18  1  0.50000000  0.45240700  0.38365600  1
  Ni  Ni19  1  0.50000000  0.54759300  0.61634400  1
  Ni  Ni20  1  0.50000000  0.53283600  0.12537700  1
  Ni  Ni21  1  0.00000000  0.68204200  0.60445600  1
  Ni  Ni22  1  0.00000000  0.31795800  0.39554400  1
  Ni  Ni23  1  0.50000000  0.46716400  0.87462300  1
  C  C24  1  0.00000000  0.19362900  0.18088400  1
  C  C25  1  0.75086100  0.01418500  0.76661800  1
  C  C26  1  0.25346200  0.18569800  0.30619700  1
  C  C27  1  0.24653800  0.68569800  0.19380300  1
  C  C28  1  0.24913900  0.01418500  0.76661800  1
  C  C29  1  0.75086100  0.98581500  0.23338200  1
  C  C30  1  0.50000000  0.69362900  0.31911600  1
  C  C31  1  0.24913900  0.98581500  0.23338200  1
  C  C32  1  0.74653800  0.18569800  0.30619700  1
  C  C33  1  0.50000000  0.23137000  0.21276900  1
  C  C34  1  0.25346200  0.81430200  0.69380300  1
  C  C35  1  0.50000000  0.76863000  0.78723100  1
  C  C36  1  0.25086100  0.51418500  0.73338200  1
  C  C37  1  0.25086100  0.48581500  0.26661800  1
  C  C38  1  0.00000000  0.26863000  0.71276900  1
  C  C39  1  0.50000000  0.30637100  0.68088400  1
  C  C40  1  0.00000000  0.73137000  0.28723100  1
  C  C41  1  0.24653800  0.31430200  0.80619700  1
  C  C42  1  0.74653800  0.81430200  0.69380300  1
  C  C43  1  0.00000000  0.80637100  0.81911600  1
  C  C44  1  0.74913900  0.48581500  0.26661800  1
  C  C45  1  0.75346200  0.68569800  0.19380300  1
  C  C46  1  0.74913900  0.51418500  0.73338200  1
  C  C47  1  0.75346200  0.31430200  0.80619700  1
  Cu  Cu48  1  0.25047400  0.08556500  0.58918400  1
  Cu  Cu49  1  0.00000000  0.91357800  0.27877500  1
  Cu  Cu50  1  0.00000000  0.13936500  0.09721300  1
  Cu  Cu51  1  0.24985300  0.59379000  0.55347700  1
  Cu  Cu52  1  0.74985300  0.90621000  0.05347700  1
  Cu  Cu53  1  0.00000000  0.08642200  0.72122500  1
  Cu  Cu54  1  0.50000000  0.75873600  0.23716500  1
  Cu  Cu55  1  0.50000000  0.58642200  0.77877500  1
  Cu  Cu56  1  0.75047400  0.41443500  0.08918400  1
  Cu  Cu57  1  0.24952600  0.58556500  0.91081600  1
  Cu  Cu58  1  0.50000000  0.66198300  0.04958500  1
  Cu  Cu59  1  0.50000000  0.36063500  0.59721300  1
  Cu  Cu60  1  0.00000000  0.25873600  0.26283500  1
  Cu  Cu61  1  0.00000000  0.74126400  0.73716500  1
  Cu  Cu62  1  0.00000000  0.86063500  0.90278700  1
  Cu  Cu63  1  0.74952600  0.91443500  0.41081600  1
  Cu  Cu64  1  0.24952600  0.41443500  0.08918400  1
  Cu  Cu65  1  0.24985300  0.40621000  0.44652300  1
  Cu  Cu66  1  0.50000000  0.13496000  0.35820500  1
  Cu  Cu67  1  0.74952600  0.08556500  0.58918400  1
  Cu  Cu68  1  0.25014700  0.90621000  0.05347700  1
  Cu  Cu69  1  0.50000000  0.94471100  0.81238700  1
  Cu  Cu70  1  0.75014700  0.40621000  0.44652300  1
  Cu  Cu71  1  0.00000000  0.16198300  0.45041500  1
  Cu  Cu72  1  0.75047400  0.58556500  0.91081600  1
  Cu  Cu73  1  0.50000000  0.86504000  0.64179500  1
  Cu  Cu74  1  0.00000000  0.63496000  0.14179500  1
  Cu  Cu75  1  0.75014700  0.59379000  0.55347700  1
  Cu  Cu76  1  0.25014700  0.09379000  0.94652300  1
  Cu  Cu77  1  0.50000000  0.05528900  0.18761300  1
  Cu  Cu78  1  0.74985300  0.09379000  0.94652300  1
  Cu  Cu79  1  0.50000000  0.24126400  0.76283500  1
  Cu  Cu80  1  0.50000000  0.41357800  0.22122500  1
  Cu  Cu81  1  0.00000000  0.83801700  0.54958500  1
  Cu  Cu82  1  0.25047400  0.91443500  0.41081600  1
  Cu  Cu83  1  0.00000000  0.44471100  0.68761300  1
  Cu  Cu84  1  0.50000000  0.63936500  0.40278700  1
  Cu  Cu85  1  0.00000000  0.36504000  0.85820500  1
  Cu  Cu86  1  0.50000000  0.33801700  0.95041500  1
  Cu  Cu87  1  0.00000000  0.55528900  0.31238700  1
