# generated using pymatgen
data_Cu15Ni5C7
_symmetry_space_group_name_H-M   'P 1'
_cell_length_a   11.11680633
_cell_length_b   11.11680633
_cell_length_c   13.40440786
_cell_angle_alpha   85.45140334
_cell_angle_beta   85.45140334
_cell_angle_gamma   26.77641757
_symmetry_Int_Tables_number   1
_chemical_formula_structural   Cu15Ni5C7
_chemical_formula_sum   'Cu30 Ni10 C14'
_cell_volume   743.81407862
_cell_formula_units_Z   2
loop_
 _symmetry_equiv_pos_site_id
 _symmetry_equiv_pos_as_xyz
  1  'x, y, z'
loop_
 _atom_site_type_symbol
 _atom_site_label
 _atom_site_symmetry_multiplicity
 _atom_site_fract_x
 _atom_site_fract_y
 _atom_site_fract_z
 _atom_site_occupancy
  C  C0  1  0.68622900  0.68622900  0.90482800  1
  C  C1  1  0.80772300  0.80772300  0.60031100  1
  C  C2  1  0.50000000  0.50000000  0.50000000  1
  C  C3  1  0.19227700  0.19227700  0.39968900  1
  C  C4  1  0.31377100  0.31377100  0.09517200  1
  C  C5  1  0.00000000  0.00000000  0.00000000  1
  C  C6  1  0.40015600  0.40015600  0.81478100  1
  C  C7  1  0.59984400  0.59984400  0.18521900  1
  C  C8  1  0.89445900  0.89445900  0.28801900  1
  C  C9  1  0.10554100  0.10554100  0.71198100  1
  Ni  Ni10  1  0.54126400  0.54126400  0.79987800  1
  Ni  Ni11  1  0.95211700  0.95211700  0.64724500  1
  Ni  Ni12  1  0.75365600  0.75365600  0.27499900  1
  Ni  Ni13  1  0.45873600  0.45873600  0.20012200  1
  Ni  Ni14  1  0.83951600  0.83951600  0.90221300  1
  Ni  Ni15  1  0.16048400  0.16048400  0.09778700  1
  Ni  Ni16  1  0.65025300  0.65025300  0.54110400  1
  Ni  Ni17  1  0.24634400  0.24634400  0.72500100  1
  Ni  Ni18  1  0.34974700  0.34974700  0.45889600  1
  Ni  Ni19  1  0.04788300  0.04788300  0.35275500  1
  Cu  Cu20  1  0.00112800  0.56800100  0.27507900  1
  Cu  Cu21  1  0.69373500  0.69373500  0.27963500  1
  Cu  Cu22  1  0.10220600  0.10220600  0.13191800  1
  Cu  Cu23  1  0.73049100  0.29401300  0.81376000  1
  Cu  Cu24  1  0.89779400  0.89779400  0.86808200  1
  Cu  Cu25  1  0.70546000  0.70546000  0.49693600  1
  Cu  Cu26  1  0.29634800  0.85878000  0.34029600  1
  Cu  Cu27  1  0.43199900  0.99887200  0.72492100  1
  Cu  Cu28  1  0.83965300  0.40290000  0.56032200  1
  Cu  Cu29  1  0.26950900  0.70598700  0.18624000  1
  Cu  Cu30  1  0.56800100  0.00112800  0.27507900  1
  Cu  Cu31  1  0.30626500  0.30626500  0.72036500  1
  Cu  Cu32  1  0.40866100  0.96935400  0.08391500  1
  Cu  Cu33  1  0.98980200  0.98980200  0.38503600  1
  Cu  Cu34  1  0.70598700  0.26950900  0.18624000  1
  Cu  Cu35  1  0.59710000  0.16034700  0.43967800  1
  Cu  Cu36  1  0.40069200  0.40069200  0.23392000  1
  Cu  Cu37  1  0.85878000  0.29634800  0.34029600  1
  Cu  Cu38  1  0.16034700  0.59710000  0.43967800  1
  Cu  Cu39  1  0.29401300  0.73049100  0.81376000  1
  Cu  Cu40  1  0.01019800  0.01019800  0.61496400  1
  Cu  Cu41  1  0.14122000  0.70365200  0.65970400  1
  Cu  Cu42  1  0.29454000  0.29454000  0.50306400  1
  Cu  Cu43  1  0.03064600  0.59133900  0.91608500  1
  Cu  Cu44  1  0.40290000  0.83965300  0.56032200  1
  Cu  Cu45  1  0.59133900  0.03064600  0.91608500  1
  Cu  Cu46  1  0.96935400  0.40866100  0.08391500  1
  Cu  Cu47  1  0.59930800  0.59930800  0.76608000  1
  Cu  Cu48  1  0.99887200  0.43199900  0.72492100  1
  Cu  Cu49  1  0.70365200  0.14122000  0.65970400  1
  C  C50  1  0.42624900  0.42624900  0.98236000  1
  C  C51  1  0.57375100  0.57375100  0.01764000  1
  C  C52  1  0.87506000  0.87506000  0.11536900  1
  C  C53  1  0.12494000  0.12494000  0.88463100  1
