# generated using pymatgen
data_Cu5Ni2C3
_symmetry_space_group_name_H-M   'P 1'
_cell_length_a   7.17570900
_cell_length_b   7.17570900
_cell_length_c   18.22568300
_cell_angle_alpha   90.00000000
_cell_angle_beta   90.00000000
_cell_angle_gamma   119.99999082
_symmetry_Int_Tables_number   1
_chemical_formula_structural   Cu5Ni2C3
_chemical_formula_sum   'Cu30 Ni12 C18'
_cell_volume   812.72593938
_cell_formula_units_Z   6
loop_
 _symmetry_equiv_pos_site_id
 _symmetry_equiv_pos_as_xyz
  1  'x, y, z'
loop_
 _atom_site_type_symbol
 _atom_site_label
 _atom_site_symmetry_multiplicity
 _atom_site_fract_x
 _atom_site_fract_y
 _atom_site_fract_z
 _atom_site_occupancy
  C  C0  1  0.85703300  0.43158700  0.99800800  1
  C  C1  1  0.42544600  0.85703300  0.16467400  1
  C  C2  1  0.43158700  0.57455400  0.83134100  1
  C  C3  1  0.56841300  0.42544600  0.33134100  1
  C  C4  1  0.57455400  0.14296700  0.66467400  1
  C  C5  1  0.14296700  0.56841300  0.49800800  1
  C  C6  1  0.02702900  0.17026900  0.37849900  1
  C  C7  1  0.85676000  0.02702900  0.54516500  1
  C  C8  1  0.17026900  0.14324000  0.21183200  1
  C  C9  1  0.82973100  0.85676000  0.71183200  1
  C  C10  1  0.14324000  0.97297100  0.04516500  1
  C  C11  1  0.97297100  0.82973100  0.87849900  1
  C  C12  1  0.14587700  0.10384000  0.43526900  1
  C  C13  1  0.04203700  0.14587700  0.60193600  1
  C  C14  1  0.10384000  0.95796300  0.26860300  1
  C  C15  1  0.89616000  0.04203700  0.76860300  1
  C  C16  1  0.95796300  0.85412300  0.10193600  1
  C  C17  1  0.85412300  0.89616000  0.93526900  1
  Ni  Ni18  1  0.03678200  0.24669500  0.14530300  1
  Ni  Ni19  1  0.79008700  0.03678200  0.31196900  1
  Ni  Ni20  1  0.24669500  0.20991300  0.97863600  1
  Ni  Ni21  1  0.75330500  0.79008700  0.47863600  1
  Ni  Ni22  1  0.20991300  0.96321800  0.81196900  1
  Ni  Ni23  1  0.96321800  0.75330500  0.64530300  1
  Ni  Ni24  1  0.12486000  0.57047800  0.32506300  1
  Ni  Ni25  1  0.55438200  0.12486000  0.49172900  1
  Ni  Ni26  1  0.57047800  0.44561800  0.15839600  1
  Ni  Ni27  1  0.42952200  0.55438200  0.65839600  1
  Ni  Ni28  1  0.44561800  0.87514000  0.99172900  1
  Ni  Ni29  1  0.87514000  0.42952200  0.82506300  1
  Cu  Cu30  1  0.10531200  0.43787400  0.12332400  1
  Cu  Cu31  1  0.66743800  0.10531200  0.28999000  1
  Cu  Cu32  1  0.43787400  0.33256200  0.95665700  1
  Cu  Cu33  1  0.56212600  0.66743800  0.45665700  1
  Cu  Cu34  1  0.33256200  0.89468800  0.78999000  1
  Cu  Cu35  1  0.89468800  0.56212600  0.62332400  1
  Cu  Cu36  1  0.86827300  0.10500700  0.11289400  1
  Cu  Cu37  1  0.76326600  0.86827300  0.27956000  1
  Cu  Cu38  1  0.10500700  0.23673400  0.94622700  1
  Cu  Cu39  1  0.89499300  0.76326600  0.44622700  1
  Cu  Cu40  1  0.23673400  0.13172700  0.77956000  1
  Cu  Cu41  1  0.13172700  0.89499300  0.61289400  1
  Cu  Cu42  1  0.29700300  0.59605700  0.29553700  1
  Cu  Cu43  1  0.70094600  0.29700300  0.46220400  1
  Cu  Cu44  1  0.59605700  0.29905400  0.12887100  1
  Cu  Cu45  1  0.40394300  0.70094600  0.62887100  1
  Cu  Cu46  1  0.29905400  0.70299700  0.96220400  1
  Cu  Cu47  1  0.70299700  0.40394300  0.79553700  1
  Cu  Cu48  1  0.01087500  0.61757000  0.28477800  1
  Cu  Cu49  1  0.39330500  0.01087500  0.45144400  1
  Cu  Cu50  1  0.61757000  0.60669500  0.11811100  1
  Cu  Cu51  1  0.38243000  0.39330500  0.61811100  1
  Cu  Cu52  1  0.60669500  0.98912500  0.95144400  1
  Cu  Cu53  1  0.98912500  0.38243000  0.78477800  1
  Cu  Cu54  1  0.15454700  0.23100000  0.41172700  1
  Cu  Cu55  1  0.92354700  0.15454700  0.57839400  1
  Cu  Cu56  1  0.23100000  0.07645300  0.24506000  1
  Cu  Cu57  1  0.76900000  0.92354700  0.74506000  1
  Cu  Cu58  1  0.07645300  0.84545300  0.07839400  1
  Cu  Cu59  1  0.84545300  0.76900000  0.91172700  1
