# generated using pymatgen
data_CuNi5C3
_symmetry_space_group_name_H-M   'P 1'
_cell_length_a   7.12981500
_cell_length_b   10.03862800
_cell_length_c   13.83303000
_cell_angle_alpha   90.00000000
_cell_angle_beta   90.00000000
_cell_angle_gamma   90.00000000
_symmetry_Int_Tables_number   1
_chemical_formula_structural   CuNi5C3
_chemical_formula_sum   'Cu4 Ni20 C12'
_cell_volume   990.07920952
_cell_formula_units_Z   4
loop_
 _symmetry_equiv_pos_site_id
 _symmetry_equiv_pos_as_xyz
  1  'x, y, z'
loop_
 _atom_site_type_symbol
 _atom_site_label
 _atom_site_symmetry_multiplicity
 _atom_site_fract_x
 _atom_site_fract_y
 _atom_site_fract_z
 _atom_site_occupancy
  C  C0  1  0.67774700  0.50216800  0.85552700  1
  C  C1  1  0.17774700  0.49783200  0.64447300  1
  C  C2  1  0.32225300  0.00216800  0.14447300  1
  C  C3  1  0.32225300  0.49783200  0.14447300  1
  C  C4  1  0.17774700  0.00216800  0.64447300  1
  C  C5  1  0.67774700  0.99783200  0.85552700  1
  C  C6  1  0.82225300  0.99783200  0.35552700  1
  C  C7  1  0.82225300  0.50216800  0.35552700  1
  C  C8  1  0.31742300  0.25000000  0.40290900  1
  C  C9  1  0.18257700  0.25000000  0.90290900  1
  C  C10  1  0.81742300  0.75000000  0.09709100  1
  C  C11  1  0.68257700  0.75000000  0.59709100  1
  Ni  Ni12  1  0.56373900  0.25000000  0.28008500  1
  Ni  Ni13  1  0.29692300  0.49104300  0.39033800  1
  Ni  Ni14  1  0.97188300  0.75000000  0.50241300  1
  Ni  Ni15  1  0.79692300  0.50895700  0.10966200  1
  Ni  Ni16  1  0.06373900  0.75000000  0.21991500  1
  Ni  Ni17  1  0.29692300  0.00895700  0.39033800  1
  Ni  Ni18  1  0.93626100  0.25000000  0.78008500  1
  Ni  Ni19  1  0.20307700  0.00895700  0.89033800  1
  Ni  Ni20  1  0.70307700  0.99104300  0.60966200  1
  Ni  Ni21  1  0.52811700  0.75000000  0.00241300  1
  Ni  Ni22  1  0.09371400  0.25000000  0.25436800  1
  Ni  Ni23  1  0.90628600  0.75000000  0.74563200  1
  Ni  Ni24  1  0.79692300  0.99104300  0.10966200  1
  Ni  Ni25  1  0.47188300  0.25000000  0.99758700  1
  Ni  Ni26  1  0.43626100  0.75000000  0.71991500  1
  Ni  Ni27  1  0.20307700  0.49104300  0.89033800  1
  Ni  Ni28  1  0.40628600  0.25000000  0.75436800  1
  Ni  Ni29  1  0.70307700  0.50895700  0.60966200  1
  Ni  Ni30  1  0.02811700  0.25000000  0.49758700  1
  Ni  Ni31  1  0.59371400  0.75000000  0.24563200  1
  Cu  Cu32  1  0.46622500  0.25000000  0.49960600  1
  Cu  Cu33  1  0.03377500  0.25000000  0.99960600  1
  Cu  Cu34  1  0.53377500  0.75000000  0.50039400  1
  Cu  Cu35  1  0.96622500  0.75000000  0.00039400  1
