# generated using pymatgen
data_Cu15Ni2C11
_symmetry_space_group_name_H-M   'P 1'
_cell_length_a   18.13759451
_cell_length_b   18.13759451
_cell_length_c   18.13759455
_cell_angle_alpha   18.71407390
_cell_angle_beta   18.71407390
_cell_angle_gamma   18.71407740
_symmetry_Int_Tables_number   1
_chemical_formula_structural   Cu15Ni2C11
_chemical_formula_sum   'Cu15 Ni2 C11'
_cell_volume   536.66731158
_cell_formula_units_Z   1
loop_
 _symmetry_equiv_pos_site_id
 _symmetry_equiv_pos_as_xyz
  1  'x, y, z'
loop_
 _atom_site_type_symbol
 _atom_site_label
 _atom_site_symmetry_multiplicity
 _atom_site_fract_x
 _atom_site_fract_y
 _atom_site_fract_z
 _atom_site_occupancy
  C  C0  1  0.08141200  0.08141200  0.08141200  1
  C  C1  1  0.20852800  0.20852800  0.20852800  1
  C  C2  1  0.79147200  0.79147200  0.79147200  1
  C  C3  1  0.91858800  0.91858800  0.91858800  1
  C  C4  1  0.71274800  0.71274800  0.71274800  1
  C  C5  1  0.28725200  0.28725200  0.28725200  1
  C  C6  1  0.00000000  0.00000000  0.00000000  1
  C  C7  1  0.40509800  0.40509800  0.40509800  1
  C  C8  1  0.64676400  0.64676400  0.64676400  1
  C  C9  1  0.59490200  0.59490200  0.59490200  1
  C  C10  1  0.35323600  0.35323600  0.35323600  1
  Ni  Ni11  1  0.85628600  0.85628600  0.85628600  1
  Ni  Ni12  1  0.14371400  0.14371400  0.14371400  1
  Cu  Cu13  1  0.32068200  0.77284300  0.77284300  1
  Cu  Cu14  1  0.77284300  0.32068200  0.77284300  1
  Cu  Cu15  1  0.89921000  0.41591700  0.41591700  1
  Cu  Cu16  1  0.22715700  0.67931800  0.22715700  1
  Cu  Cu17  1  0.41591700  0.89921000  0.41591700  1
  Cu  Cu18  1  0.58408300  0.10079000  0.58408300  1
  Cu  Cu19  1  0.77284300  0.77284300  0.32068200  1
  Cu  Cu20  1  0.00000000  0.50000000  0.50000000  1
  Cu  Cu21  1  0.10079000  0.58408300  0.58408300  1
  Cu  Cu22  1  0.67931800  0.22715700  0.22715700  1
  Cu  Cu23  1  0.58408300  0.58408300  0.10079000  1
  Cu  Cu24  1  0.22715700  0.22715700  0.67931800  1
  Cu  Cu25  1  0.41591700  0.41591700  0.89921000  1
  Cu  Cu26  1  0.50000000  0.00000000  0.50000000  1
  Cu  Cu27  1  0.50000000  0.50000000  0.00000000  1
