# generated using pymatgen
data_Cu2(NiC2)3
_symmetry_space_group_name_H-M   'P 1'
_cell_length_a   4.84219400
_cell_length_b   6.09890000
_cell_length_c   9.17602700
_cell_angle_alpha   90.00000000
_cell_angle_beta   90.00000000
_cell_angle_gamma   90.00000000
_symmetry_Int_Tables_number   1
_chemical_formula_structural   Cu2(NiC2)3
_chemical_formula_sum   'Cu4 Ni6 C12'
_cell_volume   270.98695227
_cell_formula_units_Z   2
loop_
 _symmetry_equiv_pos_site_id
 _symmetry_equiv_pos_as_xyz
  1  'x, y, z'
loop_
 _atom_site_type_symbol
 _atom_site_label
 _atom_site_symmetry_multiplicity
 _atom_site_fract_x
 _atom_site_fract_y
 _atom_site_fract_z
 _atom_site_occupancy
  Ni  Ni0  1  0.00000000  0.50000000  0.18865400  1
  Ni  Ni1  1  0.50000000  0.00000000  0.31134600  1
  Ni  Ni2  1  0.00000000  0.50000000  0.81134600  1
  Ni  Ni3  1  0.50000000  0.00000000  0.68865400  1
  Ni  Ni4  1  0.50000000  0.50000000  0.50000000  1
  Ni  Ni5  1  0.00000000  0.00000000  0.00000000  1
  Cu  Cu6  1  0.03415900  0.24137300  0.50000000  1
  Cu  Cu7  1  0.46584100  0.74137300  0.00000000  1
  Cu  Cu8  1  0.96584100  0.75862700  0.50000000  1
  Cu  Cu9  1  0.53415900  0.25862700  0.00000000  1
  C  C10  1  0.32133300  0.78326400  0.87015200  1
  C  C11  1  0.82133300  0.71673600  0.62984800  1
  C  C12  1  0.32133300  0.78326400  0.12984800  1
  C  C13  1  0.67866700  0.21673600  0.12984800  1
  C  C14  1  0.82133300  0.71673600  0.37015200  1
  C  C15  1  0.17866700  0.28326400  0.37015200  1
  C  C16  1  0.74104500  0.67951800  0.00000000  1
  C  C17  1  0.24104500  0.82048200  0.50000000  1
  C  C18  1  0.75895500  0.17951800  0.50000000  1
  C  C19  1  0.25895500  0.32048200  0.00000000  1
  C  C20  1  0.67866700  0.21673600  0.87015200  1
  C  C21  1  0.17866700  0.28326400  0.62984800  1
