# generated using pymatgen
data_Cu2Ni2C9
_symmetry_space_group_name_H-M   'P 1'
_cell_length_a   6.22533800
_cell_length_b   10.26998300
_cell_length_c   10.62234182
_cell_angle_alpha   62.26668401
_cell_angle_beta   90.00000000
_cell_angle_gamma   90.00000000
_symmetry_Int_Tables_number   1
_chemical_formula_structural   Cu2Ni2C9
_chemical_formula_sum   'Cu8 Ni8 C36'
_cell_volume   601.11373193
_cell_formula_units_Z   4
loop_
 _symmetry_equiv_pos_site_id
 _symmetry_equiv_pos_as_xyz
  1  'x, y, z'
loop_
 _atom_site_type_symbol
 _atom_site_label
 _atom_site_symmetry_multiplicity
 _atom_site_fract_x
 _atom_site_fract_y
 _atom_site_fract_z
 _atom_site_occupancy
  Ni  Ni0  1  0.55677400  0.76363900  0.47587200  1
  Ni  Ni1  1  0.94322600  0.26363900  0.47587200  1
  Ni  Ni2  1  0.24084300  0.54795400  0.38841500  1
  Ni  Ni3  1  0.75915700  0.45204600  0.61158500  1
  Ni  Ni4  1  0.44322600  0.23636100  0.52412800  1
  Ni  Ni5  1  0.74084300  0.95204600  0.61158500  1
  Ni  Ni6  1  0.05677400  0.73636100  0.52412800  1
  Ni  Ni7  1  0.25915700  0.04795400  0.38841500  1
  Cu  Cu8  1  0.45937100  0.18380300  0.01468700  1
  Cu  Cu9  1  0.95937100  0.31619700  0.98531300  1
  Cu  Cu10  1  0.41793800  0.58484100  0.81915500  1
  Cu  Cu11  1  0.91793800  0.91515900  0.18084500  1
  Cu  Cu12  1  0.54062900  0.81619700  0.98531300  1
  Cu  Cu13  1  0.04062900  0.68380300  0.01468700  1
  Cu  Cu14  1  0.58206200  0.41515900  0.18084500  1
  Cu  Cu15  1  0.08206200  0.08484100  0.81915500  1
  C  C16  1  0.15326800  0.35231100  0.20568600  1
  C  C17  1  0.25156600  0.91741500  0.68691400  1
  C  C18  1  0.24843400  0.41741500  0.68691400  1
  C  C19  1  0.75156600  0.58258500  0.31308600  1
  C  C20  1  0.65326800  0.14768900  0.79431400  1
  C  C21  1  0.84673200  0.64768900  0.79431400  1
  C  C22  1  0.34673200  0.85231100  0.20568600  1
  C  C23  1  0.74843400  0.08258500  0.31308600  1
  C  C24  1  0.25720400  0.27134200  0.14743300  1
  C  C25  1  0.66300300  0.44605200  0.39595800  1
  C  C26  1  0.25162600  0.86613500  0.31434300  1
  C  C27  1  0.75720400  0.22865800  0.85256700  1
  C  C28  1  0.75162600  0.63386500  0.68565700  1
  C  C29  1  0.83699700  0.94605200  0.39595800  1
  C  C30  1  0.76345700  0.13296400  0.16422900  1
  C  C31  1  0.74837400  0.13386500  0.68565700  1
  C  C32  1  0.35170500  0.83281600  0.63535000  1
  C  C33  1  0.73654300  0.63296400  0.16422900  1
  C  C34  1  0.54396500  0.91417400  0.14713900  1
  C  C35  1  0.95603500  0.41417400  0.14713900  1
  C  C36  1  0.85170500  0.66718400  0.36465000  1
  C  C37  1  0.14829500  0.33281600  0.63535000  1
  C  C38  1  0.37534500  0.59708400  0.02555900  1
  C  C39  1  0.24837400  0.36613500  0.31434300  1
  C  C40  1  0.16300300  0.05394800  0.60404200  1
  C  C41  1  0.26345700  0.36703600  0.83577100  1
  C  C42  1  0.12465500  0.09708400  0.02555900  1
  C  C43  1  0.45603500  0.08582600  0.85286100  1
  C  C44  1  0.74279600  0.72865800  0.85256700  1
  C  C45  1  0.23654300  0.86703600  0.83577100  1
  C  C46  1  0.04396500  0.58582600  0.85286100  1
  C  C47  1  0.64829500  0.16718400  0.36465000  1
  C  C48  1  0.33699700  0.55394800  0.60404200  1
  C  C49  1  0.87534500  0.90291600  0.97444100  1
  C  C50  1  0.62465500  0.40291600  0.97444100  1
  C  C51  1  0.24279600  0.77134200  0.14743300  1
