# generated using pymatgen
data_Cu(Ni7C5)2
_symmetry_space_group_name_H-M   'P 1'
_cell_length_a   14.32444453
_cell_length_b   14.32444453
_cell_length_c   14.32444453
_cell_angle_alpha   117.93397188
_cell_angle_beta   117.93397188
_cell_angle_gamma   93.61733826
_symmetry_Int_Tables_number   1
_chemical_formula_structural   Cu(Ni7C5)2
_chemical_formula_sum   'Cu4 Ni56 C40'
_cell_volume   2138.64051262
_cell_formula_units_Z   4
loop_
 _symmetry_equiv_pos_site_id
 _symmetry_equiv_pos_as_xyz
  1  'x, y, z'
loop_
 _atom_site_type_symbol
 _atom_site_label
 _atom_site_symmetry_multiplicity
 _atom_site_fract_x
 _atom_site_fract_y
 _atom_site_fract_z
 _atom_site_occupancy
  C  C0  1  0.06450700  0.92625500  0.12546400  1
  C  C1  1  0.68904400  0.31450700  0.63825200  1
  C  C2  1  0.54937300  0.69941600  0.40509900  1
  C  C3  1  0.88517200  0.61482800  0.00000000  1
  C  C4  1  0.07374500  0.19920800  0.13825200  1
  C  C5  1  0.56095600  0.69920800  0.12546400  1
  C  C6  1  0.89427400  0.79937300  0.34995700  1
  C  C7  1  0.56450700  0.43904400  0.13825200  1
  C  C8  1  0.17625500  0.81450700  0.62546400  1
  C  C9  1  0.29431700  0.14427400  0.59490100  1
  C  C10  1  0.68549300  0.32374500  0.37453600  1
  C  C11  1  0.80079200  0.93904400  0.87453600  1
  C  C12  1  0.44920800  0.82374500  0.63825200  1
  C  C13  1  0.45568300  0.10572600  0.90509900  1
  C  C14  1  0.04937300  0.64427400  0.84995700  1
  C  C15  1  0.20062700  0.55058400  0.09490100  1
  C  C16  1  0.63517200  0.13517200  0.77034400  1
  C  C17  1  0.79431700  0.19941600  0.15004300  1
  C  C18  1  0.36482800  0.86482800  0.22965600  1
  C  C19  1  0.38517200  0.38517200  0.27034400  1
  C  C20  1  0.35572600  0.20568300  0.40509900  1
  C  C21  1  0.80058400  0.95062700  0.59490100  1
  C  C22  1  0.39427400  0.04431700  0.09490100  1
  C  C23  1  0.18904400  0.55079200  0.37453600  1
  C  C24  1  0.67625500  0.05079200  0.36174800  1
  C  C25  1  0.94941600  0.29937300  0.90509900  1
  C  C26  1  0.86482800  0.63517200  0.50000000  1
  C  C27  1  0.57374500  0.43549300  0.87453600  1
  C  C28  1  0.30079200  0.42625500  0.86174800  1
  C  C29  1  0.44941600  0.54431700  0.65004300  1
  C  C30  1  0.94920800  0.31095600  0.62546400  1
  C  C31  1  0.11482800  0.11482800  0.72965600  1
  C  C32  1  0.06095600  0.93549300  0.86174800  1
  C  C33  1  0.95568300  0.05058400  0.34995700  1
  C  C34  1  0.13517200  0.36482800  0.50000000  1
  C  C35  1  0.85572600  0.45062700  0.15004300  1
  C  C36  1  0.18549300  0.81095600  0.36174800  1
  C  C37  1  0.30058400  0.70568300  0.84995700  1
  C  C38  1  0.70062700  0.60572600  0.65004300  1
  C  C39  1  0.61482800  0.88517200  0.00000000  1
  Ni  Ni40  1  0.12500000  0.22616700  0.60116700  1
  Ni  Ni41  1  0.63265900  0.91508700  0.64115300  1
  Ni  Ni42  1  0.76113000  0.60406200  0.10733500  1
  Ni  Ni43  1  0.75327300  0.14593800  0.65706800  1
  Ni  Ni44  1  0.70891500  0.68773500  0.33295700  1
  Ni  Ni45  1  0.40379500  0.01113000  0.65706800  1
  Ni  Ni46  1  0.47606600  0.25849400  0.14115300  1
  Ni  Ni47  1  0.48887000  0.09620500  0.34293200  1
  Ni  Ni48  1  0.81226500  0.79108500  0.66704300  1
  Ni  Ni49  1  0.90379500  0.24672700  0.39266500  1
  Ni  Ni50  1  0.31226500  0.64522200  0.02118000  1
  Ni  Ni51  1  0.54108500  0.37404200  0.47882000  1
  Ni  Ni52  1  0.00849400  0.36734100  0.28242800  1
  Ni  Ni53  1  0.13265900  0.49150600  0.71757200  1
  Ni  Ni54  1  0.25327300  0.59620500  0.60733500  1
  Ni  Ni55  1  0.85477800  0.18773500  0.97882000  1
  Ni  Ni56  1  0.16508700  0.38265900  0.14115300  1
  Ni  Ni57  1  0.66508700  0.52393400  0.78242800  1
  Ni  Ni58  1  0.77383300  0.37500000  0.89883300  1
  Ni  Ni59  1  0.99672700  0.10406200  0.84293200  1
  Ni  Ni60  1  0.62500000  0.02383300  0.89883300  1
  Ni  Ni61  1  0.85406200  0.51113000  0.60733500  1
  Ni  Ni62  1  0.12595800  0.95891500  0.52118000  1
  Ni  Ni63  1  0.34620500  0.23887000  0.84293200  1
  Ni  Ni64  1  0.39593800  0.50327300  0.15706800  1
  Ni  Ni65  1  0.27383300  0.37500000  0.39883300  1
  Ni  Ni66  1  0.20891500  0.87595800  0.02118000  1
  Ni  Ni67  1  0.50849400  0.22606600  0.64115300  1
  Ni  Ni68  1  0.74150600  0.88265900  0.21757200  1
  Ni  Ni69  1  0.12500000  0.72616700  0.10116700  1
  Ni  Ni70  1  0.12404200  0.14522200  0.33295700  1
  Ni  Ni71  1  0.62500000  0.52383300  0.39883300  1
  Ni  Ni72  1  0.26113000  0.15379500  0.15706800  1
  Ni  Ni73  1  0.47616700  0.87500000  0.10116700  1
  Ni  Ni74  1  0.43773500  0.60477800  0.47882000  1
  Ni  Ni75  1  0.84620500  0.00327300  0.10733500  1
  Ni  Ni76  1  0.24150600  0.02393400  0.85884700  1
  Ni  Ni77  1  0.27393400  0.99150600  0.35884700  1
  Ni  Ni78  1  0.89522200  0.06226500  0.52118000  1
  Ni  Ni79  1  0.89593800  0.73887000  0.89266500  1
  Ni  Ni80  1  0.98887000  0.64593800  0.39266500  1
  Ni  Ni81  1  0.04108500  0.56226500  0.16704300  1
  Ni  Ni82  1  0.93773500  0.45891500  0.83295700  1
  Ni  Ni83  1  0.35406200  0.74672700  0.34293200  1
  Ni  Ni84  1  0.97606600  0.83491300  0.21757200  1
  Ni  Ni85  1  0.77393400  0.41508700  0.28242800  1
  Ni  Ni86  1  0.62404200  0.29108500  0.97882000  1
  Ni  Ni87  1  0.61734100  0.75849400  0.78242800  1
  Ni  Ni88  1  0.08491300  0.72606600  0.71757200  1
  Ni  Ni89  1  0.97616700  0.87500000  0.60116700  1
  Ni  Ni90  1  0.62595800  0.10477800  0.16704300  1
  Ni  Ni91  1  0.39522200  0.87404200  0.83295700  1
  Ni  Ni92  1  0.58491300  0.86734100  0.35884700  1
  Ni  Ni93  1  0.11734100  0.33491300  0.85884700  1
  Ni  Ni94  1  0.35477800  0.37595800  0.66704300  1
  Ni  Ni95  1  0.49672700  0.65379500  0.89266500  1
  Cu  Cu96  1  0.50000000  0.50000000  0.00000000  1
  Cu  Cu97  1  0.00000000  0.00000000  0.00000000  1
  Cu  Cu98  1  0.25000000  0.75000000  0.50000000  1
  Cu  Cu99  1  0.75000000  0.25000000  0.50000000  1
