# generated using pymatgen
data_CuNi3C5
_symmetry_space_group_name_H-M   'P 1'
_cell_length_a   6.50055200
_cell_length_b   10.88538800
_cell_length_c   11.01420928
_cell_angle_alpha   67.35609387
_cell_angle_beta   90.00000000
_cell_angle_gamma   90.00000000
_symmetry_Int_Tables_number   1
_chemical_formula_structural   CuNi3C5
_chemical_formula_sum   'Cu4 Ni12 C20'
_cell_volume   719.29889744
_cell_formula_units_Z   4
loop_
 _symmetry_equiv_pos_site_id
 _symmetry_equiv_pos_as_xyz
  1  'x, y, z'
loop_
 _atom_site_type_symbol
 _atom_site_label
 _atom_site_symmetry_multiplicity
 _atom_site_fract_x
 _atom_site_fract_y
 _atom_site_fract_z
 _atom_site_occupancy
  Ni  Ni0  1  0.65451500  0.03808400  0.33049400  1
  Ni  Ni1  1  0.12324100  0.32022800  0.60554100  1
  Ni  Ni2  1  0.38450800  0.54423400  0.31097200  1
  Ni  Ni3  1  0.11549200  0.54423400  0.81097200  1
  Ni  Ni4  1  0.84548500  0.03808400  0.83049400  1
  Ni  Ni5  1  0.61549200  0.45576600  0.68902800  1
  Ni  Ni6  1  0.87675900  0.67977200  0.39445900  1
  Ni  Ni7  1  0.15451500  0.96191600  0.16950600  1
  Ni  Ni8  1  0.62324100  0.67977200  0.89445900  1
  Ni  Ni9  1  0.37675900  0.32022800  0.10554100  1
  Ni  Ni10  1  0.34548500  0.96191600  0.66950600  1
  Ni  Ni11  1  0.88450800  0.45576600  0.18902800  1
  Cu  Cu12  1  0.61193100  0.87207000  0.10856100  1
  Cu  Cu13  1  0.38806900  0.12793000  0.89143900  1
  Cu  Cu14  1  0.88806900  0.87207000  0.60856100  1
  Cu  Cu15  1  0.11193100  0.12793000  0.39143900  1
  C  C16  1  0.36419400  0.75867600  0.48544000  1
  C  C17  1  0.63580600  0.24132400  0.51456000  1
  C  C18  1  0.86419400  0.24132400  0.01456000  1
  C  C19  1  0.13580600  0.75867600  0.98544000  1
  C  C20  1  0.97891000  0.20820700  0.17736100  1
  C  C21  1  0.47891000  0.79179300  0.32263900  1
  C  C22  1  0.25050900  0.59088400  0.04568100  1
  C  C23  1  0.16165500  0.88695900  0.46176800  1
  C  C24  1  0.74949100  0.40911600  0.95431900  1
  C  C25  1  0.42789700  0.23422300  0.40170100  1
  C  C26  1  0.66165500  0.11304100  0.03823200  1
  C  C27  1  0.02109000  0.79179300  0.82263900  1
  C  C28  1  0.75050900  0.40911600  0.45431900  1
  C  C29  1  0.07210300  0.23422300  0.90170100  1
  C  C30  1  0.33834500  0.88695900  0.96176800  1
  C  C31  1  0.83834500  0.11304100  0.53823200  1
  C  C32  1  0.57210300  0.76577700  0.59829900  1
  C  C33  1  0.24949100  0.59088400  0.54568100  1
  C  C34  1  0.52109000  0.20820700  0.67736100  1
  C  C35  1  0.92789700  0.76577700  0.09829900  1
