# generated using pymatgen
data_Cu34Ni5C56
_symmetry_space_group_name_H-M   'P 1'
_cell_length_a   5.70308256
_cell_length_b   5.70308256
_cell_length_c   32.82196810
_cell_angle_alpha   85.43960077
_cell_angle_beta   85.43960077
_cell_angle_gamma   60.51061662
_symmetry_Int_Tables_number   1
_chemical_formula_structural   Cu34Ni5C56
_chemical_formula_sum   'Cu34 Ni5 C56'
_cell_volume   925.29143731
_cell_formula_units_Z   1
loop_
 _symmetry_equiv_pos_site_id
 _symmetry_equiv_pos_as_xyz
  1  'x, y, z'
loop_
 _atom_site_type_symbol
 _atom_site_label
 _atom_site_symmetry_multiplicity
 _atom_site_fract_x
 _atom_site_fract_y
 _atom_site_fract_z
 _atom_site_occupancy
  Ni  Ni0  1  0.51457700  0.51457700  0.43766000  1
  Ni  Ni1  1  0.80265000  0.80265000  0.58579100  1
  Ni  Ni2  1  0.08771700  0.08771700  0.73260900  1
  Ni  Ni3  1  0.37400000  0.37400000  0.88019700  1
  Ni  Ni4  1  0.48488100  0.48488100  0.54635700  1
  Cu  Cu5  1  0.66375200  0.66375200  0.02816000  1
  Cu  Cu6  1  0.14595700  0.63915300  0.07677000  1
  Cu  Cu7  1  0.01832700  0.01832700  0.01035300  1
  Cu  Cu8  1  0.93429800  0.93429800  0.16009800  1
  Cu  Cu9  1  0.63915300  0.14595700  0.07677000  1
  Cu  Cu10  1  0.43001400  0.92637100  0.21321000  1
  Cu  Cu11  1  0.27666800  0.27666800  0.14416000  1
  Cu  Cu12  1  0.22010800  0.22010800  0.29825200  1
  Cu  Cu13  1  0.92637100  0.43001400  0.21321000  1
  Cu  Cu14  1  0.70728800  0.21536200  0.35198700  1
  Cu  Cu15  1  0.57176400  0.57176400  0.28321000  1
  Cu  Cu16  1  0.63737300  0.63737300  0.12827700  1
  Cu  Cu17  1  0.99809800  0.99809800  0.49599700  1
  Cu  Cu18  1  0.21536200  0.70728800  0.35198700  1
  Cu  Cu19  1  0.99867600  0.50366700  0.49569200  1
  Cu  Cu20  1  0.85009100  0.85009100  0.42278700  1
  Cu  Cu21  1  0.91841700  0.91841700  0.26792600  1
  Cu  Cu22  1  0.28257700  0.28257700  0.64126500  1
  Cu  Cu23  1  0.50366700  0.99867600  0.49569200  1
  Cu  Cu24  1  0.28208100  0.79265400  0.64119700  1
  Cu  Cu25  1  0.14390200  0.14390200  0.56744300  1
  Cu  Cu26  1  0.19990800  0.19990800  0.40545700  1
  Cu  Cu27  1  0.56785600  0.56785600  0.78782900  1
  Cu  Cu28  1  0.79265400  0.28208100  0.64119700  1
  Cu  Cu29  1  0.42792800  0.42792800  0.71615900  1
  Cu  Cu30  1  0.56746000  0.07793200  0.78774600  1
  Cu  Cu31  1  0.85593700  0.85593700  0.93331100  1
  Cu  Cu32  1  0.07793200  0.56746000  0.78774600  1
  Cu  Cu33  1  0.85426900  0.36469700  0.93316600  1
  Cu  Cu34  1  0.71405000  0.71405000  0.86210900  1
  Cu  Cu35  1  0.76831800  0.76831800  0.69741400  1
  Cu  Cu36  1  0.36469700  0.85426900  0.93316600  1
  Cu  Cu37  1  0.05451100  0.05451100  0.84247200  1
  Cu  Cu38  1  0.34930200  0.34930200  0.98729000  1
  C  C39  1  0.31801000  0.80815700  0.03337400  1
  C  C40  1  0.95580500  0.95580500  0.10330700  1
  C  C41  1  0.80815700  0.31801000  0.03337400  1
  C  C42  1  0.84104300  0.84104300  0.03381100  1
  C  C43  1  0.58399900  0.09252600  0.17482600  1
  C  C44  1  0.46368800  0.46368800  0.10549000  1
  C  C45  1  0.23807800  0.23807800  0.24377200  1
  C  C46  1  0.47392300  0.97628400  0.10533500  1
  C  C47  1  0.09252600  0.58399900  0.17482600  1
  C  C48  1  0.33619900  0.33619900  0.03904300  1
  C  C49  1  0.97628400  0.47392300  0.10533500  1
  C  C50  1  0.10794600  0.10794600  0.17696000  1
  C  C51  1  0.87415700  0.37653600  0.31717000  1
  C  C52  1  0.74638500  0.74638500  0.24798700  1
  C  C53  1  0.76196400  0.26779100  0.24972200  1
  C  C54  1  0.52288400  0.52288400  0.38068100  1
  C  C55  1  0.37653600  0.87415700  0.31717000  1
  C  C56  1  0.61497700  0.61497700  0.18170200  1
  C  C57  1  0.26779100  0.76196400  0.24972200  1
  C  C58  1  0.39005000  0.39005000  0.31817800  1
  C  C59  1  0.14999900  0.69124100  0.46686000  1
  C  C60  1  0.02540700  0.02540700  0.39229400  1
  C  C61  1  0.82111300  0.82111300  0.52863000  1
  C  C62  1  0.69124100  0.14999900  0.46686000  1
  C  C63  1  0.04808800  0.54852200  0.39499900  1
  C  C64  1  0.89862300  0.89862300  0.32336800  1
  C  C65  1  0.54852200  0.04808800  0.39499900  1
  C  C66  1  0.68949600  0.68949600  0.46547800  1
  C  C67  1  0.43137400  0.97848800  0.61030700  1
  C  C68  1  0.30165000  0.30165000  0.53364400  1
  C  C69  1  0.10884400  0.10884400  0.67361900  1
  C  C70  1  0.97848800  0.43137400  0.61030700  1
  C  C71  1  0.17579400  0.17579400  0.46630700  1
  C  C72  1  0.30127200  0.86144200  0.53363900  1
  C  C73  1  0.86144200  0.30127200  0.53363900  1
  C  C74  1  0.97765100  0.97765100  0.61024400  1
  C  C75  1  0.71302800  0.26687000  0.75429000  1
  C  C76  1  0.59668600  0.59668600  0.68052800  1
  C  C77  1  0.59687500  0.12645700  0.68042100  1
  C  C78  1  0.46111000  0.46111000  0.61577900  1
  C  C79  1  0.39435600  0.39435600  0.81879100  1
  C  C80  1  0.26687000  0.71302800  0.75429000  1
  C  C81  1  0.12645700  0.59687500  0.68042100  1
  C  C82  1  0.26599200  0.26599200  0.75413000  1
  C  C83  1  0.99662700  0.55528800  0.89704900  1
  C  C84  1  0.88250800  0.88250800  0.82230400  1
  C  C85  1  0.68327700  0.68327700  0.96330700  1
  C  C86  1  0.88214300  0.41620100  0.82215300  1
  C  C87  1  0.55528800  0.99662700  0.89704900  1
  C  C88  1  0.74872100  0.74872100  0.75555900  1
  C  C89  1  0.55598300  0.55598300  0.89675200  1
  C  C90  1  0.41620100  0.88214300  0.82215300  1
  C  C91  1  0.17362200  0.17362200  0.96380100  1
  C  C92  1  0.17770900  0.69276300  0.96081200  1
  C  C93  1  0.03763400  0.03763400  0.89768200  1
  C  C94  1  0.69276300  0.17770900  0.96081200  1
