# generated using pymatgen
data_Cu5NiC2
_symmetry_space_group_name_H-M   'P 1'
_cell_length_a   10.11478521
_cell_length_b   10.11478521
_cell_length_c   6.90934136
_cell_angle_alpha   81.72490360
_cell_angle_beta   81.72490360
_cell_angle_gamma   43.43370366
_symmetry_Int_Tables_number   1
_chemical_formula_structural   Cu5NiC2
_chemical_formula_sum   'Cu10 Ni2 C4'
_cell_volume   480.12769810
_cell_formula_units_Z   2
loop_
 _symmetry_equiv_pos_site_id
 _symmetry_equiv_pos_as_xyz
  1  'x, y, z'
loop_
 _atom_site_type_symbol
 _atom_site_label
 _atom_site_symmetry_multiplicity
 _atom_site_fract_x
 _atom_site_fract_y
 _atom_site_fract_z
 _atom_site_occupancy
  C  C0  1  0.73125300  0.73125300  0.76650400  1
  C  C1  1  0.26874700  0.26874700  0.23349600  1
  C  C2  1  0.72315700  0.27684300  0.00000000  1
  C  C3  1  0.27684300  0.72315700  0.00000000  1
  Ni  Ni4  1  0.86390700  0.86390700  0.21130700  1
  Ni  Ni5  1  0.13609300  0.13609300  0.78869300  1
  Cu  Cu6  1  0.08349700  0.08349700  0.10618900  1
  Cu  Cu7  1  0.55822800  0.55822800  0.18293200  1
  Cu  Cu8  1  0.32482900  0.84549900  0.67266700  1
  Cu  Cu9  1  0.91650300  0.91650300  0.89381100  1
  Cu  Cu10  1  0.67517100  0.15450100  0.32733300  1
  Cu  Cu11  1  0.84549900  0.32482900  0.67266700  1
  Cu  Cu12  1  0.44177200  0.44177200  0.81706800  1
  Cu  Cu13  1  0.74677600  0.74677600  0.25758300  1
  Cu  Cu14  1  0.15450100  0.67517100  0.32733300  1
  Cu  Cu15  1  0.25322400  0.25322400  0.74241700  1
