# generated using pymatgen
data_Cu8Ni5C3
_symmetry_space_group_name_H-M   'P 1'
_cell_length_a   14.00171700
_cell_length_b   10.34632500
_cell_length_c   12.53122660
_cell_angle_alpha   74.39113794
_cell_angle_beta   90.00000000
_cell_angle_gamma   90.00000000
_symmetry_Int_Tables_number   1
_chemical_formula_structural   Cu8Ni5C3
_chemical_formula_sum   'Cu32 Ni20 C12'
_cell_volume   1748.40415476
_cell_formula_units_Z   4
loop_
 _symmetry_equiv_pos_site_id
 _symmetry_equiv_pos_as_xyz
  1  'x, y, z'
loop_
 _atom_site_type_symbol
 _atom_site_label
 _atom_site_symmetry_multiplicity
 _atom_site_fract_x
 _atom_site_fract_y
 _atom_site_fract_z
 _atom_site_occupancy
  C  C0  1  0.24751900  0.30561100  0.33137300  1
  C  C1  1  0.74751900  0.69438900  0.16862700  1
  C  C2  1  0.75248100  0.69438900  0.66862700  1
  C  C3  1  0.25248100  0.30561100  0.83137300  1
  C  C4  1  0.18424200  0.05542500  0.11699700  1
  C  C5  1  0.81575800  0.94457500  0.88300300  1
  C  C6  1  0.05721700  0.59534800  0.70579800  1
  C  C7  1  0.68424200  0.94457500  0.38300300  1
  C  C8  1  0.55721700  0.40465200  0.79420200  1
  C  C9  1  0.44278300  0.59534800  0.20579800  1
  C  C10  1  0.94278300  0.40465200  0.29420200  1
  C  C11  1  0.31575800  0.05542500  0.61699700  1
  Ni  Ni12  1  0.45577100  0.88625200  0.45167400  1
  Ni  Ni13  1  0.54422900  0.11374800  0.54832600  1
  Ni  Ni14  1  0.73727600  0.23325000  0.95943000  1
  Ni  Ni15  1  0.25527100  0.75703200  0.29766100  1
  Ni  Ni16  1  0.76272400  0.23325000  0.45943000  1
  Ni  Ni17  1  0.91082300  0.06051400  0.36011700  1
  Ni  Ni18  1  0.09501400  0.55882400  0.43067000  1
  Ni  Ni19  1  0.40498600  0.55882400  0.93067000  1
  Ni  Ni20  1  0.74472900  0.24296800  0.70233900  1
  Ni  Ni21  1  0.95577100  0.11374800  0.04832600  1
  Ni  Ni22  1  0.90498600  0.44117600  0.56933000  1
  Ni  Ni23  1  0.26272400  0.76675000  0.04057000  1
  Ni  Ni24  1  0.23727600  0.76675000  0.54057000  1
  Ni  Ni25  1  0.08917700  0.93948600  0.63988300  1
  Ni  Ni26  1  0.04422900  0.88625200  0.95167400  1
  Ni  Ni27  1  0.59501400  0.44117600  0.06933000  1
  Ni  Ni28  1  0.75527100  0.24296800  0.20233900  1
  Ni  Ni29  1  0.24472900  0.75703200  0.79766100  1
  Ni  Ni30  1  0.41082300  0.93948600  0.13988300  1
  Ni  Ni31  1  0.58917700  0.06051400  0.86011700  1
  Cu  Cu32  1  0.69238100  0.02220700  0.52711900  1
  Cu  Cu33  1  0.90197900  0.77910700  0.92904500  1
  Cu  Cu34  1  0.62663700  0.41105300  0.64863000  1
  Cu  Cu35  1  0.86742400  0.08149900  0.74625200  1
  Cu  Cu36  1  0.46674600  0.56638200  0.75664200  1
  Cu  Cu37  1  0.87336300  0.41105300  0.14863000  1
  Cu  Cu38  1  0.98542400  0.76721000  0.62844500  1
  Cu  Cu39  1  0.48542400  0.23279000  0.87155500  1
  Cu  Cu40  1  0.66825600  0.44656700  0.90106500  1
  Cu  Cu41  1  0.03325400  0.56638200  0.25664200  1
  Cu  Cu42  1  0.37336300  0.58894700  0.35137000  1
  Cu  Cu43  1  0.59802100  0.77910700  0.42904500  1
  Cu  Cu44  1  0.09802100  0.22089300  0.07095500  1
  Cu  Cu45  1  0.63257600  0.08149900  0.24625200  1
  Cu  Cu46  1  0.83174400  0.44656700  0.40106500  1
  Cu  Cu47  1  0.01457600  0.23279000  0.37155500  1
  Cu  Cu48  1  0.31845600  0.13113300  0.13017200  1
  Cu  Cu49  1  0.33174400  0.55343300  0.09893500  1
  Cu  Cu50  1  0.18154400  0.13113300  0.63017200  1
  Cu  Cu51  1  0.16825600  0.55343300  0.59893500  1
  Cu  Cu52  1  0.53325400  0.43361800  0.24335800  1
  Cu  Cu53  1  0.36742400  0.91850100  0.75374800  1
  Cu  Cu54  1  0.13257600  0.91850100  0.25374800  1
  Cu  Cu55  1  0.30761900  0.97779300  0.47288100  1
  Cu  Cu56  1  0.12663700  0.58894700  0.85137000  1
  Cu  Cu57  1  0.80761900  0.02220700  0.02711900  1
  Cu  Cu58  1  0.81845600  0.86886700  0.36982800  1
  Cu  Cu59  1  0.40197900  0.22089300  0.57095500  1
  Cu  Cu60  1  0.19238100  0.97779300  0.97288100  1
  Cu  Cu61  1  0.51457600  0.76721000  0.12844500  1
  Cu  Cu62  1  0.68154400  0.86886700  0.86982800  1
  Cu  Cu63  1  0.96674600  0.43361800  0.74335800  1
