# generated using pymatgen
data_Cu3(NiC)2
_symmetry_space_group_name_H-M   'P 1'
_cell_length_a   13.23493618
_cell_length_b   13.23493618
_cell_length_c   9.54030000
_cell_angle_alpha   90.00000000
_cell_angle_beta   90.00000000
_cell_angle_gamma   120.00000089
_symmetry_Int_Tables_number   1
_chemical_formula_structural   Cu3(NiC)2
_chemical_formula_sum   'Cu36 Ni24 C24'
_cell_volume   1447.22601977
_cell_formula_units_Z   12
loop_
 _symmetry_equiv_pos_site_id
 _symmetry_equiv_pos_as_xyz
  1  'x, y, z'
loop_
 _atom_site_type_symbol
 _atom_site_label
 _atom_site_symmetry_multiplicity
 _atom_site_fract_x
 _atom_site_fract_y
 _atom_site_fract_z
 _atom_site_occupancy
  C  C0  1  0.33333300  0.66666700  0.96695200  1
  C  C1  1  0.88339300  0.43549300  0.35232600  1
  C  C2  1  0.00000000  0.00000000  0.42145900  1
  C  C3  1  0.55120900  0.76305300  0.78574400  1
  C  C4  1  0.93908400  0.78806400  0.09954300  1
  C  C5  1  0.21184400  0.76305300  0.28574400  1
  C  C6  1  0.21184400  0.44879100  0.78574400  1
  C  C7  1  0.88339300  0.44790000  0.85232600  1
  C  C8  1  0.66666700  0.33333300  0.53227200  1
  C  C9  1  0.66666700  0.33333300  0.03227200  1
  C  C10  1  0.93908400  0.15102000  0.59954300  1
  C  C11  1  0.55210000  0.11660700  0.35232600  1
  C  C12  1  0.84898000  0.78806400  0.59954300  1
  C  C13  1  0.55210000  0.43549300  0.85232600  1
  C  C14  1  0.56450700  0.11660700  0.85232600  1
  C  C15  1  0.21193600  0.06091600  0.59954300  1
  C  C16  1  0.21193600  0.15102000  0.09954300  1
  C  C17  1  0.84898000  0.06091600  0.09954300  1
  C  C18  1  0.33333300  0.66666700  0.46695200  1
  C  C19  1  0.55120900  0.78815600  0.28574400  1
  C  C20  1  0.23694700  0.44879100  0.28574400  1
  C  C21  1  0.56450700  0.44790000  0.35232600  1
  C  C22  1  0.00000000  0.00000000  0.92145900  1
  C  C23  1  0.23694700  0.78815600  0.78574400  1
  Ni  Ni24  1  0.64407300  0.21318300  0.46902600  1
  Ni  Ni25  1  0.56911000  0.35592700  0.46902600  1
  Ni  Ni26  1  0.92132000  0.04772300  0.48499300  1
  Ni  Ni27  1  0.30243300  0.54393800  0.90410600  1
  Ni  Ni28  1  0.78681700  0.35592700  0.96902600  1
  Ni  Ni29  1  0.12640300  0.04772300  0.98499300  1
  Ni  Ni30  1  0.30243300  0.75849400  0.40410600  1
  Ni  Ni31  1  0.24150600  0.54393800  0.40410600  1
  Ni  Ni32  1  0.64407300  0.43089000  0.96902600  1
  Ni  Ni33  1  0.45606200  0.69756700  0.40410600  1
  Ni  Ni34  1  0.92132000  0.87359700  0.98499300  1
  Ni  Ni35  1  0.78681700  0.43089000  0.46902600  1
  Ni  Ni36  1  0.33333300  0.66666700  0.12173200  1
  Ni  Ni37  1  0.45606200  0.75849400  0.90410600  1
  Ni  Ni38  1  0.12640300  0.07868000  0.48499300  1
  Ni  Ni39  1  0.95227700  0.07868000  0.98499300  1
  Ni  Ni40  1  0.00000000  0.00000000  0.76677500  1
  Ni  Ni41  1  0.66666700  0.33333300  0.18703900  1
  Ni  Ni42  1  0.24150600  0.69756700  0.90410600  1
  Ni  Ni43  1  0.33333300  0.66666700  0.62173200  1
  Ni  Ni44  1  0.00000000  0.00000000  0.26677500  1
  Ni  Ni45  1  0.56911000  0.21318300  0.96902600  1
  Ni  Ni46  1  0.66666700  0.33333300  0.68703900  1
  Ni  Ni47  1  0.95227700  0.87359700  0.48499300  1
  Cu  Cu48  1  0.45122300  0.09956900  0.77039800  1
  Cu  Cu49  1  0.82022300  0.74709600  0.18225300  1
  Cu  Cu50  1  0.51010500  0.00568700  0.45366500  1
  Cu  Cu51  1  0.99431300  0.50441800  0.45366500  1
  Cu  Cu52  1  0.92687300  0.17977700  0.18225300  1
  Cu  Cu53  1  0.16964200  0.83267200  0.88615400  1
  Cu  Cu54  1  0.12394500  0.43218400  0.20479800  1
  Cu  Cu55  1  0.66303000  0.83035800  0.88615400  1
  Cu  Cu56  1  0.66303000  0.83267200  0.38615400  1
  Cu  Cu57  1  0.51010500  0.50441800  0.95366500  1
  Cu  Cu58  1  0.32311400  0.10987700  0.49768600  1
  Cu  Cu59  1  0.45122300  0.35165400  0.27039800  1
  Cu  Cu60  1  0.64834600  0.09956900  0.27039800  1
  Cu  Cu61  1  0.89012300  0.21323700  0.49768600  1
  Cu  Cu62  1  0.32311400  0.21323700  0.99768600  1
  Cu  Cu63  1  0.49558200  0.00568700  0.95366500  1
  Cu  Cu64  1  0.49558200  0.48989500  0.45366500  1
  Cu  Cu65  1  0.99431300  0.48989500  0.95366500  1
  Cu  Cu66  1  0.56781600  0.69176200  0.20479800  1
  Cu  Cu67  1  0.89012300  0.67688600  0.99768600  1
  Cu  Cu68  1  0.25290400  0.17977700  0.68225300  1
  Cu  Cu69  1  0.78676300  0.10987700  0.99768600  1
  Cu  Cu70  1  0.16732800  0.33697000  0.88615400  1
  Cu  Cu71  1  0.16964200  0.33697000  0.38615400  1
  Cu  Cu72  1  0.25290400  0.07312700  0.18225300  1
  Cu  Cu73  1  0.92687300  0.74709600  0.68225300  1
  Cu  Cu74  1  0.90043100  0.35165400  0.77039800  1
  Cu  Cu75  1  0.12394500  0.69176200  0.70479800  1
  Cu  Cu76  1  0.16732800  0.83035800  0.38615400  1
  Cu  Cu77  1  0.56781600  0.87605500  0.70479800  1
  Cu  Cu78  1  0.30823800  0.87605500  0.20479800  1
  Cu  Cu79  1  0.64834600  0.54877700  0.77039800  1
  Cu  Cu80  1  0.78676300  0.67688600  0.49768600  1
  Cu  Cu81  1  0.82022300  0.07312700  0.68225300  1
  Cu  Cu82  1  0.90043100  0.54877700  0.27039800  1
  Cu  Cu83  1  0.30823800  0.43218400  0.70479800  1
