# generated using pymatgen
data_Cu2Ni2C13
_symmetry_space_group_name_H-M   'P 1'
_cell_length_a   4.87244200
_cell_length_b   5.10379013
_cell_length_c   10.91368882
_cell_angle_alpha   87.55831130
_cell_angle_beta   102.28943457
_cell_angle_gamma   117.65810002
_symmetry_Int_Tables_number   1
_chemical_formula_structural   Cu2Ni2C13
_chemical_formula_sum   'Cu2 Ni2 C13'
_cell_volume   234.38435950
_cell_formula_units_Z   1
loop_
 _symmetry_equiv_pos_site_id
 _symmetry_equiv_pos_as_xyz
  1  'x, y, z'
loop_
 _atom_site_type_symbol
 _atom_site_label
 _atom_site_symmetry_multiplicity
 _atom_site_fract_x
 _atom_site_fract_y
 _atom_site_fract_z
 _atom_site_occupancy
  C  C0  1  0.50000000  0.50000000  0.00000000  1
  Ni  Ni1  1  0.05145900  0.28066100  0.32823500  1
  Ni  Ni2  1  0.94854100  0.71933900  0.67176500  1
  Cu  Cu3  1  0.05071200  0.76496200  0.84805400  1
  Cu  Cu4  1  0.94928800  0.23503800  0.15194600  1
  C  C5  1  0.09662000  0.05809600  0.87692300  1
  C  C6  1  0.90338000  0.94190400  0.12307700  1
  C  C7  1  0.22439000  0.48575400  0.11488200  1
  C  C8  1  0.65860300  0.27053000  0.11958600  1
  C  C9  1  0.77561000  0.51424600  0.88511800  1
  C  C10  1  0.34139700  0.72947000  0.88041400  1
  C  C11  1  0.66994700  0.72310100  0.62850100  1
  C  C12  1  0.33005300  0.27689900  0.37149900  1
  C  C13  1  0.82100000  0.05294700  0.37264500  1
  C  C14  1  0.07547500  0.53844000  0.36772700  1
  C  C15  1  0.17900000  0.94705300  0.62735500  1
  C  C16  1  0.92452500  0.46156000  0.63227300  1
