# generated using pymatgen
data_CuNi3C29
_symmetry_space_group_name_H-M   'P 1'
_cell_length_a   12.54874307
_cell_length_b   12.54874307
_cell_length_c   15.00677400
_cell_angle_alpha   90.00000000
_cell_angle_beta   90.00000000
_cell_angle_gamma   153.96310124
_symmetry_Int_Tables_number   1
_chemical_formula_structural   CuNi3C29
_chemical_formula_sum   'Cu2 Ni6 C58'
_cell_volume   1037.29607643
_cell_formula_units_Z   2
loop_
 _symmetry_equiv_pos_site_id
 _symmetry_equiv_pos_as_xyz
  1  'x, y, z'
loop_
 _atom_site_type_symbol
 _atom_site_label
 _atom_site_symmetry_multiplicity
 _atom_site_fract_x
 _atom_site_fract_y
 _atom_site_fract_z
 _atom_site_occupancy
  Ni  Ni0  1  0.68784500  0.17440300  0.38672100  1
  Ni  Ni1  1  0.17440300  0.68784500  0.61327900  1
  Ni  Ni2  1  0.17440300  0.68784500  0.88672100  1
  Ni  Ni3  1  0.84756400  0.01394200  0.25000000  1
  Ni  Ni4  1  0.01394200  0.84756400  0.75000000  1
  Ni  Ni5  1  0.68784500  0.17440300  0.11327900  1
  Cu  Cu6  1  0.46775000  0.24386100  0.25000000  1
  Cu  Cu7  1  0.24386100  0.46775000  0.75000000  1
  C  C8  1  0.61297700  0.39112000  0.53120100  1
  C  C9  1  0.39112000  0.61297700  0.03120100  1
  C  C10  1  0.61297700  0.39112000  0.96879900  1
  C  C11  1  0.39112000  0.61297700  0.46879900  1
  C  C12  1  0.00857000  0.00857000  0.50000000  1
  C  C13  1  0.00857000  0.00857000  0.00000000  1
  C  C14  1  0.81032700  0.11481600  0.94221200  1
  C  C15  1  0.11481600  0.81032700  0.44221200  1
  C  C16  1  0.44143900  0.44293000  0.35880300  1
  C  C17  1  0.09297300  0.71440000  0.25000000  1
  C  C18  1  0.81032700  0.11481600  0.55778800  1
  C  C19  1  0.71440000  0.09297300  0.75000000  1
  C  C20  1  0.44293000  0.44143900  0.64119700  1
  C  C21  1  0.44143900  0.44293000  0.14119700  1
  C  C22  1  0.11481600  0.81032700  0.05778800  1
  C  C23  1  0.28119800  0.64425900  0.25000000  1
  C  C24  1  0.44293000  0.44143900  0.85880300  1
  C  C25  1  0.64425900  0.28119800  0.75000000  1
  C  C26  1  0.79063800  0.97132400  0.53167700  1
  C  C27  1  0.66935100  0.72308800  0.11033200  1
  C  C28  1  0.18851600  0.87442000  0.33419000  1
  C  C29  1  0.54191600  0.92151600  0.96716300  1
  C  C30  1  0.81077300  0.43025300  0.25000000  1
  C  C31  1  0.97132400  0.79063800  0.46832300  1
  C  C32  1  0.19328100  0.29034900  0.12023600  1
  C  C33  1  0.78392200  0.28499300  0.75000000  1
  C  C34  1  0.40952500  0.30366700  0.08564800  1
  C  C35  1  0.99894000  0.35333000  0.25000000  1
  C  C36  1  0.29034900  0.19328100  0.62023600  1
  C  C37  1  0.92151600  0.54191600  0.03283700  1
  C  C38  1  0.44512800  0.75887400  0.33724700  1
  C  C39  1  0.36971500  0.02137400  0.00411900  1
  C  C40  1  0.87442000  0.18851600  0.83419000  1
  C  C41  1  0.30366700  0.40952500  0.58564800  1
  C  C42  1  0.30366700  0.40952500  0.91435200  1
  C  C43  1  0.72308800  0.66935100  0.88966800  1
  C  C44  1  0.35333000  0.99894000  0.75000000  1
  C  C45  1  0.43025300  0.81077300  0.75000000  1
  C  C46  1  0.19328100  0.29034900  0.37976400  1
  C  C47  1  0.18851600  0.87442000  0.16581000  1
  C  C48  1  0.72308800  0.66935100  0.61033200  1
  C  C49  1  0.75887400  0.44512800  0.83724700  1
  C  C50  1  0.79063800  0.97132400  0.96832300  1
  C  C51  1  0.46215600  0.43187100  0.25000000  1
  C  C52  1  0.54191600  0.92151600  0.53283700  1
  C  C53  1  0.28499300  0.78392200  0.25000000  1
  C  C54  1  0.36971500  0.02137400  0.49588100  1
  C  C55  1  0.44512800  0.75887400  0.16275300  1
  C  C56  1  0.92151600  0.54191600  0.46716300  1
  C  C57  1  0.02137500  0.36971500  0.99588100  1
  C  C58  1  0.66935100  0.72308800  0.38966800  1
  C  C59  1  0.40952500  0.30366700  0.41435200  1
  C  C60  1  0.87442000  0.18851600  0.66581000  1
  C  C61  1  0.29034900  0.19328100  0.87976400  1
  C  C62  1  0.97132400  0.79063800  0.03167700  1
  C  C63  1  0.75887400  0.44512800  0.66275300  1
  C  C64  1  0.43187100  0.46215600  0.75000000  1
  C  C65  1  0.02137500  0.36971500  0.50411900  1
