# generated using pymatgen
data_Cu3Ni3C11
_symmetry_space_group_name_H-M   'P 1'
_cell_length_a   9.52071200
_cell_length_b   9.52071200
_cell_length_c   9.52071200
_cell_angle_alpha   90.00000000
_cell_angle_beta   90.00000000
_cell_angle_gamma   90.00000000
_symmetry_Int_Tables_number   1
_chemical_formula_structural   Cu3Ni3C11
_chemical_formula_sum   'Cu12 Ni12 C44'
_cell_volume   862.99500901
_cell_formula_units_Z   4
loop_
 _symmetry_equiv_pos_site_id
 _symmetry_equiv_pos_as_xyz
  1  'x, y, z'
loop_
 _atom_site_type_symbol
 _atom_site_label
 _atom_site_symmetry_multiplicity
 _atom_site_fract_x
 _atom_site_fract_y
 _atom_site_fract_z
 _atom_site_occupancy
  Ni  Ni0  1  0.86763400  0.13236600  0.86763400  1
  Ni  Ni1  1  0.13236600  0.13236600  0.13236600  1
  Ni  Ni2  1  0.36763400  0.63236600  0.63236600  1
  Ni  Ni3  1  0.63236600  0.36763400  0.63236600  1
  Ni  Ni4  1  0.86763400  0.86763400  0.13236600  1
  Ni  Ni5  1  0.13236600  0.86763400  0.86763400  1
  Ni  Ni6  1  0.25000000  0.75000000  0.25000000  1
  Ni  Ni7  1  0.63236600  0.63236600  0.36763400  1
  Ni  Ni8  1  0.75000000  0.75000000  0.75000000  1
  Ni  Ni9  1  0.25000000  0.25000000  0.75000000  1
  Ni  Ni10  1  0.75000000  0.25000000  0.25000000  1
  Ni  Ni11  1  0.36763400  0.36763400  0.36763400  1
  Cu  Cu12  1  0.50000000  0.15783100  0.00000000  1
  Cu  Cu13  1  0.00000000  0.50000000  0.84216900  1
  Cu  Cu14  1  0.50000000  0.00000000  0.65783100  1
  Cu  Cu15  1  0.50000000  0.00000000  0.34216900  1
  Cu  Cu16  1  0.15783100  0.00000000  0.50000000  1
  Cu  Cu17  1  0.65783100  0.50000000  0.00000000  1
  Cu  Cu18  1  0.00000000  0.50000000  0.15783100  1
  Cu  Cu19  1  0.84216900  0.00000000  0.50000000  1
  Cu  Cu20  1  0.00000000  0.34216900  0.50000000  1
  Cu  Cu21  1  0.34216900  0.50000000  0.00000000  1
  Cu  Cu22  1  0.00000000  0.65783100  0.50000000  1
  Cu  Cu23  1  0.50000000  0.84216900  0.00000000  1
  C  C24  1  0.89705900  0.10294100  0.10294100  1
  C  C25  1  0.50000000  0.85528300  0.50000000  1
  C  C26  1  0.83138500  0.21167700  0.49467500  1
  C  C27  1  0.60294100  0.60294100  0.60294100  1
  C  C28  1  0.33138500  0.71167700  0.00532500  1
  C  C29  1  0.00000000  0.00000000  0.64471700  1
  C  C30  1  0.89705900  0.89705900  0.89705900  1
  C  C31  1  0.83138500  0.78832300  0.50532500  1
  C  C32  1  0.71167700  0.00532500  0.33138500  1
  C  C33  1  0.39705900  0.39705900  0.60294100  1
  C  C34  1  0.16861500  0.78832300  0.49467500  1
  C  C35  1  0.16861500  0.21167700  0.50532500  1
  C  C36  1  0.60294100  0.39705900  0.39705900  1
  C  C37  1  0.50532500  0.16861500  0.21167700  1
  C  C38  1  0.66861500  0.71167700  0.99467500  1
  C  C39  1  0.28832300  0.99467500  0.33138500  1
  C  C40  1  0.49467500  0.16861500  0.78832300  1
  C  C41  1  0.39705900  0.60294100  0.39705900  1
  C  C42  1  0.85528300  0.50000000  0.50000000  1
  C  C43  1  0.21167700  0.50532500  0.16861500  1
  C  C44  1  0.71167700  0.99467500  0.66861500  1
  C  C45  1  0.00532500  0.66861500  0.28832300  1
  C  C46  1  0.99467500  0.33138500  0.28832300  1
  C  C47  1  0.28832300  0.00532500  0.66861500  1
  C  C48  1  0.78832300  0.49467500  0.16861500  1
  C  C49  1  0.33138500  0.28832300  0.99467500  1
  C  C50  1  0.50532500  0.83138500  0.78832300  1
  C  C51  1  0.78832300  0.50532500  0.83138500  1
  C  C52  1  0.35528300  0.00000000  0.00000000  1
  C  C53  1  0.50000000  0.14471700  0.50000000  1
  C  C54  1  0.10294100  0.89705900  0.10294100  1
  C  C55  1  0.00000000  0.64471700  0.00000000  1
  C  C56  1  0.49467500  0.83138500  0.21167700  1
  C  C57  1  0.21167700  0.49467500  0.83138500  1
  C  C58  1  0.10294100  0.10294100  0.89705900  1
  C  C59  1  0.66861500  0.28832300  0.00532500  1
  C  C60  1  0.50000000  0.50000000  0.85528300  1
  C  C61  1  0.00000000  0.00000000  0.35528300  1
  C  C62  1  0.99467500  0.66861500  0.71167700  1
  C  C63  1  0.14471700  0.50000000  0.50000000  1
  C  C64  1  0.64471700  0.00000000  0.00000000  1
  C  C65  1  0.00532500  0.33138500  0.71167700  1
  C  C66  1  0.50000000  0.50000000  0.14471700  1
  C  C67  1  0.00000000  0.35528300  0.00000000  1
