# generated using pymatgen
data_Cu3NiC10
_symmetry_space_group_name_H-M   'P 1'
_cell_length_a   7.13363240
_cell_length_b   7.13363240
_cell_length_c   10.28601800
_cell_angle_alpha   90.00000000
_cell_angle_beta   90.00000000
_cell_angle_gamma   120.00000375
_symmetry_Int_Tables_number   1
_chemical_formula_structural   Cu3NiC10
_chemical_formula_sum   'Cu6 Ni2 C20'
_cell_volume   453.31422567
_cell_formula_units_Z   2
loop_
 _symmetry_equiv_pos_site_id
 _symmetry_equiv_pos_as_xyz
  1  'x, y, z'
loop_
 _atom_site_type_symbol
 _atom_site_label
 _atom_site_symmetry_multiplicity
 _atom_site_fract_x
 _atom_site_fract_y
 _atom_site_fract_z
 _atom_site_occupancy
  C  C0  1  0.33333300  0.66666700  0.00000000  1
  C  C1  1  0.33333300  0.66666700  0.50000000  1
  Ni  Ni2  1  0.66666700  0.33333300  0.00000000  1
  Ni  Ni3  1  0.66666700  0.33333300  0.50000000  1
  Cu  Cu4  1  0.07388500  0.28837400  0.25000000  1
  Cu  Cu5  1  0.21448900  0.92611500  0.25000000  1
  Cu  Cu6  1  0.71162600  0.78551100  0.25000000  1
  Cu  Cu7  1  0.71162600  0.92611500  0.75000000  1
  Cu  Cu8  1  0.21448900  0.28837400  0.75000000  1
  Cu  Cu9  1  0.07388500  0.78551100  0.75000000  1
  C  C10  1  0.26445900  0.19672400  0.25000000  1
  C  C11  1  0.93226400  0.73554100  0.25000000  1
  C  C12  1  0.80327600  0.06773600  0.25000000  1
  C  C13  1  0.80327600  0.73554100  0.75000000  1
  C  C14  1  0.93226400  0.19672400  0.75000000  1
  C  C15  1  0.26445900  0.06773600  0.75000000  1
  C  C16  1  0.10072700  0.43960200  0.11010600  1
  C  C17  1  0.33887500  0.89927300  0.38989400  1
  C  C18  1  0.56039800  0.66112500  0.38989400  1
  C  C19  1  0.56039800  0.66112500  0.11010600  1
  C  C20  1  0.33887500  0.89927300  0.11010600  1
  C  C21  1  0.56039800  0.89927300  0.88989400  1
  C  C22  1  0.33887500  0.43960200  0.88989400  1
  C  C23  1  0.10072700  0.66112500  0.88989400  1
  C  C24  1  0.33887500  0.43960200  0.61010600  1
  C  C25  1  0.10072700  0.66112500  0.61010600  1
  C  C26  1  0.10072700  0.43960200  0.38989400  1
  C  C27  1  0.56039800  0.89927300  0.61010600  1
