# generated using pymatgen
data_CuNiC6
_symmetry_space_group_name_H-M   'P 1'
_cell_length_a   11.91321100
_cell_length_b   6.39222100
_cell_length_c   6.54989478
_cell_angle_alpha   66.27610164
_cell_angle_beta   90.00000000
_cell_angle_gamma   90.00000000
_symmetry_Int_Tables_number   1
_chemical_formula_structural   CuNiC6
_chemical_formula_sum   'Cu4 Ni4 C24'
_cell_volume   456.63673767
_cell_formula_units_Z   4
loop_
 _symmetry_equiv_pos_site_id
 _symmetry_equiv_pos_as_xyz
  1  'x, y, z'
loop_
 _atom_site_type_symbol
 _atom_site_label
 _atom_site_symmetry_multiplicity
 _atom_site_fract_x
 _atom_site_fract_y
 _atom_site_fract_z
 _atom_site_occupancy
  C  C0  1  0.84928800  0.03741900  0.94660400  1
  C  C1  1  0.65071200  0.53741900  0.94660400  1
  C  C2  1  0.34928800  0.46258100  0.05339600  1
  C  C3  1  0.15071200  0.96258100  0.05339600  1
  Ni  Ni4  1  0.74523100  0.46189700  0.44097500  1
  Ni  Ni5  1  0.75476900  0.96189700  0.44097500  1
  Ni  Ni6  1  0.25476900  0.53810300  0.55902500  1
  Ni  Ni7  1  0.24523100  0.03810300  0.55902500  1
  Cu  Cu8  1  0.99779800  0.31996400  0.31789800  1
  Cu  Cu9  1  0.00220200  0.68003600  0.68210200  1
  Cu  Cu10  1  0.50220200  0.81996400  0.31789800  1
  Cu  Cu11  1  0.49779800  0.18003600  0.68210200  1
  C  C12  1  0.67447900  0.27944400  0.71269600  1
  C  C13  1  0.60474700  0.96543900  0.53550400  1
  C  C14  1  0.32552100  0.72055600  0.28730400  1
  C  C15  1  0.00731300  0.32737600  0.95505300  1
  C  C16  1  0.17447900  0.22055600  0.28730400  1
  C  C17  1  0.39525300  0.03456100  0.46449600  1
  C  C18  1  0.89525300  0.46543900  0.53550400  1
  C  C19  1  0.53235000  0.45282400  0.33530000  1
  C  C20  1  0.80483800  0.27750300  0.27857000  1
  C  C21  1  0.30483800  0.22249700  0.72143000  1
  C  C22  1  0.46765000  0.54717600  0.66470000  1
  C  C23  1  0.99268700  0.67262400  0.04494700  1
  C  C24  1  0.19516200  0.72249700  0.72143000  1
  C  C25  1  0.50731300  0.17262400  0.04494700  1
  C  C26  1  0.96765000  0.95282400  0.33530000  1
  C  C27  1  0.69516200  0.77750300  0.27857000  1
  C  C28  1  0.03235000  0.04717600  0.66470000  1
  C  C29  1  0.82552100  0.77944400  0.71269600  1
  C  C30  1  0.10474700  0.53456100  0.46449600  1
  C  C31  1  0.49268700  0.82737600  0.95505300  1
