# generated using pymatgen
data_Cu4Ni2C3
_symmetry_space_group_name_H-M   'P 1'
_cell_length_a   14.19851511
_cell_length_b   14.19851511
_cell_length_c   18.90317900
_cell_angle_alpha   90.00000000
_cell_angle_beta   90.00000000
_cell_angle_gamma   126.77038523
_symmetry_Int_Tables_number   1
_chemical_formula_structural   Cu4Ni2C3
_chemical_formula_sum   'Cu48 Ni24 C36'
_cell_volume   3052.63855840
_cell_formula_units_Z   12
loop_
 _symmetry_equiv_pos_site_id
 _symmetry_equiv_pos_as_xyz
  1  'x, y, z'
loop_
 _atom_site_type_symbol
 _atom_site_label
 _atom_site_symmetry_multiplicity
 _atom_site_fract_x
 _atom_site_fract_y
 _atom_site_fract_z
 _atom_site_occupancy
  C  C0  1  0.29296800  0.12664100  0.63191400  1
  C  C1  1  0.93556500  0.93556500  0.72867300  1
  C  C2  1  0.28178100  0.61919500  0.75939000  1
  C  C3  1  0.78178100  0.11919500  0.74061000  1
  C  C4  1  0.45428100  0.96597100  0.87264100  1
  C  C5  1  0.71821900  0.38080500  0.24061000  1
  C  C6  1  0.62664100  0.79296800  0.86808600  1
  C  C7  1  0.70703200  0.87335900  0.36808600  1
  C  C8  1  0.38080500  0.71821900  0.24061000  1
  C  C9  1  0.06443500  0.06443500  0.27132700  1
  C  C10  1  0.43556500  0.43556500  0.77132700  1
  C  C11  1  0.88080500  0.21821900  0.25939000  1
  C  C12  1  0.54571900  0.03402900  0.12735900  1
  C  C13  1  0.12664100  0.29296800  0.63191400  1
  C  C14  1  0.20703200  0.37335900  0.13191400  1
  C  C15  1  0.00000000  0.00000000  0.00000000  1
  C  C16  1  0.95428100  0.46597100  0.62735900  1
  C  C17  1  0.17532500  0.82467500  0.50000000  1
  C  C18  1  0.03402900  0.54571900  0.12735900  1
  C  C19  1  0.11919500  0.78178100  0.74061000  1
  C  C20  1  0.61919500  0.28178100  0.75939000  1
  C  C21  1  0.79296800  0.62664100  0.86808600  1
  C  C22  1  0.53402900  0.04571900  0.37264100  1
  C  C23  1  0.82467500  0.17532500  0.50000000  1
  C  C24  1  0.04571900  0.53402900  0.37264100  1
  C  C25  1  0.37335900  0.20703200  0.13191400  1
  C  C26  1  0.96597100  0.45428100  0.87264100  1
  C  C27  1  0.56443500  0.56443500  0.22867300  1
  C  C28  1  0.50000000  0.50000000  0.00000000  1
  C  C29  1  0.50000000  0.50000000  0.50000000  1
  C  C30  1  0.87335900  0.70703200  0.36808600  1
  C  C31  1  0.67532500  0.32467500  0.00000000  1
  C  C32  1  0.46597100  0.95428100  0.62735900  1
  C  C33  1  0.32467500  0.67532500  0.00000000  1
  C  C34  1  0.21821900  0.88080500  0.25939000  1
  C  C35  1  0.00000000  0.00000000  0.50000000  1
  Ni  Ni36  1  0.93627000  0.76564400  0.17833200  1
  Ni  Ni37  1  0.23435600  0.06373000  0.82166800  1
  Ni  Ni38  1  0.79167600  0.62750300  0.06459000  1
  Ni  Ni39  1  0.22756800  0.90370200  0.06098900  1
  Ni  Ni40  1  0.20832400  0.37249700  0.93541000  1
  Ni  Ni41  1  0.12750300  0.29167600  0.43541000  1
  Ni  Ni42  1  0.59629800  0.27243200  0.56098900  1
  Ni  Ni43  1  0.43627000  0.26564400  0.32166800  1
  Ni  Ni44  1  0.26564400  0.43627000  0.32166800  1
  Ni  Ni45  1  0.56373000  0.73435600  0.67833200  1
  Ni  Ni46  1  0.06373000  0.23435600  0.82166800  1
  Ni  Ni47  1  0.70832400  0.87249700  0.56459000  1
  Ni  Ni48  1  0.37249700  0.20832400  0.93541000  1
  Ni  Ni49  1  0.62750300  0.79167600  0.06459000  1
  Ni  Ni50  1  0.09629800  0.77243200  0.93901100  1
  Ni  Ni51  1  0.29167600  0.12750300  0.43541000  1
  Ni  Ni52  1  0.90370200  0.22756800  0.06098900  1
  Ni  Ni53  1  0.73435600  0.56373000  0.67833200  1
  Ni  Ni54  1  0.87249700  0.70832400  0.56459000  1
  Ni  Ni55  1  0.77243200  0.09629800  0.93901100  1
  Ni  Ni56  1  0.40370200  0.72756800  0.43901100  1
  Ni  Ni57  1  0.76564400  0.93627000  0.17833200  1
  Ni  Ni58  1  0.27243200  0.59629800  0.56098900  1
  Ni  Ni59  1  0.72756800  0.40370200  0.43901100  1
  Cu  Cu60  1  0.70549100  0.21381000  0.62676200  1
  Cu  Cu61  1  0.46528700  0.61932400  0.36454000  1
  Cu  Cu62  1  0.71381000  0.20549100  0.87323800  1
  Cu  Cu63  1  0.79450900  0.28619000  0.12676200  1
  Cu  Cu64  1  0.53471300  0.38067600  0.63546000  1
  Cu  Cu65  1  0.05813000  0.88432300  0.61562700  1
  Cu  Cu66  1  0.78619000  0.29450900  0.37323800  1
  Cu  Cu67  1  0.11567700  0.94187000  0.38437300  1
  Cu  Cu68  1  0.61567700  0.44187000  0.11562700  1
  Cu  Cu69  1  0.91951200  0.58885000  0.48967900  1
  Cu  Cu70  1  0.74990500  0.74990500  0.98714800  1
  Cu  Cu71  1  0.20549100  0.71381000  0.87323800  1
  Cu  Cu72  1  0.81592500  0.81592500  0.25055000  1
  Cu  Cu73  1  0.08048800  0.41115000  0.51032100  1
  Cu  Cu74  1  0.13629000  0.46496000  0.24847600  1
  Cu  Cu75  1  0.91115000  0.58048800  0.98967900  1
  Cu  Cu76  1  0.03504000  0.36371000  0.74847600  1
  Cu  Cu77  1  0.94187000  0.11567700  0.38437300  1
  Cu  Cu78  1  0.36371000  0.03504000  0.74847600  1
  Cu  Cu79  1  0.21381000  0.70549100  0.62676200  1
  Cu  Cu80  1  0.03471300  0.88067600  0.86454000  1
  Cu  Cu81  1  0.18407500  0.18407500  0.74945000  1
  Cu  Cu82  1  0.24990500  0.24990500  0.51285200  1
  Cu  Cu83  1  0.63629000  0.96496000  0.25152400  1
  Cu  Cu84  1  0.58048800  0.91115000  0.98967900  1
  Cu  Cu85  1  0.38067600  0.53471300  0.63546000  1
  Cu  Cu86  1  0.28619000  0.79450900  0.12676200  1
  Cu  Cu87  1  0.68407500  0.68407500  0.75055000  1
  Cu  Cu88  1  0.31592500  0.31592500  0.24945000  1
  Cu  Cu89  1  0.96496000  0.63629000  0.25152400  1
  Cu  Cu90  1  0.25009500  0.25009500  0.01285200  1
  Cu  Cu91  1  0.86371000  0.53504000  0.75152400  1
  Cu  Cu92  1  0.53504000  0.86371000  0.75152400  1
  Cu  Cu93  1  0.75009500  0.75009500  0.48714800  1
  Cu  Cu94  1  0.44187000  0.61567700  0.11562700  1
  Cu  Cu95  1  0.88432300  0.05813000  0.61562700  1
  Cu  Cu96  1  0.46496000  0.13629000  0.24847600  1
  Cu  Cu97  1  0.11932400  0.96528700  0.13546000  1
  Cu  Cu98  1  0.58885000  0.91951200  0.48967900  1
  Cu  Cu99  1  0.61932400  0.46528700  0.36454000  1
  Cu  Cu100  1  0.96528700  0.11932400  0.13546000  1
  Cu  Cu101  1  0.38432300  0.55813000  0.88437300  1
  Cu  Cu102  1  0.29450900  0.78619000  0.37323800  1
  Cu  Cu103  1  0.88067600  0.03471300  0.86454000  1
  Cu  Cu104  1  0.41951200  0.08885000  0.01032100  1
  Cu  Cu105  1  0.55813000  0.38432300  0.88437300  1
  Cu  Cu106  1  0.41115000  0.08048800  0.51032100  1
  Cu  Cu107  1  0.08885000  0.41951200  0.01032100  1
