# generated using pymatgen
data_Cu(NiC2)6
_symmetry_space_group_name_H-M   'P 1'
_cell_length_a   9.82662770
_cell_length_b   9.82662770
_cell_length_c   13.38672079
_cell_angle_alpha   81.53844648
_cell_angle_beta   81.53844648
_cell_angle_gamma   121.12073673
_symmetry_Int_Tables_number   1
_chemical_formula_structural   Cu(NiC2)6
_chemical_formula_sum   'Cu2 Ni12 C24'
_cell_volume   1055.86250452
_cell_formula_units_Z   2
loop_
 _symmetry_equiv_pos_site_id
 _symmetry_equiv_pos_as_xyz
  1  'x, y, z'
loop_
 _atom_site_type_symbol
 _atom_site_label
 _atom_site_symmetry_multiplicity
 _atom_site_fract_x
 _atom_site_fract_y
 _atom_site_fract_z
 _atom_site_occupancy
  C  C0  1  0.13385200  0.76466300  0.14877600  1
  C  C1  1  0.79255600  0.86448500  0.78681900  1
  C  C2  1  0.86448500  0.79255600  0.28681900  1
  C  C3  1  0.86614800  0.23533700  0.85122400  1
  C  C4  1  0.76466300  0.13385200  0.64877600  1
  C  C5  1  0.13551500  0.20744400  0.71318100  1
  C  C6  1  0.20744400  0.13551500  0.21318100  1
  C  C7  1  0.23533700  0.86614800  0.35122400  1
  C  C8  1  0.86604900  0.72402100  0.12077100  1
  C  C9  1  0.06913100  0.95229600  0.82385600  1
  C  C10  1  0.45168500  0.14951200  0.26597700  1
  C  C11  1  0.95229600  0.06913100  0.32385600  1
  C  C12  1  0.13395100  0.27597900  0.87922900  1
  C  C13  1  0.17045200  0.61236200  0.28914800  1
  C  C14  1  0.04770400  0.93086900  0.67614400  1
  C  C15  1  0.27597900  0.13395100  0.37922900  1
  C  C16  1  0.61236200  0.17045200  0.78914800  1
  C  C17  1  0.93086900  0.04770400  0.17614400  1
  C  C18  1  0.14951200  0.45168500  0.76597700  1
  C  C19  1  0.82954800  0.38763800  0.71085200  1
  C  C20  1  0.38763800  0.82954800  0.21085200  1
  C  C21  1  0.72402100  0.86604900  0.62077100  1
  C  C22  1  0.85048800  0.54831500  0.23402300  1
  C  C23  1  0.54831500  0.85048800  0.73402300  1
  Ni  Ni24  1  0.28554200  0.06765900  0.04638100  1
  Ni  Ni25  1  0.06765900  0.28554200  0.54638100  1
  Ni  Ni26  1  0.30895000  0.80141200  0.49132900  1
  Ni  Ni27  1  0.80141200  0.30895000  0.99132900  1
  Ni  Ni28  1  0.33848900  0.40351800  0.13810300  1
  Ni  Ni29  1  0.69105000  0.19858800  0.50867100  1
  Ni  Ni30  1  0.59648200  0.66151100  0.36189700  1
  Ni  Ni31  1  0.93234100  0.71445800  0.45361900  1
  Ni  Ni32  1  0.66151100  0.59648200  0.86189700  1
  Ni  Ni33  1  0.19858800  0.69105000  0.00867100  1
  Ni  Ni34  1  0.40351800  0.33848900  0.63810300  1
  Ni  Ni35  1  0.71445800  0.93234100  0.95361900  1
  Cu  Cu36  1  0.88968300  0.11031700  0.75000000  1
  Cu  Cu37  1  0.11031700  0.88968300  0.25000000  1
