# generated using pymatgen
data_Cu8NiC5
_symmetry_space_group_name_H-M   'P 1'
_cell_length_a   7.90467313
_cell_length_b   7.90467313
_cell_length_c   8.87446772
_cell_angle_alpha   82.59443645
_cell_angle_beta   82.59443645
_cell_angle_gamma   48.55016386
_symmetry_Int_Tables_number   1
_chemical_formula_structural   Cu8NiC5
_chemical_formula_sum   'Cu16 Ni2 C10'
_cell_volume   411.45010032
_cell_formula_units_Z   2
loop_
 _symmetry_equiv_pos_site_id
 _symmetry_equiv_pos_as_xyz
  1  'x, y, z'
loop_
 _atom_site_type_symbol
 _atom_site_label
 _atom_site_symmetry_multiplicity
 _atom_site_fract_x
 _atom_site_fract_y
 _atom_site_fract_z
 _atom_site_occupancy
  C  C0  1  0.71005700  0.91970400  0.17110000  1
  C  C1  1  0.91970400  0.71005700  0.67110000  1
  C  C2  1  0.57370100  0.42629900  0.75000000  1
  C  C3  1  0.28994300  0.08029600  0.82890000  1
  C  C4  1  0.08029600  0.28994300  0.32890000  1
  C  C5  1  0.42629900  0.57370100  0.25000000  1
  C  C6  1  0.39652500  0.28760100  0.52526000  1
  C  C7  1  0.60347500  0.71239900  0.47474000  1
  C  C8  1  0.71239900  0.60347500  0.97474000  1
  C  C9  1  0.28760100  0.39652500  0.02526000  1
  Ni  Ni10  1  0.02440200  0.97559800  0.75000000  1
  Ni  Ni11  1  0.97559800  0.02440200  0.25000000  1
  Cu  Cu12  1  0.76795800  0.54107600  0.15463400  1
  Cu  Cu13  1  0.23204200  0.45892400  0.84536600  1
  Cu  Cu14  1  0.70417900  0.81741100  0.91871900  1
  Cu  Cu15  1  0.54868000  0.29573200  0.03184300  1
  Cu  Cu16  1  0.18258900  0.29582100  0.58128100  1
  Cu  Cu17  1  0.54107600  0.76795800  0.65463400  1
  Cu  Cu18  1  0.59568100  0.11855900  0.64441100  1
  Cu  Cu19  1  0.29582100  0.18258900  0.08128100  1
  Cu  Cu20  1  0.81741100  0.70417900  0.41871900  1
  Cu  Cu21  1  0.40431900  0.88144100  0.35558900  1
  Cu  Cu22  1  0.45892400  0.23204200  0.34536600  1
  Cu  Cu23  1  0.70426800  0.45132000  0.46815700  1
  Cu  Cu24  1  0.11855900  0.59568100  0.14441100  1
  Cu  Cu25  1  0.88144100  0.40431900  0.85558900  1
  Cu  Cu26  1  0.29573200  0.54868000  0.53184300  1
  Cu  Cu27  1  0.45132000  0.70426800  0.96815700  1
