# generated using pymatgen
data_Cu4Ni3C4
_symmetry_space_group_name_H-M   'P 1'
_cell_length_a   6.67624600
_cell_length_b   7.63882200
_cell_length_c   14.34444900
_cell_angle_alpha   90.00000000
_cell_angle_beta   90.00000000
_cell_angle_gamma   90.00000000
_symmetry_Int_Tables_number   1
_chemical_formula_structural   Cu4Ni3C4
_chemical_formula_sum   'Cu16 Ni12 C16'
_cell_volume   731.54760317
_cell_formula_units_Z   4
loop_
 _symmetry_equiv_pos_site_id
 _symmetry_equiv_pos_as_xyz
  1  'x, y, z'
loop_
 _atom_site_type_symbol
 _atom_site_label
 _atom_site_symmetry_multiplicity
 _atom_site_fract_x
 _atom_site_fract_y
 _atom_site_fract_z
 _atom_site_occupancy
  C  C0  1  0.77575900  0.74982300  0.58138400  1
  C  C1  1  0.22424100  0.24982300  0.41861600  1
  C  C2  1  0.72424100  0.24982300  0.08138400  1
  C  C3  1  0.27575900  0.74982300  0.91861600  1
  C  C4  1  0.21658600  0.00550200  0.65660800  1
  C  C5  1  0.78341400  0.50550200  0.34339200  1
  C  C6  1  0.28341400  0.50550200  0.15660800  1
  C  C7  1  0.71658600  0.00550200  0.84339200  1
  C  C8  1  0.22590100  0.49511600  0.66512500  1
  C  C9  1  0.77409900  0.99511600  0.33487500  1
  C  C10  1  0.27409900  0.99511600  0.16512500  1
  C  C11  1  0.72590100  0.49511600  0.83487500  1
  C  C12  1  0.81578400  0.26167000  0.57230500  1
  C  C13  1  0.18421600  0.76167000  0.42769500  1
  C  C14  1  0.68421600  0.76167000  0.07230500  1
  C  C15  1  0.31578400  0.26167000  0.92769500  1
  Ni  Ni16  1  0.50221100  0.75682200  0.72649600  1
  Ni  Ni17  1  0.49778900  0.25682200  0.27350400  1
  Ni  Ni18  1  0.99778900  0.25682200  0.22649600  1
  Ni  Ni19  1  0.00221100  0.75682200  0.77350400  1
  Ni  Ni20  1  0.54567900  0.24266300  0.70235400  1
  Ni  Ni21  1  0.45432100  0.74266300  0.29764600  1
  Ni  Ni22  1  0.95432100  0.74266300  0.20235400  1
  Ni  Ni23  1  0.04567900  0.24266300  0.79764600  1
  Ni  Ni24  1  0.47518800  0.97549500  0.49401800  1
  Ni  Ni25  1  0.52481200  0.47549500  0.50598200  1
  Ni  Ni26  1  0.02481200  0.47549500  0.99401800  1
  Ni  Ni27  1  0.97518800  0.97549500  0.00598200  1
  Cu  Cu28  1  0.85618900  0.24378500  0.43674100  1
  Cu  Cu29  1  0.14381100  0.74378500  0.56325900  1
  Cu  Cu30  1  0.64381100  0.74378500  0.93674100  1
  Cu  Cu31  1  0.35618900  0.24378500  0.06325900  1
  Cu  Cu32  1  0.87548500  0.02712100  0.61518300  1
  Cu  Cu33  1  0.12451500  0.52712100  0.38481700  1
  Cu  Cu34  1  0.62451500  0.52712100  0.11518300  1
  Cu  Cu35  1  0.37548500  0.02712100  0.88481700  1
  Cu  Cu36  1  0.88199500  0.47945800  0.63290400  1
  Cu  Cu37  1  0.11800500  0.97945800  0.36709600  1
  Cu  Cu38  1  0.61800500  0.97945800  0.13290400  1
  Cu  Cu39  1  0.38199500  0.47945800  0.86709600  1
  Cu  Cu40  1  0.13488300  0.25892600  0.57261100  1
  Cu  Cu41  1  0.86511700  0.75892600  0.42738900  1
  Cu  Cu42  1  0.36511700  0.75892600  0.07261100  1
  Cu  Cu43  1  0.63488300  0.25892600  0.92738900  1
