# generated using pymatgen
data_Cu3Ni2C3
_symmetry_space_group_name_H-M   'P 1'
_cell_length_a   3.96620300
_cell_length_b   6.84150100
_cell_length_c   21.52434100
_cell_angle_alpha   90.00000000
_cell_angle_beta   90.00000000
_cell_angle_gamma   90.00000000
_symmetry_Int_Tables_number   1
_chemical_formula_structural   Cu3Ni2C3
_chemical_formula_sum   'Cu12 Ni8 C12'
_cell_volume   584.05829622
_cell_formula_units_Z   4
loop_
 _symmetry_equiv_pos_site_id
 _symmetry_equiv_pos_as_xyz
  1  'x, y, z'
loop_
 _atom_site_type_symbol
 _atom_site_label
 _atom_site_symmetry_multiplicity
 _atom_site_fract_x
 _atom_site_fract_y
 _atom_site_fract_z
 _atom_site_occupancy
  C  C0  1  0.75000000  0.72264900  0.47363000  1
  C  C1  1  0.25000000  0.27735100  0.52637000  1
  C  C2  1  0.75000000  0.22264900  0.02637000  1
  C  C3  1  0.25000000  0.77735100  0.97363000  1
  C  C4  1  0.75000000  0.78559500  0.13305000  1
  C  C5  1  0.25000000  0.21440500  0.86695000  1
  C  C6  1  0.75000000  0.28559500  0.36695000  1
  C  C7  1  0.25000000  0.71440500  0.63305000  1
  C  C8  1  0.75000000  0.78998000  0.81171000  1
  C  C9  1  0.25000000  0.21002000  0.18829000  1
  C  C10  1  0.75000000  0.28998000  0.68829000  1
  C  C11  1  0.25000000  0.71002000  0.31171000  1
  Ni  Ni12  1  0.75000000  0.50459600  0.22915200  1
  Ni  Ni13  1  0.25000000  0.49540400  0.77084800  1
  Ni  Ni14  1  0.75000000  0.00459600  0.27084800  1
  Ni  Ni15  1  0.25000000  0.99540400  0.72915200  1
  Ni  Ni16  1  0.75000000  0.00451600  0.57845800  1
  Ni  Ni17  1  0.25000000  0.99548400  0.42154200  1
  Ni  Ni18  1  0.75000000  0.50451600  0.92154200  1
  Ni  Ni19  1  0.25000000  0.49548400  0.07845800  1
  Cu  Cu20  1  0.75000000  0.64109400  0.37202200  1
  Cu  Cu21  1  0.25000000  0.35890600  0.62797800  1
  Cu  Cu22  1  0.75000000  0.14109400  0.12797800  1
  Cu  Cu23  1  0.25000000  0.85890600  0.87202200  1
  Cu  Cu24  1  0.75000000  0.87230000  0.02491100  1
  Cu  Cu25  1  0.25000000  0.12770000  0.97508900  1
  Cu  Cu26  1  0.75000000  0.37230000  0.47508900  1
  Cu  Cu27  1  0.25000000  0.62770000  0.52491100  1
  Cu  Cu28  1  0.75000000  0.61741000  0.66492400  1
  Cu  Cu29  1  0.25000000  0.38259000  0.33507600  1
  Cu  Cu30  1  0.75000000  0.11741000  0.83507600  1
  Cu  Cu31  1  0.25000000  0.88259000  0.16492400  1
