# generated using pymatgen
data_CuNiC5
_symmetry_space_group_name_H-M   'P 1'
_cell_length_a   6.41325000
_cell_length_b   8.03721900
_cell_length_c   9.05999530
_cell_angle_alpha   64.11198686
_cell_angle_beta   90.00000000
_cell_angle_gamma   90.00000000
_symmetry_Int_Tables_number   1
_chemical_formula_structural   CuNiC5
_chemical_formula_sum   'Cu4 Ni4 C20'
_cell_volume   420.13137424
_cell_formula_units_Z   4
loop_
 _symmetry_equiv_pos_site_id
 _symmetry_equiv_pos_as_xyz
  1  'x, y, z'
loop_
 _atom_site_type_symbol
 _atom_site_label
 _atom_site_symmetry_multiplicity
 _atom_site_fract_x
 _atom_site_fract_y
 _atom_site_fract_z
 _atom_site_occupancy
  Ni  Ni0  1  0.50000000  0.00000000  0.50000000  1
  Ni  Ni1  1  0.00000000  0.50000000  0.00000000  1
  Ni  Ni2  1  0.50000000  0.50000000  0.50000000  1
  Ni  Ni3  1  0.00000000  0.00000000  0.00000000  1
  Cu  Cu4  1  0.54236900  0.75062800  0.99989500  1
  Cu  Cu5  1  0.04236900  0.24937200  0.50010500  1
  Cu  Cu6  1  0.95763100  0.75062800  0.49989500  1
  Cu  Cu7  1  0.45763100  0.24937200  0.00010500  1
  C  C8  1  0.70429800  0.05100300  0.98079700  1
  C  C9  1  0.79570200  0.05100300  0.48079700  1
  C  C10  1  0.60366200  0.74776800  0.50411900  1
  C  C11  1  0.89633800  0.74776800  0.00411900  1
  C  C12  1  0.70314400  0.45268100  0.00929000  1
  C  C13  1  0.29570200  0.94899700  0.01920300  1
  C  C14  1  0.79685600  0.45268100  0.50929000  1
  C  C15  1  0.02727100  0.10275400  0.77207600  1
  C  C16  1  0.51430800  0.61243100  0.27166300  1
  C  C17  1  0.97272900  0.89724600  0.22792400  1
  C  C18  1  0.20314400  0.54731900  0.49071000  1
  C  C19  1  0.39633800  0.25223200  0.49588100  1
  C  C20  1  0.47272900  0.10275400  0.27207600  1
  C  C21  1  0.52727100  0.89724600  0.72792400  1
  C  C22  1  0.48569200  0.38756900  0.72833700  1
  C  C23  1  0.20429800  0.94899700  0.51920300  1
  C  C24  1  0.10366200  0.25223200  0.99588100  1
  C  C25  1  0.98569200  0.61243100  0.77166300  1
  C  C26  1  0.29685600  0.54731900  0.99071000  1
  C  C27  1  0.01430800  0.38756900  0.22833700  1
