# generated using pymatgen
data_Cu3NiC2
_symmetry_space_group_name_H-M   'P 1'
_cell_length_a   4.88017120
_cell_length_b   4.88017120
_cell_length_c   8.74669300
_cell_angle_alpha   90.00000000
_cell_angle_beta   90.00000000
_cell_angle_gamma   119.99998912
_symmetry_Int_Tables_number   1
_chemical_formula_structural   Cu3NiC2
_chemical_formula_sum   'Cu9 Ni3 C6'
_cell_volume   180.40338311
_cell_formula_units_Z   3
loop_
 _symmetry_equiv_pos_site_id
 _symmetry_equiv_pos_as_xyz
  1  'x, y, z'
loop_
 _atom_site_type_symbol
 _atom_site_label
 _atom_site_symmetry_multiplicity
 _atom_site_fract_x
 _atom_site_fract_y
 _atom_site_fract_z
 _atom_site_occupancy
  Ni  Ni0  1  0.00000000  0.00000000  0.66666700  1
  Ni  Ni1  1  0.00000000  0.00000000  0.00000000  1
  Ni  Ni2  1  0.00000000  0.00000000  0.33333300  1
  Cu  Cu3  1  0.50000000  0.00000000  0.79134300  1
  Cu  Cu4  1  0.50000000  0.50000000  0.87532400  1
  Cu  Cu5  1  0.50000000  0.50000000  0.45801000  1
  Cu  Cu6  1  0.00000000  0.50000000  0.83333300  1
  Cu  Cu7  1  0.00000000  0.50000000  0.12467600  1
  Cu  Cu8  1  0.50000000  0.50000000  0.16666700  1
  Cu  Cu9  1  0.50000000  0.00000000  0.20865700  1
  Cu  Cu10  1  0.00000000  0.50000000  0.54199000  1
  Cu  Cu11  1  0.50000000  0.00000000  0.50000000  1
  C  C12  1  0.61159400  0.22318700  0.00000000  1
  C  C13  1  0.77681300  0.38840600  0.33333300  1
  C  C14  1  0.22318700  0.61159400  0.33333300  1
  C  C15  1  0.61159400  0.38840600  0.66666700  1
  C  C16  1  0.38840600  0.61159400  0.66666700  1
  C  C17  1  0.38840600  0.77681300  0.00000000  1
