# generated using pymatgen
data_CuNiC2
_symmetry_space_group_name_H-M   'P 1'
_cell_length_a   10.46709707
_cell_length_b   10.46709707
_cell_length_c   10.46709712
_cell_angle_alpha   21.67139654
_cell_angle_beta   21.67139654
_cell_angle_gamma   21.67139585
_symmetry_Int_Tables_number   1
_chemical_formula_structural   CuNiC2
_chemical_formula_sum   'Cu2 Ni2 C4'
_cell_volume   137.04801369
_cell_formula_units_Z   2
loop_
 _symmetry_equiv_pos_site_id
 _symmetry_equiv_pos_as_xyz
  1  'x, y, z'
loop_
 _atom_site_type_symbol
 _atom_site_label
 _atom_site_symmetry_multiplicity
 _atom_site_fract_x
 _atom_site_fract_y
 _atom_site_fract_z
 _atom_site_occupancy
  C  C0  1  0.61961800  0.61961800  0.61961800  1
  C  C1  1  0.38038200  0.38038200  0.38038200  1
  Ni  Ni2  1  0.19627800  0.19627800  0.19627800  1
  Ni  Ni3  1  0.80372200  0.80372200  0.80372200  1
  Cu  Cu4  1  0.88751600  0.88751600  0.88751600  1
  Cu  Cu5  1  0.11248400  0.11248400  0.11248400  1
  C  C6  1  0.30529200  0.30529200  0.30529200  1
  C  C7  1  0.69470800  0.69470800  0.69470800  1
