# generated using pymatgen
data_CuNiC7
_symmetry_space_group_name_H-M   'P 1'
_cell_length_a   8.41684800
_cell_length_b   6.85106100
_cell_length_c   10.54754872
_cell_angle_alpha   76.30877181
_cell_angle_beta   90.00000000
_cell_angle_gamma   90.00000000
_symmetry_Int_Tables_number   1
_chemical_formula_structural   CuNiC7
_chemical_formula_sum   'Cu4 Ni4 C28'
_cell_volume   590.93515121
_cell_formula_units_Z   4
loop_
 _symmetry_equiv_pos_site_id
 _symmetry_equiv_pos_as_xyz
  1  'x, y, z'
loop_
 _atom_site_type_symbol
 _atom_site_label
 _atom_site_symmetry_multiplicity
 _atom_site_fract_x
 _atom_site_fract_y
 _atom_site_fract_z
 _atom_site_occupancy
  C  C0  1  0.26403600  0.03655800  0.14949700  1
  C  C1  1  0.76403600  0.96344200  0.35050300  1
  C  C2  1  0.73596400  0.96344200  0.85050300  1
  C  C3  1  0.23596400  0.03655800  0.64949700  1
  Ni  Ni4  1  0.97893800  0.51371100  0.17730200  1
  Ni  Ni5  1  0.47893800  0.48628900  0.32269800  1
  Ni  Ni6  1  0.02106200  0.48628900  0.82269800  1
  Ni  Ni7  1  0.52106200  0.51371100  0.67730200  1
  Cu  Cu8  1  0.64307400  0.38340000  0.05278500  1
  Cu  Cu9  1  0.14307400  0.61660000  0.44721500  1
  Cu  Cu10  1  0.35692600  0.61660000  0.94721500  1
  Cu  Cu11  1  0.85692600  0.38340000  0.55278500  1
  C  C12  1  0.56253600  0.54567300  0.89539400  1
  C  C13  1  0.06253600  0.45432700  0.60460600  1
  C  C14  1  0.43746400  0.45432700  0.10460600  1
  C  C15  1  0.93746400  0.54567300  0.39539400  1
  C  C16  1  0.70928400  0.41841300  0.21281900  1
  C  C17  1  0.20928400  0.58158700  0.28718100  1
  C  C18  1  0.29071600  0.58158700  0.78718100  1
  C  C19  1  0.79071600  0.41841300  0.71281900  1
  C  C20  1  0.01972000  0.24267600  0.23337900  1
  C  C21  1  0.51972000  0.75732400  0.26662100  1
  C  C22  1  0.98028000  0.75732400  0.76662100  1
  C  C23  1  0.48028000  0.24267600  0.73337900  1
  C  C24  1  0.84346800  0.47027400  0.99205000  1
  C  C25  1  0.34346800  0.52972600  0.50795000  1
  C  C26  1  0.15653200  0.52972600  0.00795000  1
  C  C27  1  0.65653200  0.47027400  0.49205000  1
  C  C28  1  0.93725500  0.78465900  0.12695200  1
  C  C29  1  0.43725500  0.21534100  0.37304800  1
  C  C30  1  0.06274500  0.21534100  0.87304800  1
  C  C31  1  0.56274500  0.78465900  0.62695200  1
  C  C32  1  0.63378700  0.14707700  0.05680200  1
  C  C33  1  0.13378700  0.85292300  0.44319800  1
  C  C34  1  0.36621300  0.85292300  0.94319800  1
  C  C35  1  0.86621300  0.14707700  0.55680200  1
