# generated using pymatgen
data_Cu9Ni3C
_symmetry_space_group_name_H-M   'P 1'
_cell_length_a   6.11634700
_cell_length_b   8.82671200
_cell_length_c   16.77722893
_cell_angle_alpha   65.24976406
_cell_angle_beta   90.00000000
_cell_angle_gamma   90.00000000
_symmetry_Int_Tables_number   1
_chemical_formula_structural   Cu9Ni3C
_chemical_formula_sum   'Cu36 Ni12 C4'
_cell_volume   822.55472577
_cell_formula_units_Z   4
loop_
 _symmetry_equiv_pos_site_id
 _symmetry_equiv_pos_as_xyz
  1  'x, y, z'
loop_
 _atom_site_type_symbol
 _atom_site_label
 _atom_site_symmetry_multiplicity
 _atom_site_fract_x
 _atom_site_fract_y
 _atom_site_fract_z
 _atom_site_occupancy
  C  C0  1  0.28582900  0.14658100  0.39628700  1
  C  C1  1  0.21417100  0.14658100  0.89628700  1
  C  C2  1  0.78582900  0.85341900  0.10371300  1
  C  C3  1  0.71417100  0.85341900  0.60371300  1
  Ni  Ni4  1  0.14346000  0.64459600  0.02021700  1
  Ni  Ni5  1  0.68718200  0.92782400  0.85720900  1
  Ni  Ni6  1  0.31281800  0.07217600  0.14279100  1
  Ni  Ni7  1  0.18718200  0.07217600  0.64279100  1
  Ni  Ni8  1  0.40628600  0.58164300  0.80219400  1
  Ni  Ni9  1  0.59371400  0.41835700  0.19780600  1
  Ni  Ni10  1  0.81281800  0.92782400  0.35720900  1
  Ni  Ni11  1  0.90628600  0.41835700  0.69780600  1
  Ni  Ni12  1  0.85654000  0.35540400  0.97978300  1
  Ni  Ni13  1  0.35654000  0.64459600  0.52021700  1
  Ni  Ni14  1  0.09371400  0.58164300  0.30219400  1
  Ni  Ni15  1  0.64346000  0.35540400  0.47978300  1
  Cu  Cu16  1  0.41695400  0.66081700  0.88749300  1
  Cu  Cu17  1  0.12343600  0.11255500  0.52947600  1
  Cu  Cu18  1  0.52824400  0.60734400  0.61707000  1
  Cu  Cu19  1  0.97175600  0.60734400  0.11707000  1
  Cu  Cu20  1  0.60624500  0.09599300  0.32981100  1
  Cu  Cu21  1  0.39375500  0.90400700  0.67018900  1
  Cu  Cu22  1  0.44499200  0.05983600  0.81140300  1
  Cu  Cu23  1  0.47175600  0.39265600  0.38293000  1
  Cu  Cu24  1  0.91695400  0.33918300  0.61250700  1
  Cu  Cu25  1  0.58304600  0.33918300  0.11250700  1
  Cu  Cu26  1  0.42634200  0.35461400  0.55814700  1
  Cu  Cu27  1  0.10624500  0.90400700  0.17018900  1
  Cu  Cu28  1  0.88034000  0.12694400  0.01370900  1
  Cu  Cu29  1  0.92634200  0.64538600  0.94185300  1
  Cu  Cu30  1  0.62343600  0.88744500  0.97052400  1
  Cu  Cu31  1  0.94499200  0.94016400  0.68859700  1
  Cu  Cu32  1  0.55500800  0.94016400  0.18859700  1
  Cu  Cu33  1  0.89375500  0.09599300  0.82981100  1
  Cu  Cu34  1  0.07365800  0.35461400  0.05814700  1
  Cu  Cu35  1  0.00970800  0.36308800  0.36632300  1
  Cu  Cu36  1  0.02824400  0.39265600  0.88293000  1
  Cu  Cu37  1  0.57365800  0.64538600  0.44185300  1
  Cu  Cu38  1  0.50970800  0.63691200  0.13367700  1
  Cu  Cu39  1  0.08304600  0.66081700  0.38749300  1
  Cu  Cu40  1  0.32206600  0.34469500  0.24475200  1
  Cu  Cu41  1  0.11966000  0.87305600  0.98629100  1
  Cu  Cu42  1  0.05500800  0.05983600  0.31140300  1
  Cu  Cu43  1  0.37656400  0.11255500  0.02947600  1
  Cu  Cu44  1  0.61966000  0.12694400  0.51370900  1
  Cu  Cu45  1  0.38034000  0.87305600  0.48629100  1
  Cu  Cu46  1  0.82206600  0.65530500  0.25524800  1
  Cu  Cu47  1  0.67793400  0.65530500  0.75524800  1
  Cu  Cu48  1  0.99029200  0.63691200  0.63367700  1
  Cu  Cu49  1  0.87656400  0.88744500  0.47052400  1
  Cu  Cu50  1  0.49029200  0.36308800  0.86632300  1
  Cu  Cu51  1  0.17793400  0.34469500  0.74475200  1
