# generated using pymatgen
data_Cu4NiC2
_symmetry_space_group_name_H-M   'P 1'
_cell_length_a   5.34119900
_cell_length_b   7.06587200
_cell_length_c   9.66644000
_cell_angle_alpha   90.00000000
_cell_angle_beta   90.00000000
_cell_angle_gamma   90.00000000
_symmetry_Int_Tables_number   1
_chemical_formula_structural   Cu4NiC2
_chemical_formula_sum   'Cu16 Ni4 C8'
_cell_volume   364.81365400
_cell_formula_units_Z   4
loop_
 _symmetry_equiv_pos_site_id
 _symmetry_equiv_pos_as_xyz
  1  'x, y, z'
loop_
 _atom_site_type_symbol
 _atom_site_label
 _atom_site_symmetry_multiplicity
 _atom_site_fract_x
 _atom_site_fract_y
 _atom_site_fract_z
 _atom_site_occupancy
  C  C0  1  0.00000000  0.00000000  0.50000000  1
  C  C1  1  0.50000000  0.00000000  0.00000000  1
  C  C2  1  0.00000000  0.50000000  0.50000000  1
  C  C3  1  0.50000000  0.50000000  0.00000000  1
  C  C4  1  0.02235500  0.75000000  0.14940600  1
  C  C5  1  0.52235500  0.25000000  0.35059400  1
  C  C6  1  0.97764500  0.25000000  0.85059400  1
  C  C7  1  0.47764500  0.75000000  0.64940600  1
  Ni  Ni8  1  0.98269900  0.75000000  0.82276700  1
  Ni  Ni9  1  0.48269900  0.25000000  0.67723300  1
  Ni  Ni10  1  0.01730100  0.25000000  0.17723300  1
  Ni  Ni11  1  0.51730100  0.75000000  0.32276700  1
  Cu  Cu12  1  0.96058100  0.75000000  0.66783700  1
  Cu  Cu13  1  0.46058100  0.25000000  0.83216300  1
  Cu  Cu14  1  0.03941900  0.25000000  0.33216300  1
  Cu  Cu15  1  0.53941900  0.75000000  0.16783700  1
  Cu  Cu16  1  0.25260200  0.75000000  0.86502300  1
  Cu  Cu17  1  0.75260200  0.25000000  0.63497700  1
  Cu  Cu18  1  0.74739800  0.25000000  0.13497700  1
  Cu  Cu19  1  0.24739800  0.75000000  0.36502300  1
  Cu  Cu20  1  0.85795300  0.92202900  0.87859500  1
  Cu  Cu21  1  0.35795300  0.07797100  0.62140500  1
  Cu  Cu22  1  0.14204700  0.42202900  0.12140500  1
  Cu  Cu23  1  0.64204700  0.57797100  0.37859500  1
  Cu  Cu24  1  0.14204700  0.07797100  0.12140500  1
  Cu  Cu25  1  0.64204700  0.92202900  0.37859500  1
  Cu  Cu26  1  0.85795300  0.57797100  0.87859500  1
  Cu  Cu27  1  0.35795300  0.42202900  0.62140500  1
