# generated using pymatgen
data_Cu3Ni6C37
_symmetry_space_group_name_H-M   'P 1'
_cell_length_a   10.19180833
_cell_length_b   10.19180833
_cell_length_c   10.19180863
_cell_angle_alpha   87.82610423
_cell_angle_beta   87.82610423
_cell_angle_gamma   87.82610014
_symmetry_Int_Tables_number   1
_chemical_formula_structural   Cu3Ni6C37
_chemical_formula_sum   'Cu6 Ni12 C74'
_cell_volume   1056.42382231
_cell_formula_units_Z   2
loop_
 _symmetry_equiv_pos_site_id
 _symmetry_equiv_pos_as_xyz
  1  'x, y, z'
loop_
 _atom_site_type_symbol
 _atom_site_label
 _atom_site_symmetry_multiplicity
 _atom_site_fract_x
 _atom_site_fract_y
 _atom_site_fract_z
 _atom_site_occupancy
  C  C0  1  0.50000000  0.50000000  0.50000000  1
  C  C1  1  0.00000000  0.00000000  0.00000000  1
  C  C2  1  0.19511400  0.85546200  0.74221000  1
  C  C3  1  0.94540000  0.50972500  0.64681100  1
  C  C4  1  0.84656100  0.33906100  0.44018500  1
  C  C5  1  0.43239300  0.92533000  0.17963700  1
  C  C6  1  0.50972500  0.64681100  0.94540000  1
  C  C7  1  0.35318900  0.05460000  0.49027500  1
  C  C8  1  0.53292900  0.78094400  0.20312600  1
  C  C9  1  0.84941100  0.86805500  0.36535700  1
  C  C10  1  0.25779000  0.80488600  0.14453800  1
  C  C11  1  0.09332500  0.40463100  0.20612200  1
  C  C12  1  0.79387800  0.90667500  0.59536900  1
  C  C13  1  0.66855900  0.78903000  0.59118000  1
  C  C14  1  0.74221000  0.19511400  0.85546200  1
  C  C15  1  0.40463100  0.20612200  0.09332500  1
  C  C16  1  0.56760700  0.07467000  0.82036300  1
  C  C17  1  0.82036300  0.56760700  0.07467000  1
  C  C18  1  0.20312600  0.53292900  0.78094400  1
  C  C19  1  0.59118000  0.66855900  0.78903000  1
  C  C20  1  0.33144100  0.21097000  0.40882000  1
  C  C21  1  0.64681100  0.94540000  0.50972500  1
  C  C22  1  0.55981500  0.15343900  0.66093900  1
  C  C23  1  0.17963700  0.43239300  0.92533000  1
  C  C24  1  0.33906100  0.44018500  0.84656100  1
  C  C25  1  0.92533000  0.17963700  0.43239300  1
  C  C26  1  0.36535700  0.84941100  0.86805500  1
  C  C27  1  0.85546200  0.74221000  0.19511400  1
  C  C28  1  0.86805500  0.36535700  0.84941100  1
  C  C29  1  0.49027500  0.35318900  0.05460000  1
  C  C30  1  0.21097000  0.40882000  0.33144100  1
  C  C31  1  0.07467000  0.82036300  0.56760700  1
  C  C32  1  0.40882000  0.33144100  0.21097000  1
  C  C33  1  0.66093900  0.55981500  0.15343900  1
  C  C34  1  0.15058900  0.13194500  0.63464300  1
  C  C35  1  0.46707100  0.21905600  0.79687400  1
  C  C36  1  0.80488600  0.14453800  0.25779000  1
  C  C37  1  0.78094400  0.20312600  0.53292900  1
  C  C38  1  0.79687400  0.46707100  0.21905600  1
  C  C39  1  0.90667500  0.59536900  0.79387800  1
  C  C40  1  0.21905600  0.79687400  0.46707100  1
  C  C41  1  0.59536900  0.79387800  0.90667500  1
  C  C42  1  0.20612200  0.09332500  0.40463100  1
  C  C43  1  0.63464300  0.15058900  0.13194500  1
  C  C44  1  0.44018500  0.84656100  0.33906100  1
  C  C45  1  0.14453800  0.25779000  0.80488600  1
  C  C46  1  0.13194500  0.63464300  0.15058900  1
  C  C47  1  0.05460000  0.49027500  0.35318900  1
  C  C48  1  0.15343900  0.66093900  0.55981500  1
  C  C49  1  0.78903000  0.59118000  0.66855900  1
  C  C50  1  0.76703000  0.56052900  0.16984100  1
  C  C51  1  0.83015900  0.23297000  0.43947100  1
  C  C52  1  0.86629700  0.53452100  0.71954500  1
  C  C53  1  0.53452100  0.71954500  0.86629700  1
  C  C54  1  0.28045500  0.13370300  0.46547900  1
  C  C55  1  0.70092200  0.36277100  0.74597600  1
  C  C56  1  0.36277100  0.74597600  0.70092200  1
  C  C57  1  0.71954500  0.86629700  0.53452100  1
  C  C58  1  0.13370300  0.46547900  0.28045500  1
  C  C59  1  0.74597600  0.70092200  0.36277100  1
  C  C60  1  0.23297000  0.43947100  0.83015900  1
  C  C61  1  0.46547900  0.28045500  0.13370300  1
  C  C62  1  0.56052900  0.16984100  0.76703000  1
  C  C63  1  0.63722900  0.25402400  0.29907800  1
  C  C64  1  0.16984100  0.76703000  0.56052900  1
  C  C65  1  0.25402400  0.29907800  0.63722900  1
  C  C66  1  0.43947100  0.83015900  0.23297000  1
  C  C67  1  0.29907800  0.63722900  0.25402400  1
  Ni  Ni68  1  0.78182400  0.81234200  0.41710000  1
  Ni  Ni69  1  0.41710000  0.78182400  0.81234200  1
  Ni  Ni70  1  0.24363300  0.80078700  0.67282800  1
  Ni  Ni71  1  0.81234200  0.41710000  0.78182400  1
  Ni  Ni72  1  0.32717200  0.75636700  0.19921300  1
  Ni  Ni73  1  0.18765800  0.58290000  0.21817600  1
  Ni  Ni74  1  0.67282800  0.24363300  0.80078700  1
  Ni  Ni75  1  0.75636700  0.19921300  0.32717200  1
  Ni  Ni76  1  0.19921300  0.32717200  0.75636700  1
  Ni  Ni77  1  0.80078700  0.67282800  0.24363300  1
  Ni  Ni78  1  0.58290000  0.21817600  0.18765800  1
  Ni  Ni79  1  0.21817600  0.18765800  0.58290000  1
  Cu  Cu80  1  0.74167700  0.97935900  0.03393500  1
  Cu  Cu81  1  0.96606500  0.25832300  0.02064100  1
  Cu  Cu82  1  0.03393500  0.74167700  0.97935900  1
  Cu  Cu83  1  0.25832300  0.02064100  0.96606500  1
  Cu  Cu84  1  0.02064100  0.96606500  0.25832300  1
  Cu  Cu85  1  0.97935900  0.03393500  0.74167700  1
  C  C86  1  0.57858500  0.33452800  0.37643900  1
  C  C87  1  0.33452800  0.37643900  0.57858500  1
  C  C88  1  0.37643900  0.57858500  0.33452800  1
  C  C89  1  0.62356100  0.42141500  0.66547200  1
  C  C90  1  0.66547200  0.62356100  0.42141500  1
  C  C91  1  0.42141500  0.66547200  0.62356100  1
