# generated using pymatgen
data_Cu3NiC6
_symmetry_space_group_name_H-M   'P 1'
_cell_length_a   6.80702300
_cell_length_b   4.46702900
_cell_length_c   14.11378040
_cell_angle_alpha   84.59741503
_cell_angle_beta   90.00000000
_cell_angle_gamma   90.00000000
_symmetry_Int_Tables_number   1
_chemical_formula_structural   Cu3NiC6
_chemical_formula_sum   'Cu12 Ni4 C24'
_cell_volume   427.25365745
_cell_formula_units_Z   4
loop_
 _symmetry_equiv_pos_site_id
 _symmetry_equiv_pos_as_xyz
  1  'x, y, z'
loop_
 _atom_site_type_symbol
 _atom_site_label
 _atom_site_symmetry_multiplicity
 _atom_site_fract_x
 _atom_site_fract_y
 _atom_site_fract_z
 _atom_site_occupancy
  Ni  Ni0  1  0.79880300  0.22004000  0.43129600  1
  Ni  Ni1  1  0.20119700  0.77996000  0.56870400  1
  Ni  Ni2  1  0.29880300  0.77996000  0.06870400  1
  Ni  Ni3  1  0.70119700  0.22004000  0.93129600  1
  Cu  Cu4  1  0.18699300  0.17043100  0.25245000  1
  Cu  Cu5  1  0.81300700  0.82956900  0.74755000  1
  Cu  Cu6  1  0.91646800  0.12033300  0.14029300  1
  Cu  Cu7  1  0.31300700  0.17043100  0.75245000  1
  Cu  Cu8  1  0.24353100  0.34366100  0.91177700  1
  Cu  Cu9  1  0.68699300  0.82956900  0.24755000  1
  Cu  Cu10  1  0.08353200  0.87966700  0.85970700  1
  Cu  Cu11  1  0.41646800  0.87966700  0.35970700  1
  Cu  Cu12  1  0.58353200  0.12033300  0.64029300  1
  Cu  Cu13  1  0.75646900  0.65633900  0.08822300  1
  Cu  Cu14  1  0.74353100  0.65633900  0.58822300  1
  Cu  Cu15  1  0.25646900  0.34366100  0.41177700  1
  C  C16  1  0.19152300  0.65854500  0.92602700  1
  C  C17  1  0.56716400  0.84241400  0.59315300  1
  C  C18  1  0.38352600  0.22922000  0.65940200  1
  C  C19  1  0.43283600  0.15758600  0.40684700  1
  C  C20  1  0.86482800  0.65764900  0.67602800  1
  C  C21  1  0.80847700  0.34145500  0.07397300  1
  C  C22  1  0.18284400  0.93792400  0.76671600  1
  C  C23  1  0.62801600  0.76154800  0.00563600  1
  C  C24  1  0.93283600  0.84241400  0.09315300  1
  C  C25  1  0.36482800  0.34235100  0.82397200  1
  C  C26  1  0.69152300  0.34145500  0.57397300  1
  C  C27  1  0.88352600  0.77078000  0.84059800  1
  C  C28  1  0.13517200  0.34235100  0.32397200  1
  C  C29  1  0.63517200  0.65764900  0.17602800  1
  C  C30  1  0.68284400  0.06207600  0.73328400  1
  C  C31  1  0.12801600  0.23845200  0.49436400  1
  C  C32  1  0.37198400  0.23845200  0.99436400  1
  C  C33  1  0.87198400  0.76154800  0.50563600  1
  C  C34  1  0.11647400  0.22922000  0.15940200  1
  C  C35  1  0.06716400  0.15758600  0.90684700  1
  C  C36  1  0.31715600  0.93792400  0.26671600  1
  C  C37  1  0.81715600  0.06207600  0.23328400  1
  C  C38  1  0.30847700  0.65854500  0.42602700  1
  C  C39  1  0.61647400  0.77078000  0.34059800  1
