# generated using pymatgen
data_CuNi2C11
_symmetry_space_group_name_H-M   'P 1'
_cell_length_a   7.74367000
_cell_length_b   7.25842300
_cell_length_c   13.18584425
_cell_angle_alpha   73.19704173
_cell_angle_beta   90.00000000
_cell_angle_gamma   90.00000000
_symmetry_Int_Tables_number   1
_chemical_formula_structural   CuNi2C11
_chemical_formula_sum   'Cu2 Ni4 C22'
_cell_volume   709.49148270
_cell_formula_units_Z   2
loop_
 _symmetry_equiv_pos_site_id
 _symmetry_equiv_pos_as_xyz
  1  'x, y, z'
loop_
 _atom_site_type_symbol
 _atom_site_label
 _atom_site_symmetry_multiplicity
 _atom_site_fract_x
 _atom_site_fract_y
 _atom_site_fract_z
 _atom_site_occupancy
  Ni  Ni0  1  0.44413100  0.31648400  0.84105300  1
  Ni  Ni1  1  0.55586900  0.31648400  0.34105300  1
  Ni  Ni2  1  0.43789800  0.32305100  0.12980100  1
  Ni  Ni3  1  0.56210200  0.32305100  0.62980100  1
  Cu  Cu4  1  0.99278100  0.73804500  0.39224100  1
  Cu  Cu5  1  0.00721900  0.73804500  0.89224100  1
  C  C6  1  0.10692000  0.17215500  0.00872300  1
  C  C7  1  0.89308000  0.17215500  0.50872300  1
  C  C8  1  0.89306700  0.36324200  0.59901600  1
  C  C9  1  0.63884700  0.06750500  0.52704300  1
  C  C10  1  0.34103500  0.38455700  0.47617500  1
  C  C11  1  0.39135600  0.05508500  0.75126100  1
  C  C12  1  0.62367000  0.57554200  0.17468200  1
  C  C13  1  0.63907800  0.06874000  0.80265300  1
  C  C14  1  0.36092200  0.06874000  0.30265300  1
  C  C15  1  0.10603800  0.31576400  0.84873600  1
  C  C16  1  0.07658400  0.97392200  0.55375800  1
  C  C17  1  0.36115300  0.06750500  0.02704300  1
  C  C18  1  0.37633000  0.57554200  0.67468200  1
  C  C19  1  0.45234200  0.57010000  0.94570700  1
  C  C20  1  0.10693300  0.36324200  0.09901600  1
  C  C21  1  0.62726100  0.57605900  0.71847200  1
  C  C22  1  0.37273900  0.57605900  0.21847200  1
  C  C23  1  0.65896500  0.38455700  0.97617500  1
  C  C24  1  0.60864400  0.05508500  0.25126100  1
  C  C25  1  0.89396200  0.31576400  0.34873600  1
  C  C26  1  0.54765800  0.57010000  0.44570700  1
  C  C27  1  0.92341600  0.97392200  0.05375800  1
