# generated using pymatgen
data_Cu2NiC2
_symmetry_space_group_name_H-M   'P 1'
_cell_length_a   7.07683103
_cell_length_b   7.07683103
_cell_length_c   10.15846714
_cell_angle_alpha   88.21848601
_cell_angle_beta   88.21848601
_cell_angle_gamma   33.96127512
_symmetry_Int_Tables_number   1
_chemical_formula_structural   Cu2NiC2
_chemical_formula_sum   'Cu4 Ni2 C4'
_cell_volume   284.05499580
_cell_formula_units_Z   2
loop_
 _symmetry_equiv_pos_site_id
 _symmetry_equiv_pos_as_xyz
  1  'x, y, z'
loop_
 _atom_site_type_symbol
 _atom_site_label
 _atom_site_symmetry_multiplicity
 _atom_site_fract_x
 _atom_site_fract_y
 _atom_site_fract_z
 _atom_site_occupancy
  C  C0  1  0.50000000  0.50000000  0.00000000  1
  C  C1  1  0.50000000  0.50000000  0.50000000  1
  Ni  Ni2  1  0.21097600  0.21097600  0.18905400  1
  Ni  Ni3  1  0.78902400  0.78902400  0.81094600  1
  Cu  Cu4  1  0.42954300  0.42954300  0.75666300  1
  Cu  Cu5  1  0.13460200  0.13460200  0.94209800  1
  Cu  Cu6  1  0.57045700  0.57045700  0.24333700  1
  Cu  Cu7  1  0.86539800  0.86539800  0.05790200  1
  C  C8  1  0.13460800  0.13460800  0.57051000  1
  C  C9  1  0.86539200  0.86539200  0.42949000  1
