# generated using pymatgen
data_Cu5NiC3
_symmetry_space_group_name_H-M   'P 1'
_cell_length_a   18.06491700
_cell_length_b   18.06491700
_cell_length_c   7.37690300
_cell_angle_alpha   90.00000000
_cell_angle_beta   90.00000000
_cell_angle_gamma   90.00000000
_symmetry_Int_Tables_number   1
_chemical_formula_structural   Cu5NiC3
_chemical_formula_sum   'Cu40 Ni8 C24'
_cell_volume   2407.38757070
_cell_formula_units_Z   8
loop_
 _symmetry_equiv_pos_site_id
 _symmetry_equiv_pos_as_xyz
  1  'x, y, z'
loop_
 _atom_site_type_symbol
 _atom_site_label
 _atom_site_symmetry_multiplicity
 _atom_site_fract_x
 _atom_site_fract_y
 _atom_site_fract_z
 _atom_site_occupancy
  C  C0  1  0.14732600  0.17349500  0.02182000  1
  C  C1  1  0.41165500  0.12131900  0.98535300  1
  C  C2  1  0.64732600  0.67349500  0.47818000  1
  C  C3  1  0.62131900  0.08834500  0.48535300  1
  C  C4  1  0.82650500  0.14732600  0.97818000  1
  C  C5  1  0.08834500  0.37868100  0.51464700  1
  C  C6  1  0.35267400  0.32650500  0.47818000  1
  C  C7  1  0.58834500  0.87868100  0.98535300  1
  C  C8  1  0.87868100  0.41165500  0.01464700  1
  C  C9  1  0.37868100  0.91165500  0.48535300  1
  C  C10  1  0.67349500  0.35267400  0.52182000  1
  C  C11  1  0.91165500  0.62131900  0.51464700  1
  C  C12  1  0.85267400  0.82650500  0.02182000  1
  C  C13  1  0.12131900  0.58834500  0.01464700  1
  C  C14  1  0.17349500  0.85267400  0.97818000  1
  C  C15  1  0.32650500  0.64732600  0.52182000  1
  C  C16  1  0.13016300  0.93779000  0.47418600  1
  C  C17  1  0.86983700  0.06221000  0.47418600  1
  C  C18  1  0.56221000  0.63016300  0.97418600  1
  C  C19  1  0.43779000  0.36983700  0.97418600  1
  C  C20  1  0.63016300  0.43779000  0.02581400  1
  C  C21  1  0.93779000  0.86983700  0.52581400  1
  C  C22  1  0.36983700  0.56221000  0.02581400  1
  C  C23  1  0.06221000  0.13016300  0.52581400  1
  Ni  Ni24  1  0.73178400  0.90608400  0.51875300  1
  Ni  Ni25  1  0.26821600  0.09391600  0.51875300  1
  Ni  Ni26  1  0.09391600  0.73178400  0.48124700  1
  Ni  Ni27  1  0.40608400  0.76821600  0.01875300  1
  Ni  Ni28  1  0.76821600  0.59391600  0.98124700  1
  Ni  Ni29  1  0.23178400  0.40608400  0.98124700  1
  Ni  Ni30  1  0.59391600  0.23178400  0.01875300  1
  Ni  Ni31  1  0.90608400  0.26821600  0.48124700  1
  Cu  Cu32  1  0.26611100  0.48029800  0.21150100  1
  Cu  Cu33  1  0.69639600  0.30429500  0.00525200  1
  Cu  Cu34  1  0.80360400  0.19570500  0.49474800  1
  Cu  Cu35  1  0.43272900  0.48952700  0.74005900  1
  Cu  Cu36  1  0.98952700  0.06727100  0.24005900  1
  Cu  Cu37  1  0.23388900  0.01970200  0.28849900  1
  Cu  Cu38  1  0.48952700  0.56727100  0.25994100  1
  Cu  Cu39  1  0.75384100  0.53781600  0.71780900  1
  Cu  Cu40  1  0.37175200  0.88376900  0.97205500  1
  Cu  Cu41  1  0.56727100  0.51047300  0.74005900  1
  Cu  Cu42  1  0.11623100  0.37175200  0.02794500  1
  Cu  Cu43  1  0.03781600  0.74615900  0.21780900  1
  Cu  Cu44  1  0.51970200  0.26611100  0.78849900  1
  Cu  Cu45  1  0.96218400  0.25384100  0.21780900  1
  Cu  Cu46  1  0.01970200  0.76611100  0.71150100  1
  Cu  Cu47  1  0.01047300  0.93272900  0.24005900  1
  Cu  Cu48  1  0.06727100  0.01047300  0.75994100  1
  Cu  Cu49  1  0.24615900  0.46218400  0.71780900  1
  Cu  Cu50  1  0.80429500  0.80360400  0.50525200  1
  Cu  Cu51  1  0.88376900  0.62824800  0.02794500  1
  Cu  Cu52  1  0.12824800  0.61623100  0.52794500  1
  Cu  Cu53  1  0.62824800  0.11623100  0.97205500  1
  Cu  Cu54  1  0.53781600  0.24615900  0.28219100  1
  Cu  Cu55  1  0.51047300  0.43272900  0.25994100  1
  Cu  Cu56  1  0.48029800  0.73388900  0.78849900  1
  Cu  Cu57  1  0.74615900  0.96218400  0.78219100  1
  Cu  Cu58  1  0.25384100  0.03781600  0.78219100  1
  Cu  Cu59  1  0.98029800  0.23388900  0.71150100  1
  Cu  Cu60  1  0.19639600  0.80429500  0.49474800  1
  Cu  Cu61  1  0.69570500  0.69639600  0.99474800  1
  Cu  Cu62  1  0.46218400  0.75384100  0.28219100  1
  Cu  Cu63  1  0.38376900  0.12824800  0.47205500  1
  Cu  Cu64  1  0.19570500  0.19639600  0.50525200  1
  Cu  Cu65  1  0.93272900  0.98952700  0.75994100  1
  Cu  Cu66  1  0.61623100  0.87175200  0.47205500  1
  Cu  Cu67  1  0.73388900  0.51970200  0.21150100  1
  Cu  Cu68  1  0.30360400  0.69570500  0.00525200  1
  Cu  Cu69  1  0.76611100  0.98029800  0.28849900  1
  Cu  Cu70  1  0.87175200  0.38376900  0.52794500  1
  Cu  Cu71  1  0.30429500  0.30360400  0.99474800  1
