# generated using pymatgen
data_Cu3Ni2C5
_symmetry_space_group_name_H-M   'P 1'
_cell_length_a   7.63954200
_cell_length_b   9.38156300
_cell_length_c   9.65842300
_cell_angle_alpha   90.00000000
_cell_angle_beta   90.00000000
_cell_angle_gamma   90.00000000
_symmetry_Int_Tables_number   1
_chemical_formula_structural   Cu3Ni2C5
_chemical_formula_sum   'Cu12 Ni8 C20'
_cell_volume   692.22733357
_cell_formula_units_Z   4
loop_
 _symmetry_equiv_pos_site_id
 _symmetry_equiv_pos_as_xyz
  1  'x, y, z'
loop_
 _atom_site_type_symbol
 _atom_site_label
 _atom_site_symmetry_multiplicity
 _atom_site_fract_x
 _atom_site_fract_y
 _atom_site_fract_z
 _atom_site_occupancy
  Ni  Ni0  1  0.00000000  0.23114900  0.26438400  1
  Ni  Ni1  1  0.00000000  0.76885100  0.73561600  1
  Ni  Ni2  1  0.50000000  0.73114900  0.23561600  1
  Ni  Ni3  1  0.50000000  0.26885100  0.76438400  1
  Ni  Ni4  1  0.74595000  0.00000000  0.50000000  1
  Ni  Ni5  1  0.75405000  0.50000000  0.00000000  1
  Ni  Ni6  1  0.25405000  0.00000000  0.50000000  1
  Ni  Ni7  1  0.24595000  0.50000000  0.00000000  1
  Cu  Cu8  1  0.75203900  0.48176800  0.34976300  1
  Cu  Cu9  1  0.75203900  0.51823200  0.65023700  1
  Cu  Cu10  1  0.74796100  0.98176800  0.15023700  1
  Cu  Cu11  1  0.74796100  0.01823200  0.84976300  1
  Cu  Cu12  1  0.24796100  0.51823200  0.65023700  1
  Cu  Cu13  1  0.24796100  0.48176800  0.34976300  1
  Cu  Cu14  1  0.25203900  0.01823200  0.84976300  1
  Cu  Cu15  1  0.25203900  0.98176800  0.15023700  1
  Cu  Cu16  1  0.00000000  0.23747500  0.92632500  1
  Cu  Cu17  1  0.00000000  0.76252500  0.07367500  1
  Cu  Cu18  1  0.50000000  0.73747500  0.57367500  1
  Cu  Cu19  1  0.50000000  0.26252500  0.42632500  1
  C  C20  1  0.50000000  0.77226200  0.87082200  1
  C  C21  1  0.50000000  0.22773800  0.12917800  1
  C  C22  1  0.00000000  0.27226200  0.62917800  1
  C  C23  1  0.00000000  0.72773800  0.37082200  1
  C  C24  1  0.50000000  0.56895700  0.77638200  1
  C  C25  1  0.50000000  0.43104300  0.22361800  1
  C  C26  1  0.00000000  0.06895700  0.72361800  1
  C  C27  1  0.00000000  0.93104300  0.27638200  1
  C  C28  1  0.76734600  0.30051600  0.51771800  1
  C  C29  1  0.76734600  0.69948400  0.48228200  1
  C  C30  1  0.73265400  0.80051600  0.98228200  1
  C  C31  1  0.73265400  0.19948400  0.01771800  1
  C  C32  1  0.23265400  0.69948400  0.48228200  1
  C  C33  1  0.23265400  0.30051600  0.51771800  1
  C  C34  1  0.26734600  0.19948400  0.01771800  1
  C  C35  1  0.26734600  0.80051600  0.98228200  1
  C  C36  1  0.00000000  0.44126400  0.77865000  1
  C  C37  1  0.00000000  0.55873600  0.22135000  1
  C  C38  1  0.50000000  0.94126400  0.72135000  1
  C  C39  1  0.50000000  0.05873600  0.27865000  1
