# generated using pymatgen
data_Cu15(NiC2)4
_symmetry_space_group_name_H-M   'P 1'
_cell_length_a   13.98351900
_cell_length_b   5.81569400
_cell_length_c   9.35420621
_cell_angle_alpha   81.99530460
_cell_angle_beta   90.00000000
_cell_angle_gamma   90.00000000
_symmetry_Int_Tables_number   1
_chemical_formula_structural   Cu15(NiC2)4
_chemical_formula_sum   'Cu30 Ni8 C16'
_cell_volume   753.30827114
_cell_formula_units_Z   2
loop_
 _symmetry_equiv_pos_site_id
 _symmetry_equiv_pos_as_xyz
  1  'x, y, z'
loop_
 _atom_site_type_symbol
 _atom_site_label
 _atom_site_symmetry_multiplicity
 _atom_site_fract_x
 _atom_site_fract_y
 _atom_site_fract_z
 _atom_site_occupancy
  C  C0  1  0.25000000  0.19281200  0.40553000  1
  C  C1  1  0.75000000  0.80718800  0.59447000  1
  C  C2  1  0.40684500  0.71305800  0.76447000  1
  C  C3  1  0.90684500  0.28694200  0.23553000  1
  C  C4  1  0.59315500  0.28694200  0.23553000  1
  C  C5  1  0.09315500  0.71305800  0.76447000  1
  C  C6  1  0.19468800  0.20140200  0.06972600  1
  C  C7  1  0.19558700  0.75037600  0.19990500  1
  C  C8  1  0.30531200  0.20140200  0.06972600  1
  C  C9  1  0.75000000  0.51058100  0.09097100  1
  C  C10  1  0.69558700  0.24962400  0.80009500  1
  C  C11  1  0.30441300  0.75037600  0.19990500  1
  C  C12  1  0.80531200  0.79859800  0.93027400  1
  C  C13  1  0.25000000  0.48941900  0.90902900  1
  C  C14  1  0.80441300  0.24962400  0.80009500  1
  C  C15  1  0.69468800  0.79859800  0.93027400  1
  Ni  Ni16  1  0.95338900  0.01225300  0.95743300  1
  Ni  Ni17  1  0.45052300  0.45552100  0.48236900  1
  Ni  Ni18  1  0.04947700  0.45552100  0.48236900  1
  Ni  Ni19  1  0.45338900  0.98774700  0.04256700  1
  Ni  Ni20  1  0.04661100  0.98774700  0.04256700  1
  Ni  Ni21  1  0.54947700  0.54447900  0.51763100  1
  Ni  Ni22  1  0.54661100  0.01225300  0.95743300  1
  Ni  Ni23  1  0.95052300  0.54447900  0.51763100  1
  Cu  Cu24  1  0.61500100  0.11654800  0.01082200  1
  Cu  Cu25  1  0.05421400  0.33648300  0.37934200  1
  Cu  Cu26  1  0.05874100  0.44381700  0.87186600  1
  Cu  Cu27  1  0.11500100  0.88345200  0.98917800  1
  Cu  Cu28  1  0.63043500  0.02456600  0.34857900  1
  Cu  Cu29  1  0.55421400  0.66351700  0.62065800  1
  Cu  Cu30  1  0.44578600  0.33648300  0.37934200  1
  Cu  Cu31  1  0.55874100  0.55618300  0.12813400  1
  Cu  Cu32  1  0.36956500  0.97543400  0.65142100  1
  Cu  Cu33  1  0.13043500  0.97543400  0.65142100  1
  Cu  Cu34  1  0.88499900  0.11654800  0.01082200  1
  Cu  Cu35  1  0.44125900  0.44381700  0.87186600  1
  Cu  Cu36  1  0.75000000  0.38479800  0.17683600  1
  Cu  Cu37  1  0.04950500  0.07551400  0.15877500  1
  Cu  Cu38  1  0.95049500  0.92448600  0.84122500  1
  Cu  Cu39  1  0.11843600  0.50892300  0.55940600  1
  Cu  Cu40  1  0.25000000  0.61520200  0.82316400  1
  Cu  Cu41  1  0.54950500  0.92448600  0.84122500  1
  Cu  Cu42  1  0.75000000  0.24941400  0.73456000  1
  Cu  Cu43  1  0.38499900  0.88345200  0.98917800  1
  Cu  Cu44  1  0.75000000  0.69571600  0.93062100  1
  Cu  Cu45  1  0.25000000  0.75058600  0.26544000  1
  Cu  Cu46  1  0.86956500  0.02456600  0.34857900  1
  Cu  Cu47  1  0.45049500  0.07551400  0.15877500  1
  Cu  Cu48  1  0.61843600  0.49107700  0.44059400  1
  Cu  Cu49  1  0.94125900  0.55618300  0.12813400  1
  Cu  Cu50  1  0.88156400  0.49107700  0.44059400  1
  Cu  Cu51  1  0.94578600  0.66351700  0.62065800  1
  Cu  Cu52  1  0.38156400  0.50892300  0.55940600  1
  Cu  Cu53  1  0.25000000  0.30428400  0.06937900  1
