# generated using pymatgen
data_Cu8NiC18
_symmetry_space_group_name_H-M   'P 1'
_cell_length_a   8.49037200
_cell_length_b   6.26346200
_cell_length_c   10.26875985
_cell_angle_alpha   89.69046349
_cell_angle_beta   90.00000000
_cell_angle_gamma   90.00000000
_symmetry_Int_Tables_number   1
_chemical_formula_structural   Cu8NiC18
_chemical_formula_sum   'Cu16 Ni2 C36'
_cell_volume   546.07566794
_cell_formula_units_Z   2
loop_
 _symmetry_equiv_pos_site_id
 _symmetry_equiv_pos_as_xyz
  1  'x, y, z'
loop_
 _atom_site_type_symbol
 _atom_site_label
 _atom_site_symmetry_multiplicity
 _atom_site_fract_x
 _atom_site_fract_y
 _atom_site_fract_z
 _atom_site_occupancy
  C  C0  1  0.00626800  0.49539200  0.81788000  1
  C  C1  1  0.50626800  0.00460800  0.18212000  1
  C  C2  1  0.49373200  0.99539200  0.81788000  1
  C  C3  1  0.99373200  0.50460800  0.18212000  1
  Ni  Ni4  1  0.50000000  0.00000000  0.50000000  1
  Ni  Ni5  1  0.00000000  0.50000000  0.50000000  1
  Cu  Cu6  1  0.80922500  0.88416800  0.38153100  1
  Cu  Cu7  1  0.19077500  0.11583200  0.61846900  1
  Cu  Cu8  1  0.30922500  0.61583200  0.61846900  1
  Cu  Cu9  1  0.18225700  0.88733700  0.00010100  1
  Cu  Cu10  1  0.69331100  0.37946100  0.62668000  1
  Cu  Cu11  1  0.30668900  0.62053900  0.37332000  1
  Cu  Cu12  1  0.49637400  0.49439900  0.80630200  1
  Cu  Cu13  1  0.81774300  0.11266300  0.99989900  1
  Cu  Cu14  1  0.31774300  0.38733700  0.00010100  1
  Cu  Cu15  1  0.50362600  0.50560100  0.19369800  1
  Cu  Cu16  1  0.80668900  0.87946100  0.62668000  1
  Cu  Cu17  1  0.99637400  0.00560100  0.19369800  1
  Cu  Cu18  1  0.00362600  0.99439900  0.80630200  1
  Cu  Cu19  1  0.68225700  0.61266300  0.99989900  1
  Cu  Cu20  1  0.69077500  0.38416800  0.38153100  1
  Cu  Cu21  1  0.19331100  0.12053900  0.37332000  1
  C  C22  1  0.66344100  0.06054600  0.99297200  1
  C  C23  1  0.40916800  0.64820000  0.72467200  1
  C  C24  1  0.62580800  0.35007400  0.50441700  1
  C  C25  1  0.38888800  0.34815800  0.87873800  1
  C  C26  1  0.59083200  0.35180000  0.27532800  1
  C  C27  1  0.34256300  0.05900200  0.63745200  1
  C  C28  1  0.37419200  0.64992600  0.49558300  1
  C  C29  1  0.12580800  0.14992600  0.49558300  1
  C  C30  1  0.90916800  0.85180000  0.27532800  1
  C  C31  1  0.65493600  0.93721500  0.64324400  1
  C  C32  1  0.41288800  0.35815800  0.10985100  1
  C  C33  1  0.33655900  0.93945400  0.00702800  1
  C  C34  1  0.08711200  0.85815800  0.10985100  1
  C  C35  1  0.91288800  0.14184200  0.89014900  1
  C  C36  1  0.11111200  0.84815800  0.87873800  1
  C  C37  1  0.61111200  0.65184200  0.12126200  1
  C  C38  1  0.09532300  0.15691800  0.26565400  1
  C  C39  1  0.34506400  0.06278500  0.35675600  1
  C  C40  1  0.16344100  0.43945400  0.00702800  1
  C  C41  1  0.15743700  0.55900100  0.63745200  1
  C  C42  1  0.84506400  0.43721500  0.64324400  1
  C  C43  1  0.87419200  0.85007400  0.50441700  1
  C  C44  1  0.83655900  0.56054600  0.99297200  1
  C  C45  1  0.59532300  0.34308200  0.73434600  1
  C  C46  1  0.58711200  0.64184200  0.89014900  1
  C  C47  1  0.65743700  0.94099800  0.36254800  1
  C  C48  1  0.88888800  0.15184200  0.12126200  1
  C  C49  1  0.15493600  0.56278500  0.35675600  1
  C  C50  1  0.90467700  0.84308200  0.73434600  1
  C  C51  1  0.09083200  0.14820000  0.72467200  1
  C  C52  1  0.84256300  0.44099800  0.36254800  1
  C  C53  1  0.40467700  0.65691800  0.26565400  1
