# generated using pymatgen
data_Cu10NiC10
_symmetry_space_group_name_H-M   'P 1'
_cell_length_a   11.96409900
_cell_length_b   11.96409900
_cell_length_c   17.18480800
_cell_angle_alpha   90.00000000
_cell_angle_beta   90.00000000
_cell_angle_gamma   90.00000000
_symmetry_Int_Tables_number   1
_chemical_formula_structural   Cu10NiC10
_chemical_formula_sum   'Cu40 Ni4 C40'
_cell_volume   2459.82765818
_cell_formula_units_Z   4
loop_
 _symmetry_equiv_pos_site_id
 _symmetry_equiv_pos_as_xyz
  1  'x, y, z'
loop_
 _atom_site_type_symbol
 _atom_site_label
 _atom_site_symmetry_multiplicity
 _atom_site_fract_x
 _atom_site_fract_y
 _atom_site_fract_z
 _atom_site_occupancy
  Ni  Ni0  1  0.77777200  0.22222800  0.50000000  1
  Ni  Ni1  1  0.22222800  0.77777200  0.50000000  1
  Ni  Ni2  1  0.72222800  0.72222800  0.00000000  1
  Ni  Ni3  1  0.27777200  0.27777200  0.00000000  1
  Cu  Cu4  1  0.48510300  0.83816800  0.10299500  1
  Cu  Cu5  1  0.51489700  0.16183200  0.89700500  1
  Cu  Cu6  1  0.24842000  0.51173500  0.68989800  1
  Cu  Cu7  1  0.00000000  0.00000000  0.64364500  1
  Cu  Cu8  1  0.75158000  0.48826500  0.31010200  1
  Cu  Cu9  1  0.48826500  0.75158000  0.68989800  1
  Cu  Cu10  1  0.01489700  0.33816800  0.39700500  1
  Cu  Cu11  1  0.16183200  0.51489700  0.89700500  1
  Cu  Cu12  1  0.01173500  0.25158000  0.18989800  1
  Cu  Cu13  1  0.33816800  0.01489700  0.60299500  1
  Cu  Cu14  1  0.51173500  0.24842000  0.68989800  1
  Cu  Cu15  1  0.74842000  0.98826500  0.81010200  1
  Cu  Cu16  1  0.83816800  0.48510300  0.10299500  1
  Cu  Cu17  1  0.98826500  0.74842000  0.81010200  1
  Cu  Cu18  1  0.66183200  0.98510300  0.39700500  1
  Cu  Cu19  1  0.33816800  0.01489700  0.39700500  1
  Cu  Cu20  1  0.50000000  0.50000000  0.85635500  1
  Cu  Cu21  1  0.75158000  0.48826500  0.68989800  1
  Cu  Cu22  1  0.98510300  0.66183200  0.39700500  1
  Cu  Cu23  1  0.01489700  0.33816800  0.60299500  1
  Cu  Cu24  1  0.24842000  0.51173500  0.31010200  1
  Cu  Cu25  1  0.81833400  0.18166600  0.00000000  1
  Cu  Cu26  1  0.51173500  0.24842000  0.31010200  1
  Cu  Cu27  1  0.83816800  0.48510300  0.89700500  1
  Cu  Cu28  1  0.50000000  0.50000000  0.14364500  1
  Cu  Cu29  1  0.98510300  0.66183200  0.60299500  1
  Cu  Cu30  1  0.74842000  0.98826500  0.18989800  1
  Cu  Cu31  1  0.48826500  0.75158000  0.31010200  1
  Cu  Cu32  1  0.98826500  0.74842000  0.18989800  1
  Cu  Cu33  1  0.68166600  0.68166600  0.50000000  1
  Cu  Cu34  1  0.25158000  0.01173500  0.18989800  1
  Cu  Cu35  1  0.66183200  0.98510300  0.60299500  1
  Cu  Cu36  1  0.01173500  0.25158000  0.81010200  1
  Cu  Cu37  1  0.31833400  0.31833400  0.50000000  1
  Cu  Cu38  1  0.51489700  0.16183200  0.10299500  1
  Cu  Cu39  1  0.00000000  0.00000000  0.35635500  1
  Cu  Cu40  1  0.25158000  0.01173500  0.81010200  1
  Cu  Cu41  1  0.48510300  0.83816800  0.89700500  1
  Cu  Cu42  1  0.16183200  0.51489700  0.10299500  1
  Cu  Cu43  1  0.18166600  0.81833400  0.00000000  1
  C  C44  1  0.10241200  0.10241200  0.00000000  1
  C  C45  1  0.39758800  0.60241200  0.50000000  1
  C  C46  1  0.60241200  0.39758800  0.50000000  1
  C  C47  1  0.89758800  0.89758800  0.00000000  1
  C  C48  1  0.22353900  0.22353900  0.31937300  1
  C  C49  1  0.37083700  0.62916300  0.00000000  1
  C  C50  1  0.18612500  0.81387500  0.67098700  1
  C  C51  1  0.62916300  0.37083700  0.00000000  1
  C  C52  1  0.31387500  0.31387500  0.82901300  1
  C  C53  1  0.33372000  0.03140600  0.00000000  1
  C  C54  1  0.50000000  0.00000000  0.75000000  1
  C  C55  1  0.83372000  0.46859400  0.50000000  1
  C  C56  1  0.31387500  0.31387500  0.17098700  1
  C  C57  1  0.68612500  0.68612500  0.17098700  1
  C  C58  1  0.50000000  0.00000000  0.25000000  1
  C  C59  1  0.72353900  0.27646100  0.81937300  1
  C  C60  1  0.81387500  0.18612500  0.32901300  1
  C  C61  1  0.18612500  0.81387500  0.32901300  1
  C  C62  1  0.87083700  0.87083700  0.50000000  1
  C  C63  1  0.16628000  0.53140600  0.50000000  1
  C  C64  1  0.77646100  0.77646100  0.68062700  1
  C  C65  1  0.81387500  0.18612500  0.67098700  1
  C  C66  1  0.00000000  0.00000000  0.86546800  1
  C  C67  1  0.77646100  0.77646100  0.31937300  1
  C  C68  1  0.50000000  0.50000000  0.36546800  1
  C  C69  1  0.96859400  0.66628000  0.00000000  1
  C  C70  1  0.68612500  0.68612500  0.82901300  1
  C  C71  1  0.50000000  0.50000000  0.63453200  1
  C  C72  1  0.27646100  0.72353900  0.18062700  1
  C  C73  1  0.03140600  0.33372000  0.00000000  1
  C  C74  1  0.53140600  0.16628000  0.50000000  1
  C  C75  1  0.27646100  0.72353900  0.81937300  1
  C  C76  1  0.66628000  0.96859400  0.00000000  1
  C  C77  1  0.46859400  0.83372000  0.50000000  1
  C  C78  1  0.22353900  0.22353900  0.68062700  1
  C  C79  1  0.12916300  0.12916300  0.50000000  1
  C  C80  1  0.72353900  0.27646100  0.18062700  1
  C  C81  1  0.00000000  0.00000000  0.13453200  1
  C  C82  1  0.00000000  0.50000000  0.75000000  1
  C  C83  1  0.00000000  0.50000000  0.25000000  1
