# generated using pymatgen
data_CuNi7C2
_symmetry_space_group_name_H-M   'P 1'
_cell_length_a   6.92966900
_cell_length_b   6.42156500
_cell_length_c   11.87969171
_cell_angle_alpha   84.76765860
_cell_angle_beta   90.00000000
_cell_angle_gamma   90.00000000
_symmetry_Int_Tables_number   1
_chemical_formula_structural   CuNi7C2
_chemical_formula_sum   'Cu2 Ni14 C4'
_cell_volume   526.43540943
_cell_formula_units_Z   2
loop_
 _symmetry_equiv_pos_site_id
 _symmetry_equiv_pos_as_xyz
  1  'x, y, z'
loop_
 _atom_site_type_symbol
 _atom_site_label
 _atom_site_symmetry_multiplicity
 _atom_site_fract_x
 _atom_site_fract_y
 _atom_site_fract_z
 _atom_site_occupancy
  C  C0  1  0.25000000  0.22926400  0.95433800  1
  C  C1  1  0.25000000  0.43275700  0.34693700  1
  C  C2  1  0.75000000  0.77073600  0.04566200  1
  C  C3  1  0.75000000  0.56724300  0.65306300  1
  Ni  Ni4  1  0.25000000  0.00890300  0.55050900  1
  Ni  Ni5  1  0.99397000  0.11701800  0.19523800  1
  Ni  Ni6  1  0.75000000  0.32156300  0.22236600  1
  Ni  Ni7  1  0.25000000  0.67446700  0.59347700  1
  Ni  Ni8  1  0.41970100  0.14471700  0.68688700  1
  Ni  Ni9  1  0.08029900  0.14471700  0.68688700  1
  Ni  Ni10  1  0.91970100  0.85528300  0.31311300  1
  Ni  Ni11  1  0.00603000  0.88298200  0.80476200  1
  Ni  Ni12  1  0.25000000  0.67843700  0.77763400  1
  Ni  Ni13  1  0.49397000  0.88298200  0.80476200  1
  Ni  Ni14  1  0.58029900  0.85528300  0.31311300  1
  Ni  Ni15  1  0.75000000  0.32553300  0.40652300  1
  Ni  Ni16  1  0.50603000  0.11701800  0.19523800  1
  Ni  Ni17  1  0.75000000  0.99109700  0.44949100  1
  Cu  Cu18  1  0.75000000  0.36504100  0.91101300  1
  Cu  Cu19  1  0.25000000  0.63495900  0.08898700  1
