# generated using pymatgen
data_Cu4NiC9
_symmetry_space_group_name_H-M   'P 1'
_cell_length_a   9.55580939
_cell_length_b   9.55580939
_cell_length_c   10.65016113
_cell_angle_alpha   86.99913207
_cell_angle_beta   86.99913207
_cell_angle_gamma   42.54142314
_symmetry_Int_Tables_number   1
_chemical_formula_structural   Cu4NiC9
_chemical_formula_sum   'Cu8 Ni2 C18'
_cell_volume   656.49358570
_cell_formula_units_Z   2
loop_
 _symmetry_equiv_pos_site_id
 _symmetry_equiv_pos_as_xyz
  1  'x, y, z'
loop_
 _atom_site_type_symbol
 _atom_site_label
 _atom_site_symmetry_multiplicity
 _atom_site_fract_x
 _atom_site_fract_y
 _atom_site_fract_z
 _atom_site_occupancy
  Ni  Ni0  1  0.96938800  0.32988300  0.28951600  1
  Ni  Ni1  1  0.32988300  0.96938800  0.78951600  1
  Cu  Cu2  1  0.82481800  0.18456600  0.99970500  1
  Cu  Cu3  1  0.18456600  0.82481800  0.49970500  1
  Cu  Cu4  1  0.61337500  0.25964900  0.38617000  1
  Cu  Cu5  1  0.25964900  0.61337500  0.88617000  1
  Cu  Cu6  1  0.46973000  0.10820700  0.09760100  1
  Cu  Cu7  1  0.10820700  0.46973000  0.59760100  1
  Cu  Cu8  1  0.60270100  0.84479800  0.44509600  1
  Cu  Cu9  1  0.84479800  0.60270100  0.94509600  1
  C  C10  1  0.39766300  0.74711500  0.16865500  1
  C  C11  1  0.74711500  0.39766300  0.66865500  1
  C  C12  1  0.03490600  0.68954300  0.24382600  1
  C  C13  1  0.68954300  0.03490600  0.74382600  1
  C  C14  1  0.80344000  0.13451900  0.59587500  1
  C  C15  1  0.13451900  0.80344000  0.09587500  1
  C  C16  1  0.70012300  0.96730500  0.28373500  1
  C  C17  1  0.96730500  0.70012300  0.78373500  1
  C  C18  1  0.08395000  0.45354100  0.14148000  1
  C  C19  1  0.45354100  0.08395000  0.64148000  1
  C  C20  1  0.46590800  0.86405700  0.01672300  1
  C  C21  1  0.86405700  0.46590800  0.51672300  1
  C  C22  1  0.29320300  0.93687700  0.33898500  1
  C  C23  1  0.93687700  0.29320300  0.83898500  1
  C  C24  1  0.40473400  0.67379700  0.70335700  1
  C  C25  1  0.67379700  0.40473400  0.20335700  1
  C  C26  1  0.21917100  0.55803500  0.41607700  1
  C  C27  1  0.55803500  0.21917100  0.91607700  1
