# generated using pymatgen
data_Cu(NiC3)2
_symmetry_space_group_name_H-M   'P 1'
_cell_length_a   4.09511821
_cell_length_b   4.09624526
_cell_length_c   18.22180288
_cell_angle_alpha   90.00234300
_cell_angle_beta   90.00367972
_cell_angle_gamma   89.99348081
_symmetry_Int_Tables_number   1
_chemical_formula_structural   Cu(NiC3)2
_chemical_formula_sum   'Cu2 Ni4 C12'
_cell_volume   305.66360767
_cell_formula_units_Z   2
loop_
 _symmetry_equiv_pos_site_id
 _symmetry_equiv_pos_as_xyz
  1  'x, y, z'
loop_
 _atom_site_type_symbol
 _atom_site_label
 _atom_site_symmetry_multiplicity
 _atom_site_fract_x
 _atom_site_fract_y
 _atom_site_fract_z
 _atom_site_occupancy
  C  C0  1  0.00001400  0.00000200  0.32831800  1
  C  C1  1  0.50001400  0.50000200  0.82831800  1
  C  C2  1  0.49997200  0.49997800  0.17168500  1
  C  C3  1  0.99997200  0.99997800  0.67168500  1
  C  C4  1  0.00003400  0.50001300  0.99999100  1
  C  C5  1  0.99996300  0.50001900  0.49998700  1
  C  C6  1  0.50003300  0.00001800  0.49998900  1
  C  C7  1  0.49996300  0.00001900  0.99998800  1
  Ni  Ni8  1  0.99997600  0.99998100  0.09459400  1
  Ni  Ni9  1  0.49997600  0.49998200  0.59459500  1
  Ni  Ni10  1  0.50002100  0.50001100  0.40540500  1
  Ni  Ni11  1  0.00002100  0.00001200  0.90540600  1
  Cu  Cu12  1  0.50003800  0.50001500  0.99999900  1
  Cu  Cu13  1  0.00003800  0.00001500  0.49999900  1
  C  C14  1  0.49999400  0.99998900  0.25001600  1
  C  C15  1  0.99999400  0.49998900  0.75001600  1
  C  C16  1  0.99998800  0.49998800  0.25000400  1
  C  C17  1  0.49998800  0.99998800  0.75000400  1
