# generated using pymatgen
data_CuNiC
_symmetry_space_group_name_H-M   'P 1'
_cell_length_a   6.87068200
_cell_length_b   11.84695700
_cell_length_c   19.52236300
_cell_angle_alpha   90.00000000
_cell_angle_beta   90.00000000
_cell_angle_gamma   90.00000000
_symmetry_Int_Tables_number   1
_chemical_formula_structural   CuNiC
_chemical_formula_sum   'Cu24 Ni24 C24'
_cell_volume   1589.05542101
_cell_formula_units_Z   24
loop_
 _symmetry_equiv_pos_site_id
 _symmetry_equiv_pos_as_xyz
  1  'x, y, z'
loop_
 _atom_site_type_symbol
 _atom_site_label
 _atom_site_symmetry_multiplicity
 _atom_site_fract_x
 _atom_site_fract_y
 _atom_site_fract_z
 _atom_site_occupancy
  C  C0  1  0.53173000  0.16856400  0.69527700  1
  C  C1  1  0.81567600  0.16736000  0.86077600  1
  C  C2  1  0.03173000  0.66856400  0.80472300  1
  C  C3  1  0.96827000  0.66856400  0.30472300  1
  C  C4  1  0.81567600  0.83264000  0.63922400  1
  C  C5  1  0.46827000  0.83143600  0.30472300  1
  C  C6  1  0.35998400  0.32911100  0.52932200  1
  C  C7  1  0.31567600  0.33264000  0.86077600  1
  C  C8  1  0.14001600  0.82911100  0.47067800  1
  C  C9  1  0.64001600  0.32911100  0.02932200  1
  C  C10  1  0.68432400  0.66736000  0.13922400  1
  C  C11  1  0.31567600  0.66736000  0.63922400  1
  C  C12  1  0.35998400  0.67088900  0.97067800  1
  C  C13  1  0.18432400  0.16736000  0.36077600  1
  C  C14  1  0.46827000  0.16856400  0.19527700  1
  C  C15  1  0.85998400  0.17088900  0.52932200  1
  C  C16  1  0.64001600  0.67088900  0.47067800  1
  C  C17  1  0.18432400  0.83264000  0.13922400  1
  C  C18  1  0.96827000  0.33143600  0.19527700  1
  C  C19  1  0.03173000  0.33143600  0.69527700  1
  C  C20  1  0.53173000  0.83143600  0.80472300  1
  C  C21  1  0.85998400  0.82911100  0.97067800  1
  C  C22  1  0.68432400  0.33264000  0.36077600  1
  C  C23  1  0.14001600  0.17088900  0.02932200  1
  Ni  Ni24  1  0.99428600  0.98476600  0.18412700  1
  Ni  Ni25  1  0.00571400  0.01523400  0.81587300  1
  Ni  Ni26  1  0.00571400  0.98476600  0.68412700  1
  Ni  Ni27  1  0.35411400  0.98348900  0.85383700  1
  Ni  Ni28  1  0.82288300  0.48271000  0.98303000  1
  Ni  Ni29  1  0.17711700  0.48271000  0.48303000  1
  Ni  Ni30  1  0.67711700  0.01729000  0.48303000  1
  Ni  Ni31  1  0.64588600  0.01651100  0.14616300  1
  Ni  Ni32  1  0.32288300  0.98271000  0.51697000  1
  Ni  Ni33  1  0.99428600  0.01523400  0.31587300  1
  Ni  Ni34  1  0.49428600  0.51523400  0.18412700  1
  Ni  Ni35  1  0.14588600  0.48348900  0.14616300  1
  Ni  Ni36  1  0.67711700  0.98271000  0.01697000  1
  Ni  Ni37  1  0.50571400  0.48476600  0.81587300  1
  Ni  Ni38  1  0.64588600  0.98348900  0.35383700  1
  Ni  Ni39  1  0.32288300  0.01729000  0.98303000  1
  Ni  Ni40  1  0.82288300  0.51729000  0.51697000  1
  Ni  Ni41  1  0.85411400  0.51651100  0.85383700  1
  Ni  Ni42  1  0.17711700  0.51729000  0.01697000  1
  Ni  Ni43  1  0.50571400  0.51523400  0.68412700  1
  Ni  Ni44  1  0.85411400  0.48348900  0.64616300  1
  Ni  Ni45  1  0.35411400  0.01651100  0.64616300  1
  Ni  Ni46  1  0.49428600  0.48476600  0.31587300  1
  Ni  Ni47  1  0.14588600  0.51651100  0.35383700  1
  Cu  Cu48  1  0.01526200  0.33306400  0.31857500  1
  Cu  Cu49  1  0.31322800  0.33315000  0.98450500  1
  Cu  Cu50  1  0.68677200  0.33315000  0.48450500  1
  Cu  Cu51  1  0.13962300  0.83328900  0.34718500  1
  Cu  Cu52  1  0.51526200  0.16693600  0.31857500  1
  Cu  Cu53  1  0.51526200  0.83306400  0.18142500  1
  Cu  Cu54  1  0.48473800  0.16693600  0.81857500  1
  Cu  Cu55  1  0.81322800  0.83315000  0.51549500  1
  Cu  Cu56  1  0.36037700  0.33328900  0.65281500  1
  Cu  Cu57  1  0.31322800  0.66685000  0.51549500  1
  Cu  Cu58  1  0.86037700  0.16671100  0.65281500  1
  Cu  Cu59  1  0.68677200  0.66685000  0.01549500  1
  Cu  Cu60  1  0.63962300  0.33328900  0.15281500  1
  Cu  Cu61  1  0.01526200  0.66693600  0.18142500  1
  Cu  Cu62  1  0.18677200  0.16685000  0.48450500  1
  Cu  Cu63  1  0.98473800  0.66693600  0.68142500  1
  Cu  Cu64  1  0.98473800  0.33306400  0.81857500  1
  Cu  Cu65  1  0.86037700  0.83328900  0.84718500  1
  Cu  Cu66  1  0.48473800  0.83306400  0.68142500  1
  Cu  Cu67  1  0.13962300  0.16671100  0.15281500  1
  Cu  Cu68  1  0.18677200  0.83315000  0.01549500  1
  Cu  Cu69  1  0.81322800  0.16685000  0.98450500  1
  Cu  Cu70  1  0.63962300  0.66671100  0.34718500  1
  Cu  Cu71  1  0.36037700  0.66671100  0.84718500  1
