# generated using pymatgen
data_Cu6Ni4C13
_symmetry_space_group_name_H-M   'P 1'
_cell_length_a   7.01382889
_cell_length_b   7.01382889
_cell_length_c   7.01382889
_cell_angle_alpha   109.47122063
_cell_angle_beta   109.47122063
_cell_angle_gamma   109.47122063
_symmetry_Int_Tables_number   1
_chemical_formula_structural   Cu6Ni4C13
_chemical_formula_sum   'Cu6 Ni4 C13'
_cell_volume   265.60950334
_cell_formula_units_Z   1
loop_
 _symmetry_equiv_pos_site_id
 _symmetry_equiv_pos_as_xyz
  1  'x, y, z'
loop_
 _atom_site_type_symbol
 _atom_site_label
 _atom_site_symmetry_multiplicity
 _atom_site_fract_x
 _atom_site_fract_y
 _atom_site_fract_z
 _atom_site_occupancy
  Ni  Ni0  1  0.00000000  0.70120100  0.00000000  1
  Ni  Ni1  1  0.70120100  0.00000000  0.00000000  1
  Ni  Ni2  1  0.00000000  0.00000000  0.70120100  1
  Ni  Ni3  1  0.29879900  0.29879900  0.29879900  1
  Cu  Cu4  1  0.50000000  0.25000000  0.75000000  1
  Cu  Cu5  1  0.50000000  0.75000000  0.25000000  1
  Cu  Cu6  1  0.75000000  0.50000000  0.25000000  1
  Cu  Cu7  1  0.25000000  0.75000000  0.50000000  1
  Cu  Cu8  1  0.75000000  0.25000000  0.50000000  1
  Cu  Cu9  1  0.25000000  0.50000000  0.75000000  1
  C  C10  1  0.00000000  0.73512400  0.45919700  1
  C  C11  1  0.27592600  0.54080300  0.54080300  1
  C  C12  1  0.73512400  0.45919700  0.00000000  1
  C  C13  1  0.26487600  0.72407400  0.26487600  1
  C  C14  1  0.45919700  0.00000000  0.73512400  1
  C  C15  1  0.72407400  0.26487600  0.26487600  1
  C  C16  1  0.54080300  0.27592600  0.54080300  1
  C  C17  1  0.73512400  0.00000000  0.45919700  1
  C  C18  1  0.26487600  0.26487600  0.72407400  1
  C  C19  1  0.45919700  0.73512400  0.00000000  1
  C  C20  1  0.54080300  0.54080300  0.27592600  1
  C  C21  1  0.00000000  0.45919700  0.73512400  1
  C  C22  1  0.00000000  0.00000000  0.00000000  1
