# generated using pymatgen
data_Cu9Ni4
_symmetry_space_group_name_H-M   'P 1'
_cell_length_a   16.31311268
_cell_length_b   16.31311268
_cell_length_c   16.31311268
_cell_angle_alpha   109.47122063
_cell_angle_beta   109.47122063
_cell_angle_gamma   109.47122063
_symmetry_Int_Tables_number   1
_chemical_formula_structural   Cu9Ni4
_chemical_formula_sum   'Cu72 Ni32'
_cell_volume   3341.86281303
_cell_formula_units_Z   8
loop_
 _symmetry_equiv_pos_site_id
 _symmetry_equiv_pos_as_xyz
  1  'x, y, z'
loop_
 _atom_site_type_symbol
 _atom_site_label
 _atom_site_symmetry_multiplicity
 _atom_site_fract_x
 _atom_site_fract_y
 _atom_site_fract_z
 _atom_site_occupancy
  Ni  Ni0  1  0.75534600  0.39655200  0.85361200  1
  Ni  Ni1  1  0.85361200  0.75534600  0.39655200  1
  Ni  Ni2  1  0.14120600  0.54293900  0.89655200  1
  Ni  Ni3  1  0.24465400  0.60344800  0.14638800  1
  Ni  Ni4  1  0.04293900  0.90173400  0.64638800  1
  Ni  Ni5  1  0.66259700  0.50000000  0.00000000  1
  Ni  Ni6  1  0.85879400  0.45706100  0.10344800  1
  Ni  Ni7  1  0.90173400  0.64638800  0.04293900  1
  Ni  Ni8  1  0.00000000  0.66259700  0.50000000  1
  Ni  Ni9  1  0.00000000  0.33740300  0.50000000  1
  Ni  Ni10  1  0.64120600  0.74465400  0.59826600  1
  Ni  Ni11  1  0.16259700  0.16259700  0.16259700  1
  Ni  Ni12  1  0.10344800  0.85879400  0.45706100  1
  Ni  Ni13  1  0.60344800  0.14638800  0.24465400  1
  Ni  Ni14  1  0.33740300  0.50000000  0.00000000  1
  Ni  Ni15  1  0.64638800  0.04293900  0.90173400  1
  Ni  Ni16  1  0.40173400  0.35879400  0.25534600  1
  Ni  Ni17  1  0.39655200  0.85361200  0.75534600  1
  Ni  Ni18  1  0.35879400  0.25534600  0.40173400  1
  Ni  Ni19  1  0.74465400  0.59826600  0.64120600  1
  Ni  Ni20  1  0.83740300  0.83740300  0.83740300  1
  Ni  Ni21  1  0.54293900  0.89655200  0.14120600  1
  Ni  Ni22  1  0.25534600  0.40173400  0.35879400  1
  Ni  Ni23  1  0.35361200  0.95706100  0.09826600  1
  Ni  Ni24  1  0.45706100  0.10344800  0.85879400  1
  Ni  Ni25  1  0.50000000  0.00000000  0.66259700  1
  Ni  Ni26  1  0.14638800  0.24465400  0.60344800  1
  Ni  Ni27  1  0.89655200  0.14120600  0.54293900  1
  Ni  Ni28  1  0.50000000  0.00000000  0.33740300  1
  Ni  Ni29  1  0.95706100  0.09826600  0.35361200  1
  Ni  Ni30  1  0.59826600  0.64120600  0.74465400  1
  Ni  Ni31  1  0.09826600  0.35361200  0.95706100  1
  Cu  Cu32  1  0.72213200  0.72174000  0.30342500  1
  Cu  Cu33  1  0.58129300  0.80342500  0.08168500  1
  Cu  Cu34  1  0.14556000  0.96479600  0.60278600  1
  Cu  Cu35  1  0.46479600  0.31923600  0.36201000  1
  Cu  Cu36  1  0.30342500  0.72213200  0.72174000  1
  Cu  Cu37  1  0.22749100  0.35464300  0.95647200  1
  Cu  Cu38  1  0.85464300  0.62715200  0.39817100  1
  Cu  Cu39  1  0.77101900  0.87284800  0.72749100  1
  Cu  Cu40  1  0.89817100  0.27101900  0.54352800  1
  Cu  Cu41  1  0.89721400  0.86201000  0.54277400  1
  Cu  Cu42  1  0.91870700  0.00039200  0.22213200  1
  Cu  Cu43  1  0.95722600  0.81923600  0.35444000  1
  Cu  Cu44  1  0.87284800  0.72749100  0.77101900  1
  Cu  Cu45  1  0.39817100  0.85464300  0.62715200  1
  Cu  Cu46  1  0.27786800  0.27826000  0.69657500  1
  Cu  Cu47  1  0.22174000  0.49960800  0.41831500  1
  Cu  Cu48  1  0.62715200  0.39817100  0.85464300  1
  Cu  Cu49  1  0.27101900  0.54352800  0.89817100  1
  Cu  Cu50  1  0.85444000  0.03520400  0.39721400  1
  Cu  Cu51  1  0.80342500  0.08168500  0.58129300  1
  Cu  Cu52  1  0.35444000  0.95722600  0.81923600  1
  Cu  Cu53  1  0.72749100  0.77101900  0.87284800  1
  Cu  Cu54  1  0.10182900  0.72898100  0.45647200  1
  Cu  Cu55  1  0.08129300  0.99960800  0.77786800  1
  Cu  Cu56  1  0.08168500  0.58129300  0.80342500  1
  Cu  Cu57  1  0.86201000  0.54277400  0.89721400  1
  Cu  Cu58  1  0.72174000  0.30342500  0.72213200  1
  Cu  Cu59  1  0.22898100  0.12715200  0.27250900  1
  Cu  Cu60  1  0.63799000  0.53520400  0.68076400  1
  Cu  Cu61  1  0.54277400  0.89721400  0.86201000  1
  Cu  Cu62  1  0.13799000  0.45722600  0.10278600  1
  Cu  Cu63  1  0.53520400  0.68076400  0.63799000  1
  Cu  Cu64  1  0.18076400  0.64556000  0.04277400  1
  Cu  Cu65  1  0.69657500  0.27786800  0.27826000  1
  Cu  Cu66  1  0.14535700  0.37284800  0.60182900  1
  Cu  Cu67  1  0.77250900  0.64535700  0.04352800  1
  Cu  Cu68  1  0.81923600  0.35444000  0.95722600  1
  Cu  Cu69  1  0.58168500  0.77826000  0.50039200  1
  Cu  Cu70  1  0.60182900  0.14535700  0.37284800  1
  Cu  Cu71  1  0.22213200  0.91870700  0.00039200  1
  Cu  Cu72  1  0.03520400  0.39721400  0.85444000  1
  Cu  Cu73  1  0.19657500  0.91831500  0.41870700  1
  Cu  Cu74  1  0.64556000  0.04277400  0.18076400  1
  Cu  Cu75  1  0.95647200  0.22749100  0.35464300  1
  Cu  Cu76  1  0.50039200  0.58168500  0.77826000  1
  Cu  Cu77  1  0.27250900  0.22898100  0.12715200  1
  Cu  Cu78  1  0.49960800  0.41831500  0.22174000  1
  Cu  Cu79  1  0.37284800  0.60182900  0.14535700  1
  Cu  Cu80  1  0.35464300  0.95647200  0.22749100  1
  Cu  Cu81  1  0.12715200  0.27250900  0.22898100  1
  Cu  Cu82  1  0.99960800  0.77786800  0.08129300  1
  Cu  Cu83  1  0.72898100  0.45647200  0.10182900  1
  Cu  Cu84  1  0.41870700  0.19657500  0.91831500  1
  Cu  Cu85  1  0.41831500  0.22174000  0.49960800  1
  Cu  Cu86  1  0.60278600  0.14556000  0.96479600  1
  Cu  Cu87  1  0.68076400  0.63799000  0.53520400  1
  Cu  Cu88  1  0.39721400  0.85444000  0.03520400  1
  Cu  Cu89  1  0.36201000  0.46479600  0.31923600  1
  Cu  Cu90  1  0.96479600  0.60278600  0.14556000  1
  Cu  Cu91  1  0.10278600  0.13799000  0.45722600  1
  Cu  Cu92  1  0.64535700  0.04352800  0.77250900  1
  Cu  Cu93  1  0.45647200  0.10182900  0.72898100  1
  Cu  Cu94  1  0.27826000  0.69657500  0.27786800  1
  Cu  Cu95  1  0.00039200  0.22213200  0.91870700  1
  Cu  Cu96  1  0.54352800  0.89817100  0.27101900  1
  Cu  Cu97  1  0.77826000  0.50039200  0.58168500  1
  Cu  Cu98  1  0.77786800  0.08129300  0.99960800  1
  Cu  Cu99  1  0.04277400  0.18076400  0.64556000  1
  Cu  Cu100  1  0.31923600  0.36201000  0.46479600  1
  Cu  Cu101  1  0.04352800  0.77250900  0.64535700  1
  Cu  Cu102  1  0.91831500  0.41870700  0.19657500  1
  Cu  Cu103  1  0.45722600  0.10278600  0.13799000  1
