# generated using pymatgen
data_Cu2Ni2C3
_symmetry_space_group_name_H-M   'P 1'
_cell_length_a   10.33681058
_cell_length_b   10.33681058
_cell_length_c   9.72536090
_cell_angle_alpha   89.09213186
_cell_angle_beta   89.09213186
_cell_angle_gamma   56.33194990
_symmetry_Int_Tables_number   1
_chemical_formula_structural   Cu2Ni2C3
_chemical_formula_sum   'Cu8 Ni8 C12'
_cell_volume   864.70800415
_cell_formula_units_Z   4
loop_
 _symmetry_equiv_pos_site_id
 _symmetry_equiv_pos_as_xyz
  1  'x, y, z'
loop_
 _atom_site_type_symbol
 _atom_site_label
 _atom_site_symmetry_multiplicity
 _atom_site_fract_x
 _atom_site_fract_y
 _atom_site_fract_z
 _atom_site_occupancy
  C  C0  1  0.90807100  0.33342500  0.79687400  1
  C  C1  1  0.33342500  0.90807100  0.79687400  1
  C  C2  1  0.76238200  0.23761800  0.50000000  1
  C  C3  1  0.09192900  0.66657500  0.20312600  1
  C  C4  1  0.75113700  0.75113700  0.77660800  1
  C  C5  1  0.48741600  0.48741600  0.76629600  1
  C  C6  1  0.23761800  0.76238200  0.50000000  1
  C  C7  1  0.24886300  0.24886300  0.22339200  1
  C  C8  1  0.51258400  0.51258400  0.23370400  1
  C  C9  1  0.66657500  0.09192900  0.20312600  1
  C  C10  1  0.00000000  0.50000000  0.50000000  1
  C  C11  1  0.50000000  0.00000000  0.50000000  1
  Ni  Ni12  1  0.73906800  0.23881800  0.74918500  1
  Ni  Ni13  1  0.50657300  0.00150500  0.75050800  1
  Ni  Ni14  1  0.00150500  0.50657300  0.75050800  1
  Ni  Ni15  1  0.99849500  0.49342700  0.24949200  1
  Ni  Ni16  1  0.26093200  0.76118200  0.25081500  1
  Ni  Ni17  1  0.76118200  0.26093200  0.25081500  1
  Ni  Ni18  1  0.49342700  0.99849500  0.24949200  1
  Ni  Ni19  1  0.23881800  0.73906800  0.74918500  1
  Cu  Cu20  1  0.12300900  0.12300900  0.99412400  1
  Cu  Cu21  1  0.12398400  0.12398400  0.53282200  1
  Cu  Cu22  1  0.87699100  0.87699100  0.00587600  1
  Cu  Cu23  1  0.38219400  0.38219400  0.02404200  1
  Cu  Cu24  1  0.62614600  0.62614600  0.50634900  1
  Cu  Cu25  1  0.37385400  0.37385400  0.49365100  1
  Cu  Cu26  1  0.87601600  0.87601600  0.46717800  1
  Cu  Cu27  1  0.61780600  0.61780600  0.97595800  1
