# generated using pymatgen
data_Cu(Ni3C)2
_symmetry_space_group_name_H-M   'P 1'
_cell_length_a   5.23632239
_cell_length_b   5.23632239
_cell_length_c   5.23632165
_cell_angle_alpha   50.73296133
_cell_angle_beta   50.73296133
_cell_angle_gamma   50.73296109
_symmetry_Int_Tables_number   1
_chemical_formula_structural   Cu(Ni3C)2
_chemical_formula_sum   'Cu1 Ni6 C2'
_cell_volume   79.33027409
_cell_formula_units_Z   1
loop_
 _symmetry_equiv_pos_site_id
 _symmetry_equiv_pos_as_xyz
  1  'x, y, z'
loop_
 _atom_site_type_symbol
 _atom_site_label
 _atom_site_symmetry_multiplicity
 _atom_site_fract_x
 _atom_site_fract_y
 _atom_site_fract_z
 _atom_site_occupancy
  Ni  Ni0  1  0.77147100  0.38576900  0.77147100  1
  Ni  Ni1  1  0.38576900  0.77147100  0.77147100  1
  Ni  Ni2  1  0.34847100  0.34847100  0.74560300  1
  Ni  Ni3  1  0.77147100  0.77147100  0.38576900  1
  Ni  Ni4  1  0.74560300  0.34847100  0.34847100  1
  Ni  Ni5  1  0.34847100  0.74560300  0.34847100  1
  Cu  Cu6  1  0.50847900  0.50847900  0.50847900  1
  C  C7  1  0.61717100  0.61717100  0.61717100  1
  C  C8  1  0.00162900  0.00162900  0.00162900  1
