# generated using pymatgen
data_CuNi2C5
_symmetry_space_group_name_H-M   'P 1'
_cell_length_a   10.62039000
_cell_length_b   8.12681800
_cell_length_c   13.00487454
_cell_angle_alpha   52.33039318
_cell_angle_beta   90.00000000
_cell_angle_gamma   90.00000000
_symmetry_Int_Tables_number   1
_chemical_formula_structural   CuNi2C5
_chemical_formula_sum   'Cu4 Ni8 C20'
_cell_volume   888.47317312
_cell_formula_units_Z   4
loop_
 _symmetry_equiv_pos_site_id
 _symmetry_equiv_pos_as_xyz
  1  'x, y, z'
loop_
 _atom_site_type_symbol
 _atom_site_label
 _atom_site_symmetry_multiplicity
 _atom_site_fract_x
 _atom_site_fract_y
 _atom_site_fract_z
 _atom_site_occupancy
  C  C0  1  0.27430800  0.92357700  0.45344800  1
  C  C1  1  0.77430800  0.07642300  0.04655200  1
  C  C2  1  0.22569200  0.92357700  0.95344800  1
  C  C3  1  0.72569200  0.07642300  0.54655200  1
  Ni  Ni4  1  0.22908200  0.39658000  0.49737300  1
  Ni  Ni5  1  0.00526900  0.66053600  0.72554300  1
  Ni  Ni6  1  0.99473100  0.33946400  0.27445700  1
  Ni  Ni7  1  0.77091800  0.60342000  0.50262700  1
  Ni  Ni8  1  0.49473100  0.66053600  0.22554300  1
  Ni  Ni9  1  0.50526900  0.33946400  0.77445700  1
  Ni  Ni10  1  0.27091800  0.39658000  0.99737300  1
  Ni  Ni11  1  0.72908200  0.60342000  0.00262700  1
  Cu  Cu12  1  0.51213700  0.08896600  0.28802200  1
  Cu  Cu13  1  0.48786300  0.91103400  0.71197800  1
  Cu  Cu14  1  0.01213700  0.91103400  0.21197800  1
  Cu  Cu15  1  0.98786300  0.08896600  0.78802200  1
  C  C16  1  0.23466700  0.88005900  0.14419900  1
  C  C17  1  0.08142500  0.81395700  0.43505800  1
  C  C18  1  0.73466700  0.11994100  0.35580100  1
  C  C19  1  0.68958500  0.72931100  0.71457000  1
  C  C20  1  0.58142500  0.18604300  0.06494200  1
  C  C21  1  0.07077300  0.71537400  0.96589700  1
  C  C22  1  0.57077300  0.28462600  0.53410300  1
  C  C23  1  0.76533300  0.11994100  0.85580100  1
  C  C24  1  0.41857500  0.81395700  0.93505800  1
  C  C25  1  0.81041500  0.72931100  0.21457000  1
  C  C26  1  0.18958500  0.27068900  0.78543000  1
  C  C27  1  0.91857500  0.18604300  0.56494200  1
  C  C28  1  0.31041500  0.27068900  0.28543000  1
  C  C29  1  0.26533300  0.88005900  0.64419900  1
  C  C30  1  0.92922700  0.28462600  0.03410300  1
  C  C31  1  0.42922700  0.71537400  0.46589700  1
