# generated using pymatgen
data_Cu9Ni3C2
_symmetry_space_group_name_H-M   'P 1'
_cell_length_a   7.84562335
_cell_length_b   7.84562335
_cell_length_c   10.13903101
_cell_angle_alpha   66.92320976
_cell_angle_beta   66.92320976
_cell_angle_gamma   60.10601544
_symmetry_Int_Tables_number   1
_chemical_formula_structural   Cu9Ni3C2
_chemical_formula_sum   'Cu18 Ni6 C4'
_cell_volume   482.40312075
_cell_formula_units_Z   2
loop_
 _symmetry_equiv_pos_site_id
 _symmetry_equiv_pos_as_xyz
  1  'x, y, z'
loop_
 _atom_site_type_symbol
 _atom_site_label
 _atom_site_symmetry_multiplicity
 _atom_site_fract_x
 _atom_site_fract_y
 _atom_site_fract_z
 _atom_site_occupancy
  C  C0  1  0.24547400  0.41549600  0.25090300  1
  C  C1  1  0.75452600  0.58450400  0.74909700  1
  C  C2  1  0.41549600  0.24547400  0.75090300  1
  C  C3  1  0.58450400  0.75452600  0.24909700  1
  Ni  Ni4  1  0.18178400  0.63885800  0.49734700  1
  Ni  Ni5  1  0.63885800  0.18178400  0.99734700  1
  Ni  Ni6  1  0.00000000  0.50000000  0.00000000  1
  Ni  Ni7  1  0.81821600  0.36114200  0.50265300  1
  Ni  Ni8  1  0.36114200  0.81821600  0.00265300  1
  Ni  Ni9  1  0.50000000  0.00000000  0.50000000  1
  Cu  Cu10  1  0.13297400  0.86702600  0.25000000  1
  Cu  Cu11  1  0.35896600  0.52252300  0.92216700  1
  Cu  Cu12  1  0.69547600  0.85945400  0.91998500  1
  Cu  Cu13  1  0.70376400  0.08638600  0.24184100  1
  Cu  Cu14  1  0.85945400  0.69547600  0.41998500  1
  Cu  Cu15  1  0.97726400  0.79809000  0.07676300  1
  Cu  Cu16  1  0.30452400  0.14054600  0.08001500  1
  Cu  Cu17  1  0.64103400  0.47747700  0.07783300  1
  Cu  Cu18  1  0.91361400  0.29623600  0.25815900  1
  Cu  Cu19  1  0.08638600  0.70376400  0.74184100  1
  Cu  Cu20  1  0.79809000  0.97726400  0.57676300  1
  Cu  Cu21  1  0.52252300  0.35896600  0.42216700  1
  Cu  Cu22  1  0.14054600  0.30452400  0.58001500  1
  Cu  Cu23  1  0.29623600  0.91361400  0.75815900  1
  Cu  Cu24  1  0.02273600  0.20191000  0.92323700  1
  Cu  Cu25  1  0.86702600  0.13297400  0.75000000  1
  Cu  Cu26  1  0.47747700  0.64103400  0.57783300  1
  Cu  Cu27  1  0.20191000  0.02273600  0.42323700  1
