# generated using pymatgen
data_Cu4Ni3C19
_symmetry_space_group_name_H-M   'P 1'
_cell_length_a   9.98510400
_cell_length_b   9.84603800
_cell_length_c   18.79062809
_cell_angle_alpha   58.76547924
_cell_angle_beta   90.00000000
_cell_angle_gamma   90.00000000
_symmetry_Int_Tables_number   1
_chemical_formula_structural   Cu4Ni3C19
_chemical_formula_sum   'Cu16 Ni12 C76'
_cell_volume   1579.60289419
_cell_formula_units_Z   4
loop_
 _symmetry_equiv_pos_site_id
 _symmetry_equiv_pos_as_xyz
  1  'x, y, z'
loop_
 _atom_site_type_symbol
 _atom_site_label
 _atom_site_symmetry_multiplicity
 _atom_site_fract_x
 _atom_site_fract_y
 _atom_site_fract_z
 _atom_site_occupancy
  C  C0  1  0.27120300  0.76114800  0.21398900  1
  C  C1  1  0.22879700  0.76114800  0.71398900  1
  C  C2  1  0.11004700  0.95895500  0.36774100  1
  C  C3  1  0.61004700  0.04104500  0.13225900  1
  C  C4  1  0.52631600  0.43091700  0.89828500  1
  C  C5  1  0.97368400  0.43091700  0.39828500  1
  C  C6  1  0.47368400  0.56908300  0.10171500  1
  C  C7  1  0.72879700  0.23885200  0.78601100  1
  C  C8  1  0.88995300  0.04104500  0.63225900  1
  C  C9  1  0.02631600  0.56908300  0.60171500  1
  C  C10  1  0.38995300  0.95895500  0.86774100  1
  C  C11  1  0.77120300  0.23885200  0.28601100  1
  Ni  Ni12  1  0.42495200  0.76536800  0.49059000  1
  Ni  Ni13  1  0.72857500  0.81106200  0.36495200  1
  Ni  Ni14  1  0.07504800  0.76536800  0.99059000  1
  Ni  Ni15  1  0.92495200  0.23463200  0.00941000  1
  Ni  Ni16  1  0.86043900  0.65014200  0.16113100  1
  Ni  Ni17  1  0.27142500  0.18893800  0.63504800  1
  Ni  Ni18  1  0.13956100  0.34985800  0.83886900  1
  Ni  Ni19  1  0.63956100  0.65014200  0.66113100  1
  Ni  Ni20  1  0.77142500  0.81106200  0.86495200  1
  Ni  Ni21  1  0.57504800  0.23463200  0.50941000  1
  Ni  Ni22  1  0.22857500  0.18893800  0.13504800  1
  Ni  Ni23  1  0.36043900  0.34985800  0.33886900  1
  Cu  Cu24  1  0.73259900  0.93819100  0.50484200  1
  Cu  Cu25  1  0.89737400  0.56772200  0.79525800  1
  Cu  Cu26  1  0.96851100  0.92222700  0.21200800  1
  Cu  Cu27  1  0.46851100  0.07777300  0.28799200  1
  Cu  Cu28  1  0.10262600  0.43227800  0.20474200  1
  Cu  Cu29  1  0.23259900  0.06180900  0.99515800  1
  Cu  Cu30  1  0.22244600  0.47270900  0.97431800  1
  Cu  Cu31  1  0.53148900  0.92222700  0.71200800  1
  Cu  Cu32  1  0.60262600  0.56772200  0.29525800  1
  Cu  Cu33  1  0.76740100  0.93819100  0.00484200  1
  Cu  Cu34  1  0.72244600  0.52729100  0.52568200  1
  Cu  Cu35  1  0.03148900  0.07777300  0.78799200  1
  Cu  Cu36  1  0.77755400  0.52729100  0.02568200  1
  Cu  Cu37  1  0.39737400  0.43227800  0.70474200  1
  Cu  Cu38  1  0.26740100  0.06180900  0.49515800  1
  Cu  Cu39  1  0.27755400  0.47270900  0.47431800  1
  C  C40  1  0.21136800  0.64288500  0.95777500  1
  C  C41  1  0.10101100  0.36029100  0.02675700  1
  C  C42  1  0.90205600  0.90263900  0.29166500  1
  C  C43  1  0.39218500  0.95158300  0.36531800  1
  C  C44  1  0.19019200  0.16662700  0.41228300  1
  C  C45  1  0.11500700  0.97545000  0.21297700  1
  C  C46  1  0.23598000  0.47542000  0.23067800  1
  C  C47  1  0.12237400  0.28001000  0.20150700  1
  C  C48  1  0.84483800  0.60844600  0.46628800  1
  C  C49  1  0.15516200  0.39155400  0.53371200  1
  C  C50  1  0.05931800  0.58294900  0.11923300  1
  C  C51  1  0.69019200  0.83337300  0.08771700  1
  C  C52  1  0.08731300  0.13837400  0.97143100  1
  C  C53  1  0.91268700  0.86162600  0.02856900  1
  C  C54  1  0.52678800  0.75983400  0.71676600  1
  C  C55  1  0.61500700  0.02455000  0.28702300  1
  C  C56  1  0.71136800  0.35711500  0.54222500  1
  C  C57  1  0.70764300  0.93315800  0.93020500  1
  C  C58  1  0.10781500  0.95158300  0.86531800  1
  C  C59  1  0.26402000  0.47542000  0.73067800  1
  C  C60  1  0.60781500  0.04841700  0.63468200  1
  C  C61  1  0.47321200  0.24016600  0.28323400  1
  C  C62  1  0.29235700  0.06684200  0.06979500  1
  C  C63  1  0.26957700  0.88391100  0.52050400  1
  C  C64  1  0.79235700  0.93315800  0.43020500  1
  C  C65  1  0.87762600  0.71999000  0.79849300  1
  C  C66  1  0.73598000  0.52458000  0.26932200  1
  C  C67  1  0.65516200  0.60844600  0.96628800  1
  C  C68  1  0.89218500  0.04841700  0.13468200  1
  C  C69  1  0.89898900  0.63970900  0.97324300  1
  C  C70  1  0.98291000  0.41508800  0.26063300  1
  C  C71  1  0.30980800  0.16662700  0.91228300  1
  C  C72  1  0.37762600  0.28001000  0.70150700  1
  C  C73  1  0.60101100  0.63970900  0.47324300  1
  C  C74  1  0.26140500  0.48220900  0.38982700  1
  C  C75  1  0.59794400  0.90263900  0.79166500  1
  C  C76  1  0.23859500  0.48220900  0.88982700  1
  C  C77  1  0.23042300  0.88391100  0.02050400  1
  C  C78  1  0.48291000  0.58491200  0.23936700  1
  C  C79  1  0.40205600  0.09736100  0.20833500  1
  C  C80  1  0.38499300  0.97545000  0.71297700  1
  C  C81  1  0.20764300  0.06684200  0.56979500  1
  C  C82  1  0.44068200  0.58294900  0.61923300  1
  C  C83  1  0.02678800  0.24016600  0.78323400  1
  C  C84  1  0.76402000  0.52458000  0.76932200  1
  C  C85  1  0.39898900  0.36029100  0.52675700  1
  C  C86  1  0.94068200  0.41705100  0.88076700  1
  C  C87  1  0.09794400  0.09736100  0.70833500  1
  C  C88  1  0.28863200  0.64288500  0.45777500  1
  C  C89  1  0.76140500  0.51779100  0.11017300  1
  C  C90  1  0.88499300  0.02455000  0.78702300  1
  C  C91  1  0.62237400  0.71999000  0.29849300  1
  C  C92  1  0.76957700  0.11608900  0.97949600  1
  C  C93  1  0.41268700  0.13837400  0.47143100  1
  C  C94  1  0.78863200  0.35711500  0.04222500  1
  C  C95  1  0.51709000  0.41508800  0.76063300  1
  C  C96  1  0.73859500  0.51779100  0.61017300  1
  C  C97  1  0.73042300  0.11608900  0.47949600  1
  C  C98  1  0.97321200  0.75983400  0.21676600  1
  C  C99  1  0.55931800  0.41705100  0.38076700  1
  C  C100  1  0.58731300  0.86162600  0.52856900  1
  C  C101  1  0.01709000  0.58491200  0.73936700  1
  C  C102  1  0.34483800  0.39155400  0.03371200  1
  C  C103  1  0.80980800  0.83337300  0.58771700  1
