# generated using pymatgen
data_Cu3NiC10
_symmetry_space_group_name_H-M   'P 1'
_cell_length_a   10.67483225
_cell_length_b   10.67483225
_cell_length_c   10.05516100
_cell_angle_alpha   90.00000000
_cell_angle_beta   90.00000000
_cell_angle_gamma   120.04970094
_symmetry_Int_Tables_number   1
_chemical_formula_structural   Cu3NiC10
_chemical_formula_sum   'Cu18 Ni6 C60'
_cell_volume   991.79989405
_cell_formula_units_Z   6
loop_
 _symmetry_equiv_pos_site_id
 _symmetry_equiv_pos_as_xyz
  1  'x, y, z'
loop_
 _atom_site_type_symbol
 _atom_site_label
 _atom_site_symmetry_multiplicity
 _atom_site_fract_x
 _atom_site_fract_y
 _atom_site_fract_z
 _atom_site_occupancy
  C  C0  1  0.33511700  0.69706100  0.72007000  1
  C  C1  1  0.33401300  0.83373200  0.49160400  1
  C  C2  1  0.66488300  0.30293900  0.22007000  1
  C  C3  1  0.83373200  0.33401300  0.49160400  1
  C  C4  1  0.16599300  0.16599300  0.98969000  1
  C  C5  1  0.30293900  0.66488300  0.22007000  1
  C  C6  1  0.66598700  0.16626800  0.99160400  1
  C  C7  1  0.16626800  0.66598700  0.99160400  1
  C  C8  1  0.97834200  0.97834200  0.71613600  1
  C  C9  1  0.69706100  0.33511700  0.72007000  1
  C  C10  1  0.02165800  0.02165800  0.21613600  1
  C  C11  1  0.83400700  0.83400700  0.48969000  1
  Ni  Ni12  1  0.66660000  0.00035000  0.30527700  1
  Ni  Ni13  1  0.99965000  0.33340000  0.80527700  1
  Ni  Ni14  1  0.66662700  0.66662700  0.80915400  1
  Ni  Ni15  1  0.33337300  0.33337300  0.30915400  1
  Ni  Ni16  1  0.33340000  0.99965000  0.80527700  1
  Ni  Ni17  1  0.00035000  0.66660000  0.30527700  1
  Cu  Cu18  1  0.16129300  0.50596100  0.49784100  1
  Cu  Cu19  1  0.15910900  0.98454900  0.49640700  1
  Cu  Cu20  1  0.50843000  0.68115200  0.49632600  1
  Cu  Cu21  1  0.98454900  0.15910900  0.49640700  1
  Cu  Cu22  1  0.68115200  0.50843000  0.49632600  1
  Cu  Cu23  1  0.50596100  0.16129300  0.49784100  1
  Cu  Cu24  1  0.31884800  0.49157000  0.99632600  1
  Cu  Cu25  1  0.00382400  0.66686800  0.71699700  1
  Cu  Cu26  1  0.67072400  0.67072400  0.21583200  1
  Cu  Cu27  1  0.83870700  0.49403900  0.99784100  1
  Cu  Cu28  1  0.01545100  0.84089100  0.99640700  1
  Cu  Cu29  1  0.66686800  0.00382400  0.71699700  1
  Cu  Cu30  1  0.99617600  0.33313200  0.21699700  1
  Cu  Cu31  1  0.33313200  0.99617600  0.21699700  1
  Cu  Cu32  1  0.49403900  0.83870700  0.99784100  1
  Cu  Cu33  1  0.32927600  0.32927600  0.71583200  1
  Cu  Cu34  1  0.49157000  0.31884800  0.99632600  1
  Cu  Cu35  1  0.84089100  0.01545100  0.99640700  1
  C  C36  1  0.49684300  0.16774200  0.11630000  1
  C  C37  1  0.33527800  0.66573500  0.89940500  1
  C  C38  1  0.83297100  0.00044100  0.61552300  1
  C  C39  1  0.83225800  0.50315700  0.61630000  1
  C  C40  1  0.84201500  0.84201500  0.11235100  1
  C  C41  1  0.66319600  0.66319600  0.60696000  1
  C  C42  1  0.33680400  0.33680400  0.10696000  1
  C  C43  1  0.66472600  0.16910900  0.61721400  1
  C  C44  1  0.33144700  0.15030300  0.37060600  1
  C  C45  1  0.51784200  0.51784200  0.36763200  1
  C  C46  1  0.66685900  0.99691100  0.10343000  1
  C  C47  1  0.66573500  0.33527800  0.89940500  1
  C  C48  1  0.16910900  0.66472600  0.61721400  1
  C  C49  1  0.84969700  0.66855300  0.87060600  1
  C  C50  1  0.16702900  0.99955900  0.11552300  1
  C  C51  1  0.99691100  0.66685900  0.10343000  1
  C  C52  1  0.33426500  0.66472200  0.39940500  1
  C  C53  1  0.66472200  0.33426500  0.39940500  1
  C  C54  1  0.98965000  0.50891300  0.85841500  1
  C  C55  1  0.50891300  0.98965000  0.85841500  1
  C  C56  1  0.82075300  0.15066300  0.85962400  1
  C  C57  1  0.00044100  0.83297100  0.61552300  1
  C  C58  1  0.48215800  0.48215800  0.86763200  1
  C  C59  1  0.17924700  0.84933700  0.35962400  1
  C  C60  1  0.66114800  0.81540200  0.35627600  1
  C  C61  1  0.15030300  0.33144700  0.37060600  1
  C  C62  1  0.33314100  0.00308900  0.60343000  1
  C  C63  1  0.49559300  0.66453100  0.10985800  1
  C  C64  1  0.00308900  0.33314100  0.60343000  1
  C  C65  1  0.16774200  0.49684300  0.11630000  1
  C  C66  1  0.33885200  0.18459800  0.85627600  1
  C  C67  1  0.50315700  0.83225800  0.61630000  1
  C  C68  1  0.99769500  0.99769500  0.89789500  1
  C  C69  1  0.99955900  0.16702900  0.11552300  1
  C  C70  1  0.00230500  0.00230500  0.39789500  1
  C  C71  1  0.15798500  0.15798500  0.61235100  1
  C  C72  1  0.15066300  0.82075300  0.85962400  1
  C  C73  1  0.66855300  0.84969700  0.87060600  1
  C  C74  1  0.18459800  0.33885200  0.85627600  1
  C  C75  1  0.81540200  0.66114800  0.35627600  1
  C  C76  1  0.83089100  0.33527400  0.11721400  1
  C  C77  1  0.01035000  0.49108700  0.35841500  1
  C  C78  1  0.33546900  0.50440700  0.60985800  1
  C  C79  1  0.49108700  0.01035000  0.35841500  1
  C  C80  1  0.33527400  0.83089100  0.11721400  1
  C  C81  1  0.84933700  0.17924700  0.35962400  1
  C  C82  1  0.66453100  0.49559300  0.10985800  1
  C  C83  1  0.50440700  0.33546900  0.60985800  1
