# generated using pymatgen
data_Cu5(NiC5)4
_symmetry_space_group_name_H-M   'P 1'
_cell_length_a   12.52180007
_cell_length_b   12.28651277
_cell_length_c   8.43410551
_cell_angle_alpha   71.63544737
_cell_angle_beta   68.62860498
_cell_angle_gamma   39.73594765
_symmetry_Int_Tables_number   1
_chemical_formula_structural   Cu5(NiC5)4
_chemical_formula_sum   'Cu10 Ni8 C40'
_cell_volume   771.11909739
_cell_formula_units_Z   2
loop_
 _symmetry_equiv_pos_site_id
 _symmetry_equiv_pos_as_xyz
  1  'x, y, z'
loop_
 _atom_site_type_symbol
 _atom_site_label
 _atom_site_symmetry_multiplicity
 _atom_site_fract_x
 _atom_site_fract_y
 _atom_site_fract_z
 _atom_site_occupancy
  C  C0  1  0.68029300  0.52441700  0.35657700  1
  C  C1  1  0.35657700  0.43871300  0.68029300  1
  C  C2  1  0.81128700  0.89342300  0.72558300  1
  C  C3  1  0.72558300  0.56970700  0.81128700  1
  C  C4  1  0.99768100  0.00231900  0.99768100  1
  C  C5  1  0.24768100  0.25231900  0.24768100  1
  Ni  Ni6  1  0.14976500  0.14273600  0.92974000  1
  Ni  Ni7  1  0.92974000  0.77775900  0.14976500  1
  Ni  Ni8  1  0.47224100  0.32026000  0.10726400  1
  Ni  Ni9  1  0.10726400  0.10023500  0.47224100  1
  Ni  Ni10  1  0.16374100  0.11819100  0.75197500  1
  Ni  Ni11  1  0.75197500  0.96609300  0.16374100  1
  Ni  Ni12  1  0.28390700  0.49802500  0.13180900  1
  Ni  Ni13  1  0.13180900  0.08625900  0.28390700  1
  Cu  Cu14  1  0.20855700  0.80980700  0.67076800  1
  Cu  Cu15  1  0.67076800  0.31086800  0.20855700  1
  Cu  Cu16  1  0.93913200  0.57923200  0.44019300  1
  Cu  Cu17  1  0.44019300  0.04144300  0.93913200  1
  Cu  Cu18  1  0.33804700  0.81014500  0.07673100  1
  Cu  Cu19  1  0.07673100  0.77507700  0.33804700  1
  Cu  Cu20  1  0.47492300  0.17326900  0.43985500  1
  Cu  Cu21  1  0.43985500  0.91195300  0.47492300  1
  Cu  Cu22  1  0.74604500  0.25395500  0.74604500  1
  Cu  Cu23  1  0.99604500  0.50395500  0.99604500  1
  C  C24  1  0.13888700  0.95825700  0.67474500  1
  C  C25  1  0.67474500  0.22811000  0.13888700  1
  C  C26  1  0.02189000  0.57525500  0.29174300  1
  C  C27  1  0.29174300  0.11111300  0.02189000  1
  C  C28  1  0.16829100  0.75472900  0.80750200  1
  C  C29  1  0.80750200  0.26947800  0.16829100  1
  C  C30  1  0.98052200  0.44249800  0.49527100  1
  C  C31  1  0.49527100  0.08170900  0.98052200  1
  C  C32  1  0.30801800  0.72540000  0.54303700  1
  C  C33  1  0.54303700  0.42354400  0.30801800  1
  C  C34  1  0.82645600  0.70696300  0.52460000  1
  C  C35  1  0.52460000  0.94198200  0.82645600  1
  C  C36  1  0.34005500  0.77485200  0.94852700  1
  C  C37  1  0.94852700  0.93656600  0.34005500  1
  C  C38  1  0.31343400  0.30147300  0.47514800  1
  C  C39  1  0.47514800  0.90994500  0.31343400  1
  C  C40  1  0.19137800  0.93124300  0.16609300  1
  C  C41  1  0.16609300  0.71128600  0.19137800  1
  C  C42  1  0.53871400  0.08390700  0.31875700  1
  C  C43  1  0.31875700  0.05862200  0.53871400  1
  C  C44  1  0.47269500  0.73116300  0.11327100  1
  C  C45  1  0.11327100  0.68287000  0.47269500  1
  C  C46  1  0.56713000  0.13672900  0.51883700  1
  C  C47  1  0.51883700  0.77730500  0.56713000  1
  C  C48  1  0.79577000  0.11381300  0.80388300  1
  C  C49  1  0.80388300  0.28653400  0.79577000  1
  C  C50  1  0.96346600  0.44611700  0.13618700  1
  C  C51  1  0.13618700  0.45423000  0.96346600  1
  C  C52  1  0.64539800  0.35460200  0.64539800  1
  C  C53  1  0.89539800  0.60460200  0.89539800  1
  C  C54  1  0.08712900  0.15794000  0.86498600  1
  C  C55  1  0.86498600  0.88994500  0.08712900  1
  C  C56  1  0.36005500  0.38501400  0.09206000  1
  C  C57  1  0.09206000  0.16287100  0.36005500  1
