# generated using pymatgen
data_Cu7NiC4
_symmetry_space_group_name_H-M   'P 1'
_cell_length_a   5.84852700
_cell_length_b   7.74774100
_cell_length_c   8.94042871
_cell_angle_alpha   73.22385828
_cell_angle_beta   90.00000000
_cell_angle_gamma   90.00000000
_symmetry_Int_Tables_number   1
_chemical_formula_structural   Cu7NiC4
_chemical_formula_sum   'Cu14 Ni2 C8'
_cell_volume   387.87465358
_cell_formula_units_Z   2
loop_
 _symmetry_equiv_pos_site_id
 _symmetry_equiv_pos_as_xyz
  1  'x, y, z'
loop_
 _atom_site_type_symbol
 _atom_site_label
 _atom_site_symmetry_multiplicity
 _atom_site_fract_x
 _atom_site_fract_y
 _atom_site_fract_z
 _atom_site_occupancy
  C  C0  1  0.25000000  0.66989300  0.58759900  1
  C  C1  1  0.25000000  0.70445100  0.07203600  1
  C  C2  1  0.75000000  0.33010700  0.41240100  1
  C  C3  1  0.75000000  0.29554900  0.92796400  1
  C  C4  1  0.25000000  0.17535000  0.73366000  1
  C  C5  1  0.75000000  0.81840900  0.82532000  1
  C  C6  1  0.75000000  0.82465000  0.26634000  1
  C  C7  1  0.25000000  0.18159100  0.17468000  1
  Ni  Ni8  1  0.75000000  0.88294300  0.52969300  1
  Ni  Ni9  1  0.25000000  0.11705700  0.47030700  1
  Cu  Cu10  1  0.99029700  0.63195400  0.83982900  1
  Cu  Cu11  1  0.75000000  0.75113400  0.06453400  1
  Cu  Cu12  1  0.00078700  0.99718700  0.82619600  1
  Cu  Cu13  1  0.49489900  0.36135600  0.65510300  1
  Cu  Cu14  1  0.25000000  0.24886600  0.93546600  1
  Cu  Cu15  1  0.00510100  0.36135600  0.65510300  1
  Cu  Cu16  1  0.50970300  0.63195400  0.83982900  1
  Cu  Cu17  1  0.00970300  0.36804600  0.16017100  1
  Cu  Cu18  1  0.99921300  0.00281300  0.17380400  1
  Cu  Cu19  1  0.50510100  0.63864400  0.34489700  1
  Cu  Cu20  1  0.49029700  0.36804600  0.16017100  1
  Cu  Cu21  1  0.49921300  0.99718700  0.82619600  1
  Cu  Cu22  1  0.99489900  0.63864400  0.34489700  1
  Cu  Cu23  1  0.50078700  0.00281300  0.17380400  1
