# generated using pymatgen
data_Cu(NiC)5
_symmetry_space_group_name_H-M   'P 1'
_cell_length_a   4.17703300
_cell_length_b   9.39284800
_cell_length_c   15.65610320
_cell_angle_alpha   87.11695217
_cell_angle_beta   90.00000000
_cell_angle_gamma   90.00000000
_symmetry_Int_Tables_number   1
_chemical_formula_structural   Cu(NiC)5
_chemical_formula_sum   'Cu2 Ni10 C10'
_cell_volume   613.47777526
_cell_formula_units_Z   2
loop_
 _symmetry_equiv_pos_site_id
 _symmetry_equiv_pos_as_xyz
  1  'x, y, z'
loop_
 _atom_site_type_symbol
 _atom_site_label
 _atom_site_symmetry_multiplicity
 _atom_site_fract_x
 _atom_site_fract_y
 _atom_site_fract_z
 _atom_site_occupancy
  C  C0  1  0.75000000  0.23227900  0.70832700  1
  C  C1  1  0.25000000  0.39250500  0.14378200  1
  C  C2  1  0.25000000  0.04876400  0.34852800  1
  C  C3  1  0.75000000  0.60749500  0.85621800  1
  C  C4  1  0.75000000  0.95123600  0.65147200  1
  C  C5  1  0.25000000  0.76772100  0.29167300  1
  C  C6  1  0.75000000  0.87006500  0.06328000  1
  C  C7  1  0.25000000  0.66116400  0.55406000  1
  C  C8  1  0.75000000  0.33883600  0.44594000  1
  C  C9  1  0.25000000  0.12993500  0.93672000  1
  Ni  Ni10  1  0.75000000  0.67955200  0.19564300  1
  Ni  Ni11  1  0.25000000  0.04106000  0.10333000  1
  Ni  Ni12  1  0.75000000  0.46725900  0.60243100  1
  Ni  Ni13  1  0.25000000  0.32044800  0.80435700  1
  Ni  Ni14  1  0.75000000  0.95894000  0.89667000  1
  Ni  Ni15  1  0.25000000  0.16343900  0.50147600  1
  Ni  Ni16  1  0.75000000  0.21111200  0.28968400  1
  Ni  Ni17  1  0.75000000  0.83656100  0.49852400  1
  Ni  Ni18  1  0.25000000  0.78888800  0.71031600  1
  Ni  Ni19  1  0.25000000  0.53274100  0.39756900  1
  Cu  Cu20  1  0.25000000  0.67276200  0.00216600  1
  Cu  Cu21  1  0.75000000  0.32723800  0.99783400  1
