# generated using pymatgen
data_Cu2Ni3C19
_symmetry_space_group_name_H-M   'P 1'
_cell_length_a   8.58452506
_cell_length_b   8.58452506
_cell_length_c   14.78752648
_cell_angle_alpha   67.15947419
_cell_angle_beta   67.15947419
_cell_angle_gamma   59.70639353
_symmetry_Int_Tables_number   1
_chemical_formula_structural   Cu2Ni3C19
_chemical_formula_sum   'Cu4 Ni6 C38'
_cell_volume   841.44911663
_cell_formula_units_Z   2
loop_
 _symmetry_equiv_pos_site_id
 _symmetry_equiv_pos_as_xyz
  1  'x, y, z'
loop_
 _atom_site_type_symbol
 _atom_site_label
 _atom_site_symmetry_multiplicity
 _atom_site_fract_x
 _atom_site_fract_y
 _atom_site_fract_z
 _atom_site_occupancy
  C  C0  1  0.55991500  0.44008500  0.25000000  1
  C  C1  1  0.44008500  0.55991500  0.75000000  1
  C  C2  1  0.97524200  0.22479900  0.23089800  1
  C  C3  1  0.22479900  0.97524200  0.73089800  1
  C  C4  1  0.02475800  0.77520100  0.76910200  1
  C  C5  1  0.77520100  0.02475800  0.26910200  1
  C  C6  1  0.74751300  0.84137000  0.39098800  1
  C  C7  1  0.25248700  0.15863000  0.60901200  1
  C  C8  1  0.92390100  0.79836400  0.66793300  1
  C  C9  1  0.79836400  0.92390100  0.16793300  1
  C  C10  1  0.07609900  0.20163600  0.33206700  1
  C  C11  1  0.15863000  0.25248700  0.10901200  1
  C  C12  1  0.20163600  0.07609900  0.83206700  1
  C  C13  1  0.84137000  0.74751300  0.89098800  1
  Ni  Ni14  1  0.41334400  0.78788200  0.72637100  1
  Ni  Ni15  1  0.78788200  0.41334400  0.22637100  1
  Ni  Ni16  1  0.21211800  0.58665600  0.77362900  1
  Ni  Ni17  1  0.96742800  0.03257200  0.25000000  1
  Ni  Ni18  1  0.58665600  0.21211800  0.27362900  1
  Ni  Ni19  1  0.03257200  0.96742800  0.75000000  1
  Cu  Cu20  1  0.61364500  0.44776100  0.61773500  1
  Cu  Cu21  1  0.44776100  0.61364500  0.11773500  1
  Cu  Cu22  1  0.38635500  0.55223900  0.38226500  1
  Cu  Cu23  1  0.55223900  0.38635500  0.88226500  1
  C  C24  1  0.23024600  0.04106200  0.34326300  1
  C  C25  1  0.17765400  0.41034400  0.08954300  1
  C  C26  1  0.04106200  0.23024600  0.84326300  1
  C  C27  1  0.79801300  0.05400200  0.07869500  1
  C  C28  1  0.73903900  0.89519800  0.46845700  1
  C  C29  1  0.32598300  0.10625500  0.11387700  1
  C  C30  1  0.58965600  0.82234600  0.41045700  1
  C  C31  1  0.87976500  0.65430100  0.69076200  1
  C  C32  1  0.67401700  0.89374500  0.88612300  1
  C  C33  1  0.10625500  0.32598300  0.61387700  1
  C  C34  1  0.41034400  0.17765400  0.58954300  1
  C  C35  1  0.82234600  0.58965600  0.91045700  1
  C  C36  1  0.26096100  0.10480200  0.53154300  1
  C  C37  1  0.76975400  0.95893800  0.65673700  1
  C  C38  1  0.89374500  0.67401700  0.38612300  1
  C  C39  1  0.10480200  0.26096100  0.03154300  1
  C  C40  1  0.34569900  0.12023500  0.80923800  1
  C  C41  1  0.95893800  0.76975400  0.15673700  1
  C  C42  1  0.94599800  0.20198700  0.42130500  1
  C  C43  1  0.65430100  0.87976500  0.19076200  1
  C  C44  1  0.12023500  0.34569900  0.30923800  1
  C  C45  1  0.89519800  0.73903900  0.96845700  1
  C  C46  1  0.05400200  0.79801300  0.57869500  1
  C  C47  1  0.20198700  0.94599800  0.92130500  1
