# generated using pymatgen
data_Cu3NiC14
_symmetry_space_group_name_H-M   'P 1'
_cell_length_a   19.51015365
_cell_length_b   19.51015365
_cell_length_c   19.51015365
_cell_angle_alpha   164.94686539
_cell_angle_beta   164.94686539
_cell_angle_gamma   21.35048763
_symmetry_Int_Tables_number   1
_chemical_formula_structural   Cu3NiC14
_chemical_formula_sum   'Cu6 Ni2 C28'
_cell_volume   500.85149631
_cell_formula_units_Z   2
loop_
 _symmetry_equiv_pos_site_id
 _symmetry_equiv_pos_as_xyz
  1  'x, y, z'
loop_
 _atom_site_type_symbol
 _atom_site_label
 _atom_site_symmetry_multiplicity
 _atom_site_fract_x
 _atom_site_fract_y
 _atom_site_fract_z
 _atom_site_occupancy
  C  C0  1  0.01430300  0.51430300  0.50000000  1
  C  C1  1  0.82316700  0.32316700  0.50000000  1
  C  C2  1  0.07316700  0.07316700  0.00000000  1
  C  C3  1  0.26430300  0.26430300  0.00000000  1
  Ni  Ni4  1  0.17773500  0.67773500  0.50000000  1
  Ni  Ni5  1  0.42773500  0.42773500  0.00000000  1
  Cu  Cu6  1  0.59542200  0.59542200  0.00000000  1
  Cu  Cu7  1  0.34542200  0.84542200  0.50000000  1
  Cu  Cu8  1  0.90123200  0.90123200  0.00000000  1
  Cu  Cu9  1  0.49536400  0.99536400  0.50000000  1
  Cu  Cu10  1  0.65123200  0.15123200  0.50000000  1
  Cu  Cu11  1  0.74536400  0.74536400  0.00000000  1
  C  C12  1  0.88239700  0.84257200  0.43566900  1
  C  C13  1  0.61923500  0.69593800  0.37440600  1
  C  C14  1  0.79274700  0.30238200  0.87229600  1
  C  C15  1  0.05238200  0.68008600  0.00963500  1
  C  C16  1  0.44593800  0.57153300  0.57670400  1
  C  C17  1  0.44703900  0.57909700  0.39306600  1
  C  C18  1  0.80397200  0.69703900  0.36794200  1
  C  C19  1  0.99482900  0.86923500  0.42329600  1
  C  C20  1  0.90640000  0.52336500  0.88519900  1
  C  C21  1  0.27336500  0.88816600  0.11696400  1
  C  C22  1  0.43008600  0.92045100  0.12770400  1
  C  C23  1  0.67045100  0.04274700  0.99036500  1
  C  C24  1  0.91080600  0.35615200  0.90432700  1
  C  C25  1  0.10615200  0.70182500  0.94534600  1
  C  C26  1  0.18603000  0.05397200  0.60693400  1
  C  C27  1  0.32909700  0.43603000  0.63205800  1
  C  C28  1  0.77120100  0.15640000  0.88303600  1
  C  C29  1  0.59257200  0.65690300  0.46017500  1
  C  C30  1  0.19672800  0.13239700  0.53982500  1
  C  C31  1  0.63816600  0.02120100  0.11480100  1
  C  C32  1  0.40690300  0.44672800  0.56433100  1
  C  C33  1  0.75647900  0.16080600  0.05465400  1
  C  C34  1  0.45182500  0.00647900  0.09567300  1
  C  C35  1  0.32153300  0.24482900  0.62559400  1
