# generated using pymatgen
data_Cu3NiC11
_symmetry_space_group_name_H-M   'P 1'
_cell_length_a   8.61537900
_cell_length_b   8.61537900
_cell_length_c   13.73803900
_cell_angle_alpha   90.00000000
_cell_angle_beta   90.00000000
_cell_angle_gamma   90.00000000
_symmetry_Int_Tables_number   1
_chemical_formula_structural   Cu3NiC11
_chemical_formula_sum   'Cu6 Ni2 C22'
_cell_volume   1019.70258326
_cell_formula_units_Z   2
loop_
 _symmetry_equiv_pos_site_id
 _symmetry_equiv_pos_as_xyz
  1  'x, y, z'
loop_
 _atom_site_type_symbol
 _atom_site_label
 _atom_site_symmetry_multiplicity
 _atom_site_fract_x
 _atom_site_fract_y
 _atom_site_fract_z
 _atom_site_occupancy
  C  C0  1  0.00000000  0.00000000  0.22217800  1
  C  C1  1  0.50000000  0.50000000  0.50000000  1
  C  C2  1  0.00000000  0.00000000  0.77782200  1
  C  C3  1  0.50000000  0.50000000  0.22217800  1
  C  C4  1  0.50000000  0.50000000  0.77782200  1
  C  C5  1  0.00000000  0.00000000  0.50000000  1
  Ni  Ni6  1  0.50000000  0.00000000  0.50000000  1
  Ni  Ni7  1  0.00000000  0.50000000  0.50000000  1
  Cu  Cu8  1  0.00000000  0.50000000  0.74170300  1
  Cu  Cu9  1  0.50000000  0.00000000  0.25829700  1
  Cu  Cu10  1  0.50000000  0.00000000  0.74170300  1
  Cu  Cu11  1  0.50000000  0.00000000  0.00000000  1
  Cu  Cu12  1  0.00000000  0.50000000  0.25829700  1
  Cu  Cu13  1  0.00000000  0.50000000  0.00000000  1
  C  C14  1  0.82873400  0.32873400  0.36074300  1
  C  C15  1  0.84116900  0.65883100  0.12440000  1
  C  C16  1  0.15883100  0.65883100  0.87560000  1
  C  C17  1  0.15883100  0.34116900  0.12440000  1
  C  C18  1  0.65883100  0.15883100  0.12440000  1
  C  C19  1  0.67126600  0.17126600  0.63925700  1
  C  C20  1  0.32873400  0.82873400  0.63925700  1
  C  C21  1  0.82873400  0.67126600  0.63925700  1
  C  C22  1  0.17126600  0.67126600  0.36074300  1
  C  C23  1  0.84116900  0.34116900  0.87560000  1
  C  C24  1  0.34116900  0.84116900  0.12440000  1
  C  C25  1  0.65883100  0.84116900  0.87560000  1
  C  C26  1  0.32873400  0.17126600  0.36074300  1
  C  C27  1  0.67126600  0.82873400  0.36074300  1
  C  C28  1  0.34116900  0.15883100  0.87560000  1
  C  C29  1  0.17126600  0.32873400  0.63925700  1
