# generated using pymatgen
data_Cu6Ni2C3
_symmetry_space_group_name_H-M   'P 1'
_cell_length_a   5.11927731
_cell_length_b   5.11927731
_cell_length_c   22.92006800
_cell_angle_alpha   90.00000000
_cell_angle_beta   90.00000000
_cell_angle_gamma   119.99999108
_symmetry_Int_Tables_number   1
_chemical_formula_structural   Cu6Ni2C3
_chemical_formula_sum   'Cu24 Ni8 C12'
_cell_volume   520.19225773
_cell_formula_units_Z   4
loop_
 _symmetry_equiv_pos_site_id
 _symmetry_equiv_pos_as_xyz
  1  'x, y, z'
loop_
 _atom_site_type_symbol
 _atom_site_label
 _atom_site_symmetry_multiplicity
 _atom_site_fract_x
 _atom_site_fract_y
 _atom_site_fract_z
 _atom_site_occupancy
  C  C0  1  0.66666700  0.33333300  0.97720300  1
  C  C1  1  0.66666700  0.33333300  0.52279700  1
  C  C2  1  0.33333300  0.66666700  0.47720300  1
  C  C3  1  0.33333300  0.66666700  0.02279700  1
  C  C4  1  0.00000000  0.00000000  0.75000000  1
  C  C5  1  0.00000000  0.00000000  0.25000000  1
  C  C6  1  0.33333300  0.66666700  0.64537900  1
  C  C7  1  0.66666700  0.33333300  0.35462100  1
  C  C8  1  0.33333300  0.66666700  0.85462100  1
  C  C9  1  0.66666700  0.33333300  0.14537900  1
  Ni  Ni10  1  0.00000000  0.00000000  0.43671500  1
  Ni  Ni11  1  0.66666700  0.33333300  0.82316400  1
  Ni  Ni12  1  0.00000000  0.00000000  0.93671500  1
  Ni  Ni13  1  0.00000000  0.00000000  0.06328500  1
  Ni  Ni14  1  0.33333300  0.66666700  0.32316400  1
  Ni  Ni15  1  0.33333300  0.66666700  0.17683600  1
  Ni  Ni16  1  0.00000000  0.00000000  0.56328500  1
  Ni  Ni17  1  0.66666700  0.33333300  0.67683600  1
  Cu  Cu18  1  0.29305300  0.14652700  0.06242400  1
  Cu  Cu19  1  0.81253300  0.18746700  0.67547700  1
  Cu  Cu20  1  0.14652700  0.85347300  0.93757600  1
  Cu  Cu21  1  0.70694700  0.85347300  0.56242400  1
  Cu  Cu22  1  0.85347300  0.70694700  0.06242400  1
  Cu  Cu23  1  0.14652700  0.29305300  0.56242400  1
  Cu  Cu24  1  0.62506600  0.81253300  0.32452300  1
  Cu  Cu25  1  0.18746700  0.81253300  0.17547700  1
  Cu  Cu26  1  0.14652700  0.85347300  0.56242400  1
  Cu  Cu27  1  0.37493400  0.18746700  0.82452300  1
  Cu  Cu28  1  0.81253300  0.62506600  0.82452300  1
  Cu  Cu29  1  0.85347300  0.14652700  0.06242400  1
  Cu  Cu30  1  0.18746700  0.37493400  0.32452300  1
  Cu  Cu31  1  0.18746700  0.81253300  0.32452300  1
  Cu  Cu32  1  0.37493400  0.18746700  0.67547700  1
  Cu  Cu33  1  0.18746700  0.37493400  0.17547700  1
  Cu  Cu34  1  0.81253300  0.62506600  0.67547700  1
  Cu  Cu35  1  0.85347300  0.70694700  0.43757600  1
  Cu  Cu36  1  0.29305300  0.14652700  0.43757600  1
  Cu  Cu37  1  0.85347300  0.14652700  0.43757600  1
  Cu  Cu38  1  0.70694700  0.85347300  0.93757600  1
  Cu  Cu39  1  0.14652700  0.29305300  0.93757600  1
  Cu  Cu40  1  0.62506600  0.81253300  0.17547700  1
  Cu  Cu41  1  0.81253300  0.18746700  0.82452300  1
  C  C42  1  0.66666700  0.33333300  0.25000000  1
  C  C43  1  0.33333300  0.66666700  0.75000000  1
