# generated using pymatgen
data_Cu12Ni4C
_symmetry_space_group_name_H-M   'P 1'
_cell_length_a   10.14101500
_cell_length_b   10.14101500
_cell_length_c   5.39379000
_cell_angle_alpha   90.00000000
_cell_angle_beta   90.00000000
_cell_angle_gamma   90.00000000
_symmetry_Int_Tables_number   1
_chemical_formula_structural   Cu12Ni4C
_chemical_formula_sum   'Cu24 Ni8 C2'
_cell_volume   554.69836269
_cell_formula_units_Z   2
loop_
 _symmetry_equiv_pos_site_id
 _symmetry_equiv_pos_as_xyz
  1  'x, y, z'
loop_
 _atom_site_type_symbol
 _atom_site_label
 _atom_site_symmetry_multiplicity
 _atom_site_fract_x
 _atom_site_fract_y
 _atom_site_fract_z
 _atom_site_occupancy
  C  C0  1  0.50000000  0.50000000  0.00000000  1
  C  C1  1  0.00000000  0.00000000  0.50000000  1
  Ni  Ni2  1  0.00166800  0.27153700  0.96942100  1
  Ni  Ni3  1  0.50166800  0.77153700  0.53057900  1
  Ni  Ni4  1  0.49833200  0.22846300  0.53057900  1
  Ni  Ni5  1  0.27153700  0.99833200  0.03057900  1
  Ni  Ni6  1  0.22846300  0.50166800  0.46942100  1
  Ni  Ni7  1  0.72846300  0.00166800  0.03057900  1
  Ni  Ni8  1  0.77153700  0.49833200  0.46942100  1
  Ni  Ni9  1  0.99833200  0.72846300  0.96942100  1
  Cu  Cu10  1  0.57815300  0.68939300  0.80043800  1
  Cu  Cu11  1  0.68939300  0.42184700  0.19956200  1
  Cu  Cu12  1  0.90314800  0.37944700  0.50356600  1
  Cu  Cu13  1  0.57329300  0.65226500  0.30434300  1
  Cu  Cu14  1  0.34773500  0.57329300  0.69565700  1
  Cu  Cu15  1  0.18939300  0.92184700  0.30043800  1
  Cu  Cu16  1  0.15226500  0.92670700  0.80434300  1
  Cu  Cu17  1  0.31060700  0.57815300  0.19956200  1
  Cu  Cu18  1  0.81060700  0.07815300  0.30043800  1
  Cu  Cu19  1  0.65226500  0.42670700  0.69565700  1
  Cu  Cu20  1  0.59685200  0.12055300  0.99643400  1
  Cu  Cu21  1  0.09685200  0.62055300  0.50356600  1
  Cu  Cu22  1  0.37944700  0.09685200  0.49643400  1
  Cu  Cu23  1  0.92184700  0.81060700  0.69956200  1
  Cu  Cu24  1  0.07815300  0.18939300  0.69956200  1
  Cu  Cu25  1  0.62055300  0.90314800  0.49643400  1
  Cu  Cu26  1  0.07329300  0.15226500  0.19565700  1
  Cu  Cu27  1  0.42670700  0.34773500  0.30434300  1
  Cu  Cu28  1  0.12055300  0.40314800  0.00356600  1
  Cu  Cu29  1  0.87944700  0.59685200  0.00356600  1
  Cu  Cu30  1  0.40314800  0.87944700  0.99643400  1
  Cu  Cu31  1  0.92670700  0.84773500  0.19565700  1
  Cu  Cu32  1  0.42184700  0.31060700  0.80043800  1
  Cu  Cu33  1  0.84773500  0.07329300  0.80434300  1
