# generated using pymatgen
data_CuNiC2
_symmetry_space_group_name_H-M   'P 1'
_cell_length_a   8.64050400
_cell_length_b   8.76595600
_cell_length_c   19.96976500
_cell_angle_alpha   90.00000000
_cell_angle_beta   90.00000000
_cell_angle_gamma   90.00000000
_symmetry_Int_Tables_number   1
_chemical_formula_structural   CuNiC2
_chemical_formula_sum   'Cu32 Ni32 C64'
_cell_volume   1512.55548986
_cell_formula_units_Z   32
loop_
 _symmetry_equiv_pos_site_id
 _symmetry_equiv_pos_as_xyz
  1  'x, y, z'
loop_
 _atom_site_type_symbol
 _atom_site_label
 _atom_site_symmetry_multiplicity
 _atom_site_fract_x
 _atom_site_fract_y
 _atom_site_fract_z
 _atom_site_occupancy
  Ni  Ni0  1  0.69181300  0.23951000  0.73073200  1
  Ni  Ni1  1  0.28228400  0.13293700  0.41395500  1
  Ni  Ni2  1  0.69181300  0.76049000  0.23073200  1
  Ni  Ni3  1  0.50290700  0.79246000  0.38935900  1
  Ni  Ni4  1  0.19181300  0.26049000  0.26926800  1
  Ni  Ni5  1  0.49709300  0.79246000  0.11064100  1
  Ni  Ni6  1  0.00000000  0.46562800  0.75000000  1
  Ni  Ni7  1  0.30818700  0.23951000  0.76926800  1
  Ni  Ni8  1  0.71771600  0.86706300  0.58604500  1
  Ni  Ni9  1  0.00000000  0.00000000  0.00000000  1
  Ni  Ni10  1  0.21771600  0.63293700  0.41395500  1
  Ni  Ni11  1  0.00290700  0.29246000  0.11064100  1
  Ni  Ni12  1  0.99709300  0.70754000  0.88935900  1
  Ni  Ni13  1  0.21771600  0.36706300  0.91395500  1
  Ni  Ni14  1  0.28228400  0.86706300  0.91395500  1
  Ni  Ni15  1  0.19181300  0.73951000  0.76926800  1
  Ni  Ni16  1  0.50290700  0.20754000  0.88935900  1
  Ni  Ni17  1  0.71771600  0.13293700  0.08604500  1
  Ni  Ni18  1  0.49709300  0.20754000  0.61064100  1
  Ni  Ni19  1  0.50000000  0.50000000  0.50000000  1
  Ni  Ni20  1  0.00000000  0.00000000  0.50000000  1
  Ni  Ni21  1  0.78228400  0.63293700  0.08604500  1
  Ni  Ni22  1  0.78228400  0.36706300  0.58604500  1
  Ni  Ni23  1  0.00000000  0.53437200  0.25000000  1
  Ni  Ni24  1  0.50000000  0.96562800  0.75000000  1
  Ni  Ni25  1  0.00290700  0.70754000  0.61064100  1
  Ni  Ni26  1  0.50000000  0.03437200  0.25000000  1
  Ni  Ni27  1  0.99709300  0.29246000  0.38935900  1
  Ni  Ni28  1  0.50000000  0.50000000  0.00000000  1
  Ni  Ni29  1  0.30818700  0.76049000  0.26926800  1
  Ni  Ni30  1  0.80818700  0.73951000  0.73073200  1
  Ni  Ni31  1  0.80818700  0.26049000  0.23073200  1
  Cu  Cu32  1  0.88881400  0.26134100  0.86713800  1
  Cu  Cu33  1  0.32365400  0.12692900  0.02358500  1
  Cu  Cu34  1  0.44341400  0.54722700  0.82647400  1
  Cu  Cu35  1  0.28164000  0.50641600  0.13350800  1
  Cu  Cu36  1  0.67634600  0.87307100  0.97641500  1
  Cu  Cu37  1  0.67634600  0.12692900  0.47641500  1
  Cu  Cu38  1  0.32365400  0.87307100  0.52358500  1
  Cu  Cu39  1  0.71836000  0.49358400  0.86649200  1
  Cu  Cu40  1  0.88881400  0.73865900  0.36713800  1
  Cu  Cu41  1  0.17634600  0.62692900  0.02358500  1
  Cu  Cu42  1  0.61118600  0.23865900  0.36713800  1
  Cu  Cu43  1  0.05658600  0.95277300  0.32647400  1
  Cu  Cu44  1  0.38881400  0.76134100  0.63286200  1
  Cu  Cu45  1  0.94341400  0.04722700  0.67352600  1
  Cu  Cu46  1  0.44341400  0.45277300  0.32647400  1
  Cu  Cu47  1  0.78164000  0.00641600  0.36649200  1
  Cu  Cu48  1  0.82365400  0.37307100  0.97641500  1
  Cu  Cu49  1  0.61118600  0.76134100  0.86713800  1
  Cu  Cu50  1  0.38881400  0.23865900  0.13286200  1
  Cu  Cu51  1  0.55658600  0.45277300  0.17352600  1
  Cu  Cu52  1  0.21836000  0.00641600  0.13350800  1
  Cu  Cu53  1  0.05658600  0.04722700  0.82647400  1
  Cu  Cu54  1  0.17634600  0.37307100  0.52358500  1
  Cu  Cu55  1  0.11118600  0.73865900  0.13286200  1
  Cu  Cu56  1  0.21836000  0.99358400  0.63350800  1
  Cu  Cu57  1  0.78164000  0.99358400  0.86649200  1
  Cu  Cu58  1  0.55658600  0.54722700  0.67352600  1
  Cu  Cu59  1  0.11118600  0.26134100  0.63286200  1
  Cu  Cu60  1  0.71836000  0.50641600  0.36649200  1
  Cu  Cu61  1  0.82365400  0.62692900  0.47641500  1
  Cu  Cu62  1  0.28164000  0.49358400  0.63350800  1
  Cu  Cu63  1  0.94341400  0.95277300  0.17352600  1
  C  C64  1  0.67752500  0.11605200  0.54458200  1
  C  C65  1  0.67752500  0.88394800  0.04458200  1
  C  C66  1  0.24171400  0.84451300  0.14390200  1
  C  C67  1  0.74171400  0.65548700  0.85609800  1
  C  C68  1  0.28767000  0.54287600  0.05894500  1
  C  C69  1  0.78767000  0.95712400  0.94105500  1
  C  C70  1  0.80300400  0.00375500  0.19462700  1
  C  C71  1  0.92420900  0.28276900  0.94015500  1
  C  C72  1  0.56525700  0.55439600  0.33908700  1
  C  C73  1  0.71233000  0.45712400  0.94105500  1
  C  C74  1  0.34771900  0.09079900  0.16289700  1
  C  C75  1  0.80300400  0.99624500  0.69462700  1
  C  C76  1  0.46918300  0.29697700  0.33549700  1
  C  C77  1  0.84771900  0.59079900  0.33710300  1
  C  C78  1  0.19699600  0.00375500  0.30537300  1
  C  C79  1  0.21233000  0.04287600  0.05894500  1
  C  C80  1  0.15228100  0.40920100  0.66289700  1
  C  C81  1  0.78767000  0.04287600  0.44105500  1
  C  C82  1  0.43474300  0.44560400  0.66091300  1
  C  C83  1  0.30300400  0.49624500  0.80537300  1
  C  C84  1  0.06525700  0.05439600  0.16091300  1
  C  C85  1  0.42420900  0.78276900  0.55984500  1
  C  C86  1  0.34771900  0.90920100  0.66289700  1
  C  C87  1  0.57579100  0.21723100  0.44015500  1
  C  C88  1  0.82247500  0.61605200  0.54458200  1
  C  C89  1  0.28767000  0.45712400  0.55894500  1
  C  C90  1  0.53081700  0.29697700  0.16450300  1
  C  C91  1  0.19699600  0.99624500  0.80537300  1
  C  C92  1  0.07579100  0.71723100  0.05984500  1
  C  C93  1  0.93474300  0.94560400  0.83908700  1
  C  C94  1  0.03081700  0.79697700  0.33549700  1
  C  C95  1  0.24171400  0.15548700  0.64390200  1
  C  C96  1  0.65228100  0.09079900  0.33710300  1
  C  C97  1  0.75828600  0.84451300  0.35609800  1
  C  C98  1  0.53081700  0.70302300  0.66450300  1
  C  C99  1  0.30300400  0.50375500  0.30537300  1
  C  C100  1  0.43474300  0.55439600  0.16091300  1
  C  C101  1  0.56525700  0.44560400  0.83908700  1
  C  C102  1  0.32247500  0.11605200  0.95541800  1
  C  C103  1  0.93474300  0.05439600  0.33908700  1
  C  C104  1  0.03081700  0.20302300  0.83549700  1
  C  C105  1  0.17752500  0.61605200  0.95541800  1
  C  C106  1  0.25828600  0.65548700  0.64390200  1
  C  C107  1  0.69699600  0.50375500  0.19462700  1
  C  C108  1  0.21233000  0.95712400  0.55894500  1
  C  C109  1  0.17752500  0.38394800  0.45541800  1
  C  C110  1  0.57579100  0.78276900  0.94015500  1
  C  C111  1  0.06525700  0.94560400  0.66091300  1
  C  C112  1  0.71233000  0.54287600  0.44105500  1
  C  C113  1  0.65228100  0.90920100  0.83710300  1
  C  C114  1  0.82247500  0.38394800  0.04458200  1
  C  C115  1  0.75828600  0.15548700  0.85609800  1
  C  C116  1  0.74171400  0.34451300  0.35609800  1
  C  C117  1  0.69699600  0.49624500  0.69462700  1
  C  C118  1  0.84771900  0.40920100  0.83710300  1
  C  C119  1  0.25828600  0.34451300  0.14390200  1
  C  C120  1  0.42420900  0.21723100  0.05984500  1
  C  C121  1  0.96918300  0.20302300  0.66450300  1
  C  C122  1  0.46918300  0.70302300  0.83549700  1
  C  C123  1  0.15228100  0.59079900  0.16289700  1
  C  C124  1  0.07579100  0.28276900  0.55984500  1
  C  C125  1  0.32247500  0.88394800  0.45541800  1
  C  C126  1  0.96918300  0.79697700  0.16450300  1
  C  C127  1  0.92420900  0.71723100  0.44015500  1
