# generated using pymatgen
data_Cu4Ni7C17
_symmetry_space_group_name_H-M   'P 1'
_cell_length_a   4.54052500
_cell_length_b   5.90362000
_cell_length_c   20.42837100
_cell_angle_alpha   90.00000000
_cell_angle_beta   90.00000000
_cell_angle_gamma   90.00000000
_symmetry_Int_Tables_number   1
_chemical_formula_structural   Cu4Ni7C17
_chemical_formula_sum   'Cu8 Ni14 C34'
_cell_volume   547.59339750
_cell_formula_units_Z   2
loop_
 _symmetry_equiv_pos_site_id
 _symmetry_equiv_pos_as_xyz
  1  'x, y, z'
loop_
 _atom_site_type_symbol
 _atom_site_label
 _atom_site_symmetry_multiplicity
 _atom_site_fract_x
 _atom_site_fract_y
 _atom_site_fract_z
 _atom_site_occupancy
  C  C0  1  0.00000000  0.00000000  0.00000000  1
  C  C1  1  0.50000000  0.50000000  0.50000000  1
  Ni  Ni2  1  0.99732200  0.25160200  0.37053800  1
  Ni  Ni3  1  0.50267800  0.75160200  0.87053800  1
  Ni  Ni4  1  0.49732200  0.24839800  0.12946200  1
  Ni  Ni5  1  0.50038500  0.00000000  0.73613500  1
  Ni  Ni6  1  0.49961500  0.00000000  0.26386500  1
  Ni  Ni7  1  0.99961500  0.50000000  0.23613500  1
  Ni  Ni8  1  0.00267800  0.74839800  0.62946200  1
  Ni  Ni9  1  0.50000000  0.50000000  0.00000000  1
  Ni  Ni10  1  0.00038500  0.50000000  0.76386500  1
  Ni  Ni11  1  0.49732200  0.75160200  0.12946200  1
  Ni  Ni12  1  0.50267800  0.24839800  0.87053800  1
  Ni  Ni13  1  0.99732200  0.74839800  0.37053800  1
  Ni  Ni14  1  0.00267800  0.25160200  0.62946200  1
  Ni  Ni15  1  0.00000000  0.00000000  0.50000000  1
  Cu  Cu16  1  0.93294100  0.50000000  0.08762600  1
  Cu  Cu17  1  0.43294100  0.00000000  0.41237400  1
  Cu  Cu18  1  0.54166700  0.50000000  0.30680100  1
  Cu  Cu19  1  0.04166700  0.00000000  0.19319900  1
  Cu  Cu20  1  0.06705900  0.50000000  0.91237400  1
  Cu  Cu21  1  0.95833300  0.00000000  0.80680100  1
  Cu  Cu22  1  0.45833300  0.50000000  0.69319900  1
  Cu  Cu23  1  0.56705900  0.00000000  0.58762600  1
  C  C24  1  0.28126500  0.00000000  0.34849500  1
  C  C25  1  0.25151300  0.00000000  0.82475800  1
  C  C26  1  0.79767600  0.80119300  0.79502100  1
  C  C27  1  0.25267500  0.00000000  0.58583500  1
  C  C28  1  0.74848700  0.00000000  0.17524200  1
  C  C29  1  0.29767600  0.30119300  0.70497900  1
  C  C30  1  0.70991600  0.00000000  0.93036100  1
  C  C31  1  0.20232400  0.80119300  0.20497900  1
  C  C32  1  0.75151300  0.50000000  0.67524200  1
  C  C33  1  0.70474500  0.20563000  0.55075100  1
  C  C34  1  0.74732500  0.00000000  0.41416500  1
  C  C35  1  0.79008400  0.50000000  0.43036100  1
  C  C36  1  0.29525500  0.20563000  0.44924900  1
  C  C37  1  0.70474500  0.79437000  0.55075100  1
  C  C38  1  0.20991600  0.50000000  0.56963900  1
  C  C39  1  0.29008400  0.00000000  0.06963900  1
  C  C40  1  0.70232400  0.69880700  0.29502100  1
  C  C41  1  0.20474500  0.29437000  0.94924900  1
  C  C42  1  0.24848700  0.50000000  0.32475800  1
  C  C43  1  0.71873500  0.00000000  0.65150500  1
  C  C44  1  0.78126500  0.50000000  0.15150500  1
  C  C45  1  0.70232400  0.30119300  0.29502100  1
  C  C46  1  0.29767600  0.69880700  0.70497900  1
  C  C47  1  0.79767600  0.19880700  0.79502100  1
  C  C48  1  0.21873500  0.50000000  0.84849500  1
  C  C49  1  0.79525500  0.70563000  0.05075100  1
  C  C50  1  0.20474500  0.70563000  0.94924900  1
  C  C51  1  0.75267500  0.50000000  0.91416500  1
  C  C52  1  0.20232400  0.19880700  0.20497900  1
  C  C53  1  0.79525500  0.29437000  0.05075100  1
  C  C54  1  0.29525500  0.79437000  0.44924900  1
  C  C55  1  0.24732500  0.50000000  0.08583500  1
