# generated using pymatgen
data_Cu2Ni3C8
_symmetry_space_group_name_H-M   'P 1'
_cell_length_a   5.02403700
_cell_length_b   5.87248200
_cell_length_c   9.39618700
_cell_angle_alpha   90.00000000
_cell_angle_beta   90.00000000
_cell_angle_gamma   90.00000000
_symmetry_Int_Tables_number   1
_chemical_formula_structural   Cu2Ni3C8
_chemical_formula_sum   'Cu4 Ni6 C16'
_cell_volume   277.22103129
_cell_formula_units_Z   2
loop_
 _symmetry_equiv_pos_site_id
 _symmetry_equiv_pos_as_xyz
  1  'x, y, z'
loop_
 _atom_site_type_symbol
 _atom_site_label
 _atom_site_symmetry_multiplicity
 _atom_site_fract_x
 _atom_site_fract_y
 _atom_site_fract_z
 _atom_site_occupancy
  Ni  Ni0  1  0.16271200  0.75874200  0.00053200  1
  Ni  Ni1  1  0.83728800  0.74125800  0.50053200  1
  Ni  Ni2  1  0.83728800  0.25874200  0.50053200  1
  Ni  Ni3  1  0.16271200  0.24125800  0.00053200  1
  Ni  Ni4  1  0.67241400  0.50000000  0.99876500  1
  Ni  Ni5  1  0.32758600  0.00000000  0.49876500  1
  Cu  Cu6  1  0.67227600  0.00000000  0.21393600  1
  Cu  Cu7  1  0.32772400  0.50000000  0.71393600  1
  Cu  Cu8  1  0.33642300  0.50000000  0.31976000  1
  Cu  Cu9  1  0.66357700  0.00000000  0.81976000  1
  C  C10  1  0.83892200  0.25936000  0.10486300  1
  C  C11  1  0.16107800  0.24064000  0.60486300  1
  C  C12  1  0.16107800  0.75936000  0.60486300  1
  C  C13  1  0.83892200  0.74064000  0.10486300  1
  C  C14  1  0.52122300  0.21994500  0.37769600  1
  C  C15  1  0.47877700  0.28005500  0.87769600  1
  C  C16  1  0.47877700  0.71994500  0.87769600  1
  C  C17  1  0.52122300  0.78005500  0.37769600  1
  C  C18  1  0.31692900  0.00000000  0.10573400  1
  C  C19  1  0.68307100  0.50000000  0.60573400  1
  C  C20  1  0.33766700  0.50000000  0.10795000  1
  C  C21  1  0.66233300  0.00000000  0.60795000  1
  C  C22  1  0.99552700  0.00000000  0.39319600  1
  C  C23  1  0.00447300  0.50000000  0.89319600  1
  C  C24  1  0.96771000  0.50000000  0.38637900  1
  C  C25  1  0.03229000  0.00000000  0.88637900  1
