# generated using pymatgen
data_Cu9(NiC)5
_symmetry_space_group_name_H-M   'P 1'
_cell_length_a   16.28337713
_cell_length_b   16.28337713
_cell_length_c   5.63054400
_cell_angle_alpha   90.00000000
_cell_angle_beta   90.00000000
_cell_angle_gamma   119.99999646
_symmetry_Int_Tables_number   1
_chemical_formula_structural   Cu9(NiC)5
_chemical_formula_sum   'Cu36 Ni20 C20'
_cell_volume   1292.91497781
_cell_formula_units_Z   4
loop_
 _symmetry_equiv_pos_site_id
 _symmetry_equiv_pos_as_xyz
  1  'x, y, z'
loop_
 _atom_site_type_symbol
 _atom_site_label
 _atom_site_symmetry_multiplicity
 _atom_site_fract_x
 _atom_site_fract_y
 _atom_site_fract_z
 _atom_site_occupancy
  C  C0  1  0.33333300  0.66666700  0.75000000  1
  C  C1  1  0.66666700  0.33333300  0.25000000  1
  C  C2  1  0.83941800  0.52710400  0.75000000  1
  C  C3  1  0.31231400  0.83941800  0.25000000  1
  C  C4  1  0.52710400  0.68768600  0.25000000  1
  C  C5  1  0.47289600  0.31231400  0.75000000  1
  C  C6  1  0.68768600  0.16058200  0.75000000  1
  C  C7  1  0.16058200  0.47289600  0.25000000  1
  C  C8  1  0.68482700  0.65080300  0.75000000  1
  C  C9  1  0.03402400  0.68482700  0.25000000  1
  C  C10  1  0.65080300  0.96597600  0.25000000  1
  C  C11  1  0.34919700  0.03402400  0.75000000  1
  C  C12  1  0.96597600  0.31517300  0.75000000  1
  C  C13  1  0.31517300  0.34919700  0.25000000  1
  C  C14  1  0.99302200  0.11808700  0.75000000  1
  C  C15  1  0.87493500  0.99302200  0.25000000  1
  C  C16  1  0.11808700  0.12506500  0.25000000  1
  C  C17  1  0.88191300  0.87493500  0.75000000  1
  C  C18  1  0.12506500  0.00697800  0.75000000  1
  C  C19  1  0.00697800  0.88191300  0.25000000  1
  Ni  Ni20  1  0.57632000  0.79470100  0.75000000  1
  Ni  Ni21  1  0.78161900  0.57632000  0.25000000  1
  Ni  Ni22  1  0.79470100  0.21838100  0.25000000  1
  Ni  Ni23  1  0.20529900  0.78161900  0.75000000  1
  Ni  Ni24  1  0.21838100  0.42368000  0.75000000  1
  Ni  Ni25  1  0.42368000  0.20529900  0.25000000  1
  Ni  Ni26  1  0.76163900  0.97123000  0.75000000  1
  Ni  Ni27  1  0.79040900  0.76163900  0.25000000  1
  Ni  Ni28  1  0.97123000  0.20959100  0.25000000  1
  Ni  Ni29  1  0.02877000  0.79040900  0.75000000  1
  Ni  Ni30  1  0.20959100  0.23836100  0.75000000  1
  Ni  Ni31  1  0.23836100  0.02877000  0.25000000  1
  Ni  Ni32  1  0.50000000  0.00000000  0.00000000  1
  Ni  Ni33  1  0.50000000  0.50000000  0.50000000  1
  Ni  Ni34  1  0.00000000  0.50000000  0.50000000  1
  Ni  Ni35  1  0.00000000  0.50000000  0.00000000  1
  Ni  Ni36  1  0.50000000  0.50000000  0.00000000  1
  Ni  Ni37  1  0.50000000  0.00000000  0.50000000  1
  Ni  Ni38  1  0.66666700  0.33333300  0.75000000  1
  Ni  Ni39  1  0.33333300  0.66666700  0.25000000  1
  Cu  Cu40  1  0.12316300  0.29068800  0.02782900  1
  Cu  Cu41  1  0.83247500  0.12316300  0.52782900  1
  Cu  Cu42  1  0.29068800  0.16752500  0.52782900  1
  Cu  Cu43  1  0.70931200  0.83247500  0.02782900  1
  Cu  Cu44  1  0.16752500  0.87683700  0.02782900  1
  Cu  Cu45  1  0.87683700  0.70931200  0.52782900  1
  Cu  Cu46  1  0.87683700  0.70931200  0.97217100  1
  Cu  Cu47  1  0.16752500  0.87683700  0.47217100  1
  Cu  Cu48  1  0.70931200  0.83247500  0.47217100  1
  Cu  Cu49  1  0.29068800  0.16752500  0.97217100  1
  Cu  Cu50  1  0.83247500  0.12316300  0.97217100  1
  Cu  Cu51  1  0.12316300  0.29068800  0.47217100  1
  Cu  Cu52  1  0.17793100  0.64949900  0.03094100  1
  Cu  Cu53  1  0.52843200  0.17793100  0.53094100  1
  Cu  Cu54  1  0.64949900  0.47156800  0.53094100  1
  Cu  Cu55  1  0.35050100  0.52843200  0.03094100  1
  Cu  Cu56  1  0.47156800  0.82206900  0.03094100  1
  Cu  Cu57  1  0.82206900  0.35050100  0.53094100  1
  Cu  Cu58  1  0.82206900  0.35050100  0.96905900  1
  Cu  Cu59  1  0.47156800  0.82206900  0.46905900  1
  Cu  Cu60  1  0.35050100  0.52843200  0.46905900  1
  Cu  Cu61  1  0.64949900  0.47156800  0.96905900  1
  Cu  Cu62  1  0.52843200  0.17793100  0.96905900  1
  Cu  Cu63  1  0.17793100  0.64949900  0.46905900  1
  Cu  Cu64  1  0.37700100  0.86669300  0.75000000  1
  Cu  Cu65  1  0.51030800  0.37700100  0.25000000  1
  Cu  Cu66  1  0.86669300  0.48969200  0.25000000  1
  Cu  Cu67  1  0.13330700  0.51030800  0.75000000  1
  Cu  Cu68  1  0.48969200  0.62299900  0.75000000  1
  Cu  Cu69  1  0.62299900  0.13330700  0.25000000  1
  Cu  Cu70  1  0.04181300  0.64348000  0.75000000  1
  Cu  Cu71  1  0.39833300  0.04181300  0.25000000  1
  Cu  Cu72  1  0.64348000  0.60166700  0.25000000  1
  Cu  Cu73  1  0.35652000  0.39833300  0.75000000  1
  Cu  Cu74  1  0.60166700  0.95818700  0.75000000  1
  Cu  Cu75  1  0.95818700  0.35652000  0.25000000  1
