# generated using pymatgen
data_CuNiC7
_symmetry_space_group_name_H-M   'P 1'
_cell_length_a   23.67984400
_cell_length_b   5.28213700
_cell_length_c   5.39716356
_cell_angle_alpha   66.99643415
_cell_angle_beta   90.00000000
_cell_angle_gamma   90.00000000
_symmetry_Int_Tables_number   1
_chemical_formula_structural   CuNiC7
_chemical_formula_sum   'Cu4 Ni4 C28'
_cell_volume   621.39633369
_cell_formula_units_Z   4
loop_
 _symmetry_equiv_pos_site_id
 _symmetry_equiv_pos_as_xyz
  1  'x, y, z'
loop_
 _atom_site_type_symbol
 _atom_site_label
 _atom_site_symmetry_multiplicity
 _atom_site_fract_x
 _atom_site_fract_y
 _atom_site_fract_z
 _atom_site_occupancy
  Ni  Ni0  1  0.57092100  0.71147700  0.17901000  1
  Ni  Ni1  1  0.92907900  0.71147700  0.67901000  1
  Ni  Ni2  1  0.07092100  0.28852300  0.32099000  1
  Ni  Ni3  1  0.42907900  0.28852300  0.82099000  1
  Cu  Cu4  1  0.83766200  0.53049800  0.50850400  1
  Cu  Cu5  1  0.66233800  0.53049800  0.00850400  1
  Cu  Cu6  1  0.16233800  0.46950200  0.49149600  1
  Cu  Cu7  1  0.33766200  0.46950200  0.99149600  1
  C  C8  1  0.31114000  0.11690200  0.28341100  1
  C  C9  1  0.81114000  0.88309800  0.21658900  1
  C  C10  1  0.18886000  0.11690200  0.78341100  1
  C  C11  1  0.68886000  0.88309800  0.71658900  1
  C  C12  1  0.87669100  0.39905200  0.39580200  1
  C  C13  1  0.37107900  0.34830900  0.79319800  1
  C  C14  1  0.62330900  0.39905200  0.89580200  1
  C  C15  1  0.29000500  0.60550000  0.83472600  1
  C  C16  1  0.87107900  0.65169100  0.70680200  1
  C  C17  1  0.79000500  0.39450000  0.66527400  1
  C  C18  1  0.62892100  0.65169100  0.20680200  1
  C  C19  1  0.37669100  0.60094800  0.10419800  1
  C  C20  1  0.12330900  0.60094800  0.60419800  1
  C  C21  1  0.12892100  0.34830900  0.29319800  1
  C  C22  1  0.70999500  0.39450000  0.16527400  1
  C  C23  1  0.20999500  0.60550000  0.33472600  1
  C  C24  1  0.43979600  0.14987700  0.66425600  1
  C  C25  1  0.05644200  0.13279200  0.57722800  1
  C  C26  1  0.56020400  0.85012300  0.33574400  1
  C  C27  1  0.44355800  0.13279200  0.07722800  1
  C  C28  1  0.03988700  0.52070800  0.23536900  1
  C  C29  1  0.93979600  0.85012300  0.83574400  1
  C  C30  1  0.94355800  0.86720800  0.42277200  1
  C  C31  1  0.96011300  0.47929200  0.76463100  1
  C  C32  1  0.53988700  0.47929200  0.26463100  1
  C  C33  1  0.46011300  0.52070800  0.73536900  1
  C  C34  1  0.06020400  0.14987700  0.16425600  1
  C  C35  1  0.55644200  0.86720800  0.92277200  1
