# generated using pymatgen
data_CuNiC5
_symmetry_space_group_name_H-M   'P 1'
_cell_length_a   10.39668224
_cell_length_b   10.39668224
_cell_length_c   7.18141300
_cell_angle_alpha   90.00000000
_cell_angle_beta   90.00000000
_cell_angle_gamma   120.00000150
_symmetry_Int_Tables_number   1
_chemical_formula_structural   CuNiC5
_chemical_formula_sum   'Cu6 Ni6 C30'
_cell_volume   672.24885237
_cell_formula_units_Z   6
loop_
 _symmetry_equiv_pos_site_id
 _symmetry_equiv_pos_as_xyz
  1  'x, y, z'
loop_
 _atom_site_type_symbol
 _atom_site_label
 _atom_site_symmetry_multiplicity
 _atom_site_fract_x
 _atom_site_fract_y
 _atom_site_fract_z
 _atom_site_occupancy
  C  C0  1  0.66666700  0.33333300  0.50616900  1
  C  C1  1  0.33333300  0.66666700  0.49383100  1
  C  C2  1  0.66666700  0.33333300  0.99383100  1
  C  C3  1  0.33333300  0.66666700  0.00616900  1
  Ni  Ni4  1  0.60874300  0.02977500  0.25000000  1
  Ni  Ni5  1  0.02977500  0.42103300  0.75000000  1
  Ni  Ni6  1  0.57896700  0.60874300  0.75000000  1
  Ni  Ni7  1  0.39125700  0.97022500  0.75000000  1
  Ni  Ni8  1  0.97022500  0.57896700  0.25000000  1
  Ni  Ni9  1  0.42103300  0.39125700  0.25000000  1
  Cu  Cu10  1  0.23550000  0.26203400  0.75000000  1
  Cu  Cu11  1  0.02653300  0.76450000  0.75000000  1
  Cu  Cu12  1  0.76450000  0.73796600  0.25000000  1
  Cu  Cu13  1  0.73796600  0.97346700  0.75000000  1
  Cu  Cu14  1  0.97346700  0.23550000  0.25000000  1
  Cu  Cu15  1  0.26203400  0.02653300  0.25000000  1
  C  C16  1  0.00000000  0.00000000  0.50000000  1
  C  C17  1  0.00000000  0.00000000  0.00000000  1
  C  C18  1  0.36352300  0.27456500  0.44074100  1
  C  C19  1  0.53076200  0.14484300  0.25000000  1
  C  C20  1  0.72543500  0.08895800  0.05925900  1
  C  C21  1  0.91104200  0.63647700  0.05925900  1
  C  C22  1  0.46923800  0.85515700  0.75000000  1
  C  C23  1  0.08895800  0.36352300  0.55925900  1
  C  C24  1  0.27456500  0.91104200  0.94074100  1
  C  C25  1  0.63345600  0.47860500  0.75000000  1
  C  C26  1  0.14484300  0.61408100  0.75000000  1
  C  C27  1  0.38591900  0.53076200  0.75000000  1
  C  C28  1  0.36654400  0.52139500  0.25000000  1
  C  C29  1  0.63647700  0.72543500  0.94074100  1
  C  C30  1  0.84514900  0.36654400  0.75000000  1
  C  C31  1  0.15485100  0.63345600  0.25000000  1
  C  C32  1  0.63647700  0.72543500  0.55925900  1
  C  C33  1  0.27456500  0.91104200  0.55925900  1
  C  C34  1  0.08895800  0.36352300  0.94074100  1
  C  C35  1  0.85515700  0.38591900  0.25000000  1
  C  C36  1  0.47860500  0.84514900  0.25000000  1
  C  C37  1  0.36352300  0.27456500  0.05925900  1
  C  C38  1  0.61408100  0.46923800  0.25000000  1
  C  C39  1  0.91104200  0.63647700  0.44074100  1
  C  C40  1  0.72543500  0.08895800  0.44074100  1
  C  C41  1  0.52139500  0.15485100  0.75000000  1
