# generated using pymatgen
data_Cu2NiC2
_symmetry_space_group_name_H-M   'P 1'
_cell_length_a   5.59674400
_cell_length_b   5.71500800
_cell_length_c   7.85787600
_cell_angle_alpha   90.00000000
_cell_angle_beta   90.00000000
_cell_angle_gamma   90.00000000
_symmetry_Int_Tables_number   1
_chemical_formula_structural   Cu2NiC2
_chemical_formula_sum   'Cu8 Ni4 C8'
_cell_volume   251.33759566
_cell_formula_units_Z   4
loop_
 _symmetry_equiv_pos_site_id
 _symmetry_equiv_pos_as_xyz
  1  'x, y, z'
loop_
 _atom_site_type_symbol
 _atom_site_label
 _atom_site_symmetry_multiplicity
 _atom_site_fract_x
 _atom_site_fract_y
 _atom_site_fract_z
 _atom_site_occupancy
  C  C0  1  0.24227100  0.45072200  0.50000000  1
  C  C1  1  0.75772900  0.95072200  0.50000000  1
  C  C2  1  0.73211800  0.03748600  0.00000000  1
  C  C3  1  0.26788200  0.53748600  0.00000000  1
  C  C4  1  0.76538300  0.48804300  0.25405300  1
  C  C5  1  0.23461700  0.98804300  0.25405300  1
  C  C6  1  0.23461700  0.98804300  0.74594700  1
  C  C7  1  0.76538300  0.48804300  0.74594700  1
  Ni  Ni8  1  0.96430200  0.21632400  0.70403300  1
  Ni  Ni9  1  0.03569800  0.71632400  0.29596700  1
  Ni  Ni10  1  0.96430200  0.21632400  0.29596700  1
  Ni  Ni11  1  0.03569800  0.71632400  0.70403300  1
  Cu  Cu12  1  0.83204500  0.48195700  0.00000000  1
  Cu  Cu13  1  0.53764000  0.79611800  0.20198800  1
  Cu  Cu14  1  0.34674800  0.02906500  0.50000000  1
  Cu  Cu15  1  0.16795500  0.98195700  0.00000000  1
  Cu  Cu16  1  0.65325200  0.52906500  0.50000000  1
  Cu  Cu17  1  0.53764000  0.79611800  0.79801200  1
  Cu  Cu18  1  0.46236000  0.29611800  0.20198800  1
  Cu  Cu19  1  0.46236000  0.29611800  0.79801200  1
