# generated using pymatgen
data_Cu3Ni8C7
_symmetry_space_group_name_H-M   'P 1'
_cell_length_a   10.79922100
_cell_length_b   12.95190700
_cell_length_c   12.95589200
_cell_angle_alpha   90.00000000
_cell_angle_beta   90.00000000
_cell_angle_gamma   90.00000000
_symmetry_Int_Tables_number   1
_chemical_formula_structural   Cu3Ni8C7
_chemical_formula_sum   'Cu24 Ni64 C56'
_cell_volume   1812.14717056
_cell_formula_units_Z   8
loop_
 _symmetry_equiv_pos_site_id
 _symmetry_equiv_pos_as_xyz
  1  'x, y, z'
loop_
 _atom_site_type_symbol
 _atom_site_label
 _atom_site_symmetry_multiplicity
 _atom_site_fract_x
 _atom_site_fract_y
 _atom_site_fract_z
 _atom_site_occupancy
  C  C0  1  0.50000000  0.12509100  0.13248500  1
  C  C1  1  0.00000000  0.13043100  0.87838800  1
  C  C2  1  0.50000000  0.90789500  0.62465400  1
  C  C3  1  0.50000000  0.40789500  0.87534600  1
  C  C4  1  0.00000000  0.34072000  0.62382300  1
  C  C5  1  0.00000000  0.87692100  0.59052800  1
  C  C6  1  0.00000000  0.12307900  0.40947200  1
  C  C7  1  0.00000000  0.62307900  0.09052800  1
  C  C8  1  0.50000000  0.09210500  0.37534600  1
  C  C9  1  0.00000000  0.63043100  0.62161200  1
  C  C10  1  0.50000000  0.87927500  0.15574200  1
  C  C11  1  0.00000000  0.37692100  0.90947200  1
  C  C12  1  0.50000000  0.59210500  0.12465400  1
  C  C13  1  0.50000000  0.87490900  0.86751500  1
  C  C14  1  0.00000000  0.65928000  0.37617700  1
  C  C15  1  0.50000000  0.12072500  0.84425800  1
  C  C16  1  0.00000000  0.15928000  0.12382300  1
  C  C17  1  0.00000000  0.84072000  0.87617700  1
  C  C18  1  0.50000000  0.37490900  0.63248500  1
  C  C19  1  0.50000000  0.62509100  0.36751500  1
  C  C20  1  0.00000000  0.36956900  0.37838800  1
  C  C21  1  0.00000000  0.86956900  0.12161200  1
  C  C22  1  0.50000000  0.62072500  0.65574200  1
  C  C23  1  0.50000000  0.37927500  0.34425800  1
  C  C24  1  0.68926800  0.24847000  0.49723100  1
  C  C25  1  0.68926800  0.74847000  0.00276900  1
  C  C26  1  0.18908300  0.00221100  0.25147400  1
  C  C27  1  0.81091700  0.00221100  0.25147400  1
  C  C28  1  0.68926800  0.25153000  0.99723100  1
  C  C29  1  0.31073200  0.25153000  0.99723100  1
  C  C30  1  0.18908300  0.50221100  0.24852600  1
  C  C31  1  0.81091700  0.49778900  0.75147400  1
  C  C32  1  0.18908300  0.49778900  0.75147400  1
  C  C33  1  0.31073200  0.74847000  0.00276900  1
  C  C34  1  0.31073200  0.24847000  0.49723100  1
  C  C35  1  0.18908300  0.99778900  0.74852600  1
  C  C36  1  0.68926800  0.75153000  0.50276900  1
  C  C37  1  0.81091700  0.50221100  0.24852600  1
  C  C38  1  0.31073200  0.75153000  0.50276900  1
  C  C39  1  0.81091700  0.99778900  0.74852600  1
  C  C40  1  0.74996800  0.75080000  0.74866700  1
  C  C41  1  0.25003200  0.24920000  0.25133300  1
  C  C42  1  0.24999000  0.00000000  0.00000000  1
  C  C43  1  0.24976100  0.50000000  0.00000000  1
  C  C44  1  0.75001000  0.50000000  0.50000000  1
  C  C45  1  0.25003200  0.25080000  0.75133300  1
  C  C46  1  0.75023900  0.00000000  0.50000000  1
  C  C47  1  0.74996800  0.74920000  0.24866700  1
  C  C48  1  0.24976100  0.00000000  0.50000000  1
  C  C49  1  0.74996800  0.24920000  0.25133300  1
  C  C50  1  0.24999000  0.50000000  0.50000000  1
  C  C51  1  0.75001000  0.00000000  0.00000000  1
  C  C52  1  0.25003200  0.75080000  0.74866700  1
  C  C53  1  0.75023900  0.50000000  0.00000000  1
  C  C54  1  0.25003200  0.74920000  0.24866700  1
  C  C55  1  0.74996800  0.25080000  0.75133300  1
  Ni  Ni56  1  0.67462800  0.25699200  0.65014400  1
  Ni  Ni57  1  0.67462800  0.74300800  0.34985600  1
  Ni  Ni58  1  0.15653400  0.65807900  0.24191900  1
  Ni  Ni59  1  0.83698800  0.01084700  0.09504300  1
  Ni  Ni60  1  0.66490800  0.09587900  0.49770000  1
  Ni  Ni61  1  0.84346600  0.15807900  0.25808100  1
  Ni  Ni62  1  0.16428900  0.00140500  0.59584800  1
  Ni  Ni63  1  0.16301200  0.01084700  0.09504300  1
  Ni  Ni64  1  0.84346600  0.34192100  0.75808100  1
  Ni  Ni65  1  0.33692400  0.40490100  0.48940700  1
  Ni  Ni66  1  0.66490800  0.40412100  0.99770000  1
  Ni  Ni67  1  0.83698800  0.51084700  0.40495700  1
  Ni  Ni68  1  0.82708100  0.15056800  0.75866900  1
  Ni  Ni69  1  0.33692400  0.59509900  0.51059300  1
  Ni  Ni70  1  0.32537200  0.74300800  0.34985600  1
  Ni  Ni71  1  0.15653400  0.34192100  0.75808100  1
  Ni  Ni72  1  0.17291900  0.15056800  0.75866900  1
  Ni  Ni73  1  0.65486300  0.75638900  0.65867500  1
  Ni  Ni74  1  0.16301200  0.51084700  0.40495700  1
  Ni  Ni75  1  0.65486300  0.74361100  0.15867500  1
  Ni  Ni76  1  0.15653400  0.84192100  0.74191900  1
  Ni  Ni77  1  0.17291900  0.65056800  0.74133100  1
  Ni  Ni78  1  0.82708100  0.84943200  0.24133100  1
  Ni  Ni79  1  0.15653400  0.15807900  0.25808100  1
  Ni  Ni80  1  0.65486300  0.24361100  0.34132500  1
  Ni  Ni81  1  0.33692400  0.90490100  0.01059300  1
  Ni  Ni82  1  0.32537200  0.24300800  0.15014400  1
  Ni  Ni83  1  0.82708100  0.65056800  0.74133100  1
  Ni  Ni84  1  0.33509200  0.90412100  0.50230000  1
  Ni  Ni85  1  0.33692400  0.09509900  0.98940700  1
  Ni  Ni86  1  0.32537200  0.25699200  0.65014400  1
  Ni  Ni87  1  0.83571100  0.99859500  0.40415200  1
  Ni  Ni88  1  0.82708100  0.34943200  0.25866900  1
  Ni  Ni89  1  0.83571100  0.00140500  0.59584800  1
  Ni  Ni90  1  0.67462800  0.24300800  0.15014400  1
  Ni  Ni91  1  0.16428900  0.49859500  0.09584800  1
  Ni  Ni92  1  0.66307600  0.09509900  0.98940700  1
  Ni  Ni93  1  0.83571100  0.49859500  0.09584800  1
  Ni  Ni94  1  0.34513700  0.75638900  0.65867500  1
  Ni  Ni95  1  0.84346600  0.84192100  0.74191900  1
  Ni  Ni96  1  0.16428900  0.50140500  0.90415200  1
  Ni  Ni97  1  0.16301200  0.48915300  0.59504300  1
  Ni  Ni98  1  0.17291900  0.34943200  0.25866900  1
  Ni  Ni99  1  0.67462800  0.75699200  0.84985600  1
  Ni  Ni100  1  0.83571100  0.50140500  0.90415200  1
  Ni  Ni101  1  0.32537200  0.75699200  0.84985600  1
  Ni  Ni102  1  0.33509200  0.40412100  0.99770000  1
  Ni  Ni103  1  0.34513700  0.24361100  0.34132500  1
  Ni  Ni104  1  0.83698800  0.48915300  0.59504300  1
  Ni  Ni105  1  0.33509200  0.59587900  0.00230000  1
  Ni  Ni106  1  0.84346600  0.65807900  0.24191900  1
  Ni  Ni107  1  0.65486300  0.25638900  0.84132500  1
  Ni  Ni108  1  0.66307600  0.40490100  0.48940700  1
  Ni  Ni109  1  0.83698800  0.98915300  0.90495700  1
  Ni  Ni110  1  0.33509200  0.09587900  0.49770000  1
  Ni  Ni111  1  0.66490800  0.90412100  0.50230000  1
  Ni  Ni112  1  0.66307600  0.59509900  0.51059300  1
  Ni  Ni113  1  0.66490800  0.59587900  0.00230000  1
  Ni  Ni114  1  0.16428900  0.99859500  0.40415200  1
  Ni  Ni115  1  0.16301200  0.98915300  0.90495700  1
  Ni  Ni116  1  0.34513700  0.74361100  0.15867500  1
  Ni  Ni117  1  0.17291900  0.84943200  0.24133100  1
  Ni  Ni118  1  0.34513700  0.25638900  0.84132500  1
  Ni  Ni119  1  0.66307600  0.90490100  0.01059300  1
  Cu  Cu120  1  0.36903700  0.51221900  0.25747600  1
  Cu  Cu121  1  0.86921400  0.75691900  0.01221200  1
  Cu  Cu122  1  0.00000000  0.49781800  0.74652500  1
  Cu  Cu123  1  0.36903700  0.48778100  0.74252400  1
  Cu  Cu124  1  0.00000000  0.99781800  0.75347500  1
  Cu  Cu125  1  0.13078600  0.25691900  0.48778800  1
  Cu  Cu126  1  0.00000000  0.00218200  0.24652500  1
  Cu  Cu127  1  0.00000000  0.50218200  0.25347500  1
  Cu  Cu128  1  0.36903700  0.98778100  0.75747600  1
  Cu  Cu129  1  0.63096300  0.98778100  0.75747600  1
  Cu  Cu130  1  0.13078600  0.24308100  0.98778800  1
  Cu  Cu131  1  0.50000000  0.75312500  0.00102700  1
  Cu  Cu132  1  0.36903700  0.01221900  0.24252400  1
  Cu  Cu133  1  0.50000000  0.74687500  0.50102700  1
  Cu  Cu134  1  0.50000000  0.24687500  0.99897300  1
  Cu  Cu135  1  0.63096300  0.48778100  0.74252400  1
  Cu  Cu136  1  0.86921400  0.24308100  0.98778800  1
  Cu  Cu137  1  0.13078600  0.74308100  0.51221200  1
  Cu  Cu138  1  0.50000000  0.25312500  0.49897300  1
  Cu  Cu139  1  0.86921400  0.25691900  0.48778800  1
  Cu  Cu140  1  0.86921400  0.74308100  0.51221200  1
  Cu  Cu141  1  0.63096300  0.01221900  0.24252400  1
  Cu  Cu142  1  0.63096300  0.51221900  0.25747600  1
  Cu  Cu143  1  0.13078600  0.75691900  0.01221200  1
