# generated using pymatgen
data_CuNiC10
_symmetry_space_group_name_H-M   'P 1'
_cell_length_a   9.88426784
_cell_length_b   9.88426784
_cell_length_c   5.81478900
_cell_angle_alpha   90.00000000
_cell_angle_beta   90.00000000
_cell_angle_gamma   119.99999892
_symmetry_Int_Tables_number   1
_chemical_formula_structural   CuNiC10
_chemical_formula_sum   'Cu2 Ni2 C20'
_cell_volume   491.98697693
_cell_formula_units_Z   2
loop_
 _symmetry_equiv_pos_site_id
 _symmetry_equiv_pos_as_xyz
  1  'x, y, z'
loop_
 _atom_site_type_symbol
 _atom_site_label
 _atom_site_symmetry_multiplicity
 _atom_site_fract_x
 _atom_site_fract_y
 _atom_site_fract_z
 _atom_site_occupancy
  C  C0  1  0.35695200  0.13105500  0.25413900  1
  C  C1  1  0.13105500  0.77410200  0.75413900  1
  C  C2  1  0.22589800  0.35695200  0.75413900  1
  C  C3  1  0.64304800  0.86894500  0.75413900  1
  C  C4  1  0.86894500  0.22589800  0.25413900  1
  C  C5  1  0.77410200  0.64304800  0.25413900  1
  Ni  Ni6  1  0.00000000  0.00000000  0.69572300  1
  Ni  Ni7  1  0.00000000  0.00000000  0.19572300  1
  Cu  Cu8  1  0.66666700  0.33333300  0.83619800  1
  Cu  Cu9  1  0.33333300  0.66666700  0.33619800  1
  C  C10  1  0.41983800  0.90151400  0.49901500  1
  C  C11  1  0.09800100  0.83903000  0.21690300  1
  C  C12  1  0.48167600  0.58016200  0.49901500  1
  C  C13  1  0.90151400  0.48167600  0.99901500  1
  C  C14  1  0.09848600  0.51832400  0.49901500  1
  C  C15  1  0.58016200  0.09848600  0.99901500  1
  C  C16  1  0.51832400  0.41983800  0.99901500  1
  C  C17  1  0.16097000  0.25897100  0.21690300  1
  C  C18  1  0.74102900  0.90199900  0.21690300  1
  C  C19  1  0.33333300  0.66666700  0.95720800  1
  C  C20  1  0.66666700  0.33333300  0.45720800  1
  C  C21  1  0.83903000  0.74102900  0.71690300  1
  C  C22  1  0.90199900  0.16097000  0.71690300  1
  C  C23  1  0.25897100  0.09800100  0.71690300  1
